@<TRIPOS>MOLECULE
NONAME
51 53 1 0 0 
SMALL
USER_CHARGES


@<TRIPOS>ATOM
  1 CL      -0.5110    -0.9930    -2.5110 Cl    1 <1>  -0.1770 
  2 C       -0.7060    -2.5100    -1.6680 C.ar  1 <1>   0.1770 
  3 C       -1.8970    -2.7750    -1.0180 C.ar  1 <1>  -0.1500 
  4 C        0.3340    -3.4190    -1.6640 C.ar  1 <1>  -0.1500 
  5 C       -2.0600    -3.9780    -0.3480 C.ar  1 <1>  -0.1440 
  6 C        0.1780    -4.6220    -0.9960 C.ar  1 <1>  -0.1500 
  7 C       -1.0200    -4.9060    -0.3410 C.ar  1 <1>   0.0830 
  8 C       -3.3700    -4.2730     0.3710 C.3   1 <1>  -0.0960 
  9 O       -1.2290    -6.0730     0.3180 O.3   1 <1>  -0.3630 
 10 C       -0.4300    -7.2190     0.0720 C.3   1 <1>   0.1810 
 11 C       -1.0650    -8.4670     0.6800 C.2   1 <1>   0.5690 
 12 O       -0.4200    -9.0670     1.5100 O.2   1 <1>  -0.5700 
 13 N       -2.3010    -8.9260     0.2830 N.am  1 <1>  -0.6600 
 14 C       -2.9530   -10.0320     1.0640 C.3   1 <1>   0.1400 
 15 C       -3.0910    -8.3480    -0.8550 C.3   1 <1>   0.1400 
 16 C       -4.0650   -10.6920     0.2280 C.3   1 <1>   0.4230 
 17 C       -4.5860    -8.3110    -0.5160 C.3   1 <1>  -0.1600 
 18 N       -4.6350   -11.9740     0.7610 N.4   1 <1>  -0.9590 
 19 C       -5.1900    -9.6730    -0.0470 C.3   1 <1>  -0.1060 
 20 C       -5.5360   -12.6230    -0.2290 C.3   1 <1>   0.3430 
 21 C       -3.6560   -12.9190     1.3610 C.3   1 <1>   0.2630 
 22 C       -6.0240    -9.4310     1.2260 C.2   1 <1>   0.9060 
 23 C       -6.0890   -10.2860    -1.1470 C.3   1 <1>  -0.1600 
 24 C       -6.6310   -11.6580    -0.7030 C.3   1 <1>  -0.1600 
 25 O       -6.8820    -8.5500     1.2120 O.co2 1 <1>  -0.9000 
 26 O       -5.8640   -10.1670     2.2130 O.co2 1 <1>  -0.9000 
 27 H       -2.6810    -2.0400    -1.0420 H     1 <1>   0.1500 
 28 H        1.2500    -3.1830    -2.1740 H     1 <1>   0.1500 
 29 H        0.9970    -5.3160    -0.9890 H     1 <1>   0.1500 
 30 H       -4.0320    -3.4270     0.3400 H     1 <1>   0.0800 
 31 H       -3.1770    -4.5170     1.4010 H     1 <1>   0.0800 
 32 H       -3.8620    -5.1100    -0.0910 H     1 <1>   0.0800 
 33 H       -0.3280    -7.3490    -0.9890 H     1 <1>   0.0800 
 34 H        0.5350    -7.0540     0.5160 H     1 <1>   0.0800 
 35 H       -2.2000   -10.7550     1.3190 H     1 <1>   0.0800 
 36 H       -3.3610    -9.6240     1.9730 H     1 <1>   0.0800 
 37 H       -2.7680    -7.3490    -1.0840 H     1 <1>   0.0800 
 38 H       -2.9350    -8.9510    -1.7330 H     1 <1>   0.0800 
 39 H       -3.6080   -10.9280    -0.7170 H     1 <1>   0.0800 
 40 H       -4.7040    -7.5790     0.2670 H     1 <1>   0.0800 
 41 H       -5.1370    -7.9280    -1.3570 H     1 <1>   0.0800 
 42 H       -5.2460   -11.6020     1.5390 H     1 <1>   0.4500 
 43 H       -4.9570   -12.9450    -1.0790 H     1 <1>   0.0800 
 44 H       -5.9990   -13.4900     0.2140 H     1 <1>   0.0800 
 45 H       -2.9390   -13.2370     0.6230 H     1 <1>   0.0800 
 46 H       -4.1680   -13.7840     1.7500 H     1 <1>   0.0800 
 47 H       -3.1340   -12.4430     2.1760 H     1 <1>   0.0800 
 48 H       -6.9200    -9.6250    -1.3390 H     1 <1>   0.0800 
 49 H       -5.5320   -10.3920    -2.0620 H     1 <1>   0.0800 
 50 H       -7.1690   -12.1090    -1.5180 H     1 <1>   0.0800 
 51 H       -7.3380   -11.5210     0.0980 H     1 <1>   0.0800 
@<TRIPOS>BOND
  1   1   2  1   
  2   2   3  ar  
  3   2   4  ar  
  4   3   5  ar  
  5   3  27  1   
  6   4   6  ar  
  7   4  28  1   
  8   5   7  ar  
  9   5   8  1   
 10   6   7  ar  
 11   6  29  1   
 12   7   9  1   
 13   8  30  1   
 14   8  31  1   
 15   8  32  1   
 16   9  10  1   
 17  10  11  1   
 18  10  33  1   
 19  10  34  1   
 20  11  12  2   
 21  11  13  am  
 22  13  14  1   
 23  13  15  1   
 24  14  16  1   
 25  14  35  1   
 26  14  36  1   
 27  15  17  1   
 28  15  37  1   
 29  15  38  1   
 30  16  18  1   
 31  16  19  1   
 32  16  39  1   
 33  17  19  1   
 34  17  40  1   
 35  17  41  1   
 36  18  20  1   
 37  18  21  1   
 38  18  42  1   
 39  19  22  1   
 40  19  23  1   
 41  20  24  1   
 42  20  43  1   
 43  20  44  1   
 44  21  45  1   
 45  21  46  1   
 46  21  47  1   
 47  22  25  ar  
 48  22  26  ar  
 49  23  24  1   
 50  23  48  1   
 51  23  49  1   
 52  24  50  1   
 53  24  51  1   
@<TRIPOS>SUBSTRUCTURE
  1 ****  15 GROUP 4 **** **** 0

# MOE 2024.06 (io_trps.svl 2023.06)
