@<TRIPOS>MOLECULE
NONAME
48 50 1 0 0 
SMALL
USER_CHARGES


@<TRIPOS>ATOM
  1 O       -1.2260     3.2740     2.8160 O.co2 1 <1>  -0.9000 
  2 C       -1.6490     2.7600     1.7590 C.2   1 <1>   0.9790 
  3 O       -2.5090     1.8610     1.8620 O.co2 1 <1>  -0.9000 
  4 C       -1.1890     3.1910     0.4320 C.ar  1 <1>   0.1310 
  5 N       -0.1220     3.9980     0.2750 N.ar  1 <1>  -0.6200 
  6 C       -1.9070     2.7360    -0.6780 C.ar  1 <1>   0.1600 
  7 C        0.1460     4.3320    -0.9740 C.ar  1 <1>   0.4100 
  8 N       -1.6540     3.0430    -1.9460 N.ar  1 <1>  -0.6200 
  9 N        1.2340     5.1840    -1.1620 N.pl3 1 <1>  -0.8380 
 10 C       -0.6200     3.8540    -2.0470 C.ar  1 <1>   0.1600 
 11 C        1.6240     5.9920     0.0240 C.3   1 <1>   0.2090 
 12 C        2.3960     4.6020    -1.8790 C.3   1 <1>   0.2090 
 13 C        2.5440     7.1430    -0.3810 C.3   1 <1>  -0.0800 
 14 C        3.3440     5.7240    -2.3170 C.3   1 <1>  -0.1600 
 15 C        3.7800     6.6080    -1.1360 C.3   1 <1>  -0.1600 
 16 C        2.8960     7.9070     0.9010 C.3   1 <1>   0.3430 
 17 N        3.8150     9.0470     0.6370 N.4   1 <1>  -0.9590 
 18 C        4.4140     9.6270     1.8840 C.3   1 <1>   0.3430 
 19 C        3.2430    10.1370    -0.2240 C.3   1 <1>   0.3430 
 20 C        5.4750    10.7040     1.5430 C.3   1 <1>   0.1100 
 21 C        4.3080    11.2190    -0.5330 C.3   1 <1>   0.1100 
 22 N        5.6190    10.9070     0.0820 N.3   1 <1>  -0.8100 
 23 C        6.6140    11.9460    -0.2190 C.3   1 <1>   0.0300 
 24 H       -2.7440     2.0810    -0.4990 H     1 <1>   0.1500 
 25 H       -0.3420     4.1800    -3.0290 H     1 <1>   0.1500 
 26 H        2.1140     5.3480     0.7380 H     1 <1>   0.0800 
 27 H        0.7340     6.3860     0.4890 H     1 <1>   0.0800 
 28 H        2.0600     4.0530    -2.7420 H     1 <1>   0.0800 
 29 H        2.9070     3.9170    -1.2230 H     1 <1>   0.0800 
 30 H        1.9710     7.7800    -1.0310 H     1 <1>   0.0800 
 31 H        2.8420     6.3240    -3.0560 H     1 <1>   0.0800 
 32 H        4.2100     5.2890    -2.7840 H     1 <1>   0.0800 
 33 H        4.3860     6.0180    -0.4680 H     1 <1>   0.0800 
 34 H        4.3800     7.4170    -1.5130 H     1 <1>   0.0800 
 35 H        3.3670     7.2220     1.5870 H     1 <1>   0.0800 
 36 H        1.9910     8.2670     1.3630 H     1 <1>   0.0800 
 37 H        4.6370     8.7220     0.1030 H     1 <1>   0.4500 
 38 H        4.8840     8.8480     2.4630 H     1 <1>   0.0800 
 39 H        3.6430    10.0690     2.4930 H     1 <1>   0.0800 
 40 H        2.4030    10.5960     0.2700 H     1 <1>   0.0800 
 41 H        2.8920     9.7250    -1.1550 H     1 <1>   0.0800 
 42 H        6.4230    10.4000     1.9540 H     1 <1>   0.0800 
 43 H        5.2010    11.6310     2.0170 H     1 <1>   0.0800 
 44 H        3.9550    12.1740    -0.1810 H     1 <1>   0.0800 
 45 H        4.4260    11.2940    -1.6010 H     1 <1>   0.0800 
 46 H        7.5680    11.6760     0.2020 H     1 <1>   0.0800 
 47 H        6.3100    12.8960     0.1870 H     1 <1>   0.0800 
 48 H        6.7330    12.0440    -1.2850 H     1 <1>   0.0800 
@<TRIPOS>BOND
  1   1   2  ar  
  2   2   3  ar  
  3   2   4  1   
  4   4   5  ar  
  5   4   6  ar  
  6   5   7  ar  
  7   6   8  ar  
  8   6  24  1   
  9   7   9  1   
 10   7  10  ar  
 11   8  10  ar  
 12   9  11  1   
 13   9  12  1   
 14  10  25  1   
 15  11  13  1   
 16  11  26  1   
 17  11  27  1   
 18  12  14  1   
 19  12  28  1   
 20  12  29  1   
 21  13  15  1   
 22  13  16  1   
 23  13  30  1   
 24  14  15  1   
 25  14  31  1   
 26  14  32  1   
 27  15  33  1   
 28  15  34  1   
 29  16  17  1   
 30  16  35  1   
 31  16  36  1   
 32  17  18  1   
 33  17  19  1   
 34  17  37  1   
 35  18  20  1   
 36  18  38  1   
 37  18  39  1   
 38  19  21  1   
 39  19  40  1   
 40  19  41  1   
 41  20  22  1   
 42  20  42  1   
 43  20  43  1   
 44  21  22  1   
 45  21  44  1   
 46  21  45  1   
 47  22  23  1   
 48  23  46  1   
 49  23  47  1   
 50  23  48  1   
@<TRIPOS>SUBSTRUCTURE
  1 ****  11 GROUP 4 **** **** 0

# MOE 2024.06 (io_trps.svl 2023.06)
