@<TRIPOS>MOLECULE
NONAME
54 56 1 0 0 
SMALL
USER_CHARGES


@<TRIPOS>ATOM
  1 O        0.9330     1.6740     2.3940 O.2   1 <1>  -0.5700 
  2 C        1.1110     1.6650     1.2000 C.2   1 <1>   0.5690 
  3 N        0.3460     2.2870     0.2750 N.am  1 <1>  -0.6600 
  4 C        2.2530     0.9390     0.5460 C.3   1 <1>  -0.0990 
  5 C        0.8410     2.0980    -1.0990 C.3   1 <1>   0.1400 
  6 C       -0.8630     3.0890     0.5680 C.3   1 <1>   0.1400 
  7 C        2.2110     1.4320    -0.9110 C.3   1 <1>  -0.1600 
  8 C       -2.0930     2.4500    -0.0790 C.3   1 <1>  -0.1600 
  9 C       -3.3870     3.1720     0.3420 C.3   1 <1>  -0.0990 
 10 C       -4.6510     2.6490    -0.3350 C.2   1 <1>   0.5690 
 11 O       -4.5710     1.6590    -1.0260 O.2   1 <1>  -0.5700 
 12 N       -5.8430     3.3050    -0.1560 N.am  1 <1>  -0.6600 
 13 C       -6.0140     4.4700     0.7640 C.3   1 <1>   0.1400 
 14 C       -7.0520     2.8740    -0.9200 C.3   1 <1>   0.1400 
 15 C       -7.4770     4.5960     1.1880 C.3   1 <1>  -0.1600 
 16 C       -7.9290     4.0810    -1.2640 C.3   1 <1>  -0.1600 
 17 C       -8.3880     4.8870    -0.0230 C.3   1 <1>   0.2800 
 18 O       -8.2190     6.2370    -0.3840 O.3   1 <1>  -0.5600 
 19 C       -9.8740     4.6020     0.3190 C.3   1 <1>  -0.1600 
 20 C       -8.9400     7.2080     0.3210 C.3   1 <1>   0.1200 
 21 C      -10.8320     5.6110    -0.3210 C.3   1 <1>   0.2800 
 22 C      -10.4530     7.0290     0.1160 C.3   1 <1>  -0.1600 
 23 O      -10.6650     5.5520    -1.6790 O.3   1 <1>  -0.6800 
 24 C      -12.2980     5.2880    -0.0450 C.3   1 <1>  -0.2400 
 25 H        2.0690    -0.1180     0.6050 H     1 <1>   0.0800 
 26 H        3.1820     1.1810     1.0280 H     1 <1>   0.0800 
 27 H        0.9270     3.0430    -1.6070 H     1 <1>   0.0800 
 28 H        0.1700     1.4480    -1.6360 H     1 <1>   0.0800 
 29 H       -0.7220     4.0900     0.2000 H     1 <1>   0.0800 
 30 H       -1.0000     3.1380     1.6360 H     1 <1>   0.0800 
 31 H        2.3570     0.6300    -1.6120 H     1 <1>   0.0800 
 32 H        2.9800     2.1690    -1.0650 H     1 <1>   0.0800 
 33 H       -2.1570     1.4180     0.2180 H     1 <1>   0.0800 
 34 H       -2.0010     2.4930    -1.1500 H     1 <1>   0.0800 
 35 H       -3.2930     4.2170     0.1090 H     1 <1>   0.0800 
 36 H       -3.5080     3.0680     1.4050 H     1 <1>   0.0800 
 37 H       -5.7060     5.3700     0.2570 H     1 <1>   0.0800 
 38 H       -5.4060     4.3410     1.6410 H     1 <1>   0.0800 
 39 H       -7.6080     2.1670    -0.3280 H     1 <1>   0.0800 
 40 H       -6.7550     2.3810    -1.8310 H     1 <1>   0.0800 
 41 H       -7.5730     5.3640     1.9310 H     1 <1>   0.0800 
 42 H       -7.7690     3.6710     1.6530 H     1 <1>   0.0800 
 43 H       -8.7750     3.7300    -1.8250 H     1 <1>   0.0800 
 44 H       -7.3560     4.7120    -1.9200 H     1 <1>   0.0800 
 45 H      -10.0060     4.6580     1.3850 H     1 <1>   0.0800 
 46 H      -10.1430     3.6000     0.0390 H     1 <1>   0.0800 
 47 H       -8.6270     8.1740    -0.0380 H     1 <1>   0.0800 
 48 H       -8.6870     7.1370     1.3630 H     1 <1>   0.0800 
 49 H      -10.8180     7.7450    -0.5990 H     1 <1>   0.0800 
 50 H      -10.9320     7.2550     1.0510 H     1 <1>   0.0800 
 51 H       -9.7430     5.8350    -1.8600 H     1 <1>   0.4000 
 52 H      -12.4930     5.3100     1.0120 H     1 <1>   0.0800 
 53 H      -12.5390     4.3080    -0.4160 H     1 <1>   0.0800 
 54 H      -12.9330     6.0110    -0.5250 H     1 <1>   0.0800 
@<TRIPOS>BOND
  1   1   2  2   
  2   2   3  am  
  3   2   4  1   
  4   3   5  1   
  5   3   6  1   
  6   4   7  1   
  7   4  25  1   
  8   4  26  1   
  9   5   7  1   
 10   5  27  1   
 11   5  28  1   
 12   6   8  1   
 13   6  29  1   
 14   6  30  1   
 15   7  31  1   
 16   7  32  1   
 17   8   9  1   
 18   8  33  1   
 19   8  34  1   
 20   9  10  1   
 21   9  35  1   
 22   9  36  1   
 23  10  11  2   
 24  10  12  am  
 25  12  13  1   
 26  12  14  1   
 27  13  15  1   
 28  13  37  1   
 29  13  38  1   
 30  14  16  1   
 31  14  39  1   
 32  14  40  1   
 33  15  17  1   
 34  15  41  1   
 35  15  42  1   
 36  16  17  1   
 37  16  43  1   
 38  16  44  1   
 39  17  18  1   
 40  17  19  1   
 41  18  20  1   
 42  19  21  1   
 43  19  45  1   
 44  19  46  1   
 45  20  22  1   
 46  20  47  1   
 47  20  48  1   
 48  21  22  1   
 49  21  23  1   
 50  21  24  1   
 51  22  49  1   
 52  22  50  1   
 53  23  51  1   
 54  24  52  1   
 55  24  53  1   
 56  24  54  1   
@<TRIPOS>SUBSTRUCTURE
  1 ****  12 GROUP 4 **** **** 0

# MOE 2024.06 (io_trps.svl 2023.06)
