@<TRIPOS>MOLECULE
NONAME
49 51 1 0 0 
SMALL
USER_CHARGES


@<TRIPOS>ATOM
  1 F       -1.4730    -2.8400     3.1990 F     1 <1>  -0.1900 
  2 C       -1.8240    -3.6160     2.2050 C.ar  1 <1>   0.1900 
  3 C       -0.8890    -4.3660     1.4830 C.ar  1 <1>   0.0830 
  4 C       -3.1710    -3.6580     1.9040 C.ar  1 <1>  -0.1500 
  5 O        0.4600    -4.4110     1.6840 O.3   1 <1>  -0.3630 
  6 C       -1.3610    -5.1580     0.4500 C.ar  1 <1>  -0.1500 
  7 C       -3.6070    -4.4600     0.8650 C.ar  1 <1>  -0.1500 
  8 C        1.1130    -3.6760     2.6960 C.3   1 <1>   0.0400 
  9 C       -2.7170    -5.2310     0.1150 C.ar  1 <1>   0.0530 
 10 C       -3.1670    -6.0740    -0.9690 C.2   1 <1>   0.0870 
 11 O       -2.3160    -6.4760    -1.8880 O.3   1 <1>  -0.0190 
 12 C       -4.3670    -6.6240    -1.2890 C.2   1 <1>  -0.2330 
 13 N       -2.8650    -7.2480    -2.7910 N.2   1 <1>  -0.4100 
 14 C       -4.1010    -7.3250    -2.4620 C.2   1 <1>   0.3720 
 15 C       -5.6220    -6.6920    -0.6140 C.2   1 <1>   1.0330 
 16 N       -5.0590    -8.0470    -3.1590 N.pl3 1 <1>  -0.8520 
 17 O       -5.6650    -6.8200     0.6220 O.co2 1 <1>  -0.9000 
 18 O       -6.6810    -6.8900    -1.2380 O.co2 1 <1>  -0.9000 
 19 C       -4.9160    -9.5160    -3.2180 C.3   1 <1>   0.2090 
 20 C       -5.8290   -10.1670    -2.1720 C.3   1 <1>  -0.1600 
 21 C       -5.3100    -9.8870    -0.7580 C.3   1 <1>   0.3430 
 22 N       -6.3160   -10.1220     0.3170 N.4   1 <1>  -0.9590 
 23 C       -7.5710    -9.2970     0.1800 C.3   1 <1>   0.3430 
 24 C       -5.7050    -9.7490     1.6410 C.3   1 <1>   0.3430 
 25 C       -8.5780    -9.6410     1.3000 C.3   1 <1>   0.1200 
 26 C       -6.7540    -9.6620     2.7740 C.3   1 <1>   0.1200 
 27 O       -7.9530   -10.2800     2.3870 O.3   1 <1>  -0.5600 
 28 H       -3.8690    -3.0730     2.4750 H     1 <1>   0.1500 
 29 H       -0.6490    -5.7370    -0.1100 H     1 <1>   0.1500 
 30 H       -4.6580    -4.4870     0.6380 H     1 <1>   0.1500 
 31 H        2.1640    -3.8930     2.6410 H     1 <1>   0.0800 
 32 H        0.7280    -3.9810     3.6540 H     1 <1>   0.0800 
 33 H        0.9480    -2.6270     2.5300 H     1 <1>   0.0800 
 34 H       -5.9890    -7.7540    -2.7930 H     1 <1>   0.4000 
 35 H       -3.8870    -9.7950    -3.0620 H     1 <1>   0.0800 
 36 H       -5.2030    -9.8420    -4.2040 H     1 <1>   0.0800 
 37 H       -5.8450   -11.2290    -2.3360 H     1 <1>   0.0800 
 38 H       -6.8190    -9.7820    -2.3250 H     1 <1>   0.0800 
 39 H       -4.9840    -8.8700    -0.7010 H     1 <1>   0.0800 
 40 H       -4.4420   -10.4990    -0.5790 H     1 <1>   0.0800 
 41 H       -6.6080   -11.1030     0.3720 H     1 <1>   0.4500 
 42 H       -8.0350    -9.4290    -0.7810 H     1 <1>   0.0800 
 43 H       -7.3310    -8.2550     0.2820 H     1 <1>   0.0800 
 44 H       -5.2150    -8.7920     1.5640 H     1 <1>   0.0800 
 45 H       -4.9550   -10.4730     1.9110 H     1 <1>   0.0800 
 46 H       -9.3380   -10.3030     0.9260 H     1 <1>   0.0800 
 47 H       -9.0530    -8.7430     1.6540 H     1 <1>   0.0800 
 48 H       -6.9580    -8.6300     3.0090 H     1 <1>   0.0800 
 49 H       -6.3910   -10.1490     3.6620 H     1 <1>   0.0800 
@<TRIPOS>BOND
  1   1   2  1   
  2   2   3  ar  
  3   2   4  ar  
  4   3   5  1   
  5   3   6  ar  
  6   4   7  ar  
  7   4  28  1   
  8   5   8  1   
  9   6   9  ar  
 10   6  29  1   
 11   7   9  ar  
 12   7  30  1   
 13   8  31  1   
 14   8  32  1   
 15   8  33  1   
 16   9  10  1   
 17  10  11  1   
 18  10  12  2   
 19  11  13  1   
 20  12  14  1   
 21  12  15  1   
 22  13  14  2   
 23  14  16  1   
 24  15  17  ar  
 25  15  18  ar  
 26  16  19  1   
 27  16  34  1   
 28  19  20  1   
 29  19  35  1   
 30  19  36  1   
 31  20  21  1   
 32  20  37  1   
 33  20  38  1   
 34  21  22  1   
 35  21  39  1   
 36  21  40  1   
 37  22  23  1   
 38  22  24  1   
 39  22  41  1   
 40  23  25  1   
 41  23  42  1   
 42  23  43  1   
 43  24  26  1   
 44  24  44  1   
 45  24  45  1   
 46  25  27  1   
 47  25  46  1   
 48  25  47  1   
 49  26  27  1   
 50  26  48  1   
 51  26  49  1   
@<TRIPOS>SUBSTRUCTURE
  1 ****  12 GROUP 4 **** **** 0

# MOE 2024.06 (io_trps.svl 2023.06)
