@<TRIPOS>MOLECULE
NONAME
48 50 1 0 0 
SMALL
USER_CHARGES


@<TRIPOS>ATOM
  1 O        0.6980     1.4440    -1.8650 O.3   1 <1>  -0.6800 
  2 C        1.4610     2.1400    -0.9390 C.3   1 <1>   0.2000 
  3 C        0.7340     3.3890    -0.4330 C.3   1 <1>   0.2090 
  4 C        2.7140     2.6700    -1.6160 C.3   1 <1>  -0.1600 
  5 N        1.7920     4.4260    -0.2640 N.pl3 1 <1>  -0.8380 
  6 C        3.0750     3.9220    -0.8260 C.3   1 <1>   0.2090 
  7 C        1.6410     5.6640     0.2690 C.ar  1 <1>   0.4100 
  8 N        2.7250     6.4070     0.4050 N.ar  1 <1>  -0.6200 
  9 C        0.3740     6.1400     0.6650 C.ar  1 <1>  -0.1500 
 10 C        2.5900     7.6110     0.9180 C.ar  1 <1>   0.7710 
 11 C        0.2700     7.3820     1.1930 C.ar  1 <1>   0.2110 
 12 N        1.4060     8.1120     1.3130 N.ar  1 <1>  -0.1790 
 13 N        3.7150     8.3250     1.0370 N.pl3 1 <1>  -0.8690 
 14 C        4.0160     9.6940     1.5130 C.3   1 <1>   0.2090 
 15 C        5.2280    10.2140     0.7410 C.3   1 <1>  -0.1600 
 16 C        5.6300    11.6230     1.1980 C.3   1 <1>   0.0960 
 17 N        6.8480    12.0620     0.4860 N.pl3 1 <1>   0.0480 
 18 C        6.9690    12.8030    -0.6450 C.2   1 <1>   0.0060 
 19 C        8.1120    11.7810     0.8540 C.2   1 <1>  -0.3020 
 20 N        8.2010    12.9970    -0.9980 N.2   1 <1>  -0.5650 
 21 C        5.7640    13.3460    -1.4090 C.3   1 <1>   0.0200 
 22 C        8.9190    12.3580    -0.0600 C.2   1 <1>   0.0770 
 23 C        6.1360    14.0410    -2.7250 C.3   1 <1>  -0.2400 
 24 H       -0.0250     0.9540    -1.4270 H     1 <1>   0.4000 
 25 H        1.7120     1.4850    -0.1220 H     1 <1>   0.0800 
 26 H        0.2440     3.1890     0.5030 H     1 <1>   0.0800 
 27 H        0.0260     3.7260    -1.1700 H     1 <1>   0.0800 
 28 H        2.4980     2.9540    -2.6310 H     1 <1>   0.0800 
 29 H        3.5140     1.9530    -1.6050 H     1 <1>   0.0800 
 30 H        3.5380     4.6600    -1.4600 H     1 <1>   0.0800 
 31 H        3.7420     3.6770    -0.0170 H     1 <1>   0.0800 
 32 H       -0.4870     5.5130     0.5380 H     1 <1>   0.1500 
 33 H       -0.6690     7.8050     1.5150 H     1 <1>   0.1500 
 34 H        1.4200     9.0450     1.7060 H     1 <1>   0.4570 
 35 H        4.5470     7.8060     0.7260 H     1 <1>   0.4000 
 36 H        4.2440     9.6630     2.5670 H     1 <1>   0.0800 
 37 H        3.1740    10.3470     1.3520 H     1 <1>   0.0800 
 38 H        5.0010    10.2370    -0.3110 H     1 <1>   0.0800 
 39 H        6.0600     9.5500     0.9030 H     1 <1>   0.0800 
 40 H        5.8410    11.6280     2.2530 H     1 <1>   0.0800 
 41 H        4.8410    12.3260     1.0060 H     1 <1>   0.0800 
 42 H        8.3700    11.2040     1.7220 H     1 <1>   0.1500 
 43 H        5.2480    14.0510    -0.7820 H     1 <1>   0.0800 
 44 H        5.0960    12.5340    -1.6290 H     1 <1>   0.0800 
 45 H        9.9960    12.3490    -0.0940 H     1 <1>   0.1500 
 46 H        6.7870    14.8760    -2.5290 H     1 <1>   0.0800 
 47 H        5.2540    14.3970    -3.2250 H     1 <1>   0.0800 
 48 H        6.6520    13.3530    -3.3720 H     1 <1>   0.0800 
@<TRIPOS>BOND
  1   1   2  1   
  2   1  24  1   
  3   2   3  1   
  4   2   4  1   
  5   2  25  1   
  6   3   5  1   
  7   3  26  1   
  8   3  27  1   
  9   4   6  1   
 10   4  28  1   
 11   4  29  1   
 12   5   6  1   
 13   5   7  1   
 14   6  30  1   
 15   6  31  1   
 16   7   8  ar  
 17   7   9  ar  
 18   8  10  ar  
 19   9  11  ar  
 20   9  32  1   
 21  10  12  ar  
 22  10  13  1   
 23  11  12  ar  
 24  11  33  1   
 25  12  34  1   
 26  13  14  1   
 27  13  35  1   
 28  14  15  1   
 29  14  36  1   
 30  14  37  1   
 31  15  16  1   
 32  15  38  1   
 33  15  39  1   
 34  16  17  1   
 35  16  40  1   
 36  16  41  1   
 37  17  18  1   
 38  17  19  1   
 39  18  20  2   
 40  18  21  1   
 41  19  22  2   
 42  19  42  1   
 43  20  22  1   
 44  21  23  1   
 45  21  43  1   
 46  21  44  1   
 47  22  45  1   
 48  23  46  1   
 49  23  47  1   
 50  23  48  1   
@<TRIPOS>SUBSTRUCTURE
  1 ****  13 GROUP 4 **** **** 0

# MOE 2024.06 (io_trps.svl 2023.06)
