@<TRIPOS>MOLECULE
NONAME
44 45 1 0 0 
SMALL
USER_CHARGES


@<TRIPOS>ATOM
  1 O       -2.2150    -0.0650     1.9170 O.2   1 <1>  -0.5700 
  2 C       -2.0110     0.3420     0.7790 C.2   1 <1>   0.6160 
  3 N       -1.5850     1.6570     0.6040 N.am  1 <1>  -0.4690 
  4 C       -2.2160    -0.4720    -0.3790 C.2   1 <1>   0.0290 
  5 C       -1.3670     2.1630    -0.6560 C.2   1 <1>  -0.0410 
  6 C       -1.3490     2.5110     1.7980 C.3   1 <1>   0.0600 
  7 C       -2.6440    -1.8300    -0.2100 C.2   1 <1>   0.6160 
  8 C       -1.9840     0.0590    -1.6230 C.2   1 <1>  -0.1500 
  9 C       -1.5580     1.3940    -1.7610 C.2   1 <1>  -0.1500 
 10 O       -1.8310    -2.7220    -0.3740 O.2   1 <1>  -0.5700 
 11 N       -3.9670    -2.1560     0.0170 N.am  1 <1>  -0.6600 
 12 C       -4.4420    -3.5900    -0.0210 C.3   1 <1>   0.1400 
 13 C       -5.0250    -1.1250     0.2730 C.3   1 <1>   0.1400 
 14 C       -5.7960    -3.6650    -0.7440 C.3   1 <1>   0.2000 
 15 C       -6.2820    -1.7480     0.8910 C.3   1 <1>  -0.1600 
 16 O       -5.6090    -3.0310    -1.9750 O.3   1 <1>  -0.6800 
 17 C       -6.9010    -2.9590     0.1070 C.3   1 <1>  -0.1060 
 18 C       -7.4190    -3.9910     1.1410 C.2   1 <1>   0.9060 
 19 C       -8.0650    -2.4880    -0.8240 C.3   1 <1>  -0.1600 
 20 O       -7.9870    -3.5920     2.1670 O.co2 1 <1>  -0.9000 
 21 O       -7.2410    -5.2020     0.9550 O.co2 1 <1>  -0.9000 
 22 C       -9.3640    -2.0500    -0.1240 C.3   1 <1>  -0.1600 
 23 C      -10.3820    -1.5150    -1.1360 C.3   1 <1>  -0.2400 
 24 H       -1.0370     3.1860    -0.7390 H     1 <1>   0.1500 
 25 H       -1.0190     3.4920     1.5060 H     1 <1>   0.0800 
 26 H       -0.5970     2.0570     2.4190 H     1 <1>   0.0800 
 27 H       -2.2610     2.5980     2.3630 H     1 <1>   0.0800 
 28 H       -2.1180    -0.5400    -2.5080 H     1 <1>   0.1500 
 29 H       -1.3850     1.7840    -2.7500 H     1 <1>   0.1500 
 30 H       -3.7350    -4.2170    -0.5350 H     1 <1>   0.0800 
 31 H       -4.5460    -3.9670     0.9820 H     1 <1>   0.0800 
 32 H       -4.6490    -0.3770     0.9490 H     1 <1>   0.0800 
 33 H       -5.2870    -0.6440    -0.6540 H     1 <1>   0.0800 
 34 H       -6.0600    -4.6850    -0.9630 H     1 <1>   0.0800 
 35 H       -5.9980    -2.0760     1.8770 H     1 <1>   0.0800 
 36 H       -7.0180    -0.9820     1.0430 H     1 <1>   0.0800 
 37 H       -4.9710    -2.3120    -1.8020 H     1 <1>   0.4000 
 38 H       -7.7160    -1.6770    -1.4370 H     1 <1>   0.0800 
 39 H       -8.3110    -3.3050    -1.4830 H     1 <1>   0.0800 
 40 H       -9.7960    -2.8920     0.3920 H     1 <1>   0.0800 
 41 H       -9.1630    -1.2920     0.6110 H     1 <1>   0.0800 
 42 H      -10.6180    -2.2740    -1.8610 H     1 <1>   0.0800 
 43 H       -9.9870    -0.6550    -1.6460 H     1 <1>   0.0800 
 44 H      -11.2860    -1.2310    -0.6280 H     1 <1>   0.0800 
@<TRIPOS>BOND
  1   1   2  2   
  2   2   3  am  
  3   2   4  1   
  4   3   5  1   
  5   3   6  1   
  6   4   7  1   
  7   4   8  2   
  8   5   9  2   
  9   5  24  1   
 10   6  25  1   
 11   6  26  1   
 12   6  27  1   
 13   7  10  2   
 14   7  11  am  
 15   8   9  1   
 16   8  28  1   
 17   9  29  1   
 18  11  12  1   
 19  11  13  1   
 20  12  14  1   
 21  12  30  1   
 22  12  31  1   
 23  13  15  1   
 24  13  32  1   
 25  13  33  1   
 26  14  16  1   
 27  14  17  1   
 28  14  34  1   
 29  15  17  1   
 30  15  35  1   
 31  15  36  1   
 32  16  37  1   
 33  17  18  1   
 34  17  19  1   
 35  18  20  ar  
 36  18  21  ar  
 37  19  22  1   
 38  19  38  1   
 39  19  39  1   
 40  22  23  1   
 41  22  40  1   
 42  22  41  1   
 43  23  42  1   
 44  23  43  1   
 45  23  44  1   
@<TRIPOS>SUBSTRUCTURE
  1 ****  13 GROUP 4 **** **** 0

# MOE 2024.06 (io_trps.svl 2023.06)
