@<TRIPOS>MOLECULE
NONAME
51 53 1 0 0 
SMALL
USER_CHARGES


@<TRIPOS>ATOM
  1 O        0.7790    -0.1260     0.3910 O.2   1 <1>  -0.5700 
  2 C        1.7950    -0.7470     0.1890 C.2   1 <1>   0.5690 
  3 N        3.0280    -0.1430     0.1960 N.am  1 <1>  -0.6600 
  4 C        1.6670    -2.2360    -0.0830 C.3   1 <1>  -0.0990 
  5 C        4.3200    -0.8280    -0.1410 C.3   1 <1>   0.1400 
  6 C        3.1520     1.3000     0.5570 C.3   1 <1>   0.1400 
  7 C        0.2260    -2.7400     0.0770 C.3   1 <1>   0.0960 
  8 C        5.0220    -0.1820    -1.3440 C.3   1 <1>   0.1400 
  9 C        3.2880     2.1470    -0.7150 C.3   1 <1>  -0.1600 
 10 N        0.1650    -4.1880    -0.1910 N.pl3 1 <1>   0.0480 
 11 N        5.5990     1.1430    -0.9700 N.am  1 <1>  -0.6600 
 12 C        4.7290     2.3310    -1.2170 C.3   1 <1>   0.1400 
 13 C        0.4100    -5.2000     0.6420 C.2   1 <1>   0.0360 
 14 C       -0.1120    -4.8140    -1.3350 C.2   1 <1>   0.0360 
 15 C        6.8430     1.1870    -0.3890 C.2   1 <1>   0.5690 
 16 N        0.2960    -6.3410     0.0570 N.2   1 <1>  -0.3380 
 17 N       -0.0390    -6.0940    -1.2110 N.2   1 <1>  -0.3380 
 18 O        7.4210     0.1700    -0.0830 O.2   1 <1>  -0.5700 
 19 C        7.5220     2.5250    -0.1030 C.3   1 <1>  -0.0990 
 20 C        9.0040     2.4070     0.3030 C.3   1 <1>  -0.1600 
 21 C        9.6460     3.7780     0.5530 C.3   1 <1>   0.0210 
 22 C       11.1080     3.6630     0.9560 C.2   1 <1>  -0.1810 
 23 C       11.9570     4.7330     1.2260 C.2   1 <1>   0.1390 
 24 C       11.8780     2.5690     1.1370 C.2   1 <1>  -0.3020 
 25 N       13.1540     4.3480     1.5470 N.2   1 <1>  -0.7070 
 26 N       13.1020     3.0040     1.4910 N.pl3 1 <1>   0.3000 
 27 H        2.2990    -2.7620     0.6080 H     1 <1>   0.0800 
 28 H        1.9990    -2.4260    -1.0870 H     1 <1>   0.0800 
 29 H        4.1540    -1.8620    -0.3750 H     1 <1>   0.0800 
 30 H        4.9770    -0.7970     0.7120 H     1 <1>   0.0800 
 31 H        3.9970     1.4470     1.2090 H     1 <1>   0.0800 
 32 H        2.2730     1.6140     1.0940 H     1 <1>   0.0800 
 33 H       -0.4260    -2.2290    -0.6110 H     1 <1>   0.0800 
 34 H       -0.1240    -2.5540     1.0770 H     1 <1>   0.0800 
 35 H        4.3350    -0.0780    -2.1650 H     1 <1>   0.0800 
 36 H        5.8180    -0.8300    -1.6670 H     1 <1>   0.0800 
 37 H        2.8900     3.1250    -0.5130 H     1 <1>   0.0800 
 38 H        2.6760     1.7260    -1.4930 H     1 <1>   0.0800 
 39 H        5.1390     3.1910    -0.7200 H     1 <1>   0.0800 
 40 H        4.7150     2.5440    -2.2720 H     1 <1>   0.0800 
 41 H        0.6730    -5.0640     1.6760 H     1 <1>   0.1500 
 42 H       -0.3620    -4.2990    -2.2450 H     1 <1>   0.1500 
 43 H        6.9810     3.0100     0.6880 H     1 <1>   0.0800 
 44 H        7.4560     3.1310    -0.9870 H     1 <1>   0.0800 
 45 H        9.5450     1.8990    -0.4770 H     1 <1>   0.0800 
 46 H        9.0790     1.8130     1.1980 H     1 <1>   0.0800 
 47 H        9.1130     4.2880     1.3370 H     1 <1>   0.0800 
 48 H        9.5820     4.3740    -0.3400 H     1 <1>   0.0800 
 49 H       11.6660     5.7690     1.1770 H     1 <1>   0.1500 
 50 H       11.6320     1.5270     1.0370 H     1 <1>   0.1500 
 51 H       13.9170     2.4150     1.7000 H     1 <1>   0.2700 
@<TRIPOS>BOND
  1   1   2  2   
  2   2   3  am  
  3   2   4  1   
  4   3   5  1   
  5   3   6  1   
  6   4   7  1   
  7   4  27  1   
  8   4  28  1   
  9   5   8  1   
 10   5  29  1   
 11   5  30  1   
 12   6   9  1   
 13   6  31  1   
 14   6  32  1   
 15   7  10  1   
 16   7  33  1   
 17   7  34  1   
 18   8  11  1   
 19   8  35  1   
 20   8  36  1   
 21   9  12  1   
 22   9  37  1   
 23   9  38  1   
 24  10  13  1   
 25  10  14  1   
 26  11  12  1   
 27  11  15  am  
 28  12  39  1   
 29  12  40  1   
 30  13  16  2   
 31  13  41  1   
 32  14  17  2   
 33  14  42  1   
 34  15  18  2   
 35  15  19  1   
 36  16  17  1   
 37  19  20  1   
 38  19  43  1   
 39  19  44  1   
 40  20  21  1   
 41  20  45  1   
 42  20  46  1   
 43  21  22  1   
 44  21  47  1   
 45  21  48  1   
 46  22  23  1   
 47  22  24  2   
 48  23  25  2   
 49  23  49  1   
 50  24  26  1   
 51  24  50  1   
 52  25  26  1   
 53  26  51  1   
@<TRIPOS>SUBSTRUCTURE
  1 ****   5 GROUP 4 **** **** 0

# MOE 2024.06 (io_trps.svl 2023.06)
