@<TRIPOS>MOLECULE
NONAME
37 39 1 0 0 
SMALL
USER_CHARGES


@<TRIPOS>ATOM
  1 O        0.4340    -0.1320     1.5020 O.2   1 <1>  -0.5700 
  2 C        1.3490     0.4610     0.9540 C.2   1 <1>   0.5440 
  3 N        1.1440     1.7620     0.5530 N.am  1 <1>  -0.6600 
  4 C        2.6090    -0.2030     0.7300 C.ar  1 <1>   0.0860 
  5 C       -0.1480     2.4620     0.7400 C.3   1 <1>   0.1400 
  6 C        1.9750     2.4550    -0.4590 C.3   1 <1>   0.1400 
  7 C        2.6700    -1.4030     0.0000 C.ar  1 <1>   0.4100 
  8 C        3.7980     0.3180     1.2230 C.ar  1 <1>  -0.1500 
  9 C       -0.2230     3.4570    -0.4110 C.3   1 <1>  -0.1600 
 10 C        1.2330     3.7520    -0.7600 C.3   1 <1>  -0.1600 
 11 N        3.8020    -2.0510    -0.2710 N.ar  1 <1>  -0.6200 
 12 N        1.5230    -1.9740    -0.4930 N.pl3 1 <1>  -0.8690 
 13 C        4.9660    -0.3570     0.9520 C.ar  1 <1>  -0.1500 
 14 C        4.9110    -1.5220     0.2060 C.ar  1 <1>   0.1600 
 15 C        1.4010    -3.4030    -0.7900 C.3   1 <1>   0.3890 
 16 C       -0.0110    -3.8260    -0.4410 C.2   1 <1>  -0.3320 
 17 N       -0.6270    -4.8660    -1.0390 N.pl3 1 <1>   0.3000 
 18 C       -0.8910    -3.3260     0.4580 C.2   1 <1>  -0.1500 
 19 N       -1.8710    -5.0550    -0.5600 N.2   1 <1>  -0.7070 
 20 C       -2.0200    -4.1270     0.3360 C.2   1 <1>   0.1390 
 21 H       -0.1320     2.9760     1.6860 H     1 <1>   0.0800 
 22 H       -0.9760     1.7740     0.7190 H     1 <1>   0.0800 
 23 H        2.0380     1.8430    -1.3440 H     1 <1>   0.0800 
 24 H        2.9630     2.6530    -0.0810 H     1 <1>   0.0800 
 25 H        3.7960     1.2240     1.8040 H     1 <1>   0.1500 
 26 H       -0.7690     4.3430    -0.1400 H     1 <1>   0.0800 
 27 H       -0.7110     2.9860    -1.2460 H     1 <1>   0.0800 
 28 H        1.3560     4.0540    -1.7850 H     1 <1>   0.0800 
 29 H        1.6110     4.5280    -0.1190 H     1 <1>   0.0800 
 30 H        0.6530    -1.6100    -0.0840 H     1 <1>   0.4000 
 31 H        5.9110     0.0090     1.3120 H     1 <1>   0.1500 
 32 H        5.8300    -2.0420    -0.0060 H     1 <1>   0.1500 
 33 H        2.1080    -3.9730    -0.2110 H     1 <1>   0.0800 
 34 H        1.5990    -3.5560    -1.8370 H     1 <1>   0.0800 
 35 H       -0.2350    -5.4660    -1.7750 H     1 <1>   0.2700 
 36 H       -0.7790    -2.4990     1.1400 H     1 <1>   0.1500 
 37 H       -2.9190    -3.9990     0.9150 H     1 <1>   0.1500 
@<TRIPOS>BOND
  1   1   2  2   
  2   2   3  am  
  3   2   4  1   
  4   3   5  1   
  5   3   6  1   
  6   4   7  ar  
  7   4   8  ar  
  8   5   9  1   
  9   5  21  1   
 10   5  22  1   
 11   6  10  1   
 12   6  23  1   
 13   6  24  1   
 14   7  11  ar  
 15   7  12  1   
 16   8  13  ar  
 17   8  25  1   
 18   9  10  1   
 19   9  26  1   
 20   9  27  1   
 21  10  28  1   
 22  10  29  1   
 23  11  14  ar  
 24  12  15  1   
 25  12  30  1   
 26  13  14  ar  
 27  13  31  1   
 28  14  32  1   
 29  15  16  1   
 30  15  33  1   
 31  15  34  1   
 32  16  17  1   
 33  16  18  2   
 34  17  19  1   
 35  17  35  1   
 36  18  20  1   
 37  18  36  1   
 38  19  20  2   
 39  20  37  1   
@<TRIPOS>SUBSTRUCTURE
  1 ****  12 GROUP 4 **** **** 0

# MOE 2024.06 (io_trps.svl 2023.06)
