@<TRIPOS>MOLECULE
NONAME
44 45 1 0 0 
SMALL
USER_CHARGES


@<TRIPOS>ATOM
  1 S        2.9390     1.7190    -0.7360 S.o2  1 <1>   1.0900 
  2 O        2.2820     1.8060    -2.0190 O.2   1 <1>  -0.6500 
  3 O        4.3310     1.3490    -0.6570 O.2   1 <1>  -0.6500 
  4 C        2.7310     3.2910     0.0950 C.3   1 <1>  -0.0550 
  5 C        2.0210     0.5720     0.2750 C.3   1 <1>  -0.1350 
  6 C        1.3010     3.8500     0.0430 C.3   1 <1>  -0.0990 
  7 C        1.2670     5.2200     0.6790 C.2   1 <1>   0.5690 
  8 O        1.0930     5.2900     1.8710 O.2   1 <1>  -0.5700 
  9 N        1.4540     6.3020    -0.1300 N.am  1 <1>  -0.4940 
 10 C        1.6370     7.6650     0.2000 C.2   1 <1>  -0.0880 
 11 N        2.3820     8.1750     1.2260 N.pl3 1 <1>   0.3140 
 12 C        1.1410     8.7260    -0.4800 C.2   1 <1>  -0.1810 
 13 N        2.3660     9.5330     1.2050 N.2   1 <1>  -0.7070 
 14 C        3.1870     7.4680     2.2540 C.3   1 <1>   0.2390 
 15 C        1.6230     9.8430     0.1900 C.2   1 <1>   0.1390 
 16 C        0.2470     8.7560    -1.7060 C.3   1 <1>  -0.0590 
 17 C        4.1690     6.4370     1.6900 C.ar  1 <1>  -0.1430 
 18 C        4.7940     6.6110     0.4630 C.ar  1 <1>  -0.1500 
 19 C        4.4500     5.2990     2.4330 C.ar  1 <1>  -0.1500 
 20 C        5.6700     5.6560    -0.0290 C.ar  1 <1>  -0.1430 
 21 C        5.3370     4.3500     1.9550 C.ar  1 <1>  -0.1500 
 22 C        5.9400     4.5260     0.7240 C.ar  1 <1>  -0.1500 
 23 C        6.3390     5.8440    -1.3780 C.3   1 <1>  -0.0970 
 24 H        3.3870     4.0060    -0.3660 H     1 <1>   0.0800 
 25 H        3.0330     3.2000     1.1200 H     1 <1>   0.0800 
 26 H        2.1100    -0.4190    -0.1280 H     1 <1>   0.0800 
 27 H        0.9810     0.8320     0.2990 H     1 <1>   0.0800 
 28 H        2.4030     0.5630     1.2770 H     1 <1>   0.0800 
 29 H        0.6290     3.2060     0.5790 H     1 <1>   0.0800 
 30 H        0.9650     3.9160    -0.9760 H     1 <1>   0.0800 
 31 H        1.4700     6.1080    -1.1310 H     1 <1>   0.3700 
 32 H        2.5070     7.0020     2.9400 H     1 <1>   0.0800 
 33 H        3.7430     8.2070     2.8000 H     1 <1>   0.0800 
 34 H        1.4110    10.8610    -0.0920 H     1 <1>   0.1500 
 35 H       -0.1170     7.7710    -1.9340 H     1 <1>   0.0800 
 36 H        0.7960     9.1310    -2.5500 H     1 <1>   0.0800 
 37 H       -0.5960     9.3970    -1.5250 H     1 <1>   0.0800 
 38 H        4.5990     7.4970    -0.1180 H     1 <1>   0.1500 
 39 H        3.9790     5.1480     3.3890 H     1 <1>   0.1500 
 40 H        5.5570     3.4730     2.5390 H     1 <1>   0.1500 
 41 H        6.6210     3.7780     0.3530 H     1 <1>   0.1500 
 42 H        5.7800     6.5320    -1.9870 H     1 <1>   0.0800 
 43 H        6.4010     4.9040    -1.8970 H     1 <1>   0.0800 
 44 H        7.3320     6.2310    -1.2400 H     1 <1>   0.0800 
@<TRIPOS>BOND
  1   1   2  2   
  2   1   3  2   
  3   1   4  1   
  4   1   5  1   
  5   4   6  1   
  6   4  24  1   
  7   4  25  1   
  8   5  26  1   
  9   5  27  1   
 10   5  28  1   
 11   6   7  1   
 12   6  29  1   
 13   6  30  1   
 14   7   8  2   
 15   7   9  am  
 16   9  10  1   
 17   9  31  1   
 18  10  11  1   
 19  10  12  2   
 20  11  13  1   
 21  11  14  1   
 22  12  15  1   
 23  12  16  1   
 24  13  15  2   
 25  14  17  1   
 26  14  32  1   
 27  14  33  1   
 28  15  34  1   
 29  16  35  1   
 30  16  36  1   
 31  16  37  1   
 32  17  18  ar  
 33  17  19  ar  
 34  18  20  ar  
 35  18  38  1   
 36  19  21  ar  
 37  19  39  1   
 38  20  22  ar  
 39  20  23  1   
 40  21  22  ar  
 41  21  40  1   
 42  22  41  1   
 43  23  42  1   
 44  23  43  1   
 45  23  44  1   
@<TRIPOS>SUBSTRUCTURE
  1 ****   9 GROUP 4 **** **** 0

# MOE 2024.06 (io_trps.svl 2023.06)
