@<TRIPOS>MOLECULE
NONAME
45 46 1 0 0 
SMALL
USER_CHARGES


@<TRIPOS>ATOM
  1 O       -0.4490    -1.0880     0.8220 O.2   1 <1>  -0.5700 
  2 C        0.7120    -1.4360     0.7060 C.2   1 <1>   0.6900 
  3 N        1.5280    -0.8830    -0.2490 N.am  1 <1>  -0.6600 
  4 N        1.1990    -2.4000     1.5190 N.am  1 <1>  -0.7300 
  5 C        1.0880     0.2870    -1.0590 C.3   1 <1>   0.0600 
  6 C        2.9070    -1.3610    -0.5410 C.3   1 <1>   0.0600 
  7 C        0.3870    -3.2000     2.4850 C.3   1 <1>   0.2010 
  8 C        0.2400    -4.6660     2.0680 C.2   1 <1>   0.5690 
  9 O        0.9530    -5.4800     2.6080 O.2   1 <1>  -0.5700 
 10 N       -0.6660    -5.0370     1.1100 N.am  1 <1>  -0.6600 
 11 C       -1.5300    -4.1240     0.3160 C.3   1 <1>   0.1400 
 12 C       -0.8900    -6.4470     0.7190 C.3   1 <1>   0.1400 
 13 C       -2.2800    -5.0340    -0.6580 C.3   1 <1>   0.2000 
 14 C       -2.2070    -6.4360    -0.0550 C.3   1 <1>  -0.0800 
 15 O       -3.6030    -4.6510    -0.8080 O.3   1 <1>  -0.6800 
 16 C       -2.3140    -7.5520    -1.1050 C.3   1 <1>   0.0210 
 17 C       -2.0850    -8.9150    -0.4800 C.2   1 <1>   0.1080 
 18 N       -2.8080    -9.3750     0.4930 N.2   1 <1>  -0.7070 
 19 C       -1.0860    -9.8050    -0.8590 C.2   1 <1>  -0.1500 
 20 N       -2.2860   -10.5850     0.7630 N.pl3 1 <1>   0.3000 
 21 C       -1.2400   -10.8680    -0.0410 C.2   1 <1>  -0.3320 
 22 C       -0.4390   -12.1560     0.0220 C.3   1 <1>  -0.0600 
 23 H        2.1420    -2.7380     1.3490 H     1 <1>   0.3700 
 24 H        1.8230     1.0700    -0.9960 H     1 <1>   0.0800 
 25 H        0.1500     0.6740    -0.7000 H     1 <1>   0.0800 
 26 H        0.9680    -0.0080    -2.0860 H     1 <1>   0.0800 
 27 H        3.1700    -1.1260    -1.5580 H     1 <1>   0.0800 
 28 H        2.9710    -2.4280    -0.4160 H     1 <1>   0.0800 
 29 H        3.6030    -0.8790     0.1220 H     1 <1>   0.0800 
 30 H        0.8660    -3.1680     3.4470 H     1 <1>   0.0800 
 31 H       -0.5910    -2.7680     2.5960 H     1 <1>   0.0800 
 32 H       -2.2110    -3.6060     0.9700 H     1 <1>   0.0800 
 33 H       -0.9300    -3.4170    -0.2280 H     1 <1>   0.0800 
 34 H       -0.0750    -6.7700     0.0950 H     1 <1>   0.0800 
 35 H       -0.9490    -7.0850     1.5860 H     1 <1>   0.0800 
 36 H       -1.8060    -4.9950    -1.6240 H     1 <1>   0.0800 
 37 H       -2.9950    -6.5600     0.6690 H     1 <1>   0.0800 
 38 H       -4.0790    -4.7450     0.0400 H     1 <1>   0.4000 
 39 H       -1.5920    -7.3950    -1.8850 H     1 <1>   0.0800 
 40 H       -3.2940    -7.5350    -1.5460 H     1 <1>   0.0800 
 41 H       -0.3600    -9.6540    -1.6370 H     1 <1>   0.1500 
 42 H       -2.6640   -11.1910     1.5010 H     1 <1>   0.2700 
 43 H        0.3400   -12.1430    -0.7190 H     1 <1>   0.0800 
 44 H       -1.0780   -13.0010    -0.1660 H     1 <1>   0.0800 
 45 H        0.0130   -12.2650     0.9920 H     1 <1>   0.0800 
@<TRIPOS>BOND
  1   1   2  2   
  2   2   3  am  
  3   2   4  am  
  4   3   5  1   
  5   3   6  1   
  6   4   7  1   
  7   4  23  1   
  8   5  24  1   
  9   5  25  1   
 10   5  26  1   
 11   6  27  1   
 12   6  28  1   
 13   6  29  1   
 14   7   8  1   
 15   7  30  1   
 16   7  31  1   
 17   8   9  2   
 18   8  10  am  
 19  10  11  1   
 20  10  12  1   
 21  11  13  1   
 22  11  32  1   
 23  11  33  1   
 24  12  14  1   
 25  12  34  1   
 26  12  35  1   
 27  13  14  1   
 28  13  15  1   
 29  13  36  1   
 30  14  16  1   
 31  14  37  1   
 32  15  38  1   
 33  16  17  1   
 34  16  39  1   
 35  16  40  1   
 36  17  18  2   
 37  17  19  1   
 38  18  20  1   
 39  19  21  2   
 40  19  41  1   
 41  20  21  1   
 42  20  42  1   
 43  21  22  1   
 44  22  43  1   
 45  22  44  1   
 46  22  45  1   
@<TRIPOS>SUBSTRUCTURE
  1 ****  10 GROUP 4 **** **** 0

# MOE 2024.06 (io_trps.svl 2023.06)
