@<TRIPOS>MOLECULE
NONAME
58 60 1 0 0 
SMALL
USER_CHARGES


@<TRIPOS>ATOM
  1 O       -5.8520    -3.3710     0.8360 O.co2 1 <1>  -0.9000 
  2 C       -6.3000    -2.5800     1.6840 C.2   1 <1>   0.9060 
  3 O       -7.4900    -2.7290     2.0270 O.co2 1 <1>  -0.9000 
  4 C       -5.4220    -1.4350     2.2200 C.3   1 <1>   0.0140 
  5 O       -5.8140    -0.0920     1.8750 O.3   1 <1>  -0.3630 
  6 C       -6.4700     0.0710     0.7030 C.ar  1 <1>   0.0830 
  7 C       -5.8320     0.4460    -0.4790 C.ar  1 <1>   0.0820 
  8 C       -7.8100    -0.2450     0.7000 C.ar  1 <1>  -0.1500 
  9 O       -4.5200     0.8050    -0.4150 O.3   1 <1>  -0.3630 
 10 C       -6.5600     0.4140    -1.6680 C.ar  1 <1>  -0.1500 
 11 C       -8.4910    -0.4000    -0.4890 C.ar  1 <1>  -0.1440 
 12 C       -3.8320     1.2980    -1.5420 C.3   1 <1>   0.0400 
 13 C       -7.8750    -0.0300    -1.6770 C.ar  1 <1>  -0.1500 
 14 C       -9.8290    -1.1020    -0.4200 C.3   1 <1>   0.4860 
 15 N       -9.5790    -2.4890     0.0990 N.4   1 <1>  -0.9590 
 16 C       -8.5180    -3.2270    -0.6720 C.3   1 <1>   0.3430 
 17 C      -10.8350    -3.2700     0.2860 C.3   1 <1>   0.3430 
 18 C       -8.2520    -4.6340    -0.0710 C.3   1 <1>   0.4230 
 19 C      -10.5300    -4.6630     0.8530 C.3   1 <1>  -0.1600 
 20 N       -7.0220    -5.3320    -0.5840 N.4   1 <1>  -0.9590 
 21 C       -9.5360    -5.4900    -0.0130 C.3   1 <1>   0.0000 
 22 C       -6.8380    -6.7260    -0.0860 C.3   1 <1>   0.3430 
 23 C       -6.6780    -5.1830    -2.0250 C.3   1 <1>   0.2630 
 24 C       -9.2530    -6.8490     0.6940 C.3   1 <1>  -0.1600 
 25 C      -10.0810    -5.7330    -1.4450 C.3   1 <1>   0.1200 
 26 C       -7.7750    -7.0370     1.0860 C.3   1 <1>  -0.1600 
 27 O      -11.4020    -6.1400    -1.4050 O.3   1 <1>  -0.6800 
 28 H       -4.4270    -1.5750     1.8440 H     1 <1>   0.0800 
 29 H       -5.3960    -1.4950     3.2900 H     1 <1>   0.0800 
 30 H       -8.2780    -0.4510     1.6480 H     1 <1>   0.1500 
 31 H       -6.1100     0.7100    -2.5960 H     1 <1>   0.1500 
 32 H       -2.8350     1.5560    -1.2350 H     1 <1>   0.0800 
 33 H       -4.3410     2.1740    -1.9050 H     1 <1>   0.0800 
 34 H       -3.7950     0.5300    -2.2930 H     1 <1>   0.0800 
 35 H       -8.3990    -0.0980    -2.6160 H     1 <1>   0.1500 
 36 H      -10.2790    -1.1410    -1.3980 H     1 <1>   0.0800 
 37 H      -10.4840    -0.5670     0.2470 H     1 <1>   0.0800 
 38 H       -9.1000    -2.3710     1.0320 H     1 <1>   0.4500 
 39 H       -8.8090    -3.3130    -1.7020 H     1 <1>   0.0800 
 40 H       -7.5960    -2.6700    -0.6180 H     1 <1>   0.0800 
 41 H      -11.4910    -2.7470     0.9650 H     1 <1>   0.0800 
 42 H      -11.3460    -3.3780    -0.6580 H     1 <1>   0.0800 
 43 H       -8.0290    -4.4520     0.9640 H     1 <1>   0.0800 
 44 H      -10.1310    -4.5390     1.8460 H     1 <1>   0.0800 
 45 H      -11.4600    -5.1940     0.9610 H     1 <1>   0.0800 
 46 H       -6.2970    -4.7560    -0.0630 H     1 <1>   0.4500 
 47 H       -7.0460    -7.4220    -0.8820 H     1 <1>   0.0800 
 48 H       -5.8130    -6.8660     0.2220 H     1 <1>   0.0800 
 49 H       -7.4160    -5.6680    -2.6420 H     1 <1>   0.0800 
 50 H       -5.7160    -5.6280    -2.2200 H     1 <1>   0.0800 
 51 H       -6.6210    -4.1400    -2.2900 H     1 <1>   0.0800 
 52 H       -9.8520    -6.9500     1.5850 H     1 <1>   0.0800 
 53 H       -9.5340    -7.6660     0.0510 H     1 <1>   0.0800 
 54 H       -9.5100    -6.4870    -1.9610 H     1 <1>   0.0800 
 55 H      -10.0660    -4.8360    -2.0380 H     1 <1>   0.0800 
 56 H       -7.6160    -8.0540     1.4010 H     1 <1>   0.0800 
 57 H       -7.5210    -6.4050     1.9210 H     1 <1>   0.0800 
 58 H      -11.4910    -7.0610    -1.0800 H     1 <1>   0.4000 
@<TRIPOS>BOND
  1   1   2  ar  
  2   2   3  ar  
  3   2   4  1   
  4   4   5  1   
  5   4  28  1   
  6   4  29  1   
  7   5   6  1   
  8   6   7  ar  
  9   6   8  ar  
 10   7   9  1   
 11   7  10  ar  
 12   8  11  ar  
 13   8  30  1   
 14   9  12  1   
 15  10  13  ar  
 16  10  31  1   
 17  11  13  ar  
 18  11  14  1   
 19  12  32  1   
 20  12  33  1   
 21  12  34  1   
 22  13  35  1   
 23  14  15  1   
 24  14  36  1   
 25  14  37  1   
 26  15  16  1   
 27  15  17  1   
 28  15  38  1   
 29  16  18  1   
 30  16  39  1   
 31  16  40  1   
 32  17  19  1   
 33  17  41  1   
 34  17  42  1   
 35  18  20  1   
 36  18  21  1   
 37  18  43  1   
 38  19  21  1   
 39  19  44  1   
 40  19  45  1   
 41  20  22  1   
 42  20  23  1   
 43  20  46  1   
 44  21  24  1   
 45  21  25  1   
 46  22  26  1   
 47  22  47  1   
 48  22  48  1   
 49  23  49  1   
 50  23  50  1   
 51  23  51  1   
 52  24  26  1   
 53  24  52  1   
 54  24  53  1   
 55  25  27  1   
 56  25  54  1   
 57  25  55  1   
 58  26  56  1   
 59  26  57  1   
 60  27  58  1   
@<TRIPOS>SUBSTRUCTURE
  1 ****  16 GROUP 4 **** **** 0

# MOE 2024.06 (io_trps.svl 2023.06)
