@<TRIPOS>MOLECULE
NONAME
44 46 1 0 0 
SMALL
USER_CHARGES


@<TRIPOS>ATOM
  1 O       -2.3030     0.8620    -2.0240 O.2   1 <1>  -0.5700 
  2 C       -2.1020     0.9770    -0.8310 C.2   1 <1>   0.5440 
  3 N       -2.1820    -0.1450    -0.0550 N.am  1 <1>  -0.7300 
  4 C       -1.7800     2.2670    -0.2570 C.ar  1 <1>   0.0860 
  5 C       -2.4890    -1.5040    -0.5560 C.3   1 <1>   0.2200 
  6 C       -2.0920     2.5800     1.0630 C.ar  1 <1>   0.1600 
  7 C       -1.1490     3.2580    -0.9960 C.ar  1 <1>  -0.1500 
  8 C       -3.9170    -1.8620    -0.1790 C.3   1 <1>  -0.0800 
  9 C       -1.6930    -2.5330     0.2380 C.3   1 <1>   0.1200 
 10 N       -1.8230     3.7180     1.6760 N.ar  1 <1>  -0.6200 
 11 C       -0.8590     4.4630    -0.3870 C.ar  1 <1>  -0.1430 
 12 C       -3.7550    -2.3780     1.2560 C.3   1 <1>   0.1200 
 13 C       -4.4970    -2.9320    -1.1240 C.3   1 <1>  -0.0170 
 14 O       -2.4170    -2.7570     1.4110 O.3   1 <1>  -0.5600 
 15 C       -1.2100     4.6390     0.9490 C.ar  1 <1>   0.1670 
 16 C       -0.1730     5.5510    -1.2030 C.3   1 <1>  -0.0970 
 17 C       -5.9360    -3.2720    -0.7650 C.ar  1 <1>  -0.1430 
 18 C       -0.9140     5.9350     1.6810 C.3   1 <1>  -0.0970 
 19 C       -6.2760    -4.4470    -0.1260 C.ar  1 <1>  -0.1500 
 20 C       -6.9780    -2.4180    -1.0650 C.ar  1 <1>  -0.1500 
 21 C       -7.6030    -4.7000     0.1800 C.ar  1 <1>   0.1600 
 22 C       -8.2720    -2.7670    -0.7160 C.ar  1 <1>   0.1600 
 23 N       -8.6090    -3.8870    -0.0980 N.ar  1 <1>  -0.6200 
 24 H       -1.9470    -0.1160     0.9400 H     1 <1>   0.3700 
 25 H       -2.2970    -1.5700    -1.6140 H     1 <1>   0.0800 
 26 H       -2.6040     1.8400     1.6520 H     1 <1>   0.1500 
 27 H       -0.8990     3.0730    -2.0260 H     1 <1>   0.1500 
 28 H       -4.5540    -0.9960    -0.2090 H     1 <1>   0.0800 
 29 H       -0.7010    -2.1950     0.4820 H     1 <1>   0.0800 
 30 H       -1.6380    -3.4660    -0.2950 H     1 <1>   0.0800 
 31 H       -4.3840    -3.2210     1.4760 H     1 <1>   0.0800 
 32 H       -3.9520    -1.5930     1.9650 H     1 <1>   0.0800 
 33 H       -3.8980    -3.8240    -1.0930 H     1 <1>   0.0800 
 34 H       -4.4750    -2.5620    -2.1350 H     1 <1>   0.0800 
 35 H       -0.1320     5.2840    -2.2440 H     1 <1>   0.0800 
 36 H        0.8330     5.6960    -0.8510 H     1 <1>   0.0800 
 37 H       -0.7130     6.4770    -1.1180 H     1 <1>   0.0800 
 38 H        0.0510     6.3190     1.4110 H     1 <1>   0.0800 
 39 H       -0.9210     5.7710     2.7440 H     1 <1>   0.0800 
 40 H       -1.6680     6.6620     1.4430 H     1 <1>   0.0800 
 41 H       -5.5250    -5.1680     0.1390 H     1 <1>   0.1500 
 42 H       -6.7960    -1.4850    -1.5670 H     1 <1>   0.1500 
 43 H       -7.8500    -5.6210     0.6800 H     1 <1>   0.1500 
 44 H       -9.0720    -2.0890    -0.9580 H     1 <1>   0.1500 
@<TRIPOS>BOND
  1   1   2  2   
  2   2   3  am  
  3   2   4  1   
  4   3   5  1   
  5   3  24  1   
  6   4   6  ar  
  7   4   7  ar  
  8   5   8  1   
  9   5   9  1   
 10   5  25  1   
 11   6  10  ar  
 12   6  26  1   
 13   7  11  ar  
 14   7  27  1   
 15   8  12  1   
 16   8  13  1   
 17   8  28  1   
 18   9  14  1   
 19   9  29  1   
 20   9  30  1   
 21  10  15  ar  
 22  11  15  ar  
 23  11  16  1   
 24  12  14  1   
 25  12  31  1   
 26  12  32  1   
 27  13  17  1   
 28  13  33  1   
 29  13  34  1   
 30  15  18  1   
 31  16  35  1   
 32  16  36  1   
 33  16  37  1   
 34  17  19  ar  
 35  17  20  ar  
 36  18  38  1   
 37  18  39  1   
 38  18  40  1   
 39  19  21  ar  
 40  19  41  1   
 41  20  22  ar  
 42  20  42  1   
 43  21  23  ar  
 44  21  43  1   
 45  22  23  ar  
 46  22  44  1   
@<TRIPOS>SUBSTRUCTURE
  1 ****   3 GROUP 4 **** **** 0

# MOE 2024.06 (io_trps.svl 2023.06)
