@<TRIPOS>MOLECULE
NONAME
52 54 1 0 0 
SMALL
USER_CHARGES


@<TRIPOS>ATOM
  1 O       -1.6530    -2.7770    -0.0250 O.2   1 <1>  -0.5700 
  2 C       -0.5060    -2.4610     0.2220 C.2   1 <1>   0.5440 
  3 N       -0.2990    -1.1350     0.4080 N.am  1 <1>  -0.8000 
  4 C        0.5720    -3.4280     0.2980 C.ar  1 <1>   0.0860 
  5 C        0.5220    -4.6610    -0.3850 C.ar  1 <1>   0.4100 
  6 C        1.7120    -3.1730     1.0470 C.ar  1 <1>  -0.1500 
  7 N        1.4970    -5.5670    -0.3730 N.ar  1 <1>  -0.6200 
  8 N       -0.5810    -5.0350    -1.1160 N.pl3 1 <1>  -0.8690 
  9 C        2.7270    -4.1050     1.0690 C.ar  1 <1>  -0.1430 
 10 C        2.5730    -5.2760     0.3330 C.ar  1 <1>   0.1670 
 11 C       -0.4990    -5.6780    -2.4630 C.3   1 <1>   0.2090 
 12 C        3.9730    -3.8160     1.8990 C.3   1 <1>  -0.0970 
 13 C        3.6690    -6.3280     0.3050 C.3   1 <1>  -0.0970 
 14 C       -0.8200    -7.1860    -2.3870 C.3   1 <1>   0.3430 
 15 N       -0.2190    -7.7750    -1.1580 N.4   1 <1>  -0.9590 
 16 C        0.6790    -8.9560    -1.4120 C.3   1 <1>   0.3430 
 17 C       -1.2430    -8.0260    -0.0820 C.3   1 <1>   0.3430 
 18 C        1.2910    -9.5060    -0.1080 C.3   1 <1>   0.2090 
 19 C       -0.6150    -8.6050     1.2040 C.3   1 <1>   0.2090 
 20 N        0.2060    -9.8090     0.8730 N.pl3 1 <1>  -0.8380 
 21 C       -0.3790   -11.0550     0.9110 C.ar  1 <1>   0.7200 
 22 N       -1.1650   -11.3110     1.9510 N.ar  1 <1>  -0.6200 
 23 N       -0.1310   -11.8700    -0.1130 N.ar  1 <1>  -0.6200 
 24 C       -1.7070   -12.5040     1.9860 C.ar  1 <1>   0.1600 
 25 C       -0.6870   -13.0570    -0.0500 C.ar  1 <1>   0.1600 
 26 C       -1.4950   -13.4310     0.9960 C.ar  1 <1>  -0.1500 
 27 H       -1.0950    -0.4980     0.3260 H     1 <1>   0.3700 
 28 H        0.6180    -0.6990     0.5000 H     1 <1>   0.3700 
 29 H        1.7990    -2.2600     1.6100 H     1 <1>   0.1500 
 30 H       -1.3580    -4.3510    -1.0240 H     1 <1>   0.4000 
 31 H        0.4940    -5.5480    -2.8590 H     1 <1>   0.0800 
 32 H       -1.1840    -5.1940    -3.1380 H     1 <1>   0.0800 
 33 H        3.8300    -2.9530     2.5250 H     1 <1>   0.0800 
 34 H        4.8130    -3.6280     1.2540 H     1 <1>   0.0800 
 35 H        4.2010    -4.6520     2.5370 H     1 <1>   0.0800 
 36 H        3.5620    -6.9580    -0.5590 H     1 <1>   0.0800 
 37 H        3.6100    -6.9360     1.1890 H     1 <1>   0.0800 
 38 H        4.6390    -5.8700     0.2560 H     1 <1>   0.0800 
 39 H       -0.4360    -7.6740    -3.2680 H     1 <1>   0.0800 
 40 H       -1.8880    -7.3200    -2.3720 H     1 <1>   0.0800 
 41 H        0.3680    -6.9940    -0.7810 H     1 <1>   0.4500 
 42 H        1.4740    -8.6740    -2.0820 H     1 <1>   0.0800 
 43 H        0.1140    -9.7490    -1.8730 H     1 <1>   0.0800 
 44 H       -1.9780    -8.7270    -0.4400 H     1 <1>   0.0800 
 45 H       -1.7460    -7.1040     0.1580 H     1 <1>   0.0800 
 46 H        1.9580    -8.7770     0.3160 H     1 <1>   0.0800 
 47 H        1.8700   -10.3890    -0.3170 H     1 <1>   0.0800 
 48 H       -1.3960    -8.8500     1.9030 H     1 <1>   0.0800 
 49 H        0.0100    -7.8620     1.6680 H     1 <1>   0.0800 
 50 H       -2.3360   -12.7490     2.8260 H     1 <1>   0.1500 
 51 H       -0.4960   -13.7500    -0.8520 H     1 <1>   0.1500 
 52 H       -1.9420   -14.4070     1.0370 H     1 <1>   0.1500 
@<TRIPOS>BOND
  1   1   2  2   
  2   2   3  am  
  3   2   4  1   
  4   3  27  1   
  5   3  28  1   
  6   4   5  ar  
  7   4   6  ar  
  8   5   7  ar  
  9   5   8  1   
 10   6   9  ar  
 11   6  29  1   
 12   7  10  ar  
 13   8  11  1   
 14   8  30  1   
 15   9  10  ar  
 16   9  12  1   
 17  10  13  1   
 18  11  14  1   
 19  11  31  1   
 20  11  32  1   
 21  12  33  1   
 22  12  34  1   
 23  12  35  1   
 24  13  36  1   
 25  13  37  1   
 26  13  38  1   
 27  14  15  1   
 28  14  39  1   
 29  14  40  1   
 30  15  16  1   
 31  15  17  1   
 32  15  41  1   
 33  16  18  1   
 34  16  42  1   
 35  16  43  1   
 36  17  19  1   
 37  17  44  1   
 38  17  45  1   
 39  18  20  1   
 40  18  46  1   
 41  18  47  1   
 42  19  20  1   
 43  19  48  1   
 44  19  49  1   
 45  20  21  1   
 46  21  22  ar  
 47  21  23  ar  
 48  22  24  ar  
 49  23  25  ar  
 50  24  26  ar  
 51  24  50  1   
 52  25  26  ar  
 53  25  51  1   
 54  26  52  1   
@<TRIPOS>SUBSTRUCTURE
  1 ****  15 GROUP 4 **** **** 0

# MOE 2024.06 (io_trps.svl 2023.06)
