@<TRIPOS>MOLECULE
NONAME
48 50 1 0 0 
SMALL
USER_CHARGES


@<TRIPOS>ATOM
  1 O       -1.4490     0.1330    -1.6650 O.2   1 <1>  -0.5700 
  2 C       -1.5080     0.3170    -0.4640 C.2   1 <1>   0.5440 
  3 N       -1.7780    -0.7580     0.3330 N.am  1 <1>  -0.7300 
  4 C       -1.2990     1.6380     0.1060 C.ar  1 <1>   0.0860 
  5 C       -1.9580    -2.1520    -0.1360 C.3   1 <1>   0.2200 
  6 C       -0.5950     2.6150    -0.5990 C.ar  1 <1>  -0.1500 
  7 C       -1.7850     1.9880     1.3680 C.ar  1 <1>  -0.1500 
  8 C       -3.4270    -2.5530    -0.1280 C.3   1 <1>  -0.0800 
  9 C       -1.4080    -3.0970     0.9240 C.3   1 <1>   0.1200 
 10 C       -0.3670     3.8810    -0.0830 C.ar  1 <1>  -0.1430 
 11 C       -1.5660     3.2450     1.8980 C.ar  1 <1>  -0.1500 
 12 C       -3.6600    -2.9840     1.3240 C.3   1 <1>   0.1200 
 13 C       -4.4160    -1.4920    -0.6440 C.3   1 <1>  -0.0160 
 14 O       -2.3990    -3.1540     1.9050 O.3   1 <1>  -0.5600 
 15 C       -0.8590     4.1890     1.1770 C.ar  1 <1>  -0.1500 
 16 C        0.4130     4.9080    -0.9020 C.3   1 <1>   0.0630 
 17 C       -5.8320    -2.0460    -0.6850 C.ar  1 <1>  -0.1430 
 18 C        1.7000     5.3180    -0.1800 C.3   1 <1>  -0.2400 
 19 C       -0.4530     6.1330    -1.2120 C.3   1 <1>  -0.2400 
 20 C       -6.2720    -2.8300    -1.7320 C.ar  1 <1>  -0.1500 
 21 C       -6.7480    -1.7980     0.3170 C.ar  1 <1>  -0.1500 
 22 C       -7.5670    -3.3200    -1.7240 C.ar  1 <1>   0.1600 
 23 C       -8.0210    -2.3360     0.2290 C.ar  1 <1>   0.1600 
 24 N       -8.4520    -3.0940    -0.7660 N.ar  1 <1>  -0.6200 
 25 H       -1.8000    -0.6600     1.3490 H     1 <1>   0.3700 
 26 H       -1.4900    -2.2970    -1.0950 H     1 <1>   0.0800 
 27 H       -0.2200     2.3630    -1.5760 H     1 <1>   0.1500 
 28 H       -2.3450     1.2750     1.9430 H     1 <1>   0.1500 
 29 H       -3.5280    -3.4300    -0.7430 H     1 <1>   0.0800 
 30 H       -0.4850    -2.7520     1.3550 H     1 <1>   0.0800 
 31 H       -1.2800    -4.0880     0.5240 H     1 <1>   0.0800 
 32 H       -1.9470     3.4950     2.8730 H     1 <1>   0.1500 
 33 H       -4.2020    -3.9130     1.3820 H     1 <1>   0.0800 
 34 H       -4.1770    -2.2260     1.8870 H     1 <1>   0.0800 
 35 H       -4.1240    -1.1830    -1.6340 H     1 <1>   0.0800 
 36 H       -4.3930    -0.6180    -0.0170 H     1 <1>   0.0800 
 37 H       -0.6960     5.1640     1.6000 H     1 <1>   0.1500 
 38 H        0.6940     4.4600    -1.8410 H     1 <1>   0.0800 
 39 H        1.4780     5.8190     0.7450 H     1 <1>   0.0800 
 40 H        2.2790     5.9800    -0.7990 H     1 <1>   0.0800 
 41 H        2.2920     4.4460     0.0350 H     1 <1>   0.0800 
 42 H       -0.7220     6.6510    -0.3100 H     1 <1>   0.0800 
 43 H       -1.3540     5.8250    -1.7130 H     1 <1>   0.0800 
 44 H        0.0800     6.8120    -1.8530 H     1 <1>   0.0800 
 45 H       -5.6200    -3.0630    -2.5540 H     1 <1>   0.1500 
 46 H       -6.4860    -1.1920     1.1650 H     1 <1>   0.1500 
 47 H       -7.8930    -3.9290    -2.5490 H     1 <1>   0.1500 
 48 H       -8.7230    -2.1330     1.0200 H     1 <1>   0.1500 
@<TRIPOS>BOND
  1   1   2  2   
  2   2   3  am  
  3   2   4  1   
  4   3   5  1   
  5   3  25  1   
  6   4   6  ar  
  7   4   7  ar  
  8   5   8  1   
  9   5   9  1   
 10   5  26  1   
 11   6  10  ar  
 12   6  27  1   
 13   7  11  ar  
 14   7  28  1   
 15   8  12  1   
 16   8  13  1   
 17   8  29  1   
 18   9  14  1   
 19   9  30  1   
 20   9  31  1   
 21  10  15  ar  
 22  10  16  1   
 23  11  15  ar  
 24  11  32  1   
 25  12  14  1   
 26  12  33  1   
 27  12  34  1   
 28  13  17  1   
 29  13  35  1   
 30  13  36  1   
 31  15  37  1   
 32  16  18  1   
 33  16  19  1   
 34  16  38  1   
 35  17  20  ar  
 36  17  21  ar  
 37  18  39  1   
 38  18  40  1   
 39  18  41  1   
 40  19  42  1   
 41  19  43  1   
 42  19  44  1   
 43  20  22  ar  
 44  20  45  1   
 45  21  23  ar  
 46  21  46  1   
 47  22  24  ar  
 48  22  47  1   
 49  23  24  ar  
 50  23  48  1   
@<TRIPOS>SUBSTRUCTURE
  1 ****   2 GROUP 4 **** **** 0

# MOE 2024.06 (io_trps.svl 2023.06)
