@<TRIPOS>MOLECULE
NONAME
48 51 1 0 0 
SMALL
USER_CHARGES


@<TRIPOS>ATOM
  1 O        1.9570    -0.5550    -2.8670 O.2   1 <1>  -0.5700 
  2 C        2.3770    -0.8600    -1.7690 C.2   1 <1>   0.5440 
  3 N        3.0350     0.0930    -1.0240 N.am  1 <1>  -0.6600 
  4 C        2.1880    -2.1990    -1.2580 C.ar  1 <1>   0.0860 
  5 C        3.0630     0.0360     0.4820 C.3   1 <1>   0.2200 
  6 C        3.7500     1.1850    -1.7540 C.3   1 <1>   0.1400 
  7 C        0.9660    -2.5990    -0.7200 C.ar  1 <1>  -0.1500 
  8 C        3.2380    -3.1190    -1.2640 C.ar  1 <1>  -0.1500 
  9 C        2.6370     1.3660     1.1230 C.3   1 <1>   0.1200 
 10 C        4.4320    -0.4340     1.0240 C.3   1 <1>   0.3430 
 11 C        4.7590     1.9920    -0.9170 C.3   1 <1>  -0.0800 
 12 C        0.8090    -3.8600    -0.1770 C.ar  1 <1>   0.0830 
 13 C        3.0900    -4.3830    -0.7200 C.ar  1 <1>  -0.1500 
 14 O        3.7200     2.2380     1.2530 O.3   1 <1>  -0.5600 
 15 N        5.5420    -0.2300     0.0490 N.4   1 <1>  -0.9590 
 16 C        4.0770     2.9210     0.0980 C.3   1 <1>   0.1200 
 17 C        5.9040     1.1720    -0.2910 C.3   1 <1>   0.3430 
 18 O       -0.3970    -4.2060     0.3360 O.3   1 <1>  -0.3630 
 19 C        1.8800    -4.7560    -0.1630 C.ar  1 <1>   0.0830 
 20 C        6.7630    -1.0850     0.3080 C.3   1 <1>   0.2370 
 21 C       -0.6300    -5.5880     0.5290 C.3   1 <1>   0.1200 
 22 O        1.7580    -5.9870     0.3870 O.3   1 <1>  -0.3630 
 23 C        7.2380    -1.7340    -0.9930 C.2   1 <1>   0.9060 
 24 C        0.6020    -6.2500     1.1620 C.3   1 <1>   0.1200 
 25 O        8.3680    -2.2100    -1.0660 O.co2 1 <1>  -0.9000 
 26 O        6.4260    -1.7040    -1.9310 O.co2 1 <1>  -0.9000 
 27 H        2.3300    -0.6810     0.8060 H     1 <1>   0.0800 
 28 H        4.2710     0.7410    -2.5870 H     1 <1>   0.0800 
 29 H        3.0120     1.8530    -2.1670 H     1 <1>   0.0800 
 30 H        0.1320    -1.9210    -0.7310 H     1 <1>   0.1500 
 31 H        4.1810    -2.8400    -1.7090 H     1 <1>   0.1500 
 32 H        2.2800     1.1760     2.1200 H     1 <1>   0.0800 
 33 H        1.8440     1.8370     0.5670 H     1 <1>   0.0800 
 34 H        4.3540    -1.4860     1.2420 H     1 <1>   0.0800 
 35 H        4.6510     0.0760     1.9470 H     1 <1>   0.0800 
 36 H        5.2330     2.6590    -1.6150 H     1 <1>   0.0800 
 37 H        3.9090    -5.0810    -0.7310 H     1 <1>   0.1500 
 38 H        5.2200    -0.6380    -0.8630 H     1 <1>   0.4500 
 39 H        3.2030     3.3940    -0.3190 H     1 <1>   0.0800 
 40 H        4.7640     3.6950     0.3980 H     1 <1>   0.0800 
 41 H        6.2660     1.6770     0.5900 H     1 <1>   0.0800 
 42 H        6.7120     1.1380    -1.0050 H     1 <1>   0.0800 
 43 H        7.5670    -0.5020     0.7160 H     1 <1>   0.0800 
 44 H        6.5280    -1.8810     0.9900 H     1 <1>   0.0800 
 45 H       -1.4910    -5.6950     1.1640 H     1 <1>   0.0800 
 46 H       -0.8410    -6.0290    -0.4290 H     1 <1>   0.0800 
 47 H        0.4770    -7.3160     1.2180 H     1 <1>   0.0800 
 48 H        0.7680    -5.8620     2.1510 H     1 <1>   0.0800 
@<TRIPOS>BOND
  1   1   2  2   
  2   2   3  am  
  3   2   4  1   
  4   3   5  1   
  5   3   6  1   
  6   4   7  ar  
  7   4   8  ar  
  8   5   9  1   
  9   5  10  1   
 10   5  27  1   
 11   6  11  1   
 12   6  28  1   
 13   6  29  1   
 14   7  12  ar  
 15   7  30  1   
 16   8  13  ar  
 17   8  31  1   
 18   9  14  1   
 19   9  32  1   
 20   9  33  1   
 21  10  15  1   
 22  10  34  1   
 23  10  35  1   
 24  11  16  1   
 25  11  17  1   
 26  11  36  1   
 27  12  18  1   
 28  12  19  ar  
 29  13  19  ar  
 30  13  37  1   
 31  14  16  1   
 32  15  17  1   
 33  15  20  1   
 34  15  38  1   
 35  16  39  1   
 36  16  40  1   
 37  17  41  1   
 38  17  42  1   
 39  18  21  1   
 40  19  22  1   
 41  20  23  1   
 42  20  43  1   
 43  20  44  1   
 44  21  24  1   
 45  21  45  1   
 46  21  46  1   
 47  22  24  1   
 48  23  25  ar  
 49  23  26  ar  
 50  24  47  1   
 51  24  48  1   
@<TRIPOS>SUBSTRUCTURE
  1 ****   4 GROUP 4 **** **** 0

# MOE 2024.06 (io_trps.svl 2023.06)
