@<TRIPOS>MOLECULE
NONAME
41 42 1 0 0 
SMALL
USER_CHARGES


@<TRIPOS>ATOM
  1 O       -1.8720     0.6900     2.7050 O.2   1 <1>  -0.5700 
  2 C       -2.0790     0.7780     1.5230 C.2   1 <1>   0.4230 
  3 C       -3.0790    -0.0090     0.8570 C.ar  1 <1>   0.0860 
  4 C       -1.1800     1.7190     0.7450 C.3   1 <1>  -0.1790 
  5 C       -3.9700     0.4360    -0.1190 C.ar  1 <1>   0.1660 
  6 C       -3.2030    -1.3490     1.1880 C.ar  1 <1>   0.1600 
  7 N       -4.8120    -0.3680    -0.7180 N.ar  1 <1>  -0.6200 
  8 C       -4.0610     1.8910    -0.5480 C.3   1 <1>  -0.0960 
  9 N       -4.0430    -2.1670     0.6090 N.ar  1 <1>  -0.6200 
 10 C       -4.8090    -1.6360    -0.3350 C.ar  1 <1>   0.7200 
 11 N       -5.6890    -2.4140    -0.9940 N.pl3 1 <1>  -0.8690 
 12 C       -5.8550    -3.8850    -0.9890 C.3   1 <1>   0.2890 
 13 C       -6.0800    -4.4290     0.4310 C.3   1 <1>  -0.0170 
 14 C       -4.6580    -4.5120    -1.7040 C.3   1 <1>  -0.2400 
 15 C       -6.9030    -5.7060     0.4110 C.ar  1 <1>   0.1670 
 16 N       -6.2620    -6.8260     0.1140 N.ar  1 <1>  -0.6200 
 17 C       -8.2590    -5.6470     0.6970 C.ar  1 <1>  -0.1500 
 18 C       -6.9890    -7.9300     0.1010 C.ar  1 <1>   0.1670 
 19 C       -9.0100    -6.8010     0.6810 C.ar  1 <1>  -0.1500 
 20 C       -8.3470    -7.9690     0.3730 C.ar  1 <1>  -0.1500 
 21 C       -6.2430    -9.2030    -0.2380 C.3   1 <1>  -0.0970 
 22 H       -1.1720     1.4670    -0.2990 H     1 <1>   0.0800 
 23 H       -0.1750     1.6390     1.1200 H     1 <1>   0.0800 
 24 H       -1.5110     2.7320     0.8740 H     1 <1>   0.0800 
 25 H       -2.5690    -1.7490     1.9630 H     1 <1>   0.1500 
 26 H       -3.8820     2.5500     0.2810 H     1 <1>   0.0800 
 27 H       -5.0460     2.1010    -0.9250 H     1 <1>   0.0800 
 28 H       -3.3520     2.0900    -1.3300 H     1 <1>   0.0800 
 29 H       -6.1650    -1.9240    -1.7480 H     1 <1>   0.4000 
 30 H       -6.7400    -4.1050    -1.5640 H     1 <1>   0.0800 
 31 H       -6.5980    -3.6900     1.0130 H     1 <1>   0.0800 
 32 H       -5.1380    -4.6240     0.9090 H     1 <1>   0.0800 
 33 H       -3.7550    -4.3410    -1.1470 H     1 <1>   0.0800 
 34 H       -4.5550    -4.0960    -2.6890 H     1 <1>   0.0800 
 35 H       -4.8010    -5.5730    -1.7970 H     1 <1>   0.0800 
 36 H       -8.7240    -4.7070     0.9320 H     1 <1>   0.1500 
 37 H      -10.0640    -6.7910     0.8990 H     1 <1>   0.1500 
 38 H       -8.8820    -8.9000     0.3470 H     1 <1>   0.1500 
 39 H       -5.8050    -9.1110    -1.2150 H     1 <1>   0.0800 
 40 H       -6.8980   -10.0530    -0.2260 H     1 <1>   0.0800 
 41 H       -5.4580    -9.3570     0.4800 H     1 <1>   0.0800 
@<TRIPOS>BOND
  1   1   2  2   
  2   2   3  1   
  3   2   4  1   
  4   3   5  ar  
  5   3   6  ar  
  6   4  22  1   
  7   4  23  1   
  8   4  24  1   
  9   5   7  ar  
 10   5   8  1   
 11   6   9  ar  
 12   6  25  1   
 13   7  10  ar  
 14   8  26  1   
 15   8  27  1   
 16   8  28  1   
 17   9  10  ar  
 18  10  11  1   
 19  11  12  1   
 20  11  29  1   
 21  12  13  1   
 22  12  14  1   
 23  12  30  1   
 24  13  15  1   
 25  13  31  1   
 26  13  32  1   
 27  14  33  1   
 28  14  34  1   
 29  14  35  1   
 30  15  16  ar  
 31  15  17  ar  
 32  16  18  ar  
 33  17  19  ar  
 34  17  36  1   
 35  18  20  ar  
 36  18  21  1   
 37  19  20  ar  
 38  19  37  1   
 39  20  38  1   
 40  21  39  1   
 41  21  40  1   
 42  21  41  1   
@<TRIPOS>SUBSTRUCTURE
  1 ****   9 GROUP 4 **** **** 0

# MOE 2024.06 (io_trps.svl 2023.06)
