@<TRIPOS>MOLECULE
NONAME
45 46 1 0 0 
SMALL
USER_CHARGES


@<TRIPOS>ATOM
  1 O        1.5890     3.1760     1.5390 O.co2 1 <1>  -0.9000 
  2 C        0.4200     3.0640     1.1680 C.2   1 <1>   0.9060 
  3 O       -0.5260     3.1010     1.9630 O.co2 1 <1>  -0.9000 
  4 C        0.1620     3.1530    -0.3140 C.3   1 <1>  -0.1860 
  5 C       -1.2930     3.0080    -0.8160 C.3   1 <1>   0.2000 
  6 C        0.7110     4.5180    -0.7050 C.3   1 <1>   0.3430 
  7 O       -2.0160     2.2360     0.0600 O.3   1 <1>  -0.6800 
  8 C       -2.0240     4.3480    -0.9740 C.3   1 <1>  -0.1600 
  9 N       -0.0910     5.6370    -0.1030 N.4   1 <1>  -0.9590 
 10 C       -1.5480     5.3380     0.0820 C.3   1 <1>   0.3430 
 11 C        0.5120     6.0260     1.2150 C.3   1 <1>   0.3430 
 12 C        0.2090     7.4920     1.5520 C.3   1 <1>   0.1200 
 13 O        0.1010     8.2550     0.3580 O.3   1 <1>  -0.3630 
 14 C        1.0840     9.1490     0.0790 C.ar  1 <1>   0.0830 
 15 C        2.4220     8.7790    -0.1110 C.ar  1 <1>   0.0830 
 16 C        0.7060    10.4760    -0.0260 C.ar  1 <1>  -0.1500 
 17 O        2.7630     7.4580    -0.0430 O.3   1 <1>  -0.3630 
 18 C        3.3600     9.7730    -0.3800 C.ar  1 <1>  -0.1500 
 19 C        1.6470    11.4530    -0.2960 C.ar  1 <1>  -0.1500 
 20 C        4.1140     7.0650     0.0840 C.3   1 <1>   0.1200 
 21 C        2.9730    11.1000    -0.4700 C.ar  1 <1>  -0.1500 
 22 C        4.1720     5.5500     0.2640 C.3   1 <1>  -0.2400 
 23 H        0.7620     2.3950    -0.7790 H     1 <1>   0.0800 
 24 H       -1.3070     2.4930    -1.7620 H     1 <1>   0.0800 
 25 H        0.6890     4.6030    -1.7780 H     1 <1>   0.0800 
 26 H        1.7380     4.5930    -0.3860 H     1 <1>   0.0800 
 27 H       -1.6620     2.4220     0.9840 H     1 <1>   0.4000 
 28 H       -1.8330     4.7590    -1.9480 H     1 <1>   0.0800 
 29 H       -3.0860     4.1980    -0.8890 H     1 <1>   0.0800 
 30 H        0.0220     6.4820    -0.6840 H     1 <1>   0.4500 
 31 H       -1.7050     4.8920     1.0530 H     1 <1>   0.0800 
 32 H       -2.1200     6.2490     0.0310 H     1 <1>   0.0800 
 33 H        0.1580     5.3820     2.0050 H     1 <1>   0.0800 
 34 H        1.5790     5.9000     1.1710 H     1 <1>   0.0800 
 35 H        0.9760     7.9040     2.1840 H     1 <1>   0.0800 
 36 H       -0.7330     7.5590     2.0660 H     1 <1>   0.0800 
 37 H       -0.3270    10.7460     0.1090 H     1 <1>   0.1500 
 38 H        4.3970     9.5430    -0.5320 H     1 <1>   0.1500 
 39 H        1.3490    12.4850    -0.3730 H     1 <1>   0.1500 
 40 H        4.6410     7.3520    -0.8090 H     1 <1>   0.0800 
 41 H        4.5340     7.5630     0.9410 H     1 <1>   0.0800 
 42 H        3.7060    11.8610    -0.6790 H     1 <1>   0.1500 
 43 H        3.7880     5.0540    -0.6080 H     1 <1>   0.0800 
 44 H        3.6150     5.2430     1.1320 H     1 <1>   0.0800 
 45 H        5.1930     5.2430     0.3990 H     1 <1>   0.0800 
@<TRIPOS>BOND
  1   1   2  ar  
  2   2   3  ar  
  3   2   4  1   
  4   4   5  1   
  5   4   6  1   
  6   4  23  1   
  7   5   7  1   
  8   5   8  1   
  9   5  24  1   
 10   6   9  1   
 11   6  25  1   
 12   6  26  1   
 13   7  27  1   
 14   8  10  1   
 15   8  28  1   
 16   8  29  1   
 17   9  10  1   
 18   9  11  1   
 19   9  30  1   
 20  10  31  1   
 21  10  32  1   
 22  11  12  1   
 23  11  33  1   
 24  11  34  1   
 25  12  13  1   
 26  12  35  1   
 27  12  36  1   
 28  13  14  1   
 29  14  15  ar  
 30  14  16  ar  
 31  15  17  1   
 32  15  18  ar  
 33  16  19  ar  
 34  16  37  1   
 35  17  20  1   
 36  18  21  ar  
 37  18  38  1   
 38  19  21  ar  
 39  19  39  1   
 40  20  22  1   
 41  20  40  1   
 42  20  41  1   
 43  21  42  1   
 44  22  43  1   
 45  22  44  1   
 46  22  45  1   
@<TRIPOS>SUBSTRUCTURE
  1 ****  11 GROUP 4 **** **** 0

# MOE 2024.06 (io_trps.svl 2023.06)
