@<TRIPOS>MOLECULE
NONAME
51 54 1 0 0 
SMALL
USER_CHARGES


@<TRIPOS>ATOM
  1 O       -2.1410     0.2910    -1.8860 O.2   1 <1>  -0.5700 
  2 C       -2.0940     0.4740    -0.6960 C.2   1 <1>   0.5690 
  3 N       -2.0280    -0.5550     0.1810 N.am  1 <1>  -0.7300 
  4 C       -2.1220     1.8890    -0.1640 C.3   1 <1>  -0.0990 
  5 C       -1.9710    -1.9890    -0.1930 C.3   1 <1>   0.2200 
  6 C       -0.8430     2.6440    -0.5350 C.3   1 <1>   0.0200 
  7 C       -3.3180    -2.6740     0.0110 C.3   1 <1>  -0.0800 
  8 C       -1.1320    -2.7230     0.8430 C.3   1 <1>   0.1200 
  9 C       -0.8800     4.0590     0.0200 C.2   1 <1>  -0.3320 
 10 C       -3.3070    -2.9920     1.5130 C.3   1 <1>   0.1200 
 11 C       -4.5430    -1.8670    -0.4680 C.3   1 <1>  -0.0160 
 12 O       -1.9790    -2.8790     1.9410 O.3   1 <1>  -0.5600 
 13 N       -0.5850     4.4190     1.2920 N.pl3 1 <1>   0.3140 
 14 C       -1.2040     5.1930    -0.6360 C.2   1 <1>  -0.1500 
 15 C       -5.9050    -2.5660    -0.3830 C.ar  1 <1>  -0.1440 
 16 N       -0.7200     5.7430     1.4690 N.2   1 <1>  -0.7070 
 17 C       -0.1500     3.5560     2.3980 C.3   1 <1>   0.0160 
 18 C       -1.0880     6.2000     0.3120 C.2   1 <1>   0.1390 
 19 C       -7.0870    -1.8240    -0.6350 C.ar  1 <1>   0.0000 
 20 C       -6.0600    -3.8900    -0.0800 C.ar  1 <1>  -0.1500 
 21 C       -8.3300    -2.4930    -0.5200 C.ar  1 <1>   0.3100 
 22 C       -7.1070    -0.4570    -1.0040 C.ar  1 <1>  -0.1500 
 23 C       -7.3380    -4.4560    -0.0010 C.ar  1 <1>   0.1600 
 24 N       -8.4390    -3.8060    -0.2010 N.ar  1 <1>  -0.6200 
 25 C       -9.5150    -1.7750    -0.7480 C.ar  1 <1>  -0.1500 
 26 C       -8.2810     0.2130    -1.2230 C.ar  1 <1>  -0.1500 
 27 C       -9.5020    -0.4510    -1.0910 C.ar  1 <1>  -0.1500 
 28 H       -2.0460    -0.3980     1.1910 H     1 <1>   0.3700 
 29 H       -2.9680     2.3960    -0.5910 H     1 <1>   0.0800 
 30 H       -2.2470     1.8750     0.9020 H     1 <1>   0.0800 
 31 H       -1.5880    -2.1080    -1.1930 H     1 <1>   0.0800 
 32 H       -0.7630     2.6900    -1.6080 H     1 <1>   0.0800 
 33 H        0.0230     2.1220    -0.1670 H     1 <1>   0.0800 
 34 H       -3.2850    -3.6020    -0.5320 H     1 <1>   0.0800 
 35 H       -0.2520    -2.1770     1.1350 H     1 <1>   0.0800 
 36 H       -0.8590    -3.7030     0.4920 H     1 <1>   0.0800 
 37 H       -3.6510    -3.9900     1.7180 H     1 <1>   0.0800 
 38 H       -3.8930    -2.2840     2.0730 H     1 <1>   0.0800 
 39 H       -4.3780    -1.5770    -1.4920 H     1 <1>   0.0800 
 40 H       -4.6020    -0.9670     0.1180 H     1 <1>   0.0800 
 41 H       -1.4950     5.3240    -1.6630 H     1 <1>   0.1500 
 42 H        0.6500     2.9240     2.0640 H     1 <1>   0.0800 
 43 H       -0.9800     2.9630     2.7300 H     1 <1>   0.0800 
 44 H        0.1960     4.1730     3.2070 H     1 <1>   0.0800 
 45 H       -1.2780     7.2430     0.1220 H     1 <1>   0.1500 
 46 H       -5.2340    -4.5460     0.1070 H     1 <1>   0.1500 
 47 H       -6.1830     0.0760    -1.1220 H     1 <1>   0.1500 
 48 H       -7.4090    -5.5020     0.2440 H     1 <1>   0.1500 
 49 H      -10.4420    -2.3080    -0.6440 H     1 <1>   0.1500 
 50 H       -8.2790     1.2530    -1.5010 H     1 <1>   0.1500 
 51 H      -10.4180     0.0860    -1.2640 H     1 <1>   0.1500 
@<TRIPOS>BOND
  1   1   2  2   
  2   2   3  am  
  3   2   4  1   
  4   3   5  1   
  5   3  28  1   
  6   4   6  1   
  7   4  29  1   
  8   4  30  1   
  9   5   7  1   
 10   5   8  1   
 11   5  31  1   
 12   6   9  1   
 13   6  32  1   
 14   6  33  1   
 15   7  10  1   
 16   7  11  1   
 17   7  34  1   
 18   8  12  1   
 19   8  35  1   
 20   8  36  1   
 21   9  13  1   
 22   9  14  2   
 23  10  12  1   
 24  10  37  1   
 25  10  38  1   
 26  11  15  1   
 27  11  39  1   
 28  11  40  1   
 29  13  16  1   
 30  13  17  1   
 31  14  18  1   
 32  14  41  1   
 33  15  19  ar  
 34  15  20  ar  
 35  16  18  2   
 36  17  42  1   
 37  17  43  1   
 38  17  44  1   
 39  18  45  1   
 40  19  21  ar  
 41  19  22  ar  
 42  20  23  ar  
 43  20  46  1   
 44  21  24  ar  
 45  21  25  ar  
 46  22  26  ar  
 47  22  47  1   
 48  23  24  ar  
 49  23  48  1   
 50  25  27  ar  
 51  25  49  1   
 52  26  27  ar  
 53  26  50  1   
 54  27  51  1   
@<TRIPOS>SUBSTRUCTURE
  1 ****  11 GROUP 4 **** **** 0

# MOE 2024.06 (io_trps.svl 2023.06)
