@<TRIPOS>MOLECULE
NONAME
51 53 1 0 0 
SMALL
USER_CHARGES


@<TRIPOS>ATOM
  1 O       -0.3590    -2.3520    -2.2730 O.3   1 <1>  -0.6800 
  2 C        0.6250    -2.6390    -1.3430 C.3   1 <1>   0.1200 
  3 C        0.9370    -1.3820    -0.4750 C.3   1 <1>   0.0000 
  4 C        2.1860    -1.6260     0.4190 C.3   1 <1>   0.4230 
  5 C        1.2300    -0.1530    -1.3840 C.3   1 <1>  -0.1600 
  6 C       -0.2810    -1.0390     0.4330 C.3   1 <1>  -0.1600 
  7 N        2.0050    -2.7430     1.4430 N.4   1 <1>  -0.9590 
  8 C        3.4830    -1.7250    -0.4260 C.3   1 <1>   0.2090 
  9 C        2.5030    -0.3000    -2.2240 C.3   1 <1>   0.2090 
 10 C       -0.1510    -1.5620     1.8760 C.3   1 <1>  -0.1600 
 11 C        0.5950    -2.8920     1.9400 C.3   1 <1>   0.3430 
 12 C        2.5440    -4.0890     1.0540 C.3   1 <1>   0.2630 
 13 N        3.6590    -0.5020    -1.2940 N.pl3 1 <1>  -0.8380 
 14 C        4.6970     0.3640    -1.1030 C.ar  1 <1>   0.7710 
 15 N        5.4080     0.2560     0.0100 N.ar  1 <1>  -0.6200 
 16 N        4.9700     1.3020    -2.0340 N.ar  1 <1>  -0.1790 
 17 C        6.4020     1.0970     0.1950 C.ar  1 <1>   0.4100 
 18 C        5.9810     2.1910    -1.8700 C.ar  1 <1>   0.2110 
 19 N        7.0810     0.9300     1.3400 N.pl3 1 <1>  -0.8690 
 20 C        6.7170     2.1010    -0.7380 C.ar  1 <1>  -0.1500 
 21 C        8.2960     1.6120     1.8350 C.3   1 <1>   0.2090 
 22 C        7.8710     2.7160     2.7940 C.3   1 <1>  -0.2400 
 23 H       -0.6460    -3.1470    -2.7700 H     1 <1>   0.4000 
 24 H        0.2640    -3.4500    -0.7360 H     1 <1>   0.0800 
 25 H        1.4870    -2.9750    -1.8910 H     1 <1>   0.0800 
 26 H        2.3000    -0.7190     0.9900 H     1 <1>   0.0800 
 27 H        1.3340     0.7320    -0.7810 H     1 <1>   0.0800 
 28 H        0.3970     0.0270    -2.0430 H     1 <1>   0.0800 
 29 H       -0.4300     0.0260     0.4900 H     1 <1>   0.0800 
 30 H       -1.1830    -1.4360    -0.0040 H     1 <1>   0.0800 
 31 H        2.5480    -2.4370     2.2650 H     1 <1>   0.4500 
 32 H        3.4470    -2.5880    -1.0670 H     1 <1>   0.0800 
 33 H        4.3210    -1.8570     0.2360 H     1 <1>   0.0800 
 34 H        2.6200     0.5840    -2.8250 H     1 <1>   0.0800 
 35 H        2.4150    -1.1410    -2.8940 H     1 <1>   0.0800 
 36 H       -1.1370    -1.6880     2.2920 H     1 <1>   0.0800 
 37 H        0.3580    -0.8390     2.4910 H     1 <1>   0.0800 
 38 H        0.0650    -3.6080     1.3320 H     1 <1>   0.0800 
 39 H        0.6000    -3.2600     2.9540 H     1 <1>   0.0800 
 40 H        2.0340    -4.4640     0.1830 H     1 <1>   0.0800 
 41 H        2.4050    -4.7930     1.8600 H     1 <1>   0.0800 
 42 H        3.5990    -4.0290     0.8410 H     1 <1>   0.0800 
 43 H        4.4020     1.2870    -2.8730 H     1 <1>   0.4570 
 44 H        6.1670     2.9300    -2.6330 H     1 <1>   0.1500 
 45 H        6.7290     0.2110     1.9780 H     1 <1>   0.4000 
 46 H        7.5280     2.7750    -0.5380 H     1 <1>   0.1500 
 47 H        8.9200     0.8990     2.3490 H     1 <1>   0.0800 
 48 H        8.8650     2.0220     1.0190 H     1 <1>   0.0800 
 49 H        7.3330     2.3010     3.6270 H     1 <1>   0.0800 
 50 H        7.2500     3.4330     2.2890 H     1 <1>   0.0800 
 51 H        8.7410     3.2230     3.1710 H     1 <1>   0.0800 
@<TRIPOS>BOND
  1   1   2  1   
  2   1  23  1   
  3   2   3  1   
  4   2  24  1   
  5   2  25  1   
  6   3   4  1   
  7   3   5  1   
  8   3   6  1   
  9   4   7  1   
 10   4   8  1   
 11   4  26  1   
 12   5   9  1   
 13   5  27  1   
 14   5  28  1   
 15   6  10  1   
 16   6  29  1   
 17   6  30  1   
 18   7  11  1   
 19   7  12  1   
 20   7  31  1   
 21   8  13  1   
 22   8  32  1   
 23   8  33  1   
 24   9  13  1   
 25   9  34  1   
 26   9  35  1   
 27  10  11  1   
 28  10  36  1   
 29  10  37  1   
 30  11  38  1   
 31  11  39  1   
 32  12  40  1   
 33  12  41  1   
 34  12  42  1   
 35  13  14  1   
 36  14  15  ar  
 37  14  16  ar  
 38  15  17  ar  
 39  16  18  ar  
 40  16  43  1   
 41  17  19  1   
 42  17  20  ar  
 43  18  20  ar  
 44  18  44  1   
 45  19  21  1   
 46  19  45  1   
 47  20  46  1   
 48  21  22  1   
 49  21  47  1   
 50  21  48  1   
 51  22  49  1   
 52  22  50  1   
 53  22  51  1   
@<TRIPOS>SUBSTRUCTURE
  1 ****  13 GROUP 4 **** **** 0

# MOE 2024.06 (io_trps.svl 2023.06)
