@<TRIPOS>MOLECULE
NONAME
52 54 1 0 0 
SMALL
USER_CHARGES


@<TRIPOS>ATOM
  1 F        0.3890    -4.7030    -2.9850 F     1 <1>  -0.1900 
  2 C       -0.5020    -4.9300    -2.0530 C.ar  1 <1>   0.1900 
  3 C       -0.6250    -4.1070    -0.9280 C.ar  1 <1>   0.0830 
  4 C       -1.3160    -6.0300    -2.2370 C.ar  1 <1>  -0.1500 
  5 O        0.1180    -3.0010    -0.6330 O.3   1 <1>  -0.3630 
  6 C       -1.6020    -4.4330     0.0000 C.ar  1 <1>  -0.1500 
  7 C       -2.2770    -6.3270    -1.2880 C.ar  1 <1>  -0.1500 
  8 C        1.1560    -2.5290    -1.4620 C.3   1 <1>   0.0400 
  9 C       -2.4470    -5.5350    -0.1520 C.ar  1 <1>   0.0530 
 10 C       -3.4420    -5.8190     0.8550 C.2   1 <1>   0.0870 
 11 O       -3.1250    -5.6650     2.1210 O.3   1 <1>  -0.0190 
 12 C       -4.7380    -6.2320     0.8270 C.2   1 <1>  -0.2330 
 13 N       -4.1170    -5.9250     2.9330 N.2   1 <1>  -0.4100 
 14 C       -5.1010    -6.2300     2.1730 C.2   1 <1>   0.3720 
 15 C       -5.6190    -6.6860    -0.2020 C.2   1 <1>   1.0330 
 16 N       -6.3800    -6.5080     2.6300 N.pl3 1 <1>  -0.8520 
 17 O       -5.2140    -7.4610    -1.0840 O.co2 1 <1>  -0.9000 
 18 O       -6.8550    -6.5890    -0.0740 O.co2 1 <1>  -0.9000 
 19 C       -6.6090    -7.8350     3.2540 C.3   1 <1>   0.2090 
 20 C       -7.2790    -8.7860     2.2450 C.3   1 <1>   0.2000 
 21 O       -7.9420    -9.8260     2.9000 O.3   1 <1>  -0.6800 
 22 C       -6.2490    -9.4000     1.2780 C.3   1 <1>   0.3430 
 23 N       -6.8610   -10.1860     0.1590 N.4   1 <1>  -0.9590 
 24 C       -5.7740   -10.7680    -0.6690 C.3   1 <1>   0.3430 
 25 C       -7.7190    -9.3220    -0.7120 C.3   1 <1>   0.3430 
 26 C       -6.3760   -11.6890    -1.7330 C.3   1 <1>  -0.1600 
 27 C       -8.4060   -10.1900    -1.7680 C.3   1 <1>  -0.1600 
 28 C       -7.3750   -10.9370    -2.6250 C.3   1 <1>  -0.1600 
 29 H       -1.2000    -6.6460    -3.1100 H     1 <1>   0.1500 
 30 H       -1.7110    -3.8080     0.8680 H     1 <1>   0.1500 
 31 H       -2.9000    -7.1900    -1.4330 H     1 <1>   0.1500 
 32 H        1.5790    -1.6540    -1.0030 H     1 <1>   0.0800 
 33 H        0.7480    -2.2750    -2.4250 H     1 <1>   0.0800 
 34 H        1.9090    -3.2930    -1.5510 H     1 <1>   0.0800 
 35 H       -7.0050    -6.3770     1.8060 H     1 <1>   0.4000 
 36 H       -7.2570    -7.6880     4.1010 H     1 <1>   0.0800 
 37 H       -5.6760    -8.2430     3.6060 H     1 <1>   0.0800 
 38 H       -8.0200    -8.2240     1.7040 H     1 <1>   0.0800 
 39 H       -8.6520    -9.4710     3.4750 H     1 <1>   0.4000 
 40 H       -5.6010   -10.0390     1.8520 H     1 <1>   0.0800 
 41 H       -5.6330    -8.6280     0.8700 H     1 <1>   0.0800 
 42 H       -7.4440   -10.9200     0.5770 H     1 <1>   0.4500 
 43 H       -5.0930   -11.3260    -0.0480 H     1 <1>   0.0800 
 44 H       -5.2270    -9.9680    -1.1470 H     1 <1>   0.0800 
 45 H       -7.1140    -8.5800    -1.2060 H     1 <1>   0.0800 
 46 H       -8.4620    -8.8060    -0.1280 H     1 <1>   0.0800 
 47 H       -6.8620   -12.5200    -1.2530 H     1 <1>   0.0800 
 48 H       -5.5830   -12.0820    -2.3440 H     1 <1>   0.0800 
 49 H       -9.0010    -9.5550    -2.4010 H     1 <1>   0.0800 
 50 H       -9.0680   -10.8860    -1.2850 H     1 <1>   0.0800 
 51 H       -7.8720   -11.6240    -3.2890 H     1 <1>   0.0800 
 52 H       -6.8390   -10.2220    -3.2280 H     1 <1>   0.0800 
@<TRIPOS>BOND
  1   1   2  1   
  2   2   3  ar  
  3   2   4  ar  
  4   3   5  1   
  5   3   6  ar  
  6   4   7  ar  
  7   4  29  1   
  8   5   8  1   
  9   6   9  ar  
 10   6  30  1   
 11   7   9  ar  
 12   7  31  1   
 13   8  32  1   
 14   8  33  1   
 15   8  34  1   
 16   9  10  1   
 17  10  11  1   
 18  10  12  2   
 19  11  13  1   
 20  12  14  1   
 21  12  15  1   
 22  13  14  2   
 23  14  16  1   
 24  15  17  ar  
 25  15  18  ar  
 26  16  19  1   
 27  16  35  1   
 28  19  20  1   
 29  19  36  1   
 30  19  37  1   
 31  20  21  1   
 32  20  22  1   
 33  20  38  1   
 34  21  39  1   
 35  22  23  1   
 36  22  40  1   
 37  22  41  1   
 38  23  24  1   
 39  23  25  1   
 40  23  42  1   
 41  24  26  1   
 42  24  43  1   
 43  24  44  1   
 44  25  27  1   
 45  25  45  1   
 46  25  46  1   
 47  26  28  1   
 48  26  47  1   
 49  26  48  1   
 50  27  28  1   
 51  27  49  1   
 52  27  50  1   
 53  28  51  1   
 54  28  52  1   
@<TRIPOS>SUBSTRUCTURE
  1 ****  12 GROUP 4 **** **** 0

# MOE 2024.06 (io_trps.svl 2023.06)
