@<TRIPOS>MOLECULE
NONAME
45 47 1 0 0 
SMALL
USER_CHARGES


@<TRIPOS>ATOM
  1 O       -0.1860    -0.6360    -1.0830 O.2   1 <1>  -0.5700 
  2 C        0.4210    -1.4310    -0.3840 C.2   1 <1>   0.5440 
  3 N        0.9220    -0.9710     0.8280 N.am  1 <1>  -0.6600 
  4 C        0.6020    -2.7970    -0.8790 C.ar  1 <1>   0.3960 
  5 C        0.5410     0.3570     1.3860 C.3   1 <1>   0.0600 
  6 C        1.9020    -1.7270     1.6570 C.3   1 <1>   0.0600 
  7 N        0.5740    -3.8500    -0.0430 N.ar  1 <1>  -0.6200 
  8 C        0.7880    -2.9660    -2.2560 C.ar  1 <1>   0.1600 
  9 C        0.7430    -5.0050    -0.6470 C.ar  1 <1>   0.4100 
 10 N        0.9700    -4.1240    -2.8770 N.ar  1 <1>  -0.6200 
 11 N        0.6870    -6.0750     0.2040 N.pl3 1 <1>  -0.8690 
 12 C        0.9490    -5.1310    -2.0290 C.ar  1 <1>   0.1600 
 13 C       -0.3000    -7.1610    -0.0160 C.3   1 <1>   0.2890 
 14 C       -1.7040    -6.6550     0.2840 C.3   1 <1>  -0.0800 
 15 C       -0.1160    -8.2460     1.0470 C.3   1 <1>   0.1200 
 16 C       -1.7800    -6.8380     1.7990 C.3   1 <1>   0.1200 
 17 C       -2.7750    -7.4810    -0.4540 C.3   1 <1>  -0.0170 
 18 O       -0.9870    -7.9460     2.1010 O.3   1 <1>  -0.5600 
 19 C       -4.1760    -6.9760    -0.1470 C.ar  1 <1>  -0.1430 
 20 C       -5.0440    -7.6750     0.6680 C.ar  1 <1>  -0.1500 
 21 C       -4.6530    -5.7900    -0.6670 C.ar  1 <1>  -0.1500 
 22 C       -6.3080    -7.1670     0.9180 C.ar  1 <1>   0.1600 
 23 C       -5.9350    -5.3700    -0.3530 C.ar  1 <1>   0.1600 
 24 N       -6.7740    -6.0300     0.4280 N.ar  1 <1>  -0.6200 
 25 H        0.2900     0.2570     2.4270 H     1 <1>   0.0800 
 26 H       -0.3120     0.7620     0.8690 H     1 <1>   0.0800 
 27 H        1.3640     1.0430     1.2830 H     1 <1>   0.0800 
 28 H        2.5650    -1.0450     2.1600 H     1 <1>   0.0800 
 29 H        2.4940    -2.3810     1.0410 H     1 <1>   0.0800 
 30 H        1.3760    -2.3140     2.3890 H     1 <1>   0.0800 
 31 H        0.7860    -2.0840    -2.8740 H     1 <1>   0.1500 
 32 H        0.6560    -5.7570     1.1780 H     1 <1>   0.4000 
 33 H        1.1010    -6.1180    -2.4240 H     1 <1>   0.1500 
 34 H       -0.1950    -7.5590    -1.0110 H     1 <1>   0.0800 
 35 H       -1.8250    -5.6190     0.0200 H     1 <1>   0.0800 
 36 H        0.8930    -8.2880     1.4170 H     1 <1>   0.0800 
 37 H       -0.4010    -9.2080     0.6600 H     1 <1>   0.0800 
 38 H       -2.7780    -7.0050     2.1630 H     1 <1>   0.0800 
 39 H       -1.3550    -5.9870     2.3040 H     1 <1>   0.0800 
 40 H       -2.6990    -8.5190    -0.1800 H     1 <1>   0.0800 
 41 H       -2.6130    -7.4120    -1.5160 H     1 <1>   0.0800 
 42 H       -4.7500    -8.6090     1.1130 H     1 <1>   0.1500 
 43 H       -4.0410    -5.1860    -1.3120 H     1 <1>   0.1500 
 44 H       -6.9700    -7.7260     1.5570 H     1 <1>   0.1500 
 45 H       -6.2880    -4.4410    -0.7670 H     1 <1>   0.1500 
@<TRIPOS>BOND
  1   1   2  2   
  2   2   3  am  
  3   2   4  1   
  4   3   5  1   
  5   3   6  1   
  6   4   7  ar  
  7   4   8  ar  
  8   5  25  1   
  9   5  26  1   
 10   5  27  1   
 11   6  28  1   
 12   6  29  1   
 13   6  30  1   
 14   7   9  ar  
 15   8  10  ar  
 16   8  31  1   
 17   9  11  1   
 18   9  12  ar  
 19  10  12  ar  
 20  11  13  1   
 21  11  32  1   
 22  12  33  1   
 23  13  14  1   
 24  13  15  1   
 25  13  34  1   
 26  14  16  1   
 27  14  17  1   
 28  14  35  1   
 29  15  18  1   
 30  15  36  1   
 31  15  37  1   
 32  16  18  1   
 33  16  38  1   
 34  16  39  1   
 35  17  19  1   
 36  17  40  1   
 37  17  41  1   
 38  19  20  ar  
 39  19  21  ar  
 40  20  22  ar  
 41  20  42  1   
 42  21  23  ar  
 43  21  43  1   
 44  22  24  ar  
 45  22  44  1   
 46  23  24  ar  
 47  23  45  1   
@<TRIPOS>SUBSTRUCTURE
  1 ****  14 GROUP 4 **** **** 0

# MOE 2024.06 (io_trps.svl 2023.06)
