@<TRIPOS>MOLECULE
NONAME
44 46 1 0 0 
SMALL
USER_CHARGES


@<TRIPOS>ATOM
  1 O       -0.3140     0.1560     0.7380 O.2   1 <1>  -0.5700 
  2 C       -1.3660     0.7540     0.6150 C.2   1 <1>   0.7150 
  3 N       -2.5110     0.0270     0.3880 N.am  1 <1>  -0.6600 
  4 C       -1.3960     2.1880     0.6900 C.2   1 <1>  -0.2370 
  5 C       -3.7680     0.5840    -0.1680 C.3   1 <1>   0.1400 
  6 C       -2.5010    -1.4530     0.2800 C.3   1 <1>   0.1400 
  7 N       -0.4240     3.0020     0.1950 N.pl3 1 <1>   0.3140 
  8 C       -2.3190     3.0250     1.2420 C.2   1 <1>  -0.1500 
  9 C       -4.4910    -0.6140    -0.7830 C.3   1 <1>   0.2000 
 10 C       -3.9430    -1.8400    -0.0570 C.3   1 <1>  -0.0800 
 11 N       -0.7100     4.3030     0.4050 N.2   1 <1>  -0.7070 
 12 C        0.8280     2.5650    -0.4860 C.3   1 <1>   0.0960 
 13 C       -1.8420     4.3030     1.0310 C.2   1 <1>   0.1080 
 14 O       -5.8630    -0.5320    -0.6050 O.3   1 <1>  -0.6800 
 15 C       -4.0750    -3.1270    -0.8900 C.3   1 <1>  -0.0170 
 16 C        1.4580     3.6510    -1.3740 C.3   1 <1>  -0.2400 
 17 C       -2.5170     5.5830     1.4650 C.3   1 <1>  -0.0590 
 18 C       -3.5890    -4.3490    -0.1260 C.ar  1 <1>   0.1670 
 19 N       -2.2830    -4.5590    -0.1140 N.ar  1 <1>  -0.6200 
 20 C       -4.5070    -5.1790     0.5160 C.ar  1 <1>   0.1600 
 21 C       -1.9590    -5.6400     0.5750 C.ar  1 <1>   0.1600 
 22 N       -4.1860    -6.2600     1.2070 N.ar  1 <1>  -0.6200 
 23 C       -2.8790    -6.4630     1.2140 C.ar  1 <1>   0.1600 
 24 H       -4.3490     1.0090     0.6310 H     1 <1>   0.0800 
 25 H       -3.5570     1.3300    -0.9150 H     1 <1>   0.0800 
 26 H       -1.8290    -1.7450    -0.5100 H     1 <1>   0.0800 
 27 H       -2.1740    -1.9030     1.2020 H     1 <1>   0.0800 
 28 H       -3.2290     2.7680     1.7510 H     1 <1>   0.1500 
 29 H       -4.2860    -0.6600    -1.8400 H     1 <1>   0.0800 
 30 H       -4.4630    -1.9640     0.8770 H     1 <1>   0.0800 
 31 H        1.5270     2.2630     0.2720 H     1 <1>   0.0800 
 32 H        0.6010     1.7090    -1.0940 H     1 <1>   0.0800 
 33 H       -6.0830    -0.4910     0.3460 H     1 <1>   0.4000 
 34 H       -3.5080    -3.0370    -1.8000 H     1 <1>   0.0800 
 35 H       -5.1060    -3.2650    -1.1650 H     1 <1>   0.0800 
 36 H        1.7500     4.4970    -0.7750 H     1 <1>   0.0800 
 37 H        0.7560     3.9730    -2.1220 H     1 <1>   0.0800 
 38 H        2.3320     3.2620    -1.8630 H     1 <1>   0.0800 
 39 H       -3.4410     5.3710     1.9680 H     1 <1>   0.0800 
 40 H       -2.7130     6.1930     0.6030 H     1 <1>   0.0800 
 41 H       -1.8670     6.1200     2.1300 H     1 <1>   0.0800 
 42 H       -5.5540    -4.9390     0.4560 H     1 <1>   0.1500 
 43 H       -0.9140    -5.8890     0.6380 H     1 <1>   0.1500 
 44 H       -2.5180    -7.3220     1.7520 H     1 <1>   0.1500 
@<TRIPOS>BOND
  1   1   2  2   
  2   2   3  am  
  3   2   4  1   
  4   3   5  1   
  5   3   6  1   
  6   4   7  1   
  7   4   8  2   
  8   5   9  1   
  9   5  24  1   
 10   5  25  1   
 11   6  10  1   
 12   6  26  1   
 13   6  27  1   
 14   7  11  1   
 15   7  12  1   
 16   8  13  1   
 17   8  28  1   
 18   9  10  1   
 19   9  14  1   
 20   9  29  1   
 21  10  15  1   
 22  10  30  1   
 23  11  13  2   
 24  12  16  1   
 25  12  31  1   
 26  12  32  1   
 27  13  17  1   
 28  14  33  1   
 29  15  18  1   
 30  15  34  1   
 31  15  35  1   
 32  16  36  1   
 33  16  37  1   
 34  16  38  1   
 35  17  39  1   
 36  17  40  1   
 37  17  41  1   
 38  18  19  ar  
 39  18  20  ar  
 40  19  21  ar  
 41  20  22  ar  
 42  20  42  1   
 43  21  23  ar  
 44  21  43  1   
 45  22  23  ar  
 46  23  44  1   
@<TRIPOS>SUBSTRUCTURE
  1 ****   3 GROUP 4 **** **** 0

# MOE 2024.06 (io_trps.svl 2023.06)
