@<TRIPOS>MOLECULE
NONAME
54 57 1 0 0 
SMALL
USER_CHARGES


@<TRIPOS>ATOM
  1 O       -0.5620     0.0840     0.0480 O.2   1 <1>  -0.5700 
  2 C       -1.5390     0.7410    -0.2710 C.2   1 <1>   0.5440 
  3 N       -2.7400     0.0630    -0.3680 N.am  1 <1>  -0.6600 
  4 C       -1.3930     2.1820    -0.5070 C.ar  1 <1>   0.3960 
  5 C       -4.0850     0.6660    -0.5590 C.3   1 <1>   0.1400 
  6 C       -2.8460    -1.4150    -0.2880 C.3   1 <1>   0.1400 
  7 N       -2.1930     2.8290    -1.3520 N.ar  1 <1>  -0.6200 
  8 C       -0.3950     2.8790     0.1540 C.ar  1 <1>  -0.1500 
  9 C       -5.0570    -0.4490    -0.1790 C.3   1 <1>   0.2000 
 10 C       -4.3170    -1.7260    -0.5970 C.3   1 <1>  -0.0800 
 11 C       -1.9740     4.1180    -1.4760 C.ar  1 <1>   0.7200 
 12 C       -0.2570     4.2270    -0.0670 C.ar  1 <1>   0.1660 
 13 O       -5.2160    -0.4320     1.1990 O.3   1 <1>  -0.6800 
 14 C       -4.8400    -3.0190     0.0620 C.3   1 <1>  -0.0160 
 15 N       -1.0550     4.8590    -0.8920 N.ar  1 <1>  -0.6200 
 16 N       -2.7750     4.7620    -2.3230 N.pl3 1 <1>  -0.9000 
 17 C        0.8280     5.0440     0.6350 C.3   1 <1>   0.0630 
 18 C       -4.2330    -4.3360    -0.4370 C.ar  1 <1>  -0.1440 
 19 C        2.2320     4.5470     0.2630 C.3   1 <1>  -0.2400 
 20 C        0.6390     5.0330     2.1580 C.3   1 <1>  -0.2400 
 21 C       -4.5190    -5.5440     0.2480 C.ar  1 <1>   0.0000 
 22 C       -3.4220    -4.4270    -1.5350 C.ar  1 <1>  -0.1500 
 23 C       -3.9290    -6.7390    -0.2330 C.ar  1 <1>   0.3100 
 24 C       -5.3620    -5.6380     1.3810 C.ar  1 <1>  -0.1500 
 25 C       -2.8940    -5.6620    -1.9290 C.ar  1 <1>   0.1600 
 26 N       -3.1200    -6.7810    -1.3200 N.ar  1 <1>  -0.6200 
 27 C       -4.1910    -7.9470     0.4340 C.ar  1 <1>  -0.1500 
 28 C       -5.5980    -6.8320     2.0070 C.ar  1 <1>  -0.1500 
 29 C       -5.0050    -8.0030     1.5310 C.ar  1 <1>  -0.1500 
 30 H       -4.2250     1.5450     0.0480 H     1 <1>   0.0800 
 31 H       -4.2080     0.9220    -1.5970 H     1 <1>   0.0800 
 32 H       -2.1750    -1.8770    -0.9910 H     1 <1>   0.0800 
 33 H       -2.5840    -1.7310     0.7080 H     1 <1>   0.0800 
 34 H        0.2590     2.3600     0.8290 H     1 <1>   0.1500 
 35 H       -6.0250    -0.3420    -0.6380 H     1 <1>   0.0800 
 36 H       -4.4270    -1.8090    -1.6630 H     1 <1>   0.0800 
 37 H       -4.3320    -0.3510     1.6130 H     1 <1>   0.4000 
 38 H       -5.9050    -3.0670    -0.0820 H     1 <1>   0.0800 
 39 H       -4.6610    -2.9480     1.1210 H     1 <1>   0.0800 
 40 H       -3.2130     4.1920    -3.0400 H     1 <1>   0.4000 
 41 H       -2.4400     5.6770    -2.6140 H     1 <1>   0.4000 
 42 H        0.7440     6.0650     0.3020 H     1 <1>   0.0800 
 43 H        2.3910     3.5410     0.6090 H     1 <1>   0.0800 
 44 H        2.9800     5.1830     0.7010 H     1 <1>   0.0800 
 45 H        2.3530     4.5660    -0.8060 H     1 <1>   0.0800 
 46 H        0.7570     4.0410     2.5550 H     1 <1>   0.0800 
 47 H       -0.3470     5.3880     2.4050 H     1 <1>   0.0800 
 48 H        1.3590     5.6800     2.6270 H     1 <1>   0.0800 
 49 H       -3.1560    -3.5810    -2.1370 H     1 <1>   0.1500 
 50 H       -5.8360    -4.7550     1.7660 H     1 <1>   0.1500 
 51 H       -2.2560    -5.6810    -2.7970 H     1 <1>   0.1500 
 52 H       -3.7250    -8.8340     0.0470 H     1 <1>   0.1500 
 53 H       -6.2410    -6.8850     2.8690 H     1 <1>   0.1500 
 54 H       -5.1970    -8.9360     2.0330 H     1 <1>   0.1500 
@<TRIPOS>BOND
  1   1   2  2   
  2   2   3  am  
  3   2   4  1   
  4   3   5  1   
  5   3   6  1   
  6   4   7  ar  
  7   4   8  ar  
  8   5   9  1   
  9   5  30  1   
 10   5  31  1   
 11   6  10  1   
 12   6  32  1   
 13   6  33  1   
 14   7  11  ar  
 15   8  12  ar  
 16   8  34  1   
 17   9  10  1   
 18   9  13  1   
 19   9  35  1   
 20  10  14  1   
 21  10  36  1   
 22  11  15  ar  
 23  11  16  1   
 24  12  15  ar  
 25  12  17  1   
 26  13  37  1   
 27  14  18  1   
 28  14  38  1   
 29  14  39  1   
 30  16  40  1   
 31  16  41  1   
 32  17  19  1   
 33  17  20  1   
 34  17  42  1   
 35  18  21  ar  
 36  18  22  ar  
 37  19  43  1   
 38  19  44  1   
 39  19  45  1   
 40  20  46  1   
 41  20  47  1   
 42  20  48  1   
 43  21  23  ar  
 44  21  24  ar  
 45  22  25  ar  
 46  22  49  1   
 47  23  26  ar  
 48  23  27  ar  
 49  24  28  ar  
 50  24  50  1   
 51  25  26  ar  
 52  25  51  1   
 53  27  29  ar  
 54  27  52  1   
 55  28  29  ar  
 56  28  53  1   
 57  29  54  1   
@<TRIPOS>SUBSTRUCTURE
  1 ****   6 GROUP 4 **** **** 0

# MOE 2024.06 (io_trps.svl 2023.06)
