@<TRIPOS>MOLECULE
NONAME
45 47 1 0 0 
SMALL
USER_CHARGES


@<TRIPOS>ATOM
  1 O       -0.3130     0.2000     1.2000 O.2   1 <1>  -0.5700 
  2 C       -1.2830     0.8270     0.8190 C.2   1 <1>   0.5440 
  3 N       -2.3730     0.1370     0.3440 N.am  1 <1>  -0.6600 
  4 C       -1.2890     2.2750     0.8630 C.ar  1 <1>   0.0860 
  5 C       -3.5880     0.7550    -0.2390 C.3   1 <1>   0.1400 
  6 C       -2.4310    -1.3400     0.2590 C.3   1 <1>   0.1400 
  7 C       -0.6110     3.0560    -0.0810 C.ar  1 <1>  -0.1440 
  8 C       -2.0040     2.9310     1.8650 C.ar  1 <1>  -0.1500 
  9 C       -4.4130    -0.4230    -0.7610 C.3   1 <1>   0.2000 
 10 C       -3.9040    -1.6540    -0.0120 C.3   1 <1>  -0.0800 
 11 C       -0.6660     4.4390    -0.0180 C.ar  1 <1>  -0.1500 
 12 C        0.1970     2.3870    -1.1860 C.3   1 <1>  -0.0960 
 13 C       -2.0580     4.3090     1.9250 C.ar  1 <1>  -0.1500 
 14 O       -5.7660    -0.2480    -0.5150 O.3   1 <1>  -0.6800 
 15 C       -4.1380    -2.9590    -0.7910 C.3   1 <1>  -0.0170 
 16 C       -1.3930     5.0760     0.9840 C.ar  1 <1>   0.0820 
 17 C       -3.6470    -4.1720    -0.0170 C.ar  1 <1>   0.1670 
 18 O       -1.4950     6.4180     1.1070 O.3   1 <1>  -0.3630 
 19 N       -2.3640    -4.4730    -0.1420 N.ar  1 <1>  -0.6200 
 20 C       -4.5330    -4.8980     0.7760 C.ar  1 <1>   0.1600 
 21 C       -0.8270     7.2980     0.2310 C.3   1 <1>   0.0400 
 22 C       -2.0300    -5.5330     0.5740 C.ar  1 <1>   0.1600 
 23 N       -4.2010    -5.9590     1.4940 N.ar  1 <1>  -0.6200 
 24 C       -2.9180    -6.2510     1.3650 C.ar  1 <1>   0.1600 
 25 H       -4.1180     1.2910     0.5280 H     1 <1>   0.0800 
 26 H       -3.3200     1.4210    -1.0410 H     1 <1>   0.0800 
 27 H       -1.8070    -1.6690    -0.5550 H     1 <1>   0.0800 
 28 H       -2.0870    -1.7930     1.1740 H     1 <1>   0.0800 
 29 H       -2.5190     2.3430     2.6040 H     1 <1>   0.1500 
 30 H       -4.2700    -0.5240    -1.8230 H     1 <1>   0.0800 
 31 H       -4.3920    -1.7170     0.9460 H     1 <1>   0.0800 
 32 H       -0.1380     5.0150    -0.7530 H     1 <1>   0.1500 
 33 H        0.6440     3.1140    -1.8390 H     1 <1>   0.0800 
 34 H       -0.4370     1.7460    -1.7720 H     1 <1>   0.0800 
 35 H        0.9820     1.7910    -0.7530 H     1 <1>   0.0800 
 36 H       -2.6130     4.8030     2.7020 H     1 <1>   0.1500 
 37 H       -5.9260    -0.1320     0.4420 H     1 <1>   0.4000 
 38 H       -3.6300    -2.9190    -1.7380 H     1 <1>   0.0800 
 39 H       -5.1890    -3.0660    -0.9930 H     1 <1>   0.0800 
 40 H       -5.5620    -4.5880     0.8220 H     1 <1>   0.1500 
 41 H       -1.0480     8.3050     0.5360 H     1 <1>   0.0800 
 42 H       -1.1840     7.1330    -0.7700 H     1 <1>   0.0800 
 43 H        0.2320     7.1200     0.2980 H     1 <1>   0.0800 
 44 H       -1.0020    -5.8490     0.5340 H     1 <1>   0.1500 
 45 H       -2.5510    -7.1010     1.9130 H     1 <1>   0.1500 
@<TRIPOS>BOND
  1   1   2  2   
  2   2   3  am  
  3   2   4  1   
  4   3   5  1   
  5   3   6  1   
  6   4   7  ar  
  7   4   8  ar  
  8   5   9  1   
  9   5  25  1   
 10   5  26  1   
 11   6  10  1   
 12   6  27  1   
 13   6  28  1   
 14   7  11  ar  
 15   7  12  1   
 16   8  13  ar  
 17   8  29  1   
 18   9  10  1   
 19   9  14  1   
 20   9  30  1   
 21  10  15  1   
 22  10  31  1   
 23  11  16  ar  
 24  11  32  1   
 25  12  33  1   
 26  12  34  1   
 27  12  35  1   
 28  13  16  ar  
 29  13  36  1   
 30  14  37  1   
 31  15  17  1   
 32  15  38  1   
 33  15  39  1   
 34  16  18  1   
 35  17  19  ar  
 36  17  20  ar  
 37  18  21  1   
 38  19  22  ar  
 39  20  23  ar  
 40  20  40  1   
 41  21  41  1   
 42  21  42  1   
 43  21  43  1   
 44  22  24  ar  
 45  22  44  1   
 46  23  24  ar  
 47  24  45  1   
@<TRIPOS>SUBSTRUCTURE
  1 ****   3 GROUP 4 **** **** 0

# MOE 2024.06 (io_trps.svl 2023.06)
