@<TRIPOS>MOLECULE
NONAME
58 59 1 0 0 
SMALL
USER_CHARGES


@<TRIPOS>ATOM
  1 S       -2.2370     1.4470     1.1260 S.3   1 <1>  -0.4600 
  2 C       -3.1130    -0.1410     0.8680 C.3   1 <1>   0.1310 
  3 C       -0.5010     1.0430     0.8020 C.3   1 <1>   0.0700 
  4 C       -4.5630    -0.1010     1.3470 C.2   1 <1>   0.5690 
  5 C        0.0760     0.3800     2.0510 C.3   1 <1>  -0.2400 
  6 O       -4.8650    -0.8810     2.2220 O.2   1 <1>  -0.5700 
  7 N       -5.4960     0.7380     0.7830 N.am  1 <1>  -0.6600 
  8 C       -5.1920     1.6940    -0.3220 C.3   1 <1>   0.1400 
  9 C       -6.8940     0.7580     1.3080 C.3   1 <1>   0.1400 
 10 C       -6.4460     1.9090    -1.1680 C.3   1 <1>  -0.1600 
 11 C       -7.5300     2.1370     1.1160 C.3   1 <1>  -0.1600 
 12 C       -7.5750     2.6040    -0.3630 C.3   1 <1>   0.2800 
 13 O       -7.2620     3.9820    -0.3170 O.3   1 <1>  -0.5600 
 14 C       -9.0040     2.3790    -0.9770 C.3   1 <1>   0.2000 
 15 C       -7.6790     4.7990    -1.3680 C.3   1 <1>   0.1200 
 16 O       -8.9290     2.0630    -2.3480 O.3   1 <1>  -0.6800 
 17 C       -9.9130     3.6340    -0.7950 C.3   1 <1>   0.3000 
 18 C       -9.2150     4.8330    -1.4710 C.3   1 <1>  -0.1600 
 19 N      -10.0630     4.0220     0.6300 N.am  1 <1>  -0.7300 
 20 C      -11.3080     3.4550    -1.4160 C.3   1 <1>  -0.2400 
 21 C      -10.8010     3.5680     1.6790 C.2   1 <1>   0.5690 
 22 O      -10.6810     4.1270     2.7410 O.2   1 <1>  -0.5700 
 23 C      -11.7680     2.3840     1.6090 C.3   1 <1>   0.1810 
 24 O      -11.1380     1.2210     1.1360 O.3   1 <1>  -0.5600 
 25 C      -11.9550     0.1030     1.0870 C.3   1 <1>   0.1200 
 26 C      -11.1270    -1.0320     0.4990 C.3   1 <1>  -0.2400 
 27 H       -3.0690    -0.3690    -0.1800 H     1 <1>   0.0800 
 28 H       -2.5770    -0.8890     1.4200 H     1 <1>   0.0800 
 29 H       -0.4650     0.3960    -0.0570 H     1 <1>   0.0800 
 30 H        0.0010     1.9700     0.5860 H     1 <1>   0.0800 
 31 H       -0.4340    -0.5410     2.2640 H     1 <1>   0.0800 
 32 H       -0.0240     1.0390     2.8950 H     1 <1>   0.0800 
 33 H        1.1190     0.1680     1.9020 H     1 <1>   0.0800 
 34 H       -4.8650     2.6310     0.0980 H     1 <1>   0.0800 
 35 H       -4.4060     1.3070    -0.9460 H     1 <1>   0.0800 
 36 H       -7.4740     0.0110     0.7920 H     1 <1>   0.0800 
 37 H       -6.8930     0.5130     2.3570 H     1 <1>   0.0800 
 38 H       -6.7760     0.9410    -1.5030 H     1 <1>   0.0800 
 39 H       -6.1950     2.4800    -2.0410 H     1 <1>   0.0800 
 40 H       -6.9650     2.8370     1.7070 H     1 <1>   0.0800 
 41 H       -8.5150     2.0940     1.5350 H     1 <1>   0.0800 
 42 H       -9.4560     1.5230    -0.5170 H     1 <1>   0.0800 
 43 H       -7.2960     5.7880    -1.1840 H     1 <1>   0.0800 
 44 H       -7.2390     4.4330    -2.2790 H     1 <1>   0.0800 
 45 H       -8.4510     2.7660    -2.8230 H     1 <1>   0.4000 
 46 H       -9.5860     5.7560    -1.0620 H     1 <1>   0.0800 
 47 H       -9.4550     4.8560    -2.5180 H     1 <1>   0.0800 
 48 H       -9.3250     4.6720     0.9140 H     1 <1>   0.3700 
 49 H      -11.2410     3.4120    -2.4880 H     1 <1>   0.0800 
 50 H      -11.9520     4.2740    -1.1520 H     1 <1>   0.0800 
 51 H      -11.7470     2.5280    -1.1030 H     1 <1>   0.0800 
 52 H      -12.5940     2.6260     0.9680 H     1 <1>   0.0800 
 53 H      -12.1390     2.1840     2.5990 H     1 <1>   0.0800 
 54 H      -12.2790    -0.1370     2.0860 H     1 <1>   0.0800 
 55 H      -12.8060     0.3160     0.4610 H     1 <1>   0.0800 
 56 H      -10.2710    -1.2250     1.1200 H     1 <1>   0.0800 
 57 H      -10.8000    -0.7760    -0.4930 H     1 <1>   0.0800 
 58 H      -11.7200    -1.9260     0.4440 H     1 <1>   0.0800 
@<TRIPOS>BOND
  1   1   2  1   
  2   1   3  1   
  3   2   4  1   
  4   2  27  1   
  5   2  28  1   
  6   3   5  1   
  7   3  29  1   
  8   3  30  1   
  9   4   6  2   
 10   4   7  am  
 11   5  31  1   
 12   5  32  1   
 13   5  33  1   
 14   7   8  1   
 15   7   9  1   
 16   8  10  1   
 17   8  34  1   
 18   8  35  1   
 19   9  11  1   
 20   9  36  1   
 21   9  37  1   
 22  10  12  1   
 23  10  38  1   
 24  10  39  1   
 25  11  12  1   
 26  11  40  1   
 27  11  41  1   
 28  12  13  1   
 29  12  14  1   
 30  13  15  1   
 31  14  16  1   
 32  14  17  1   
 33  14  42  1   
 34  15  18  1   
 35  15  43  1   
 36  15  44  1   
 37  16  45  1   
 38  17  18  1   
 39  17  19  1   
 40  17  20  1   
 41  18  46  1   
 42  18  47  1   
 43  19  21  am  
 44  19  48  1   
 45  20  49  1   
 46  20  50  1   
 47  20  51  1   
 48  21  22  2   
 49  21  23  1   
 50  23  24  1   
 51  23  52  1   
 52  23  53  1   
 53  24  25  1   
 54  25  26  1   
 55  25  54  1   
 56  25  55  1   
 57  26  56  1   
 58  26  57  1   
 59  26  58  1   
@<TRIPOS>SUBSTRUCTURE
  1 ****  11 GROUP 4 **** **** 0

# MOE 2024.06 (io_trps.svl 2023.06)
