@<TRIPOS>MOLECULE
NONAME
58 61 1 0 0 
SMALL
USER_CHARGES


@<TRIPOS>ATOM
  1 O       -2.9650     3.1910     1.1090 O.2   1 <1>  -0.5700 
  2 C       -2.8670     2.6370     0.0360 C.2   1 <1>   0.5690 
  3 N       -3.8970     1.8590    -0.4490 N.am  1 <1>  -0.6600 
  4 C       -1.5580     2.8080    -0.7420 C.3   1 <1>   0.2370 
  5 C       -5.0490     1.4880     0.4140 C.3   1 <1>   0.1400 
  6 C       -3.8810     1.0860    -1.7250 C.3   1 <1>   0.1400 
  7 N       -0.8350     1.5180    -0.7310 N.pl3 1 <1>   0.3140 
  8 C       -0.6360     3.9340    -0.2250 C.3   1 <1>  -0.2400 
  9 C       -4.8850     0.0210     0.8140 C.3   1 <1>  -0.1600 
 10 C       -3.7300    -0.4020    -1.4020 C.3   1 <1>  -0.1600 
 11 N       -0.3640     0.9620    -1.8670 N.2   1 <1>  -0.7070 
 12 C       -0.6060     0.7140     0.3310 C.2   1 <1>  -0.3020 
 13 C       -4.7960    -0.9020    -0.4150 C.3   1 <1>   0.4240 
 14 C        0.1470    -0.1730    -1.4970 C.2   1 <1>   0.1390 
 15 C        0.0200    -0.3880    -0.1300 C.2   1 <1>  -0.1810 
 16 O       -6.0140    -0.8080    -1.1160 O.3   1 <1>  -0.5600 
 17 C       -4.4810    -2.3540     0.0050 C.ar  1 <1>  -0.1430 
 18 C        0.4790    -1.6080     0.6430 C.3   1 <1>  -0.0590 
 19 C       -7.0660    -1.6170    -0.6900 C.3   1 <1>   0.1200 
 20 C       -5.3750    -3.3870    -0.2380 C.ar  1 <1>  -0.1430 
 21 C       -3.2860    -2.6530     0.6460 C.ar  1 <1>  -0.1500 
 22 C       -6.6930    -3.0800    -0.9200 C.3   1 <1>  -0.0170 
 23 C       -5.0680    -4.6860     0.1350 C.ar  1 <1>  -0.1500 
 24 C       -2.9680    -3.9420     1.0380 C.ar  1 <1>   0.0820 
 25 C       -3.8640    -4.9870     0.7670 C.ar  1 <1>   0.0820 
 26 O       -1.7650    -4.0710     1.6690 O.3   1 <1>  -0.3630 
 27 O       -3.5400    -6.2690     1.1080 O.3   1 <1>  -0.3620 
 28 C       -1.5930    -5.0090     2.7070 C.3   1 <1>   0.0400 
 29 C       -4.2880    -7.3760     0.6530 C.3   1 <1>   0.0400 
 30 H       -1.8070     3.0330    -1.7600 H     1 <1>   0.0800 
 31 H       -5.9670     1.6280    -0.1310 H     1 <1>   0.0800 
 32 H       -5.0860     2.1060     1.2950 H     1 <1>   0.0800 
 33 H       -3.0820     1.3990    -2.3720 H     1 <1>   0.0800 
 34 H       -4.8090     1.2500    -2.2470 H     1 <1>   0.0800 
 35 H       -0.3420     3.7410     0.7910 H     1 <1>   0.0800 
 36 H       -1.1570     4.8740    -0.2560 H     1 <1>   0.0800 
 37 H        0.2410     4.0050    -0.8440 H     1 <1>   0.0800 
 38 H       -5.6960    -0.2810     1.4480 H     1 <1>   0.0800 
 39 H       -3.9850    -0.0630     1.3950 H     1 <1>   0.0800 
 40 H       -2.7520    -0.5580    -0.9940 H     1 <1>   0.0800 
 41 H       -3.7870    -0.9800    -2.3060 H     1 <1>   0.0800 
 42 H       -0.9060     0.9660     1.3320 H     1 <1>   0.1500 
 43 H        0.6100    -0.8650    -2.1800 H     1 <1>   0.1500 
 44 H        0.1690    -1.5370     1.6700 H     1 <1>   0.0800 
 45 H        1.5500    -1.6860     0.6060 H     1 <1>   0.0800 
 46 H        0.0480    -2.4960     0.2160 H     1 <1>   0.0800 
 47 H       -7.9370    -1.3560    -1.2650 H     1 <1>   0.0800 
 48 H       -7.2620    -1.4270     0.3500 H     1 <1>   0.0800 
 49 H       -2.5730    -1.8770     0.8570 H     1 <1>   0.1500 
 50 H       -6.6080    -3.2650    -1.9760 H     1 <1>   0.0800 
 51 H       -7.4720    -3.7080    -0.5270 H     1 <1>   0.0800 
 52 H       -5.7850    -5.4550    -0.0780 H     1 <1>   0.1500 
 53 H       -0.7550    -4.6990     3.3050 H     1 <1>   0.0800 
 54 H       -1.3930    -5.9730     2.2750 H     1 <1>   0.0800 
 55 H       -2.4850    -5.0380     3.3080 H     1 <1>   0.0800 
 56 H       -3.7820    -8.2710     0.9650 H     1 <1>   0.0800 
 57 H       -4.3430    -7.3430    -0.4210 H     1 <1>   0.0800 
 58 H       -5.2680    -7.3400     1.0930 H     1 <1>   0.0800 
@<TRIPOS>BOND
  1   1   2  2   
  2   2   3  am  
  3   2   4  1   
  4   3   5  1   
  5   3   6  1   
  6   4   7  1   
  7   4   8  1   
  8   4  30  1   
  9   5   9  1   
 10   5  31  1   
 11   5  32  1   
 12   6  10  1   
 13   6  33  1   
 14   6  34  1   
 15   7  11  1   
 16   7  12  1   
 17   8  35  1   
 18   8  36  1   
 19   8  37  1   
 20   9  13  1   
 21   9  38  1   
 22   9  39  1   
 23  10  13  1   
 24  10  40  1   
 25  10  41  1   
 26  11  14  2   
 27  12  15  2   
 28  12  42  1   
 29  13  16  1   
 30  13  17  1   
 31  14  15  1   
 32  14  43  1   
 33  15  18  1   
 34  16  19  1   
 35  17  20  ar  
 36  17  21  ar  
 37  18  44  1   
 38  18  45  1   
 39  18  46  1   
 40  19  22  1   
 41  19  47  1   
 42  19  48  1   
 43  20  22  1   
 44  20  23  ar  
 45  21  24  ar  
 46  21  49  1   
 47  22  50  1   
 48  22  51  1   
 49  23  25  ar  
 50  23  52  1   
 51  24  25  ar  
 52  24  26  1   
 53  25  27  1   
 54  26  28  1   
 55  27  29  1   
 56  28  53  1   
 57  28  54  1   
 58  28  55  1   
 59  29  56  1   
 60  29  57  1   
 61  29  58  1   
@<TRIPOS>SUBSTRUCTURE
  1 ****  21 GROUP 4 **** **** 0

# MOE 2024.06 (io_trps.svl 2023.06)
