@<TRIPOS>MOLECULE
NONAME
53 56 1 0 0 
SMALL
USER_CHARGES


@<TRIPOS>ATOM
  1 O       -0.2170     0.0960    -1.0000 O.2   1 <1>  -0.5700 
  2 C       -1.1560     0.7870    -0.6880 C.2   1 <1>   0.5690 
  3 N       -2.2950     0.2450    -0.1460 N.am  1 <1>  -0.6600 
  4 C       -1.0310     2.2790    -0.9200 C.3   1 <1>  -0.0990 
  5 C       -2.4140    -1.2280     0.1040 C.3   1 <1>   0.1400 
  6 C       -3.5560     0.9780     0.1880 C.3   1 <1>   0.1400 
  7 C       -0.8170     3.0100     0.4060 C.3   1 <1>   0.1100 
  8 C       -3.6980    -1.8010    -0.5250 C.3   1 <1>   0.3440 
  9 C       -4.7750     0.2930    -0.4620 C.3   1 <1>   0.2950 
 10 N       -0.8280     4.4570     0.2060 N.3   1 <1>  -0.6400 
 11 O       -4.8170    -1.0590    -0.1110 O.3   1 <1>  -0.5600 
 12 C       -3.8800    -3.2640    -0.1320 C.ar  1 <1>  -0.1440 
 13 C       -6.0870     0.9310     0.0020 C.3   1 <1>  -0.1950 
 14 O       -0.2320     5.0260     1.2960 O.3   1 <1>  -0.1800 
 15 C       -2.1630     5.0550     0.0790 C.3   1 <1>   0.1100 
 16 C       -3.3380    -4.2600    -0.9330 C.ar  1 <1>  -0.1500 
 17 C       -4.5650    -3.6260     1.0200 C.ar  1 <1>  -0.1500 
 18 C       -7.3370     0.8090    -0.8110 C.3   1 <1>  -0.2000 
 19 C       -6.6460     2.1380    -0.6870 C.3   1 <1>  -0.2000 
 20 C        0.2070     6.3170     1.0160 C.3   1 <1>   0.1200 
 21 C       -1.9870     6.5520    -0.2140 C.3   1 <1>  -0.1600 
 22 C       -3.4770    -5.5940    -0.5880 C.ar  1 <1>  -0.1500 
 23 C       -4.7050    -4.9590     1.3660 C.ar  1 <1>  -0.1500 
 24 C       -1.0300     7.2050     0.8000 C.3   1 <1>  -0.1600 
 25 C       -4.1610    -5.9440     0.5620 C.ar  1 <1>  -0.1500 
 26 H       -0.1790     2.4590    -1.5500 H     1 <1>   0.0800 
 27 H       -1.8990     2.6330    -1.4360 H     1 <1>   0.0800 
 28 H       -1.5660    -1.7540    -0.2980 H     1 <1>   0.0800 
 29 H       -2.4330    -1.4070     1.1650 H     1 <1>   0.0800 
 30 H       -3.6860     0.9830     1.2560 H     1 <1>   0.0800 
 31 H       -3.5180     1.9980    -0.1420 H     1 <1>   0.0800 
 32 H        0.1420     2.7180     0.8010 H     1 <1>   0.0800 
 33 H       -1.5670     2.7400     1.1290 H     1 <1>   0.0800 
 34 H       -3.6340    -1.7300    -1.5970 H     1 <1>   0.0800 
 35 H       -4.7020     0.3590    -1.5340 H     1 <1>   0.0800 
 36 H       -6.1990     0.8840     1.0710 H     1 <1>   0.1000 
 37 H       -2.7070     4.5930    -0.7250 H     1 <1>   0.0800 
 38 H       -2.7080     4.9190     0.9980 H     1 <1>   0.0800 
 39 H       -2.8020    -4.0040    -1.8300 H     1 <1>   0.1500 
 40 H       -4.9960    -2.8680     1.6510 H     1 <1>   0.1500 
 41 H       -7.2930     0.2770    -1.7460 H     1 <1>   0.1000 
 42 H       -8.2680     0.6500    -0.2930 H     1 <1>   0.1000 
 43 H       -7.1170     2.9040    -0.0950 H     1 <1>   0.1000 
 44 H       -6.1570     2.5340    -1.5600 H     1 <1>   0.1000 
 45 H        0.7910     6.6580     1.8520 H     1 <1>   0.0800 
 46 H        0.8240     6.2770     0.1360 H     1 <1>   0.0800 
 47 H       -1.5800     6.6560    -1.2050 H     1 <1>   0.0800 
 48 H       -2.9430     7.0460    -0.1950 H     1 <1>   0.0800 
 49 H       -3.0540    -6.3580    -1.2150 H     1 <1>   0.1500 
 50 H       -5.2400    -5.2270     2.2610 H     1 <1>   0.1500 
 51 H       -1.5320     7.3260     1.7440 H     1 <1>   0.0800 
 52 H       -0.7280     8.1780     0.4560 H     1 <1>   0.0800 
 53 H       -4.2700    -6.9800     0.8310 H     1 <1>   0.1500 
@<TRIPOS>BOND
  1   1   2  2   
  2   2   3  am  
  3   2   4  1   
  4   3   5  1   
  5   3   6  1   
  6   4   7  1   
  7   4  26  1   
  8   4  27  1   
  9   5   8  1   
 10   5  28  1   
 11   5  29  1   
 12   6   9  1   
 13   6  30  1   
 14   6  31  1   
 15   7  10  1   
 16   7  32  1   
 17   7  33  1   
 18   8  11  1   
 19   8  12  1   
 20   8  34  1   
 21   9  11  1   
 22   9  13  1   
 23   9  35  1   
 24  10  14  1   
 25  10  15  1   
 26  12  16  ar  
 27  12  17  ar  
 28  13  18  1   
 29  13  19  1   
 30  13  36  1   
 31  14  20  1   
 32  15  21  1   
 33  15  37  1   
 34  15  38  1   
 35  16  22  ar  
 36  16  39  1   
 37  17  23  ar  
 38  17  40  1   
 39  18  19  1   
 40  18  41  1   
 41  18  42  1   
 42  19  43  1   
 43  19  44  1   
 44  20  24  1   
 45  20  45  1   
 46  20  46  1   
 47  21  24  1   
 48  21  47  1   
 49  21  48  1   
 50  22  25  ar  
 51  22  49  1   
 52  23  25  ar  
 53  23  50  1   
 54  24  51  1   
 55  24  52  1   
 56  25  53  1   
@<TRIPOS>SUBSTRUCTURE
  1 ****   6 GROUP 4 **** **** 0

# MOE 2024.06 (io_trps.svl 2023.06)
