@<TRIPOS>MOLECULE
NONAME
58 61 1 0 0 
SMALL
USER_CHARGES


@<TRIPOS>ATOM
  1 O       -0.3510    -0.9400    -0.5530 O.3   1 <1>  -0.5600 
  2 C        0.7610    -1.2400     0.2480 C.3   1 <1>   0.1200 
  3 C       -1.5840    -1.2340     0.0450 C.3   1 <1>   0.1200 
  4 C        0.7670    -2.7290     0.6670 C.3   1 <1>   0.3430 
  5 C       -1.6860    -2.7350     0.4070 C.3   1 <1>   0.3430 
  6 N       -0.4080    -3.4670     0.0920 N.4   1 <1>  -0.9590 
  7 C       -0.4170    -4.9100     0.4570 C.3   1 <1>   0.3430 
  8 C       -1.4240    -5.6700    -0.4040 C.3   1 <1>  -0.1600 
  9 C       -1.3570    -7.1720    -0.1290 C.3   1 <1>   0.1200 
 10 O       -2.3230    -7.7830    -0.9460 O.3   1 <1>  -0.3630 
 11 C       -2.4930    -9.1270    -0.9670 C.ar  1 <1>   0.0820 
 12 C       -1.8020   -10.0130    -0.1460 C.ar  1 <1>  -0.1500 
 13 C       -3.4160    -9.6210    -1.8740 C.ar  1 <1>  -0.1500 
 14 C       -2.0420   -11.3730    -0.2370 C.ar  1 <1>  -0.1500 
 15 C       -3.6550   -10.9800    -1.9660 C.ar  1 <1>  -0.1500 
 16 C       -2.9730   -11.8650    -1.1430 C.ar  1 <1>  -0.1440 
 17 C       -3.2460   -13.3530    -1.2340 C.3   1 <1>   0.4860 
 18 N       -4.1160   -13.7370    -0.0960 N.4   1 <1>  -0.8970 
 19 C       -4.6400   -15.1450    -0.1170 C.3   1 <1>   0.4720 
 20 C       -5.5280   -13.2200    -0.1740 C.3   1 <1>   0.4720 
 21 C       -5.9760   -14.6090    -0.6710 C.3   1 <1>   0.1080 
 22 C       -7.1780   -15.1400     0.0820 C.ar  1 <1>   0.2020 
 23 N       -7.1050   -15.0910     1.4040 N.ar  1 <1>  -0.6200 
 24 C       -8.2670   -15.6370    -0.6190 C.ar  1 <1>  -0.1500 
 25 C       -8.1610   -15.5570     2.0550 C.ar  1 <1>   0.1600 
 26 C       -9.3580   -16.1180     0.0720 C.ar  1 <1>  -0.1500 
 27 C       -9.2930   -16.0720     1.4470 C.ar  1 <1>  -0.1500 
 28 H        0.7460    -0.5990     1.1130 H     1 <1>   0.0800 
 29 H        1.6450    -1.0110    -0.3220 H     1 <1>   0.0800 
 30 H       -2.3600    -0.9680    -0.6520 H     1 <1>   0.0800 
 31 H       -1.6980    -0.6200     0.9230 H     1 <1>   0.0800 
 32 H        0.7480    -2.7870     1.7430 H     1 <1>   0.0800 
 33 H        1.6870    -3.1810     0.3350 H     1 <1>   0.0800 
 34 H       -2.5050    -3.1670    -0.1440 H     1 <1>   0.0800 
 35 H       -1.9160    -2.8270     1.4550 H     1 <1>   0.0800 
 36 H       -0.3000    -3.3750    -0.9310 H     1 <1>   0.4500 
 37 H       -0.6640    -5.0260     1.5000 H     1 <1>   0.0800 
 38 H        0.5640    -5.3260     0.2940 H     1 <1>   0.0800 
 39 H       -1.2050    -5.5070    -1.4450 H     1 <1>   0.0800 
 40 H       -2.4230    -5.3370    -0.1900 H     1 <1>   0.0800 
 41 H       -1.5950    -7.3930     0.8980 H     1 <1>   0.0800 
 42 H       -0.3920    -7.5750    -0.3880 H     1 <1>   0.0800 
 43 H       -1.0770    -9.6650     0.5650 H     1 <1>   0.1500 
 44 H       -3.9430    -8.9300    -2.5090 H     1 <1>   0.1500 
 45 H       -1.4910   -12.0390     0.4050 H     1 <1>   0.1500 
 46 H       -4.3750   -11.3290    -2.6870 H     1 <1>   0.1500 
 47 H       -2.3140   -13.8930    -1.1850 H     1 <1>   0.0800 
 48 H       -3.7260   -13.5810    -2.1710 H     1 <1>   0.0800 
 49 H       -3.7080   -13.4860     0.8100 H     1 <1>   0.4500 
 50 H       -4.7110   -15.5410     0.8800 H     1 <1>   0.0000 
 51 H       -4.0980   -15.7690    -0.8040 H     1 <1>   0.0000 
 52 H       -5.6390   -12.4380    -0.9020 H     1 <1>   0.0000 
 53 H       -5.8980   -12.9710     0.8040 H     1 <1>   0.0000 
 54 H       -6.0440   -14.6720    -1.7440 H     1 <1>   0.0000 
 55 H       -8.2740   -15.6530    -1.6950 H     1 <1>   0.1500 
 56 H       -8.1270   -15.5290     3.1320 H     1 <1>   0.1500 
 57 H      -10.2220   -16.5120    -0.4370 H     1 <1>   0.1500 
 58 H      -10.1110   -16.4330     2.0450 H     1 <1>   0.1500 
@<TRIPOS>BOND
  1   1   2  1   
  2   1   3  1   
  3   2   4  1   
  4   2  28  1   
  5   2  29  1   
  6   3   5  1   
  7   3  30  1   
  8   3  31  1   
  9   4   6  1   
 10   4  32  1   
 11   4  33  1   
 12   5   6  1   
 13   5  34  1   
 14   5  35  1   
 15   6   7  1   
 16   6  36  1   
 17   7   8  1   
 18   7  37  1   
 19   7  38  1   
 20   8   9  1   
 21   8  39  1   
 22   8  40  1   
 23   9  10  1   
 24   9  41  1   
 25   9  42  1   
 26  10  11  1   
 27  11  12  ar  
 28  11  13  ar  
 29  12  14  ar  
 30  12  43  1   
 31  13  15  ar  
 32  13  44  1   
 33  14  16  ar  
 34  14  45  1   
 35  15  16  ar  
 36  15  46  1   
 37  16  17  1   
 38  17  18  1   
 39  17  47  1   
 40  17  48  1   
 41  18  19  1   
 42  18  20  1   
 43  18  49  1   
 44  19  21  1   
 45  19  50  1   
 46  19  51  1   
 47  20  21  1   
 48  20  52  1   
 49  20  53  1   
 50  21  22  1   
 51  21  54  1   
 52  22  23  ar  
 53  22  24  ar  
 54  23  25  ar  
 55  24  26  ar  
 56  24  55  1   
 57  25  27  ar  
 58  25  56  1   
 59  26  27  ar  
 60  26  57  1   
 61  27  58  1   
@<TRIPOS>SUBSTRUCTURE
  1 ****  11 GROUP 4 **** **** 0

# MOE 2024.06 (io_trps.svl 2023.06)
