@<TRIPOS>MOLECULE
NONAME
36 37 1 0 0 
SMALL
USER_CHARGES


@<TRIPOS>ATOM
  1 S       -2.5210    -0.6840    -1.7040 S.3   1 <1>  -0.0800 
  2 C       -1.7930    -1.0250    -0.1560 C.2   1 <1>  -0.1400 
  3 C       -2.5560     1.0120    -1.2850 C.2   1 <1>   0.2280 
  4 C       -1.6450     0.1330     0.5110 C.2   1 <1>   0.0460 
  5 C       -1.4750    -2.4750     0.1440 C.3   1 <1>   0.0200 
  6 N       -2.0840     1.2740    -0.1340 N.2   1 <1>  -0.5650 
  7 C       -1.0530     0.3530     1.8880 C.3   1 <1>  -0.0590 
  8 C       -2.7830    -3.2690     0.2330 C.3   1 <1>   0.3430 
  9 N       -2.5570    -4.7450     0.3880 N.4   1 <1>  -0.9590 
 10 C       -3.8680    -5.4500     0.1620 C.3   1 <1>   0.3430 
 11 C       -1.9820    -5.0770     1.7350 C.3   1 <1>   0.2630 
 12 C       -3.7390    -6.9730     0.0270 C.3   1 <1>   0.0960 
 13 N       -5.0760    -7.5420    -0.1960 N.pl3 1 <1>   0.3140 
 14 N       -6.1940    -6.8660     0.1250 N.2   1 <1>  -0.7070 
 15 C       -5.3660    -8.7490    -0.7170 C.2   1 <1>  -0.3020 
 16 C       -7.1690    -7.6610    -0.1990 C.2   1 <1>   0.1390 
 17 C       -6.7110    -8.8590    -0.7340 C.2   1 <1>  -0.1500 
 18 H       -2.9640     1.6940    -2.0110 H     1 <1>   0.1500 
 19 H       -0.9340    -2.5350     1.0700 H     1 <1>   0.0800 
 20 H       -0.8560    -2.8600    -0.6480 H     1 <1>   0.0800 
 21 H       -0.7320    -0.5700     2.3320 H     1 <1>   0.0800 
 22 H       -1.7860     0.8120     2.5260 H     1 <1>   0.0800 
 23 H       -0.2070     1.0130     1.8120 H     1 <1>   0.0800 
 24 H       -3.3440    -3.0900    -0.6700 H     1 <1>   0.0800 
 25 H       -3.3690    -2.8960     1.0580 H     1 <1>   0.0800 
 26 H       -1.8980    -5.0380    -0.3500 H     1 <1>   0.4500 
 27 H       -4.3250    -5.0760    -0.7410 H     1 <1>   0.0800 
 28 H       -4.5390    -5.2320     0.9780 H     1 <1>   0.0800 
 29 H       -2.6590    -4.7700     2.5170 H     1 <1>   0.0800 
 30 H       -1.0400    -4.5740     1.8790 H     1 <1>   0.0800 
 31 H       -1.8140    -6.1380     1.8250 H     1 <1>   0.0800 
 32 H       -3.3450    -7.4080     0.9260 H     1 <1>   0.0800 
 33 H       -3.1190    -7.2290    -0.8110 H     1 <1>   0.0800 
 34 H       -4.6240    -9.4560    -1.0420 H     1 <1>   0.1500 
 35 H       -8.2110    -7.4150    -0.0660 H     1 <1>   0.1500 
 36 H       -7.3220    -9.6750    -1.0770 H     1 <1>   0.1500 
@<TRIPOS>BOND
  1   1   2  1   
  2   1   3  1   
  3   2   4  2   
  4   2   5  1   
  5   3   6  2   
  6   3  18  1   
  7   4   6  1   
  8   4   7  1   
  9   5   8  1   
 10   5  19  1   
 11   5  20  1   
 12   7  21  1   
 13   7  22  1   
 14   7  23  1   
 15   8   9  1   
 16   8  24  1   
 17   8  25  1   
 18   9  10  1   
 19   9  11  1   
 20   9  26  1   
 21  10  12  1   
 22  10  27  1   
 23  10  28  1   
 24  11  29  1   
 25  11  30  1   
 26  11  31  1   
 27  12  13  1   
 28  12  32  1   
 29  12  33  1   
 30  13  14  1   
 31  13  15  1   
 32  14  16  2   
 33  15  17  2   
 34  15  34  1   
 35  16  17  1   
 36  16  35  1   
 37  17  36  1   
@<TRIPOS>SUBSTRUCTURE
  1 ****   8 GROUP 4 **** **** 0

# MOE 2024.06 (io_trps.svl 2023.06)
