@<TRIPOS>MOLECULE
NONAME
48 50 1 0 0 
SMALL
USER_CHARGES


@<TRIPOS>ATOM
  1 O        0.6670     0.6650    -1.0160 O.3   1 <1>  -0.5600 
  2 C        0.8310     1.9520    -0.4920 C.3   1 <1>   0.2000 
  3 C        0.5680    -0.3510    -0.0650 C.3   1 <1>   0.1200 
  4 C       -0.4170     2.3150     0.3340 C.3   1 <1>  -0.1600 
  5 C        1.0730     2.9090    -1.6710 C.3   1 <1>   0.2090 
  6 C       -0.6900    -0.1340     0.7850 C.3   1 <1>  -0.1600 
  7 C       -0.6880     1.2630     1.4150 C.3   1 <1>  -0.1600 
  8 N        1.2670     4.3230    -1.2180 N.pl3 1 <1>  -0.8690 
  9 C        2.4090     4.8540    -0.7310 C.ar  1 <1>   0.4100 
 10 N        3.4340     4.0390    -0.6100 N.ar  1 <1>  -0.6200 
 11 C        2.4770     6.2240    -0.3720 C.ar  1 <1>  -0.1430 
 12 C        4.5710     4.5310    -0.1540 C.ar  1 <1>   0.7710 
 13 C        3.6730     6.7030     0.0790 C.ar  1 <1>   0.2180 
 14 C        1.2110     7.0800    -0.5030 C.3   1 <1>  -0.0960 
 15 N        4.6970     5.8220     0.1810 N.ar  1 <1>  -0.1790 
 16 N        5.6390     3.7080    -0.0190 N.pl3 1 <1>  -0.8380 
 17 C        3.9720     8.1420     0.4840 C.3   1 <1>  -0.0970 
 18 C        7.0230     4.0400     0.4190 C.3   1 <1>   0.2090 
 19 C        5.5480     2.2600    -0.3600 C.3   1 <1>   0.2090 
 20 C        7.8530     2.8140     0.0650 C.3   1 <1>  -0.1600 
 21 C        6.8650     1.6560     0.1070 C.3   1 <1>  -0.1600 
 22 H        1.7070     1.9430     0.1330 H     1 <1>   0.0800 
 23 H        1.4560    -0.3420     0.5430 H     1 <1>   0.0800 
 24 H        0.5110    -1.2880    -0.5900 H     1 <1>   0.0800 
 25 H       -1.2650     2.3860    -0.3240 H     1 <1>   0.0800 
 26 H       -0.2770     3.2750     0.7990 H     1 <1>   0.0800 
 27 H        0.2330     2.8640    -2.3420 H     1 <1>   0.0800 
 28 H        1.9490     2.5830    -2.2060 H     1 <1>   0.0800 
 29 H       -0.7390    -0.8830     1.5540 H     1 <1>   0.0800 
 30 H       -1.5550    -0.2500     0.1550 H     1 <1>   0.0800 
 31 H       -1.6330     1.4550     1.8940 H     1 <1>   0.0800 
 32 H        0.0850     1.3140     2.1630 H     1 <1>   0.0800 
 33 H        0.4310     4.9030    -1.3180 H     1 <1>   0.4000 
 34 H        0.3810     6.5830    -0.0320 H     1 <1>   0.0800 
 35 H        0.9760     7.2300    -1.5420 H     1 <1>   0.0800 
 36 H        1.3040     8.0410    -0.0340 H     1 <1>   0.0800 
 37 H        5.6090     6.0890     0.5220 H     1 <1>   0.4570 
 38 H        3.3260     8.8360    -0.0200 H     1 <1>   0.0800 
 39 H        4.9810     8.4090     0.2250 H     1 <1>   0.0800 
 40 H        3.8440     8.2600     1.5460 H     1 <1>   0.0800 
 41 H        7.0360     4.1880     1.4860 H     1 <1>   0.0800 
 42 H        7.4050     4.9120    -0.0850 H     1 <1>   0.0800 
 43 H        5.4450     2.1510    -1.4280 H     1 <1>   0.0800 
 44 H        4.7090     1.7920     0.1280 H     1 <1>   0.0800 
 45 H        8.6760     2.6750     0.7450 H     1 <1>   0.0800 
 46 H        8.2410     2.9260    -0.9330 H     1 <1>   0.0800 
 47 H        7.1690     0.8330    -0.5160 H     1 <1>   0.0800 
 48 H        6.7500     1.3030     1.1170 H     1 <1>   0.0800 
@<TRIPOS>BOND
  1   1   2  1   
  2   1   3  1   
  3   2   4  1   
  4   2   5  1   
  5   2  22  1   
  6   3   6  1   
  7   3  23  1   
  8   3  24  1   
  9   4   7  1   
 10   4  25  1   
 11   4  26  1   
 12   5   8  1   
 13   5  27  1   
 14   5  28  1   
 15   6   7  1   
 16   6  29  1   
 17   6  30  1   
 18   7  31  1   
 19   7  32  1   
 20   8   9  1   
 21   8  33  1   
 22   9  10  ar  
 23   9  11  ar  
 24  10  12  ar  
 25  11  13  ar  
 26  11  14  1   
 27  12  15  ar  
 28  12  16  1   
 29  13  15  ar  
 30  13  17  1   
 31  14  34  1   
 32  14  35  1   
 33  14  36  1   
 34  15  37  1   
 35  16  18  1   
 36  16  19  1   
 37  17  38  1   
 38  17  39  1   
 39  17  40  1   
 40  18  20  1   
 41  18  41  1   
 42  18  42  1   
 43  19  21  1   
 44  19  43  1   
 45  19  44  1   
 46  20  21  1   
 47  20  45  1   
 48  20  46  1   
 49  21  47  1   
 50  21  48  1   
@<TRIPOS>SUBSTRUCTURE
  1 ****  10 GROUP 4 **** **** 0

# MOE 2024.06 (io_trps.svl 2023.06)
