@<TRIPOS>MOLECULE
NONAME
52 54 1 0 0 
SMALL
USER_CHARGES


@<TRIPOS>ATOM
  1 F       -0.2610     1.0530     0.2110 F     1 <1>  -0.1900 
  2 C       -1.5620     1.2010     0.2060 C.ar  1 <1>   0.1900 
  3 C       -2.1820     2.2990    -0.4000 C.ar  1 <1>   0.0830 
  4 C       -2.2950     0.2140     0.8360 C.ar  1 <1>  -0.1500 
  5 O       -1.5710     3.3320    -1.0490 O.3   1 <1>  -0.3630 
  6 C       -3.5640     2.3660    -0.3480 C.ar  1 <1>  -0.1500 
  7 C       -3.6740     0.3120     0.8700 C.ar  1 <1>  -0.1500 
  8 C       -0.1760     3.4040    -1.2400 C.3   1 <1>   0.0400 
  9 C       -4.3390     1.3860     0.2770 C.ar  1 <1>   0.0530 
 10 C       -5.7760     1.5040     0.3130 C.2   1 <1>   0.0870 
 11 O       -6.3180     2.6830     0.4880 O.3   1 <1>  -0.0190 
 12 C       -6.7970     0.6090     0.2150 C.2   1 <1>  -0.0860 
 13 N       -7.6220     2.6470     0.5210 N.2   1 <1>  -0.4100 
 14 C       -7.9390     1.4110     0.3570 C.2   1 <1>   0.3720 
 15 C       -6.7870    -0.8060     0.0010 C.2   1 <1>   0.7160 
 16 N       -9.2680     0.9580     0.3030 N.pl3 1 <1>  -0.8210 
 17 O       -5.8190    -1.3690    -0.4760 O.2   1 <1>  -0.5700 
 18 N       -7.8770    -1.5510     0.3230 N.am  1 <1>  -0.7300 
 19 C      -10.2210     1.7300     1.1510 C.3   1 <1>   0.1290 
 20 C       -9.7690     0.8170    -1.0930 C.3   1 <1>   0.1290 
 21 C       -8.1330    -2.9340    -0.1340 C.3   1 <1>   0.2200 
 22 C       -9.6330    -3.2700    -0.0800 C.3   1 <1>   0.2000 
 23 C       -7.3540    -3.9270     0.7310 C.3   1 <1>  -0.1600 
 24 O      -10.3380    -2.4310    -0.9590 O.3   1 <1>  -0.5600 
 25 C       -9.8340    -4.7450    -0.4650 C.3   1 <1>   0.1200 
 26 C       -7.6910    -5.3620     0.3150 C.3   1 <1>   0.1200 
 27 C      -11.6950    -2.2920    -0.6750 C.3   1 <1>   0.0400 
 28 O       -9.0720    -5.5590     0.3830 O.3   1 <1>  -0.5600 
 29 H       -1.7920    -0.6200     1.2920 H     1 <1>   0.1500 
 30 H       -4.0530     3.2050    -0.8090 H     1 <1>   0.1500 
 31 H       -4.2430    -0.4560     1.3630 H     1 <1>   0.1500 
 32 H        0.0400     4.2960    -1.7990 H     1 <1>   0.0800 
 33 H        0.1470     2.5400    -1.7940 H     1 <1>   0.0800 
 34 H        0.3080     3.4500    -0.2800 H     1 <1>   0.0800 
 35 H       -8.7280    -0.9880     0.4730 H     1 <1>   0.3700 
 36 H      -11.1490     1.1930     1.2450 H     1 <1>   0.0800 
 37 H      -10.4090     2.6960     0.7140 H     1 <1>   0.0800 
 38 H       -9.8030     1.8710     2.1330 H     1 <1>   0.0800 
 39 H      -10.7820     0.4540    -1.0900 H     1 <1>   0.0800 
 40 H       -9.1590     0.1150    -1.6360 H     1 <1>   0.0800 
 41 H       -9.7350     1.7690    -1.5950 H     1 <1>   0.0800 
 42 H       -7.7990    -3.0310    -1.1540 H     1 <1>   0.0800 
 43 H       -9.9960    -3.1100     0.9210 H     1 <1>   0.0800 
 44 H       -7.6030    -3.7940     1.7690 H     1 <1>   0.0800 
 45 H       -6.2980    -3.7660     0.6100 H     1 <1>   0.0800 
 46 H       -9.5250    -4.9240    -1.4800 H     1 <1>   0.0800 
 47 H      -10.8620    -5.0330    -0.3430 H     1 <1>   0.0800 
 48 H       -7.2250    -6.0680     0.9810 H     1 <1>   0.0800 
 49 H       -7.3650    -5.5650    -0.6920 H     1 <1>   0.0800 
 50 H      -12.1270    -1.6380    -1.4120 H     1 <1>   0.0800 
 51 H      -11.8110    -1.8590     0.3040 H     1 <1>   0.0800 
 52 H      -12.1780    -3.2520    -0.7240 H     1 <1>   0.0800 
@<TRIPOS>BOND
  1   1   2  1   
  2   2   3  ar  
  3   2   4  ar  
  4   3   5  1   
  5   3   6  ar  
  6   4   7  ar  
  7   4  29  1   
  8   5   8  1   
  9   6   9  ar  
 10   6  30  1   
 11   7   9  ar  
 12   7  31  1   
 13   8  32  1   
 14   8  33  1   
 15   8  34  1   
 16   9  10  1   
 17  10  11  1   
 18  10  12  2   
 19  11  13  1   
 20  12  14  1   
 21  12  15  1   
 22  13  14  2   
 23  14  16  1   
 24  15  17  2   
 25  15  18  am  
 26  16  19  1   
 27  16  20  1   
 28  18  21  1   
 29  18  35  1   
 30  19  36  1   
 31  19  37  1   
 32  19  38  1   
 33  20  39  1   
 34  20  40  1   
 35  20  41  1   
 36  21  22  1   
 37  21  23  1   
 38  21  42  1   
 39  22  24  1   
 40  22  25  1   
 41  22  43  1   
 42  23  26  1   
 43  23  44  1   
 44  23  45  1   
 45  24  27  1   
 46  25  28  1   
 47  25  46  1   
 48  25  47  1   
 49  26  28  1   
 50  26  48  1   
 51  26  49  1   
 52  27  50  1   
 53  27  51  1   
 54  27  52  1   
@<TRIPOS>SUBSTRUCTURE
  1 ****  15 GROUP 4 **** **** 0

# MOE 2024.06 (io_trps.svl 2023.06)
