@<TRIPOS>MOLECULE
NONAME
40 42 1 0 0 
SMALL
USER_CHARGES


@<TRIPOS>ATOM
  1 F        0.3210    -1.1770    -0.8180 F     1 <1>  -0.3400 
  2 C       -0.2080    -1.7830     0.2440 C.3   1 <1>   1.1640 
  3 F        0.4660    -1.3180     1.2920 F     1 <1>  -0.3400 
  4 F       -1.4420    -1.2990     0.3500 F     1 <1>  -0.3400 
  5 C       -0.1750    -3.3370     0.1410 C.ar  1 <1>   0.1660 
  6 N       -0.6800    -4.0620     1.1480 N.ar  1 <1>  -0.6200 
  7 C        0.3750    -3.9430    -0.9880 C.ar  1 <1>  -0.1500 
  8 C       -0.6320    -5.3790     1.0220 C.ar  1 <1>   0.1600 
  9 C        0.4050    -5.3170    -1.1010 C.ar  1 <1>  -0.1500 
 10 C       -0.1270    -6.0740    -0.0700 C.ar  1 <1>   0.0860 
 11 C       -0.1560    -7.5190    -0.1170 C.2   1 <1>   0.5440 
 12 O        0.8570    -8.1300    -0.3900 O.2   1 <1>  -0.5700 
 13 N       -1.3130    -8.2240     0.1270 N.am  1 <1>  -0.6600 
 14 C       -2.6850    -7.6590     0.0620 C.3   1 <1>   0.1400 
 15 C       -1.3590    -9.7080     0.0600 C.3   1 <1>   0.1400 
 16 C       -3.5910    -8.8560    -0.2190 C.3   1 <1>   0.2000 
 17 C       -2.8270   -10.0760     0.2880 C.3   1 <1>  -0.0800 
 18 O       -4.8040    -8.7450     0.4420 O.3   1 <1>  -0.6800 
 19 C       -3.2680   -11.3780    -0.4030 C.3   1 <1>  -0.0170 
 20 C       -2.5550   -12.5940     0.1680 C.ar  1 <1>   0.1670 
 21 N       -1.3390   -12.8360    -0.2910 N.ar  1 <1>  -0.6200 
 22 C       -3.1870   -13.3850     1.1260 C.ar  1 <1>   0.1600 
 23 C       -0.8000   -13.9080     0.2660 C.ar  1 <1>   0.1600 
 24 N       -2.6490   -14.4560     1.6880 N.ar  1 <1>  -0.6200 
 25 C       -1.4340   -14.6910     1.2240 C.ar  1 <1>   0.1600 
 26 H        0.7870    -3.3530    -1.7890 H     1 <1>   0.1500 
 27 H       -1.0210    -5.9560     1.8440 H     1 <1>   0.1500 
 28 H        0.8310    -5.8040    -1.9630 H     1 <1>   0.1500 
 29 H       -2.9310    -7.2110     1.0080 H     1 <1>   0.0800 
 30 H       -2.7620    -6.9310    -0.7280 H     1 <1>   0.0800 
 31 H       -1.0280   -10.0270    -0.9150 H     1 <1>   0.0800 
 32 H       -0.7180   -10.1460     0.8070 H     1 <1>   0.0800 
 33 H       -3.7840    -8.9260    -1.2770 H     1 <1>   0.0800 
 34 H       -2.9680   -10.1710     1.3510 H     1 <1>   0.0800 
 35 H       -4.6700    -8.7160     1.4090 H     1 <1>   0.4000 
 36 H       -3.0690   -11.3200    -1.4590 H     1 <1>   0.0800 
 37 H       -4.3300   -11.4980    -0.2830 H     1 <1>   0.0800 
 38 H       -4.1800   -13.1220     1.4450 H     1 <1>   0.1500 
 39 H        0.1920   -14.1800    -0.0490 H     1 <1>   0.1500 
 40 H       -0.9130   -15.5440     1.6200 H     1 <1>   0.1500 
@<TRIPOS>BOND
  1   1   2  1   
  2   2   3  1   
  3   2   4  1   
  4   2   5  1   
  5   5   6  ar  
  6   5   7  ar  
  7   6   8  ar  
  8   7   9  ar  
  9   7  26  1   
 10   8  10  ar  
 11   8  27  1   
 12   9  10  ar  
 13   9  28  1   
 14  10  11  1   
 15  11  12  2   
 16  11  13  am  
 17  13  14  1   
 18  13  15  1   
 19  14  16  1   
 20  14  29  1   
 21  14  30  1   
 22  15  17  1   
 23  15  31  1   
 24  15  32  1   
 25  16  17  1   
 26  16  18  1   
 27  16  33  1   
 28  17  19  1   
 29  17  34  1   
 30  18  35  1   
 31  19  20  1   
 32  19  36  1   
 33  19  37  1   
 34  20  21  ar  
 35  20  22  ar  
 36  21  23  ar  
 37  22  24  ar  
 38  22  38  1   
 39  23  25  ar  
 40  23  39  1   
 41  24  25  ar  
 42  25  40  1   
@<TRIPOS>SUBSTRUCTURE
  1 ****  13 GROUP 4 **** **** 0

# MOE 2024.06 (io_trps.svl 2023.06)
