@<TRIPOS>MOLECULE
NONAME
59 63 1 0 0 
SMALL
USER_CHARGES


@<TRIPOS>ATOM
  1 O       -2.6490     1.2380    -2.2330 O.2   1 <1>  -0.5700 
  2 C       -2.1810     1.2380    -1.1180 C.2   1 <1>   0.5690 
  3 N       -2.0720     0.0780    -0.4200 N.am  1 <1>  -0.7300 
  4 C       -1.7120     2.5510    -0.4550 C.3   1 <1>   0.0610 
  5 C       -2.4860    -1.2520    -0.9110 C.3   1 <1>   0.2200 
  6 C       -1.8700     3.7640    -1.4080 C.3   1 <1>  -0.1600 
  7 C       -0.2190     2.4490    -0.0540 C.3   1 <1>  -0.1600 
  8 C       -2.5460     2.8320     0.8210 C.3   1 <1>  -0.1600 
  9 C       -3.8120    -1.6240    -0.2730 C.3   1 <1>  -0.0800 
 10 C       -1.5570    -2.3180    -0.3420 C.3   1 <1>   0.1200 
 11 C       -1.4030     5.0720    -0.7400 C.3   1 <1>   0.0000 
 12 C        0.2660     3.7420     0.6330 C.3   1 <1>   0.0000 
 13 C       -2.0770     4.1270     1.5070 C.3   1 <1>  -0.0800 
 14 C       -3.3710    -2.2060     1.0760 C.3   1 <1>   0.1200 
 15 C       -4.5830    -2.6470    -1.1290 C.3   1 <1>  -0.0160 
 16 O       -2.0360    -2.6030     0.9380 O.3   1 <1>  -0.5600 
 17 C        0.0780     4.9230    -0.3410 C.3   1 <1>  -0.1600 
 18 C       -2.2420     5.3060     0.5320 C.3   1 <1>  -0.1600 
 19 C       -1.5740     6.2490    -1.7080 C.3   1 <1>  -0.2400 
 20 C       -0.5920     3.9900     1.8890 C.3   1 <1>  -0.1600 
 21 C        1.7440     3.6100     1.0210 C.3   1 <1>  -0.2400 
 22 C       -5.9260    -2.9950    -0.5050 C.ar  1 <1>  -0.1440 
 23 C       -6.1500    -4.1990     0.1330 C.ar  1 <1>  -0.1500 
 24 C       -6.9930    -2.1210    -0.5480 C.ar  1 <1>  -0.1500 
 25 C       -7.3930    -4.4600     0.6860 C.ar  1 <1>   0.1600 
 26 C       -8.1960    -2.4790     0.0370 C.ar  1 <1>   0.1600 
 27 N       -8.4210    -3.6280     0.6550 N.ar  1 <1>  -0.6200 
 28 H       -1.7030     0.0840     0.5330 H     1 <1>   0.3700 
 29 H       -2.5110    -1.2630    -1.9890 H     1 <1>   0.0800 
 30 H       -1.2990     3.5900    -2.3030 H     1 <1>   0.0800 
 31 H       -2.9020     3.8560    -1.7000 H     1 <1>   0.0800 
 32 H       -0.0720     1.6200     0.6140 H     1 <1>   0.0800 
 33 H        0.3710     2.2630    -0.9350 H     1 <1>   0.0800 
 34 H       -3.5860     2.9190     0.5570 H     1 <1>   0.0800 
 35 H       -2.4540     2.0140     1.5130 H     1 <1>   0.0800 
 36 H       -4.4320    -0.7560    -0.1340 H     1 <1>   0.0800 
 37 H       -0.5350    -1.9890    -0.2830 H     1 <1>   0.0800 
 38 H       -1.6150    -3.2220    -0.9210 H     1 <1>   0.0800 
 39 H       -2.6650     4.3040     2.3910 H     1 <1>   0.0800 
 40 H       -3.9580    -3.0540     1.3830 H     1 <1>   0.0800 
 41 H       -3.4070    -1.4530     1.8430 H     1 <1>   0.0800 
 42 H       -4.0010    -3.5430    -1.2570 H     1 <1>   0.0800 
 43 H       -4.7580    -2.2310    -2.1070 H     1 <1>   0.0800 
 44 H        0.4200     5.8320     0.1240 H     1 <1>   0.0800 
 45 H        0.6750     4.7650    -1.2220 H     1 <1>   0.0800 
 46 H       -1.9310     6.2170     1.0140 H     1 <1>   0.0800 
 47 H       -3.2810     5.4150     0.2710 H     1 <1>   0.0800 
 48 H       -1.2490     7.1660    -1.2480 H     1 <1>   0.0800 
 49 H       -2.6060     6.3570    -1.9910 H     1 <1>   0.0800 
 50 H       -0.9920     6.0900    -2.5990 H     1 <1>   0.0800 
 51 H       -0.4720     3.1770     2.5840 H     1 <1>   0.0800 
 52 H       -0.2660     4.8890     2.3830 H     1 <1>   0.0800 
 53 H        2.0890     4.5100     1.4990 H     1 <1>   0.0800 
 54 H        2.3490     3.4360     0.1490 H     1 <1>   0.0800 
 55 H        1.8840     2.7890     1.7020 H     1 <1>   0.0800 
 56 H       -5.3720    -4.9370     0.2060 H     1 <1>   0.1500 
 57 H       -6.9000    -1.1650    -1.0300 H     1 <1>   0.1500 
 58 H       -7.5490    -5.4030     1.1800 H     1 <1>   0.1500 
 59 H       -9.0170    -1.7840    -0.0060 H     1 <1>   0.1500 
@<TRIPOS>BOND
  1   1   2  2   
  2   2   3  am  
  3   2   4  1   
  4   3   5  1   
  5   3  28  1   
  6   4   6  1   
  7   4   7  1   
  8   4   8  1   
  9   5   9  1   
 10   5  10  1   
 11   5  29  1   
 12   6  11  1   
 13   6  30  1   
 14   6  31  1   
 15   7  12  1   
 16   7  32  1   
 17   7  33  1   
 18   8  13  1   
 19   8  34  1   
 20   8  35  1   
 21   9  14  1   
 22   9  15  1   
 23   9  36  1   
 24  10  16  1   
 25  10  37  1   
 26  10  38  1   
 27  11  17  1   
 28  11  18  1   
 29  11  19  1   
 30  12  17  1   
 31  12  20  1   
 32  12  21  1   
 33  13  18  1   
 34  13  20  1   
 35  13  39  1   
 36  14  16  1   
 37  14  40  1   
 38  14  41  1   
 39  15  22  1   
 40  15  42  1   
 41  15  43  1   
 42  17  44  1   
 43  17  45  1   
 44  18  46  1   
 45  18  47  1   
 46  19  48  1   
 47  19  49  1   
 48  19  50  1   
 49  20  51  1   
 50  20  52  1   
 51  21  53  1   
 52  21  54  1   
 53  21  55  1   
 54  22  23  ar  
 55  22  24  ar  
 56  23  25  ar  
 57  23  56  1   
 58  24  26  ar  
 59  24  57  1   
 60  25  27  ar  
 61  25  58  1   
 62  26  27  ar  
 63  26  59  1   
@<TRIPOS>SUBSTRUCTURE
  1 ****   3 GROUP 4 **** **** 0

# MOE 2024.06 (io_trps.svl 2023.06)
