@<TRIPOS>MOLECULE
NONAME
41 42 1 0 0 
SMALL
USER_CHARGES


@<TRIPOS>ATOM
  1 CL       0.0850    -1.9680     3.4330 Cl    1 <1>  -0.1770 
  2 C       -0.2010    -3.2380     2.2680 C.ar  1 <1>   0.1770 
  3 C       -0.2810    -2.9670     0.9130 C.ar  1 <1>   0.1900 
  4 C       -0.3520    -4.5400     2.7070 C.ar  1 <1>  -0.1500 
  5 F       -0.1420    -1.7400     0.4860 F     1 <1>  -0.1900 
  6 C       -0.5050    -3.9670    -0.0120 C.ar  1 <1>  -0.1500 
  7 C       -0.5780    -5.5490     1.7830 C.ar  1 <1>  -0.1500 
  8 C       -0.6550    -5.2920     0.4070 C.ar  1 <1>   0.0860 
  9 C       -0.8840    -6.3490    -0.5650 C.2   1 <1>   0.5440 
 10 O       -1.3660    -6.1010    -1.6520 O.2   1 <1>  -0.5700 
 11 N       -0.5760    -7.6480    -0.2840 N.am  1 <1>  -0.7300 
 12 C       -0.7020    -8.7880    -1.2240 C.3   1 <1>   0.2200 
 13 C       -1.9710    -9.5810    -0.9500 C.3   1 <1>  -0.0800 
 14 C        0.3520    -9.8270    -0.8700 C.3   1 <1>   0.1200 
 15 C       -1.5530   -10.5140     0.1960 C.3   1 <1>   0.1200 
 16 C       -3.2190    -8.7240    -0.6600 C.3   1 <1>  -0.0550 
 17 O       -0.1550   -10.4700     0.2580 O.3   1 <1>  -0.5600 
 18 S       -4.7230    -9.6860    -0.5270 S.o2  1 <1>   1.3330 
 19 O       -4.6220   -10.4950     0.6660 O.2   1 <1>  -0.6500 
 20 O       -4.9980   -10.3190    -1.7980 O.2   1 <1>  -0.6500 
 21 N       -5.9130    -8.5050    -0.2630 N.am  1 <1>  -0.8490 
 22 C       -6.3280    -7.8130    -1.4890 C.3   1 <1>   0.1160 
 23 C       -7.0890    -9.0520     0.4200 C.3   1 <1>   0.1160 
 24 H       -0.2940    -4.7540     3.7600 H     1 <1>   0.1500 
 25 H       -0.5640    -3.7220    -1.0580 H     1 <1>   0.1500 
 26 H       -0.7040    -6.5550     2.1440 H     1 <1>   0.1500 
 27 H       -0.1760    -7.9140     0.6190 H     1 <1>   0.3700 
 28 H       -0.6260    -8.4540    -2.2460 H     1 <1>   0.0800 
 29 H       -2.1740   -10.1930    -1.8120 H     1 <1>   0.0800 
 30 H        1.3110    -9.3940    -0.6450 H     1 <1>   0.0800 
 31 H        0.4520   -10.5580    -1.6540 H     1 <1>   0.0800 
 32 H       -1.8640   -11.5300     0.0180 H     1 <1>   0.0800 
 33 H       -1.9340   -10.1830     1.1470 H     1 <1>   0.0800 
 34 H       -3.3290    -8.0110    -1.4530 H     1 <1>   0.0800 
 35 H       -3.0790    -8.1760     0.2510 H     1 <1>   0.0800 
 36 H       -7.0270    -7.0290    -1.2520 H     1 <1>   0.0800 
 37 H       -6.7950    -8.5040    -2.1720 H     1 <1>   0.0800 
 38 H       -5.4760    -7.3700    -1.9740 H     1 <1>   0.0800 
 39 H       -7.8160    -8.2780     0.5910 H     1 <1>   0.0800 
 40 H       -6.8030    -9.4610     1.3750 H     1 <1>   0.0800 
 41 H       -7.5340    -9.8350    -0.1710 H     1 <1>   0.0800 
@<TRIPOS>BOND
  1   1   2  1   
  2   2   3  ar  
  3   2   4  ar  
  4   3   5  1   
  5   3   6  ar  
  6   4   7  ar  
  7   4  24  1   
  8   6   8  ar  
  9   6  25  1   
 10   7   8  ar  
 11   7  26  1   
 12   8   9  1   
 13   9  10  2   
 14   9  11  am  
 15  11  12  1   
 16  11  27  1   
 17  12  13  1   
 18  12  14  1   
 19  12  28  1   
 20  13  15  1   
 21  13  16  1   
 22  13  29  1   
 23  14  17  1   
 24  14  30  1   
 25  14  31  1   
 26  15  17  1   
 27  15  32  1   
 28  15  33  1   
 29  16  18  1   
 30  16  34  1   
 31  16  35  1   
 32  18  19  2   
 33  18  20  2   
 34  18  21  am  
 35  21  22  1   
 36  21  23  1   
 37  22  36  1   
 38  22  37  1   
 39  22  38  1   
 40  23  39  1   
 41  23  40  1   
 42  23  41  1   
@<TRIPOS>SUBSTRUCTURE
  1 ****   9 GROUP 4 **** **** 0

# MOE 2024.06 (io_trps.svl 2023.06)
