@<TRIPOS>MOLECULE
NONAME
35 36 1 0 0 
SMALL
USER_CHARGES


@<TRIPOS>ATOM
  1 S        0.3630    -0.8520    -1.5790 S.3   1 <1>  -0.3320 
  2 C        0.0130    -2.1460    -0.3760 C.ar  1 <1>   0.1020 
  3 C        2.0540    -0.2150    -1.1950 C.3   1 <1>  -0.0100 
  4 C       -1.2140    -2.7760    -0.4760 C.ar  1 <1>  -0.1500 
  5 C        0.9200    -2.5060     0.6080 C.ar  1 <1>  -0.1500 
  6 C       -1.5510    -3.7830     0.4150 C.ar  1 <1>  -0.1430 
  7 C        0.5850    -3.5140     1.4970 C.ar  1 <1>  -0.1500 
  8 C       -0.6430    -4.1470     1.3990 C.ar  1 <1>  -0.1500 
  9 C       -2.9020    -4.4790     0.3170 C.3   1 <1>   0.2530 
 10 N       -2.7500    -5.9420     0.2210 N.3   1 <1>  -0.8100 
 11 C       -4.0660    -6.6150     0.3200 C.3   1 <1>   0.2900 
 12 C       -2.0350    -6.3310    -1.0090 C.3   1 <1>   0.0300 
 13 C       -3.9640    -8.1340     0.4270 C.2   1 <1>   0.2980 
 14 O       -3.3860    -8.6520     1.4800 O.3   1 <1>  -0.0190 
 15 N       -4.4020    -8.9750    -0.4250 N.2   1 <1>  -0.5650 
 16 N       -3.4580    -9.9330     1.2840 N.2   1 <1>  -0.4100 
 17 C       -4.0500   -10.1290     0.1640 C.2   1 <1>   0.3350 
 18 C       -4.3420   -11.5250    -0.4670 C.3   1 <1>   1.2010 
 19 F       -3.7730   -11.6790    -1.6610 F     1 <1>  -0.3400 
 20 F       -5.6430   -11.7420    -0.6520 F     1 <1>  -0.3400 
 21 F       -3.9090   -12.5440     0.2730 F     1 <1>  -0.3400 
 22 H        2.2780     0.5580    -1.9070 H     1 <1>   0.0800 
 23 H        2.7450    -1.0330    -1.2890 H     1 <1>   0.0800 
 24 H        2.0410     0.1790    -0.1950 H     1 <1>   0.0800 
 25 H       -1.8940    -2.4720    -1.2510 H     1 <1>   0.1500 
 26 H        1.8730    -2.0240     0.6940 H     1 <1>   0.1500 
 27 H        1.2790    -3.8090     2.2650 H     1 <1>   0.1500 
 28 H       -0.8950    -4.9360     2.0870 H     1 <1>   0.1500 
 29 H       -3.4450    -4.1120    -0.5370 H     1 <1>   0.0800 
 30 H       -3.4650    -4.2360     1.2020 H     1 <1>   0.0800 
 31 H       -4.6640    -6.3660    -0.5400 H     1 <1>   0.0800 
 32 H       -4.5790    -6.2610     1.1970 H     1 <1>   0.0800 
 33 H       -1.0610    -5.8730    -1.0350 H     1 <1>   0.0800 
 34 H       -2.5860    -6.0260    -1.8820 H     1 <1>   0.0800 
 35 H       -1.8930    -7.3980    -1.0390 H     1 <1>   0.0800 
@<TRIPOS>BOND
  1   1   2  1   
  2   1   3  1   
  3   2   4  ar  
  4   2   5  ar  
  5   3  22  1   
  6   3  23  1   
  7   3  24  1   
  8   4   6  ar  
  9   4  25  1   
 10   5   7  ar  
 11   5  26  1   
 12   6   8  ar  
 13   6   9  1   
 14   7   8  ar  
 15   7  27  1   
 16   8  28  1   
 17   9  10  1   
 18   9  29  1   
 19   9  30  1   
 20  10  11  1   
 21  10  12  1   
 22  11  13  1   
 23  11  31  1   
 24  11  32  1   
 25  12  33  1   
 26  12  34  1   
 27  12  35  1   
 28  13  14  1   
 29  13  15  2   
 30  14  16  1   
 31  15  17  1   
 32  16  17  2   
 33  17  18  1   
 34  18  19  1   
 35  18  20  1   
 36  18  21  1   
@<TRIPOS>SUBSTRUCTURE
  1 ****  10 GROUP 4 **** **** 0

# MOE 2024.06 (io_trps.svl 2023.06)
