@<TRIPOS>MOLECULE
NONAME
50 54 1 0 0 
SMALL
USER_CHARGES


@<TRIPOS>ATOM
  1 N        0.0040     0.3470     0.0810 N.ar  1 <1>  -0.6200 
  2 C       -1.1570     0.9980     0.2580 C.ar  1 <1>   0.6200 
  3 C        0.8790     0.9560    -0.6780 C.ar  1 <1>   0.1660 
  4 N       -1.4550     2.1950    -0.2660 N.ar  1 <1>  -0.6200 
  5 C       -2.1630     0.3590     1.0910 C.ar  1 <1>   0.0000 
  6 C        0.6630     2.1690    -1.2510 C.ar  1 <1>  -0.1430 
  7 C        2.2490     0.4110    -1.0070 C.3   1 <1>   0.1440 
  8 C       -0.5460     2.7720    -1.0200 C.ar  1 <1>   0.1600 
  9 C       -2.3150    -1.0310     1.1210 C.ar  1 <1>  -0.1500 
 10 C       -3.0240     1.1050     1.9010 C.ar  1 <1>  -0.1500 
 11 C        1.8530     2.6250    -2.0570 C.3   1 <1>  -0.0160 
 12 C        2.9000    -0.0860     0.2970 C.3   1 <1>   0.3430 
 13 C        2.1340    -0.7440    -2.0230 C.3   1 <1>  -0.1600 
 14 C        2.9630     1.6510    -1.6120 C.3   1 <1>  -0.1600 
 15 C       -3.2670    -1.6420     1.9170 C.ar  1 <1>  -0.1500 
 16 C       -3.9790     0.5010     2.6990 C.ar  1 <1>  -0.1500 
 17 N        4.2160    -0.7670     0.0490 N.4   1 <1>  -0.9590 
 18 C        3.4690    -1.4910    -2.1980 C.3   1 <1>  -0.1600 
 19 C       -4.1020    -0.8760     2.7090 C.ar  1 <1>  -0.1500 
 20 C        4.0580    -1.9420    -0.8590 C.3   1 <1>   0.3430 
 21 C        4.8610    -1.1400     1.3310 C.3   1 <1>   0.4380 
 22 C        6.3460    -1.3750     1.0630 C.3   1 <1>  -0.1950 
 23 C        7.3680    -0.9470     2.0690 C.3   1 <1>  -0.2000 
 24 C        7.2710    -0.2380     0.7480 C.3   1 <1>  -0.2000 
 25 H       -0.7730     3.7330    -1.4510 H     1 <1>   0.1500 
 26 H       -1.6780    -1.6420     0.5070 H     1 <1>   0.1500 
 27 H       -2.9450     2.1790     1.9030 H     1 <1>   0.1500 
 28 H        2.1110     3.6490    -1.8450 H     1 <1>   0.0800 
 29 H        1.6420     2.5130    -3.1070 H     1 <1>   0.0800 
 30 H        2.2210    -0.7780     0.7690 H     1 <1>   0.0800 
 31 H        3.0310     0.7510     0.9620 H     1 <1>   0.0800 
 32 H        1.7900    -0.3710    -2.9730 H     1 <1>   0.0800 
 33 H        1.3930    -1.4430    -1.6700 H     1 <1>   0.0800 
 34 H        3.6120     1.4070    -2.4340 H     1 <1>   0.0800 
 35 H        3.5460     2.1420    -0.8520 H     1 <1>   0.0800 
 36 H       -3.3620    -2.7140     1.9190 H     1 <1>   0.1500 
 37 H       -4.6270     1.1040     3.3110 H     1 <1>   0.1500 
 38 H        4.8520    -0.1010    -0.4090 H     1 <1>   0.4500 
 39 H        4.1830    -0.8710    -2.7110 H     1 <1>   0.0800 
 40 H        3.3060    -2.3590    -2.8140 H     1 <1>   0.0800 
 41 H       -4.8440    -1.3480     3.3290 H     1 <1>   0.1500 
 42 H        3.4010    -2.6660    -0.4050 H     1 <1>   0.0800 
 43 H        5.0140    -2.4120    -1.0290 H     1 <1>   0.0800 
 44 H        4.4040    -2.0210     1.7540 H     1 <1>   0.0800 
 45 H        4.7610    -0.3300     2.0350 H     1 <1>   0.0800 
 46 H        6.5360    -2.3270     0.5980 H     1 <1>   0.1000 
 47 H        8.2250    -1.5770     2.2450 H     1 <1>   0.1000 
 48 H        7.0710    -0.4120     2.9550 H     1 <1>   0.1000 
 49 H        6.9270     0.7820     0.7640 H     1 <1>   0.1000 
 50 H        8.0680    -0.3880     0.0380 H     1 <1>   0.1000 
@<TRIPOS>BOND
  1   1   2  ar  
  2   1   3  ar  
  3   2   4  ar  
  4   2   5  1   
  5   3   6  ar  
  6   3   7  1   
  7   4   8  ar  
  8   5   9  ar  
  9   5  10  ar  
 10   6   8  ar  
 11   6  11  1   
 12   7  12  1   
 13   7  13  1   
 14   7  14  1   
 15   8  25  1   
 16   9  15  ar  
 17   9  26  1   
 18  10  16  ar  
 19  10  27  1   
 20  11  14  1   
 21  11  28  1   
 22  11  29  1   
 23  12  17  1   
 24  12  30  1   
 25  12  31  1   
 26  13  18  1   
 27  13  32  1   
 28  13  33  1   
 29  14  34  1   
 30  14  35  1   
 31  15  19  ar  
 32  15  36  1   
 33  16  19  ar  
 34  16  37  1   
 35  17  20  1   
 36  17  21  1   
 37  17  38  1   
 38  18  20  1   
 39  18  39  1   
 40  18  40  1   
 41  19  41  1   
 42  20  42  1   
 43  20  43  1   
 44  21  22  1   
 45  21  44  1   
 46  21  45  1   
 47  22  23  1   
 48  22  24  1   
 49  22  46  1   
 50  23  24  1   
 51  23  47  1   
 52  23  48  1   
 53  24  49  1   
 54  24  50  1   
@<TRIPOS>SUBSTRUCTURE
  1 ****   3 GROUP 4 **** **** 0

# MOE 2024.06 (io_trps.svl 2023.06)
