@<TRIPOS>MOLECULE
NONAME
44 46 1 0 0 
SMALL
USER_CHARGES


@<TRIPOS>ATOM
  1 O       -0.2220     0.2080     0.4570 O.2   1 <1>  -0.5700 
  2 C       -1.2570     0.8410     0.3710 C.2   1 <1>   0.5440 
  3 N       -2.4440     0.1540     0.2740 N.am  1 <1>  -0.6600 
  4 C       -1.2390     2.2920     0.3690 C.ar  1 <1>   0.0860 
  5 C       -3.7410     0.7540    -0.1250 C.3   1 <1>   0.1400 
  6 C       -2.5200    -1.3260     0.2650 C.3   1 <1>   0.1400 
  7 C       -0.6670     3.0390    -0.6710 C.ar  1 <1>  -0.1440 
  8 C       -1.8240     2.9850     1.4310 C.ar  1 <1>  -0.1500 
  9 C       -4.5650    -0.4240    -0.6410 C.3   1 <1>   0.2000 
 10 C       -4.0020    -1.6510     0.0730 C.3   1 <1>  -0.0800 
 11 C       -0.6960     4.4240    -0.6370 C.ar  1 <1>  -0.1500 
 12 C       -0.0060     2.3380    -1.8510 C.3   1 <1>  -0.0960 
 13 C       -1.8540     4.3650     1.4630 C.ar  1 <1>  -0.1500 
 14 O       -5.9110    -0.2720    -0.3510 O.3   1 <1>  -0.6800 
 15 C       -4.2520    -2.9620    -0.6860 C.3   1 <1>   0.0210 
 16 C       -1.2910     5.0830     0.4260 C.ar  1 <1>   0.0820 
 17 C       -3.6050    -4.1320     0.0280 C.2   1 <1>   0.1080 
 18 O       -1.3250     6.4200     0.4620 O.3   1 <1>  -0.5320 
 19 N       -3.9760    -4.5290     1.2050 N.2   1 <1>  -0.7070 
 20 C       -2.5550    -4.8920    -0.4770 C.2   1 <1>  -0.1500 
 21 N       -3.1640    -5.5670     1.4860 N.pl3 1 <1>   0.3000 
 22 C       -2.2930    -5.8040     0.4820 C.2   1 <1>  -0.3320 
 23 C       -1.2490    -6.9050     0.5030 C.3   1 <1>  -0.0600 
 24 H       -4.2050     1.1960     0.7390 H     1 <1>   0.0800 
 25 H       -3.6020     1.4920    -0.8950 H     1 <1>   0.0800 
 26 H       -1.9290    -1.7020    -0.5540 H     1 <1>   0.0800 
 27 H       -2.1440    -1.7340     1.1880 H     1 <1>   0.0800 
 28 H       -2.2570     2.4230     2.2400 H     1 <1>   0.1500 
 29 H       -4.4540    -0.5030    -1.7090 H     1 <1>   0.0800 
 30 H       -4.4360    -1.7270     1.0550 H     1 <1>   0.0800 
 31 H       -0.2560     4.9930    -1.4350 H     1 <1>   0.1500 
 32 H        0.3190     3.0440    -2.5940 H     1 <1>   0.0800 
 33 H       -0.6960     1.6530    -2.3110 H     1 <1>   0.0800 
 34 H        0.8520     1.7840    -1.5110 H     1 <1>   0.0800 
 35 H       -2.3070     4.8910     2.2850 H     1 <1>   0.1500 
 36 H       -6.0620    -0.3660     0.6090 H     1 <1>   0.4000 
 37 H       -3.8630    -2.8940    -1.6850 H     1 <1>   0.0800 
 38 H       -5.3110    -3.1430    -0.7510 H     1 <1>   0.0800 
 39 H       -0.8910     6.8430    -0.2990 H     1 <1>   0.4500 
 40 H       -2.0730    -4.7580    -1.4280 H     1 <1>   0.1500 
 41 H       -3.2300    -6.0890     2.3670 H     1 <1>   0.2700 
 42 H       -0.6790    -6.8900    -0.4090 H     1 <1>   0.0800 
 43 H       -1.7220    -7.8660     0.5960 H     1 <1>   0.0800 
 44 H       -0.5750    -6.7630     1.3300 H     1 <1>   0.0800 
@<TRIPOS>BOND
  1   1   2  2   
  2   2   3  am  
  3   2   4  1   
  4   3   5  1   
  5   3   6  1   
  6   4   7  ar  
  7   4   8  ar  
  8   5   9  1   
  9   5  24  1   
 10   5  25  1   
 11   6  10  1   
 12   6  26  1   
 13   6  27  1   
 14   7  11  ar  
 15   7  12  1   
 16   8  13  ar  
 17   8  28  1   
 18   9  10  1   
 19   9  14  1   
 20   9  29  1   
 21  10  15  1   
 22  10  30  1   
 23  11  16  ar  
 24  11  31  1   
 25  12  32  1   
 26  12  33  1   
 27  12  34  1   
 28  13  16  ar  
 29  13  35  1   
 30  14  36  1   
 31  15  17  1   
 32  15  37  1   
 33  15  38  1   
 34  16  18  1   
 35  17  19  2   
 36  17  20  1   
 37  18  39  1   
 38  19  21  1   
 39  20  22  2   
 40  20  40  1   
 41  21  22  1   
 42  21  41  1   
 43  22  23  1   
 44  23  42  1   
 45  23  43  1   
 46  23  44  1   
@<TRIPOS>SUBSTRUCTURE
  1 ****   3 GROUP 4 **** **** 0

# MOE 2024.06 (io_trps.svl 2023.06)
