@<TRIPOS>MOLECULE
NONAME
43 45 1 0 0 
SMALL
USER_CHARGES


@<TRIPOS>ATOM
  1 F       -0.6500    -0.5870    -0.3250 F     1 <1>  -0.1900 
  2 C       -1.8100    -1.1870    -0.1700 C.ar  1 <1>   0.1900 
  3 C       -3.0240    -0.5090    -0.1080 C.ar  1 <1>   0.3930 
  4 C       -1.8190    -2.5540    -0.0650 C.ar  1 <1>   0.1600 
  5 O       -3.1870     0.8320    -0.1960 O.3   1 <1>  -0.3620 
  6 N       -4.1500    -1.1720     0.0480 N.ar  1 <1>  -0.6200 
  7 N       -2.9400    -3.2250     0.0910 N.ar  1 <1>  -0.6200 
  8 C       -2.1360     1.7630    -0.3250 C.3   1 <1>   0.0400 
  9 C       -4.0450    -2.4870     0.1420 C.ar  1 <1>   0.7200 
 10 N       -5.2260    -3.1220     0.3110 N.pl3 1 <1>  -0.8690 
 11 C       -5.4840    -4.5340    -0.0650 C.3   1 <1>   0.2090 
 12 C       -5.4660    -5.4160     1.1780 C.3   1 <1>  -0.0170 
 13 C       -5.8370    -6.8320     0.8010 C.ar  1 <1>   0.4770 
 14 N       -7.1230    -7.0580     0.5960 N.ar  1 <1>  -0.6200 
 15 N       -4.8450    -7.6980     0.7040 N.ar  1 <1>  -0.6200 
 16 C       -7.4440    -8.2890     0.2670 C.ar  1 <1>   0.1670 
 17 C       -5.1790    -8.9240     0.3720 C.ar  1 <1>   0.1670 
 18 C       -6.4940    -9.2860     0.1450 C.ar  1 <1>  -0.1430 
 19 C       -8.9280    -8.5470     0.0470 C.3   1 <1>  -0.0170 
 20 C       -4.0260    -9.9050     0.2590 C.3   1 <1>  -0.0970 
 21 C       -6.8830   -10.7160    -0.2330 C.3   1 <1>  -0.0170 
 22 C       -9.2140    -9.8740    -0.6650 C.3   1 <1>  -0.1600 
 23 C       -8.3780   -10.9980    -0.0480 C.3   1 <1>  -0.1600 
 24 H       -0.8950    -3.1030    -0.1100 H     1 <1>   0.1500 
 25 H       -2.5660     2.7490    -0.3490 H     1 <1>   0.0800 
 26 H       -1.6100     1.5750    -1.2440 H     1 <1>   0.0800 
 27 H       -1.4800     1.6740     0.5230 H     1 <1>   0.0800 
 28 H       -6.0170    -2.4830     0.2340 H     1 <1>   0.4000 
 29 H       -4.7380    -4.8790    -0.7630 H     1 <1>   0.0800 
 30 H       -6.4460    -4.6020    -0.5440 H     1 <1>   0.0800 
 31 H       -6.1730    -5.0480     1.8970 H     1 <1>   0.0800 
 32 H       -4.4840    -5.4000     1.6150 H     1 <1>   0.0800 
 33 H       -9.3460    -7.7390    -0.5260 H     1 <1>   0.0800 
 34 H       -9.4070    -8.5470     1.0100 H     1 <1>   0.0800 
 35 H       -3.1020    -9.3730     0.1130 H     1 <1>   0.0800 
 36 H       -4.1640   -10.5660    -0.5760 H     1 <1>   0.0800 
 37 H       -3.9510   -10.4780     1.1640 H     1 <1>   0.0800 
 38 H       -6.3280   -11.4190     0.3640 H     1 <1>   0.0800 
 39 H       -6.6210   -10.8760    -1.2650 H     1 <1>   0.0800 
 40 H       -8.9690    -9.7780    -1.7100 H     1 <1>   0.0800 
 41 H      -10.2620   -10.1060    -0.5880 H     1 <1>   0.0800 
 42 H       -8.6010   -11.0730     1.0030 H     1 <1>   0.0800 
 43 H       -8.6280   -11.9380    -0.5090 H     1 <1>   0.0800 
@<TRIPOS>BOND
  1   1   2  1   
  2   2   3  ar  
  3   2   4  ar  
  4   3   5  1   
  5   3   6  ar  
  6   4   7  ar  
  7   4  24  1   
  8   5   8  1   
  9   6   9  ar  
 10   7   9  ar  
 11   8  25  1   
 12   8  26  1   
 13   8  27  1   
 14   9  10  1   
 15  10  11  1   
 16  10  28  1   
 17  11  12  1   
 18  11  29  1   
 19  11  30  1   
 20  12  13  1   
 21  12  31  1   
 22  12  32  1   
 23  13  14  ar  
 24  13  15  ar  
 25  14  16  ar  
 26  15  17  ar  
 27  16  18  ar  
 28  16  19  1   
 29  17  18  ar  
 30  17  20  1   
 31  18  21  1   
 32  19  22  1   
 33  19  33  1   
 34  19  34  1   
 35  20  35  1   
 36  20  36  1   
 37  20  37  1   
 38  21  23  1   
 39  21  38  1   
 40  21  39  1   
 41  22  23  1   
 42  22  40  1   
 43  22  41  1   
 44  23  42  1   
 45  23  43  1   
@<TRIPOS>SUBSTRUCTURE
  1 ****  11 GROUP 4 **** **** 0

# MOE 2024.06 (io_trps.svl 2023.06)
