@<TRIPOS>MOLECULE
NONAME
49 51 1 0 0 
SMALL
USER_CHARGES


@<TRIPOS>ATOM
  1 F       -0.1900    -0.6610    -0.5400 F     1 <1>  -0.1900 
  2 C       -0.7370    -1.8120    -0.2390 C.ar  1 <1>   0.1900 
  3 C       -0.0190    -2.8320     0.3950 C.ar  1 <1>   0.0830 
  4 C       -2.0650    -1.9710    -0.5870 C.ar  1 <1>  -0.1500 
  5 O        1.2880    -2.7940     0.7860 O.3   1 <1>  -0.3630 
  6 C       -0.6870    -4.0160     0.6630 C.ar  1 <1>  -0.1500 
  7 C       -2.6980    -3.1670    -0.3050 C.ar  1 <1>  -0.1500 
  8 C        2.0860    -1.6350     0.6880 C.3   1 <1>   0.0400 
  9 C       -2.0280    -4.2160     0.3270 C.ar  1 <1>   0.0530 
 10 C       -2.6750    -5.4760     0.6120 C.2   1 <1>   0.0870 
 11 O       -1.9640    -6.5800     0.5540 O.3   1 <1>  -0.0190 
 12 C       -3.9450    -5.8440     0.9330 C.2   1 <1>  -0.2330 
 13 N       -2.6660    -7.6530     0.8030 N.2   1 <1>  -0.4100 
 14 C       -3.8570    -7.2310     1.0390 C.2   1 <1>   0.3720 
 15 C       -5.1520    -5.0980     1.1350 C.2   1 <1>   1.0330 
 16 N       -4.9240    -8.0570     1.3500 N.pl3 1 <1>  -0.8520 
 17 O       -5.1270    -3.8750     1.3400 O.co2 1 <1>  -0.9000 
 18 O       -6.2620    -5.6660     1.0890 O.co2 1 <1>  -0.9000 
 19 C       -5.1660    -9.1450     0.3860 C.3   1 <1>   0.2090 
 20 C       -6.5220    -9.8170     0.6520 C.3   1 <1>  -0.0800 
 21 C       -6.6980   -11.0300    -0.2790 C.3   1 <1>  -0.1600 
 22 C       -7.7000    -8.8370     0.4800 C.3   1 <1>  -0.1600 
 23 C       -8.0510   -11.7220    -0.0650 C.3   1 <1>  -0.1600 
 24 C       -9.0530    -9.5330     0.6860 C.3   1 <1>  -0.1600 
 25 C       -9.2230   -10.7400    -0.2530 C.3   1 <1>  -0.0800 
 26 C      -10.5830   -11.4110     0.0010 C.3   1 <1>   0.1200 
 27 O      -10.7780   -12.4430    -0.9040 O.3   1 <1>  -0.6800 
 28 H       -2.5990    -1.1720    -1.0670 H     1 <1>   0.1500 
 29 H       -0.1490    -4.8070     1.1530 H     1 <1>   0.1500 
 30 H       -3.7330    -3.2900    -0.5740 H     1 <1>   0.1500 
 31 H        3.0470    -1.8540     1.1160 H     1 <1>   0.0800 
 32 H        1.6150    -0.8390     1.2370 H     1 <1>   0.0800 
 33 H        2.2000    -1.3750    -0.3500 H     1 <1>   0.0800 
 34 H       -5.7580    -7.4300     1.3790 H     1 <1>   0.4000 
 35 H       -4.3740    -9.8690     0.4810 H     1 <1>   0.0800 
 36 H       -5.1430    -8.7450    -0.6140 H     1 <1>   0.0800 
 37 H       -6.5150   -10.1720     1.6690 H     1 <1>   0.0800 
 38 H       -5.9080   -11.7390    -0.0990 H     1 <1>   0.0800 
 39 H       -6.6260   -10.7080    -1.3040 H     1 <1>   0.0800 
 40 H       -7.6660    -8.4000    -0.5030 H     1 <1>   0.0800 
 41 H       -7.6160    -8.0320     1.1910 H     1 <1>   0.0800 
 42 H       -8.0850   -12.1340     0.9290 H     1 <1>   0.0800 
 43 H       -8.1410   -12.5390    -0.7600 H     1 <1>   0.0800 
 44 H       -9.8400    -8.8200     0.5130 H     1 <1>   0.0800 
 45 H       -9.1230    -9.8590     1.7100 H     1 <1>   0.0800 
 46 H       -9.2110   -10.3700    -1.2640 H     1 <1>   0.0800 
 47 H      -11.3870   -10.7050    -0.1210 H     1 <1>   0.0800 
 48 H      -10.6270   -11.8280     0.9930 H     1 <1>   0.0800 
 49 H      -10.6810   -12.1120    -1.8170 H     1 <1>   0.4000 
@<TRIPOS>BOND
  1   1   2  1   
  2   2   3  ar  
  3   2   4  ar  
  4   3   5  1   
  5   3   6  ar  
  6   4   7  ar  
  7   4  28  1   
  8   5   8  1   
  9   6   9  ar  
 10   6  29  1   
 11   7   9  ar  
 12   7  30  1   
 13   8  31  1   
 14   8  32  1   
 15   8  33  1   
 16   9  10  1   
 17  10  11  1   
 18  10  12  2   
 19  11  13  1   
 20  12  14  1   
 21  12  15  1   
 22  13  14  2   
 23  14  16  1   
 24  15  17  ar  
 25  15  18  ar  
 26  16  19  1   
 27  16  34  1   
 28  19  20  1   
 29  19  35  1   
 30  19  36  1   
 31  20  21  1   
 32  20  22  1   
 33  20  37  1   
 34  21  23  1   
 35  21  38  1   
 36  21  39  1   
 37  22  24  1   
 38  22  40  1   
 39  22  41  1   
 40  23  25  1   
 41  23  42  1   
 42  23  43  1   
 43  24  25  1   
 44  24  44  1   
 45  24  45  1   
 46  25  26  1   
 47  25  46  1   
 48  26  27  1   
 49  26  47  1   
 50  26  48  1   
 51  27  49  1   
@<TRIPOS>SUBSTRUCTURE
  1 ****  12 GROUP 4 **** **** 0

# MOE 2024.06 (io_trps.svl 2023.06)
