@<TRIPOS>MOLECULE
NONAME
43 44 1 0 0 
SMALL
USER_CHARGES


@<TRIPOS>ATOM
  1 S       -0.1590     0.4090    -0.6560 S.o2  1 <1>   1.3330 
  2 O       -0.9810    -0.7290    -0.9800 O.2   1 <1>  -0.6500 
  3 O        0.0930     1.4440    -1.6340 O.2   1 <1>  -0.6500 
  4 N        1.3490    -0.1620    -0.1240 N.am  1 <1>  -0.8490 
  5 C       -0.8230     1.2250     0.8040 C.3   1 <1>  -0.0550 
  6 C        1.2470    -1.4080     0.6540 C.3   1 <1>   0.1160 
  7 C        2.2590    -0.4030    -1.2540 C.3   1 <1>   0.1160 
  8 C       -0.2970     2.6540     1.0980 C.3   1 <1>  -0.0800 
  9 C       -0.7890     3.7020     0.0830 C.3   1 <1>   0.2000 
 10 C        1.2390     2.7830     1.1160 C.3   1 <1>   0.3430 
 11 O       -1.3650     4.7520     0.7920 O.3   1 <1>  -0.6800 
 12 C        0.4810     4.2160    -0.6060 C.3   1 <1>   0.3430 
 13 N        1.5770     4.0360     0.3930 N.4   1 <1>  -0.9590 
 14 C        1.6650     5.2120     1.3040 C.3   1 <1>   0.4860 
 15 C        2.1380     6.4070     0.5020 C.ar  1 <1>  -0.1440 
 16 C        1.2360     7.3970     0.1370 C.ar  1 <1>  -0.1500 
 17 C        3.4680     6.5200     0.1230 C.ar  1 <1>  -0.1500 
 18 C        1.6580     8.4820    -0.6100 C.ar  1 <1>  -0.1500 
 19 C        3.8880     7.6060    -0.6260 C.ar  1 <1>  -0.1500 
 20 C        2.9830     8.5850    -0.9940 C.ar  1 <1>  -0.1500 
 21 H       -1.8890     1.2850     0.6960 H     1 <1>   0.0800 
 22 H       -0.6400     0.6050     1.6590 H     1 <1>   0.0800 
 23 H        2.2180    -1.7000     1.0180 H     1 <1>   0.0800 
 24 H        0.8540    -2.2060     0.0440 H     1 <1>   0.0800 
 25 H        0.5970    -1.2760     1.5010 H     1 <1>   0.0800 
 26 H        3.2110    -0.7620    -0.9000 H     1 <1>   0.0800 
 27 H        2.4270     0.5080    -1.8020 H     1 <1>   0.0800 
 28 H        1.8380    -1.1340    -1.9260 H     1 <1>   0.0800 
 29 H       -0.6550     2.9170     2.0790 H     1 <1>   0.0800 
 30 H       -1.5060     3.3360    -0.6340 H     1 <1>   0.0800 
 31 H        1.6900     1.9570     0.5950 H     1 <1>   0.0800 
 32 H        1.6180     2.7960     2.1250 H     1 <1>   0.0800 
 33 H       -2.3080     4.5700     0.9920 H     1 <1>   0.4000 
 34 H        0.3710     5.2400    -0.9210 H     1 <1>   0.0800 
 35 H        0.6850     3.6080    -1.4710 H     1 <1>   0.0800 
 36 H        2.4720     3.9630    -0.1060 H     1 <1>   0.4500 
 37 H        0.7030     5.4220     1.7440 H     1 <1>   0.0800 
 38 H        2.3680     5.0170     2.0970 H     1 <1>   0.0800 
 39 H        0.2000     7.3330     0.4280 H     1 <1>   0.1500 
 40 H        4.1920     5.7740     0.4030 H     1 <1>   0.1500 
 41 H        0.9570     9.2500    -0.8940 H     1 <1>   0.1500 
 42 H        4.9200     7.6950    -0.9220 H     1 <1>   0.1500 
 43 H        3.3100     9.4300    -1.5750 H     1 <1>   0.1500 
@<TRIPOS>BOND
  1   1   2  2   
  2   1   3  2   
  3   1   4  am  
  4   1   5  1   
  5   4   6  1   
  6   4   7  1   
  7   5   8  1   
  8   5  21  1   
  9   5  22  1   
 10   6  23  1   
 11   6  24  1   
 12   6  25  1   
 13   7  26  1   
 14   7  27  1   
 15   7  28  1   
 16   8   9  1   
 17   8  10  1   
 18   8  29  1   
 19   9  11  1   
 20   9  12  1   
 21   9  30  1   
 22  10  13  1   
 23  10  31  1   
 24  10  32  1   
 25  11  33  1   
 26  12  13  1   
 27  12  34  1   
 28  12  35  1   
 29  13  14  1   
 30  13  36  1   
 31  14  15  1   
 32  14  37  1   
 33  14  38  1   
 34  15  16  ar  
 35  15  17  ar  
 36  16  18  ar  
 37  16  39  1   
 38  17  19  ar  
 39  17  40  1   
 40  18  20  ar  
 41  18  41  1   
 42  19  20  ar  
 43  19  42  1   
 44  20  43  1   
@<TRIPOS>SUBSTRUCTURE
  1 ****  13 GROUP 4 **** **** 0

# MOE 2024.06 (io_trps.svl 2023.06)
