@<TRIPOS>MOLECULE
NONAME
59 62 1 0 0 
SMALL
USER_CHARGES


@<TRIPOS>ATOM
  1 O       -0.8760    -0.7080    -0.1730 O.3   1 <1>  -0.5600 
  2 C       -1.8430    -1.5570     0.3730 C.3   1 <1>   0.1200 
  3 C        0.4100    -1.2470    -0.1890 C.3   1 <1>   0.1200 
  4 C       -1.9370    -2.8630    -0.4380 C.3   1 <1>   0.2090 
  5 C        0.4430    -2.5300    -1.0420 C.3   1 <1>   0.2090 
  6 N       -0.5870    -3.5270    -0.5750 N.pl3 1 <1>  -0.8380 
  7 C       -0.4020    -4.8510    -0.3190 C.ar  1 <1>   0.7710 
  8 N       -1.4220    -5.5840     0.1180 N.ar  1 <1>  -0.6200 
  9 N        0.8120    -5.3930    -0.5200 N.ar  1 <1>  -0.1790 
 10 C       -1.2210    -6.8640     0.3650 C.ar  1 <1>   0.4100 
 11 C        1.0730    -6.6970    -0.2720 C.ar  1 <1>   0.2180 
 12 N       -2.2830    -7.5940     0.8090 N.pl3 1 <1>  -0.8380 
 13 C        0.0450    -7.4540     0.1820 C.ar  1 <1>  -0.1500 
 14 C        2.4820    -7.2300    -0.5040 C.3   1 <1>  -0.0170 
 15 C       -3.3960    -6.9750     1.6110 C.3   1 <1>   0.2090 
 16 C       -2.4880    -9.0510     0.5020 C.3   1 <1>   0.2090 
 17 C        3.5120    -6.5610     0.4160 C.3   1 <1>  -0.2400 
 18 C       -4.7770    -7.2660     0.9850 C.3   1 <1>   0.3430 
 19 C       -3.8950    -9.3220    -0.0790 C.3   1 <1>   0.3430 
 20 N       -5.0070    -8.7410     0.7670 N.4   1 <1>  -0.9590 
 21 C       -6.3850    -9.0170     0.2540 C.3   1 <1>   0.4230 
 22 C       -6.7130   -10.5050     0.4000 C.3   1 <1>  -0.1600 
 23 C       -6.5930    -8.5430    -1.1920 C.3   1 <1>  -0.1600 
 24 C       -8.0960   -10.7880    -0.1890 C.3   1 <1>   0.1200 
 25 C       -7.9840    -8.9620    -1.6720 C.3   1 <1>   0.1200 
 26 O       -8.1090   -10.3370    -1.5040 O.3   1 <1>  -0.5600 
 27 H       -2.7840    -1.0370     0.3490 H     1 <1>   0.0800 
 28 H       -1.5880    -1.7610     1.3980 H     1 <1>   0.0800 
 29 H        0.7130    -1.4460     0.8240 H     1 <1>   0.0800 
 30 H        1.0670    -0.5040    -0.6070 H     1 <1>   0.0800 
 31 H       -2.3180    -2.6300    -1.4180 H     1 <1>   0.0800 
 32 H       -2.6540    -3.5050     0.0420 H     1 <1>   0.0800 
 33 H        1.4370    -2.9330    -1.0020 H     1 <1>   0.0800 
 34 H        0.2360    -2.2610    -2.0650 H     1 <1>   0.0800 
 35 H        1.5280    -4.7680    -0.8640 H     1 <1>   0.4570 
 36 H        0.1800    -8.4910     0.4220 H     1 <1>   0.1500 
 37 H        2.7630    -7.0800    -1.5330 H     1 <1>   0.0800 
 38 H        2.4980    -8.2910    -0.3210 H     1 <1>   0.0800 
 39 H       -3.2690    -5.9100     1.6920 H     1 <1>   0.0800 
 40 H       -3.3680    -7.3700     2.6120 H     1 <1>   0.0800 
 41 H       -2.3520    -9.6260     1.4020 H     1 <1>   0.0800 
 42 H       -1.7610    -9.3870    -0.2160 H     1 <1>   0.0800 
 43 H        3.5960    -5.5070     0.2190 H     1 <1>   0.0800 
 44 H        4.4810    -7.0060     0.2600 H     1 <1>   0.0800 
 45 H        3.2440    -6.7030     1.4490 H     1 <1>   0.0800 
 46 H       -4.8330    -6.7460     0.0430 H     1 <1>   0.0800 
 47 H       -5.5430    -6.8670     1.6290 H     1 <1>   0.0800 
 48 H       -4.0290   -10.3860    -0.1840 H     1 <1>   0.0800 
 49 H       -3.9330    -8.8910    -1.0660 H     1 <1>   0.0800 
 50 H       -4.9450    -9.1910     1.6880 H     1 <1>   0.4500 
 51 H       -7.0900    -8.4800     0.8690 H     1 <1>   0.0800 
 52 H       -6.7150   -10.7880     1.4370 H     1 <1>   0.0800 
 53 H       -6.0060   -11.1180    -0.1270 H     1 <1>   0.0800 
 54 H       -5.8800    -8.9870    -1.8610 H     1 <1>   0.0800 
 55 H       -6.5150    -7.4740    -1.2590 H     1 <1>   0.0800 
 56 H       -8.8820   -10.2920     0.3570 H     1 <1>   0.0800 
 57 H       -8.2960   -11.8460    -0.2040 H     1 <1>   0.0800 
 58 H       -8.1060    -8.7480    -2.7210 H     1 <1>   0.0800 
 59 H       -8.7710    -8.4710    -1.1230 H     1 <1>   0.0800 
@<TRIPOS>BOND
  1   1   2  1   
  2   1   3  1   
  3   2   4  1   
  4   2  27  1   
  5   2  28  1   
  6   3   5  1   
  7   3  29  1   
  8   3  30  1   
  9   4   6  1   
 10   4  31  1   
 11   4  32  1   
 12   5   6  1   
 13   5  33  1   
 14   5  34  1   
 15   6   7  1   
 16   7   8  ar  
 17   7   9  ar  
 18   8  10  ar  
 19   9  11  ar  
 20   9  35  1   
 21  10  12  1   
 22  10  13  ar  
 23  11  13  ar  
 24  11  14  1   
 25  12  15  1   
 26  12  16  1   
 27  13  36  1   
 28  14  17  1   
 29  14  37  1   
 30  14  38  1   
 31  15  18  1   
 32  15  39  1   
 33  15  40  1   
 34  16  19  1   
 35  16  41  1   
 36  16  42  1   
 37  17  43  1   
 38  17  44  1   
 39  17  45  1   
 40  18  20  1   
 41  18  46  1   
 42  18  47  1   
 43  19  20  1   
 44  19  48  1   
 45  19  49  1   
 46  20  21  1   
 47  20  50  1   
 48  21  22  1   
 49  21  23  1   
 50  21  51  1   
 51  22  24  1   
 52  22  52  1   
 53  22  53  1   
 54  23  25  1   
 55  23  54  1   
 56  23  55  1   
 57  24  26  1   
 58  24  56  1   
 59  24  57  1   
 60  25  26  1   
 61  25  58  1   
 62  25  59  1   
@<TRIPOS>SUBSTRUCTURE
  1 ****  12 GROUP 4 **** **** 0

# MOE 2024.06 (io_trps.svl 2023.06)
