@<TRIPOS>MOLECULE
NONAME
44 45 1 0 0 
SMALL
USER_CHARGES


@<TRIPOS>ATOM
  1 S       -0.1930     0.0910     0.4750 S.o2  1 <1>   1.3330 
  2 O       -0.7740     1.3960     0.6940 O.2   1 <1>  -0.6500 
  3 O       -0.0380    -0.8200     1.5870 O.2   1 <1>  -0.6500 
  4 N       -1.0920    -0.7020    -0.7270 N.am  1 <1>  -0.8490 
  5 C        1.3940     0.3340    -0.3240 C.3   1 <1>  -0.0550 
  6 C       -2.5250    -0.3990    -0.6430 C.3   1 <1>   0.1160 
  7 C       -0.8900    -2.1550    -0.7450 C.3   1 <1>   0.1160 
  8 C        2.3690     1.1890     0.5080 C.3   1 <1>  -0.0800 
  9 C        3.6170     1.5350    -0.2900 C.3   1 <1>   0.2200 
 10 C        2.9270     0.4280     1.7220 C.3   1 <1>   0.1200 
 11 N        4.1340     2.8400     0.1790 N.am  1 <1>  -0.7300 
 12 C        4.5730     0.4260     0.1250 C.3   1 <1>   0.1200 
 13 O        4.2740     0.1680     1.4600 O.3   1 <1>  -0.5600 
 14 C        4.2490     3.9650    -0.5870 C.2   1 <1>   0.5440 
 15 O        3.9890     3.8850    -1.7710 O.2   1 <1>  -0.5700 
 16 C        4.6520     5.2130     0.0060 C.ar  1 <1>   0.0860 
 17 C        5.6330     6.0560    -0.5080 C.ar  1 <1>   0.1670 
 18 C        4.0460     5.6570     1.1690 C.ar  1 <1>   0.1600 
 19 N        5.9650     7.1840     0.0740 N.ar  1 <1>  -0.6200 
 20 C        6.3900     5.7190    -1.7820 C.3   1 <1>  -0.0970 
 21 N        4.3610     6.7760     1.7730 N.ar  1 <1>  -0.6200 
 22 C        5.3140     7.4780     1.1850 C.ar  1 <1>   0.7200 
 23 N        5.6460     8.6230     1.7740 N.pl3 1 <1>  -0.9000 
 24 H        1.8380    -0.6180    -0.5410 H     1 <1>   0.0800 
 25 H        1.2170     0.8340    -1.2570 H     1 <1>   0.0800 
 26 H       -3.0600    -0.9040    -1.4280 H     1 <1>   0.0800 
 27 H       -2.6850     0.6600    -0.7550 H     1 <1>   0.0800 
 28 H       -2.9170    -0.7090     0.3120 H     1 <1>   0.0800 
 29 H       -1.4090    -2.5900    -1.5820 H     1 <1>   0.0800 
 30 H       -1.2590    -2.5980     0.1660 H     1 <1>   0.0800 
 31 H        0.1580    -2.3830    -0.8400 H     1 <1>   0.0800 
 32 H        1.8540     2.0820     0.8200 H     1 <1>   0.0800 
 33 H        3.4540     1.5480    -1.3550 H     1 <1>   0.0800 
 34 H        2.4320    -0.5120     1.8940 H     1 <1>   0.0800 
 35 H        2.8740     1.0260     2.6160 H     1 <1>   0.0800 
 36 H        4.4920     2.8180     1.1390 H     1 <1>   0.3700 
 37 H        5.6060     0.7090     0.0310 H     1 <1>   0.0800 
 38 H        4.3850    -0.4730    -0.4350 H     1 <1>   0.0800 
 39 H        3.2650     5.0590     1.6080 H     1 <1>   0.1500 
 40 H        6.6580     4.6790    -1.8040 H     1 <1>   0.0800 
 41 H        7.2920     6.3020    -1.8490 H     1 <1>   0.0800 
 42 H        5.7750     5.9400    -2.6360 H     1 <1>   0.0800 
 43 H        6.2230     9.2790     1.2560 H     1 <1>   0.4000 
 44 H        5.0420     8.9830     2.5060 H     1 <1>   0.4000 
@<TRIPOS>BOND
  1   1   2  2   
  2   1   3  2   
  3   1   4  am  
  4   1   5  1   
  5   4   6  1   
  6   4   7  1   
  7   5   8  1   
  8   5  24  1   
  9   5  25  1   
 10   6  26  1   
 11   6  27  1   
 12   6  28  1   
 13   7  29  1   
 14   7  30  1   
 15   7  31  1   
 16   8   9  1   
 17   8  10  1   
 18   8  32  1   
 19   9  11  1   
 20   9  12  1   
 21   9  33  1   
 22  10  13  1   
 23  10  34  1   
 24  10  35  1   
 25  11  14  am  
 26  11  36  1   
 27  12  13  1   
 28  12  37  1   
 29  12  38  1   
 30  14  15  2   
 31  14  16  1   
 32  16  17  ar  
 33  16  18  ar  
 34  17  19  ar  
 35  17  20  1   
 36  18  21  ar  
 37  18  39  1   
 38  19  22  ar  
 39  20  40  1   
 40  20  41  1   
 41  20  42  1   
 42  21  22  ar  
 43  22  23  1   
 44  23  43  1   
 45  23  44  1   
@<TRIPOS>SUBSTRUCTURE
  1 ****  11 GROUP 4 **** **** 0

# MOE 2024.06 (io_trps.svl 2023.06)
