@<TRIPOS>MOLECULE
NONAME
45 46 1 0 0 
SMALL
USER_CHARGES


@<TRIPOS>ATOM
  1 S        0.4500     1.2080    -1.0250 S.o2  1 <1>   1.3330 
  2 O        0.9560    -0.0670    -1.4790 O.2   1 <1>  -0.6500 
  3 O       -0.2540     2.0530    -1.9640 O.2   1 <1>  -0.6500 
  4 N        1.7860     2.0850    -0.4570 N.am  1 <1>  -0.8490 
  5 C       -0.6340     0.8990     0.3830 C.3   1 <1>  -0.0550 
  6 C        2.6950     1.3060     0.3890 C.3   1 <1>   0.1160 
  7 C        2.5430     2.6780    -1.5640 C.3   1 <1>   0.1160 
  8 C       -1.2280     2.0730     1.2070 C.3   1 <1>  -0.0800 
  9 C       -1.7490     3.2580     0.3880 C.3   1 <1>   0.2000 
 10 C       -0.2320     2.6980     2.1890 C.3   1 <1>   0.1400 
 11 O       -2.7930     3.8260     1.1030 O.3   1 <1>  -0.6800 
 12 C       -0.5960     4.2660     0.3620 C.3   1 <1>   0.1400 
 13 N        0.2000     3.9830     1.5890 N.am  1 <1>  -0.6600 
 14 C        1.4620     4.4830     1.8220 C.2   1 <1>   0.5440 
 15 O        2.1530     3.9500     2.6710 O.2   1 <1>  -0.5700 
 16 C        1.9940     5.6070     1.0740 C.ar  1 <1>   0.0860 
 17 C        3.2500     5.5170     0.4750 C.ar  1 <1>  -0.1500 
 18 C        1.2880     6.8040     0.9320 C.ar  1 <1>  -0.1500 
 19 C        3.7920     6.5470    -0.2750 C.ar  1 <1>   0.0820 
 20 C        1.8010     7.8560     0.1940 C.ar  1 <1>  -0.1500 
 21 O        5.0200     6.2950    -0.8110 O.3   1 <1>  -0.3620 
 22 C        3.0390     7.7190    -0.4060 C.ar  1 <1>   0.1900 
 23 C        5.8030     7.2920    -1.4290 C.3   1 <1>   0.0400 
 24 F        3.4640     8.7400    -1.1040 F     1 <1>  -0.1900 
 25 H       -1.4700     0.3430     0.0030 H     1 <1>   0.0800 
 26 H       -0.1290     0.2400     1.0610 H     1 <1>   0.0800 
 27 H        3.4620     1.9460     0.7900 H     1 <1>   0.0800 
 28 H        3.1560     0.5140    -0.1790 H     1 <1>   0.0800 
 29 H        2.1600     0.8720     1.2150 H     1 <1>   0.0800 
 30 H        3.3960     3.2190    -1.1940 H     1 <1>   0.0800 
 31 H        1.9200     3.3660    -2.1110 H     1 <1>   0.0800 
 32 H        2.8820     1.9100    -2.2390 H     1 <1>   0.0800 
 33 H       -2.0360     1.6480     1.7770 H     1 <1>   0.0800 
 34 H       -2.1180     2.9990    -0.5900 H     1 <1>   0.0800 
 35 H        0.6100     2.0520     2.3730 H     1 <1>   0.0800 
 36 H       -0.7150     2.9060     3.1280 H     1 <1>   0.0800 
 37 H       -2.4390     4.2080     1.9300 H     1 <1>   0.4000 
 38 H       -0.9680     5.2740     0.3500 H     1 <1>   0.0800 
 39 H        0.0190     4.1110    -0.5050 H     1 <1>   0.0800 
 40 H        3.8170     4.6130     0.6040 H     1 <1>   0.1500 
 41 H        0.3300     6.9070     1.4120 H     1 <1>   0.1500 
 42 H        1.2520     8.7740     0.0830 H     1 <1>   0.1500 
 43 H        6.7610     6.8660    -1.6660 H     1 <1>   0.0800 
 44 H        5.9290     8.1140    -0.7470 H     1 <1>   0.0800 
 45 H        5.3150     7.6120    -2.3330 H     1 <1>   0.0800 
@<TRIPOS>BOND
  1   1   2  2   
  2   1   3  2   
  3   1   4  am  
  4   1   5  1   
  5   4   6  1   
  6   4   7  1   
  7   5   8  1   
  8   5  25  1   
  9   5  26  1   
 10   6  27  1   
 11   6  28  1   
 12   6  29  1   
 13   7  30  1   
 14   7  31  1   
 15   7  32  1   
 16   8   9  1   
 17   8  10  1   
 18   8  33  1   
 19   9  11  1   
 20   9  12  1   
 21   9  34  1   
 22  10  13  1   
 23  10  35  1   
 24  10  36  1   
 25  11  37  1   
 26  12  13  1   
 27  12  38  1   
 28  12  39  1   
 29  13  14  am  
 30  14  15  2   
 31  14  16  1   
 32  16  17  ar  
 33  16  18  ar  
 34  17  19  ar  
 35  17  40  1   
 36  18  20  ar  
 37  18  41  1   
 38  19  21  1   
 39  19  22  ar  
 40  20  22  ar  
 41  20  42  1   
 42  21  23  1   
 43  22  24  1   
 44  23  43  1   
 45  23  44  1   
 46  23  45  1   
@<TRIPOS>SUBSTRUCTURE
  1 ****  14 GROUP 4 **** **** 0

# MOE 2024.06 (io_trps.svl 2023.06)
