@<TRIPOS>MOLECULE
NONAME
48 50 1 0 0 
SMALL
USER_CHARGES


@<TRIPOS>ATOM
  1 CL       1.9860     1.0450     1.9340 Cl    1 <1>  -0.1770 
  2 C        2.2160    -0.3860     0.9620 C.ar  1 <1>   0.1770 
  3 C        1.8440    -1.6140     1.4680 C.ar  1 <1>  -0.1500 
  4 C        2.7650    -0.2610    -0.3020 C.ar  1 <1>  -0.1500 
  5 C        2.0160    -2.7700     0.7100 C.ar  1 <1>   0.0860 
  6 C        2.9420    -1.3970    -1.0700 C.ar  1 <1>  -0.1500 
  7 C        2.5760    -2.6380    -0.5670 C.ar  1 <1>   0.0830 
  8 C        1.6140    -4.0550     1.2290 C.2   1 <1>   0.5440 
  9 O        2.7470    -3.7210    -1.3490 O.3   1 <1>  -0.3630 
 10 O        2.4490    -4.8080     1.7000 O.2   1 <1>  -0.5700 
 11 N        0.2990    -4.4620     1.2000 N.am  1 <1>  -0.6600 
 12 C        4.0060    -4.3510    -1.2790 C.3   1 <1>   0.0400 
 13 C       -0.1020    -5.7940     1.7340 C.3   1 <1>   0.1400 
 14 C       -0.6940    -3.9040     0.2370 C.3   1 <1>   0.1400 
 15 C       -0.1550    -6.7890     0.5510 C.3   1 <1>   0.4230 
 16 C       -0.8180    -4.8770    -0.9450 C.3   1 <1>  -0.1600 
 17 N       -0.4170    -8.2150     0.9460 N.4   1 <1>  -0.9590 
 18 C       -1.1990    -6.3160    -0.4860 C.3   1 <1>  -0.1060 
 19 C       -0.3290    -9.1360    -0.2140 C.3   1 <1>   0.3430 
 20 C        0.3610    -8.6980     2.1180 C.3   1 <1>   0.2630 
 21 C       -2.5910    -6.3250     0.1780 C.2   1 <1>   0.9060 
 22 C       -1.1700    -7.2550    -1.7150 C.3   1 <1>  -0.1600 
 23 C       -1.3260    -8.7270    -1.3010 C.3   1 <1>  -0.1600 
 24 O       -2.8340    -7.1730     1.0530 O.co2 1 <1>  -0.9000 
 25 O       -3.4300    -5.4920    -0.1590 O.co2 1 <1>  -0.9000 
 26 H        1.4170    -1.6800     2.4530 H     1 <1>   0.1500 
 27 H        3.0440     0.7100    -0.6720 H     1 <1>   0.1500 
 28 H        3.3600    -1.3280    -2.0590 H     1 <1>   0.1500 
 29 H        3.9980    -5.1950    -1.9440 H     1 <1>   0.0800 
 30 H        4.1790    -4.6800    -0.2690 H     1 <1>   0.0800 
 31 H        4.7650    -3.6510    -1.5790 H     1 <1>   0.0800 
 32 H        0.6130    -6.1130     2.4690 H     1 <1>   0.0800 
 33 H       -1.0620    -5.7110     2.2130 H     1 <1>   0.0800 
 34 H       -1.6470    -3.7910     0.7280 H     1 <1>   0.0800 
 35 H       -0.3920    -2.9350    -0.1190 H     1 <1>   0.0800 
 36 H        0.8140    -6.7520     0.0840 H     1 <1>   0.0800 
 37 H       -1.5700    -4.5030    -1.6190 H     1 <1>   0.0800 
 38 H        0.1150    -4.8860    -1.4800 H     1 <1>   0.0800 
 39 H       -1.4400    -8.1600     1.2030 H     1 <1>   0.4500 
 40 H        0.6710    -9.1130    -0.6160 H     1 <1>   0.0800 
 41 H       -0.5480   -10.1420     0.1030 H     1 <1>   0.0800 
 42 H        1.4170    -8.6410     1.9140 H     1 <1>   0.0800 
 43 H        0.0990    -9.7190     2.3400 H     1 <1>   0.0800 
 44 H        0.1390    -8.0970     2.9840 H     1 <1>   0.0800 
 45 H       -1.9670    -6.9850    -2.3880 H     1 <1>   0.0800 
 46 H       -0.2390    -7.1360    -2.2420 H     1 <1>   0.0800 
 47 H       -1.1880    -9.3560    -2.1630 H     1 <1>   0.0800 
 48 H       -2.3260    -8.8990    -0.9400 H     1 <1>   0.0800 
@<TRIPOS>BOND
  1   1   2  1   
  2   2   3  ar  
  3   2   4  ar  
  4   3   5  ar  
  5   3  26  1   
  6   4   6  ar  
  7   4  27  1   
  8   5   7  ar  
  9   5   8  1   
 10   6   7  ar  
 11   6  28  1   
 12   7   9  1   
 13   8  10  2   
 14   8  11  am  
 15   9  12  1   
 16  11  13  1   
 17  11  14  1   
 18  12  29  1   
 19  12  30  1   
 20  12  31  1   
 21  13  15  1   
 22  13  32  1   
 23  13  33  1   
 24  14  16  1   
 25  14  34  1   
 26  14  35  1   
 27  15  17  1   
 28  15  18  1   
 29  15  36  1   
 30  16  18  1   
 31  16  37  1   
 32  16  38  1   
 33  17  19  1   
 34  17  20  1   
 35  17  39  1   
 36  18  21  1   
 37  18  22  1   
 38  19  23  1   
 39  19  40  1   
 40  19  41  1   
 41  20  42  1   
 42  20  43  1   
 43  20  44  1   
 44  21  24  ar  
 45  21  25  ar  
 46  22  23  1   
 47  22  45  1   
 48  22  46  1   
 49  23  47  1   
 50  23  48  1   
@<TRIPOS>SUBSTRUCTURE
  1 ****  11 GROUP 4 **** **** 0

# MOE 2024.06 (io_trps.svl 2023.06)
