@<TRIPOS>MOLECULE
NONAME
46 47 1 0 0 
SMALL
USER_CHARGES


@<TRIPOS>ATOM
  1 S        1.0870    -1.9670     1.1310 S.3   1 <1>  -0.3320 
  2 C       -0.2240    -2.5970     0.0730 C.ar  1 <1>   0.1020 
  3 C        2.1800    -0.9260     0.0650 C.3   1 <1>  -0.0100 
  4 C       -1.2000    -3.3570     0.6870 C.ar  1 <1>  -0.1500 
  5 C       -0.2670    -2.3490    -1.2890 C.ar  1 <1>  -0.1500 
  6 C       -2.2330    -3.9010    -0.0630 C.ar  1 <1>  -0.1430 
  7 C       -1.3080    -2.8700    -2.0360 C.ar  1 <1>  -0.1500 
  8 C       -2.2870    -3.6390    -1.4280 C.ar  1 <1>  -0.1500 
  9 C       -3.2940    -4.7530     0.6140 C.3   1 <1>   0.4860 
 10 N       -2.9190    -6.2050     0.6250 N.4   1 <1>  -0.9590 
 11 C       -1.7920    -6.4650     1.5700 C.3   1 <1>   0.4230 
 12 C       -2.7720    -6.7420    -0.7660 C.3   1 <1>   0.4810 
 13 C       -0.4290    -6.6580     0.8990 C.3   1 <1>  -0.2400 
 14 C       -2.1540    -7.6820     2.4120 C.3   1 <1>  -0.2400 
 15 C       -3.1240    -8.2260    -0.7810 C.2   1 <1>  -0.0380 
 16 N       -4.4130    -8.6430    -0.5110 N.pl3 1 <1>  -0.5500 
 17 C       -2.2220    -9.1990    -1.0480 C.2   1 <1>  -0.1360 
 18 C       -4.7320    -9.9720    -0.4900 C.2   1 <1>   0.4390 
 19 C       -2.6040   -10.5640    -1.0080 C.2   1 <1>   0.7670 
 20 N       -3.8920   -10.9080    -0.7130 N.2   1 <1>  -0.6610 
 21 C       -6.1690   -10.3190    -0.1850 C.3   1 <1>  -0.1790 
 22 O       -1.7840   -11.4390    -1.2220 O.2   1 <1>  -0.5700 
 23 H        2.9520    -0.5190     0.6930 H     1 <1>   0.0800 
 24 H        1.5820    -0.1410    -0.3600 H     1 <1>   0.0800 
 25 H        2.6030    -1.5560    -0.6960 H     1 <1>   0.0800 
 26 H       -1.1290    -3.5080     1.7490 H     1 <1>   0.1500 
 27 H        0.4880    -1.7580    -1.7730 H     1 <1>   0.1500 
 28 H       -1.3540    -2.6700    -3.0940 H     1 <1>   0.1500 
 29 H       -3.0900    -4.0160    -2.0380 H     1 <1>   0.1500 
 30 H       -4.2290    -4.6210     0.0940 H     1 <1>   0.0800 
 31 H       -3.4310    -4.4040     1.6250 H     1 <1>   0.0800 
 32 H       -3.7070    -6.7180     1.0300 H     1 <1>   0.4500 
 33 H       -1.7070    -5.6250     2.2420 H     1 <1>   0.0800 
 34 H       -1.7710    -6.5850    -1.1310 H     1 <1>   0.0800 
 35 H       -3.4460    -6.2290    -1.4310 H     1 <1>   0.0800 
 36 H       -0.3680    -7.5920     0.3740 H     1 <1>   0.0800 
 37 H        0.3330    -6.6740     1.6590 H     1 <1>   0.0800 
 38 H       -0.1940    -5.8490     0.2320 H     1 <1>   0.0800 
 39 H       -2.2230    -8.5740     1.8150 H     1 <1>   0.0800 
 40 H       -3.0790    -7.5270     2.9360 H     1 <1>   0.0800 
 41 H       -1.3880    -7.8450     3.1500 H     1 <1>   0.0800 
 42 H       -5.2030    -8.0010    -0.4020 H     1 <1>   0.4000 
 43 H       -1.1930    -9.0160    -1.2930 H     1 <1>   0.1500 
 44 H       -6.4430    -9.9530     0.7870 H     1 <1>   0.0800 
 45 H       -6.2970   -11.3870    -0.1940 H     1 <1>   0.0800 
 46 H       -6.8180    -9.8950    -0.9280 H     1 <1>   0.0800 
@<TRIPOS>BOND
  1   1   2  1   
  2   1   3  1   
  3   2   4  ar  
  4   2   5  ar  
  5   3  23  1   
  6   3  24  1   
  7   3  25  1   
  8   4   6  ar  
  9   4  26  1   
 10   5   7  ar  
 11   5  27  1   
 12   6   8  ar  
 13   6   9  1   
 14   7   8  ar  
 15   7  28  1   
 16   8  29  1   
 17   9  10  1   
 18   9  30  1   
 19   9  31  1   
 20  10  11  1   
 21  10  12  1   
 22  10  32  1   
 23  11  13  1   
 24  11  14  1   
 25  11  33  1   
 26  12  15  1   
 27  12  34  1   
 28  12  35  1   
 29  13  36  1   
 30  13  37  1   
 31  13  38  1   
 32  14  39  1   
 33  14  40  1   
 34  14  41  1   
 35  15  16  1   
 36  15  17  2   
 37  16  18  1   
 38  16  42  1   
 39  17  19  1   
 40  17  43  1   
 41  18  20  2   
 42  18  21  1   
 43  19  20  1   
 44  19  22  2   
 45  21  44  1   
 46  21  45  1   
 47  21  46  1   
@<TRIPOS>SUBSTRUCTURE
  1 ****  12 GROUP 4 **** **** 0

# MOE 2024.06 (io_trps.svl 2023.06)
