@<TRIPOS>MOLECULE
NONAME
45 47 1 0 0 
SMALL
USER_CHARGES


@<TRIPOS>ATOM
  1 O       -0.9740     0.2410     1.7640 O.2   1 <1>  -0.5700 
  2 C       -1.8940     0.8090     1.2230 C.2   1 <1>   0.5690 
  3 N       -3.1110     0.1850     1.0740 N.am  1 <1>  -0.6600 
  4 C       -1.6080     2.2450     0.7570 C.3   1 <1>  -0.0190 
  5 C       -3.2790    -1.2110     1.5810 C.3   1 <1>   0.2840 
  6 C       -4.3700     0.7840     0.5540 C.3   1 <1>   0.1400 
  7 C       -2.3190     3.3080     1.6250 C.3   1 <1>  -0.1600 
  8 C       -1.7830     2.4550    -0.7690 C.3   1 <1>  -0.1600 
  9 C       -4.2770    -2.0420     0.7740 C.ar  1 <1>  -0.1440 
 10 C       -4.8890    -0.0380    -0.6250 C.3   1 <1>  -0.0160 
 11 C       -1.9230     4.7500     1.2480 C.3   1 <1>   0.2000 
 12 C       -2.2090     3.8850    -1.1440 C.3   1 <1>  -0.1600 
 13 C       -5.0360    -1.5120    -0.2650 C.ar  1 <1>  -0.1440 
 14 C       -4.4170    -3.3820     1.1100 C.ar  1 <1>  -0.1500 
 15 O       -3.0270     5.5790     1.5180 O.3   1 <1>  -0.5600 
 16 C       -1.5180     4.9080    -0.2430 C.3   1 <1>   0.2000 
 17 C       -5.9090    -2.3450    -0.9590 C.ar  1 <1>   0.0820 
 18 C       -5.2980    -4.1980     0.4230 C.ar  1 <1>  -0.1500 
 19 C       -3.1450     5.9920     2.8450 C.3   1 <1>   0.0400 
 20 O       -1.8750     6.1660    -0.6810 O.3   1 <1>  -0.6800 
 21 O       -6.6380    -1.8880    -1.9900 O.3   1 <1>  -0.5330 
 22 C       -6.0460    -3.6780    -0.6150 C.ar  1 <1>  -0.1500 
 23 H       -0.5580     2.3970     0.9440 H     1 <1>   0.0800 
 24 H       -2.3300    -1.7190     1.5650 H     1 <1>   0.0800 
 25 H       -3.6080    -1.1640     2.6040 H     1 <1>   0.0800 
 26 H       -5.1050     0.7840     1.3410 H     1 <1>   0.0800 
 27 H       -4.2260     1.7960     0.2320 H     1 <1>   0.0800 
 28 H       -2.0680     3.1360     2.6570 H     1 <1>   0.0800 
 29 H       -3.3820     3.2080     1.5270 H     1 <1>   0.0800 
 30 H       -0.8410     2.2370    -1.2420 H     1 <1>   0.0800 
 31 H       -2.4920     1.7630    -1.1820 H     1 <1>   0.0800 
 32 H       -5.8390     0.3710    -0.9150 H     1 <1>   0.0800 
 33 H       -4.2110     0.0570    -1.4540 H     1 <1>   0.0800 
 34 H       -1.0880     5.0740     1.8470 H     1 <1>   0.0800 
 35 H       -3.2750     3.9840    -1.0290 H     1 <1>   0.0800 
 36 H       -1.9580     4.0750    -2.1730 H     1 <1>   0.0800 
 37 H       -3.8350    -3.8010     1.9130 H     1 <1>   0.1500 
 38 H       -0.4510     4.8130    -0.3510 H     1 <1>   0.0800 
 39 H       -5.4000    -5.2350     0.6940 H     1 <1>   0.1500 
 40 H       -4.0200     6.6140     2.9250 H     1 <1>   0.0800 
 41 H       -2.2730     6.5610     3.1190 H     1 <1>   0.0800 
 42 H       -3.2540     5.1330     3.4830 H     1 <1>   0.0800 
 43 H       -2.6230     6.4460    -0.1040 H     1 <1>   0.4000 
 44 H       -6.4230    -0.9720    -2.2260 H     1 <1>   0.4500 
 45 H       -6.7310    -4.2980    -1.1620 H     1 <1>   0.1500 
@<TRIPOS>BOND
  1   1   2  2   
  2   2   3  am  
  3   2   4  1   
  4   3   5  1   
  5   3   6  1   
  6   4   7  1   
  7   4   8  1   
  8   4  23  1   
  9   5   9  1   
 10   5  24  1   
 11   5  25  1   
 12   6  10  1   
 13   6  26  1   
 14   6  27  1   
 15   7  11  1   
 16   7  28  1   
 17   7  29  1   
 18   8  12  1   
 19   8  30  1   
 20   8  31  1   
 21   9  13  ar  
 22   9  14  ar  
 23  10  13  1   
 24  10  32  1   
 25  10  33  1   
 26  11  15  1   
 27  11  16  1   
 28  11  34  1   
 29  12  16  1   
 30  12  35  1   
 31  12  36  1   
 32  13  17  ar  
 33  14  18  ar  
 34  14  37  1   
 35  15  19  1   
 36  16  20  1   
 37  16  38  1   
 38  17  21  1   
 39  17  22  ar  
 40  18  22  ar  
 41  18  39  1   
 42  19  40  1   
 43  19  41  1   
 44  19  42  1   
 45  20  43  1   
 46  21  44  1   
 47  22  45  1   
@<TRIPOS>SUBSTRUCTURE
  1 ****   6 GROUP 4 **** **** 0

# MOE 2024.06 (io_trps.svl 2023.06)
