@<TRIPOS>MOLECULE
NONAME
60 64 1 0 0 
SMALL
USER_CHARGES


@<TRIPOS>ATOM
  1 O       -0.6260     0.2880     0.9260 O.2   1 <1>  -0.5700 
  2 C       -1.6180     0.9360     0.6490 C.2   1 <1>   0.5440 
  3 N       -2.7830     0.2570     0.3630 N.am  1 <1>  -0.6600 
  4 C       -1.5490     2.3810     0.6040 C.ar  1 <1>   0.0860 
  5 C       -3.9120     0.8290    -0.4180 C.3   1 <1>   0.1400 
  6 C       -2.8580    -1.2280     0.3540 C.3   1 <1>   0.1400 
  7 C       -0.5640     3.0270    -0.1440 C.ar  1 <1>  -0.1500 
  8 C       -2.4540     3.1860     1.2990 C.ar  1 <1>  -0.1500 
  9 C       -4.9010    -0.3260    -0.5650 C.3   1 <1>   0.2000 
 10 C       -4.0040    -1.5690    -0.6090 C.3   1 <1>  -0.0800 
 11 C       -0.5030     4.4050    -0.2140 C.ar  1 <1>  -0.1500 
 12 C       -2.3920     4.5640     1.2310 C.ar  1 <1>  -0.1500 
 13 O       -5.6920    -0.3600     0.5740 O.3   1 <1>  -0.6800 
 14 C       -4.7280    -2.8940    -0.2870 C.3   1 <1>  -0.0170 
 15 C       -1.4170     5.1990     0.4680 C.ar  1 <1>   0.1000 
 16 C       -3.9170    -4.1850    -0.4600 C.ar  1 <1>  -0.1430 
 17 N       -1.3420     6.5820     0.3850 N.pl3 1 <1>  -0.8380 
 18 C       -4.4560    -5.4150    -0.0070 C.ar  1 <1>   0.0000 
 19 C       -2.6830    -4.2310    -1.0470 C.ar  1 <1>  -0.1500 
 20 C       -0.1130     7.2910     0.8230 C.3   1 <1>   0.2090 
 21 C       -2.5600     7.4260     0.2890 C.3   1 <1>   0.2090 
 22 C       -3.6740    -6.5860    -0.1700 C.ar  1 <1>   0.3100 
 23 C       -5.7300    -5.5560     0.5940 C.ar  1 <1>  -0.1500 
 24 C       -1.9940    -5.4440    -1.1620 C.ar  1 <1>   0.1600 
 25 C        0.1700     8.4520    -0.1350 C.3   1 <1>  -0.1600 
 26 C       -2.2930     8.5920    -0.6680 C.3   1 <1>  -0.1600 
 27 N       -2.4470    -6.5830    -0.7470 N.ar  1 <1>  -0.6200 
 28 C       -4.1820    -7.8150     0.2800 C.ar  1 <1>  -0.1500 
 29 C       -6.1970    -6.7700     1.0190 C.ar  1 <1>  -0.1500 
 30 C       -1.0420     9.3890    -0.2650 C.3   1 <1>  -0.1600 
 31 C       -5.4150    -7.9160     0.8630 C.ar  1 <1>  -0.1500 
 32 H       -4.3640     1.6720     0.0750 H     1 <1>   0.0800 
 33 H       -3.5500     1.1300    -1.3860 H     1 <1>   0.0800 
 34 H       -1.9250    -1.6570     0.0310 H     1 <1>   0.0800 
 35 H       -3.0760    -1.5710     1.3500 H     1 <1>   0.0800 
 36 H        0.1570     2.4310    -0.6740 H     1 <1>   0.1500 
 37 H       -3.2080     2.7170     1.9050 H     1 <1>   0.1500 
 38 H       -5.5420    -0.2270    -1.4250 H     1 <1>   0.0800 
 39 H       -3.6010    -1.6250    -1.6040 H     1 <1>   0.0800 
 40 H        0.2550     4.8840    -0.8060 H     1 <1>   0.1500 
 41 H       -3.0950     5.1610     1.7800 H     1 <1>   0.1500 
 42 H       -5.1100    -0.3000     1.3590 H     1 <1>   0.4000 
 43 H       -5.6010    -2.9630    -0.9130 H     1 <1>   0.0800 
 44 H       -5.0670    -2.8490     0.7330 H     1 <1>   0.0800 
 45 H       -2.1900    -3.3640    -1.4410 H     1 <1>   0.1500 
 46 H       -0.2620     7.6660     1.8210 H     1 <1>   0.0800 
 47 H        0.7220     6.6120     0.8390 H     1 <1>   0.0800 
 48 H       -3.3840     6.8370    -0.0780 H     1 <1>   0.0800 
 49 H       -2.8110     7.8000     1.2670 H     1 <1>   0.0800 
 50 H       -6.3560    -4.6930     0.7210 H     1 <1>   0.1500 
 51 H       -1.0230    -5.4280    -1.6270 H     1 <1>   0.1500 
 52 H        1.0210     9.0050     0.2180 H     1 <1>   0.0800 
 53 H        0.4180     8.0450    -1.1000 H     1 <1>   0.0800 
 54 H       -2.1630     8.1950    -1.6590 H     1 <1>   0.0800 
 55 H       -3.1480     9.2430    -0.6840 H     1 <1>   0.0800 
 56 H       -3.5620    -8.6830     0.1460 H     1 <1>   0.1500 
 57 H       -7.1680    -6.8590     1.4750 H     1 <1>   0.1500 
 58 H       -0.8390    10.1460    -1.0020 H     1 <1>   0.0800 
 59 H       -1.2180     9.8770     0.6780 H     1 <1>   0.0800 
 60 H       -5.7920    -8.8660     1.2020 H     1 <1>   0.1500 
@<TRIPOS>BOND
  1   1   2  2   
  2   2   3  am  
  3   2   4  1   
  4   3   5  1   
  5   3   6  1   
  6   4   7  ar  
  7   4   8  ar  
  8   5   9  1   
  9   5  32  1   
 10   5  33  1   
 11   6  10  1   
 12   6  34  1   
 13   6  35  1   
 14   7  11  ar  
 15   7  36  1   
 16   8  12  ar  
 17   8  37  1   
 18   9  10  1   
 19   9  13  1   
 20   9  38  1   
 21  10  14  1   
 22  10  39  1   
 23  11  15  ar  
 24  11  40  1   
 25  12  15  ar  
 26  12  41  1   
 27  13  42  1   
 28  14  16  1   
 29  14  43  1   
 30  14  44  1   
 31  15  17  1   
 32  16  18  ar  
 33  16  19  ar  
 34  17  20  1   
 35  17  21  1   
 36  18  22  ar  
 37  18  23  ar  
 38  19  24  ar  
 39  19  45  1   
 40  20  25  1   
 41  20  46  1   
 42  20  47  1   
 43  21  26  1   
 44  21  48  1   
 45  21  49  1   
 46  22  27  ar  
 47  22  28  ar  
 48  23  29  ar  
 49  23  50  1   
 50  24  27  ar  
 51  24  51  1   
 52  25  30  1   
 53  25  52  1   
 54  25  53  1   
 55  26  30  1   
 56  26  54  1   
 57  26  55  1   
 58  28  31  ar  
 59  28  56  1   
 60  29  31  ar  
 61  29  57  1   
 62  30  58  1   
 63  30  59  1   
 64  31  60  1   
@<TRIPOS>SUBSTRUCTURE
  1 ****   3 GROUP 4 **** **** 0

# MOE 2024.06 (io_trps.svl 2023.06)
