@<TRIPOS>MOLECULE
NONAME
48 50 1 0 0 
SMALL
USER_CHARGES


@<TRIPOS>ATOM
  1 O       -0.4280     0.2610     0.1130 O.2   1 <1>  -0.5700 
  2 C       -1.4980     0.8020    -0.0390 C.2   1 <1>   0.5690 
  3 N       -2.6320     0.0810    -0.2850 N.am  1 <1>  -0.6600 
  4 C       -1.5820     2.3220     0.0490 C.3   1 <1>  -0.0990 
  5 C       -4.0060     0.6200    -0.4480 C.3   1 <1>   0.1400 
  6 C       -2.6360    -1.3990    -0.3800 C.3   1 <1>   0.1400 
  7 C       -0.2200     3.0140     0.2520 C.3   1 <1>  -0.1600 
  8 C       -4.8910    -0.6070    -0.6810 C.3   1 <1>   0.2000 
  9 C       -4.0950    -1.8030    -0.1620 C.3   1 <1>  -0.0800 
 10 C       -0.3590     4.5470     0.3270 C.3   1 <1>  -0.0990 
 11 O       -6.0910    -0.5020     0.0050 O.3   1 <1>  -0.6800 
 12 C       -4.4860    -3.1200    -0.8530 C.3   1 <1>  -0.0170 
 13 C        0.9460     5.3040     0.5150 C.2   1 <1>   0.5690 
 14 C       -3.6670    -4.2850    -0.3270 C.ar  1 <1>   0.1670 
 15 O        0.9220     6.5060     0.5410 O.2   1 <1>  -0.5700 
 16 N        2.1150     4.6530     0.6520 N.am  1 <1>  -0.8000 
 17 N       -2.5420    -4.5410    -0.9210 N.ar  1 <1>  -0.6200 
 18 C       -4.1520    -5.0170     0.7690 C.ar  1 <1>  -0.1500 
 19 C       -1.7960    -5.5720    -0.4470 C.ar  1 <1>   0.3100 
 20 C       -3.4260    -6.0580     1.2630 C.ar  1 <1>  -0.1500 
 21 C       -2.2000    -6.3640     0.6500 C.ar  1 <1>   0.0000 
 22 C       -0.5700    -5.8640    -1.0670 C.ar  1 <1>  -0.1500 
 23 C       -1.3650    -7.4140     1.0800 C.ar  1 <1>  -0.1500 
 24 C        0.2270    -6.8890    -0.6330 C.ar  1 <1>  -0.1500 
 25 C       -0.1760    -7.6730     0.4530 C.ar  1 <1>  -0.1500 
 26 H       -2.0260     2.6860    -0.8590 H     1 <1>   0.0800 
 27 H       -2.2300     2.5740     0.8680 H     1 <1>   0.0800 
 28 H       -4.2950     1.1390     0.4480 H     1 <1>   0.0800 
 29 H       -4.0500     1.2810    -1.2950 H     1 <1>   0.0800 
 30 H       -2.2970    -1.6890    -1.3600 H     1 <1>   0.0800 
 31 H       -1.9870    -1.8390     0.3600 H     1 <1>   0.0800 
 32 H        0.2230     2.6470     1.1630 H     1 <1>   0.0800 
 33 H        0.4280     2.7510    -0.5670 H     1 <1>   0.0800 
 34 H       -5.1070    -0.7040    -1.7310 H     1 <1>   0.0800 
 35 H       -4.2390    -1.9010     0.8990 H     1 <1>   0.0800 
 36 H       -1.0040     4.8090     1.1450 H     1 <1>   0.0800 
 37 H       -0.8140     4.9090    -0.5770 H     1 <1>   0.0800 
 38 H       -5.9330    -0.4850     0.9680 H     1 <1>   0.4000 
 39 H       -4.3320    -3.0360    -1.9150 H     1 <1>   0.0800 
 40 H       -5.5320    -3.3140    -0.6930 H     1 <1>   0.0800 
 41 H        2.9740     5.1890     0.7760 H     1 <1>   0.3700 
 42 H        2.2030     3.6370     0.6360 H     1 <1>   0.3700 
 43 H       -5.0950    -4.7450     1.2070 H     1 <1>   0.1500 
 44 H       -3.7640    -6.6420     2.1000 H     1 <1>   0.1500 
 45 H       -0.2780    -5.2490    -1.8980 H     1 <1>   0.1500 
 46 H       -1.6800    -8.0120     1.9160 H     1 <1>   0.1500 
 47 H        1.1650    -7.1020    -1.1170 H     1 <1>   0.1500 
 48 H        0.4600    -8.4760     0.7840 H     1 <1>   0.1500 
@<TRIPOS>BOND
  1   1   2  2   
  2   2   3  am  
  3   2   4  1   
  4   3   5  1   
  5   3   6  1   
  6   4   7  1   
  7   4  26  1   
  8   4  27  1   
  9   5   8  1   
 10   5  28  1   
 11   5  29  1   
 12   6   9  1   
 13   6  30  1   
 14   6  31  1   
 15   7  10  1   
 16   7  32  1   
 17   7  33  1   
 18   8   9  1   
 19   8  11  1   
 20   8  34  1   
 21   9  12  1   
 22   9  35  1   
 23  10  13  1   
 24  10  36  1   
 25  10  37  1   
 26  11  38  1   
 27  12  14  1   
 28  12  39  1   
 29  12  40  1   
 30  13  15  2   
 31  13  16  am  
 32  14  17  ar  
 33  14  18  ar  
 34  16  41  1   
 35  16  42  1   
 36  17  19  ar  
 37  18  20  ar  
 38  18  43  1   
 39  19  21  ar  
 40  19  22  ar  
 41  20  21  ar  
 42  20  44  1   
 43  21  23  ar  
 44  22  24  ar  
 45  22  45  1   
 46  23  25  ar  
 47  23  46  1   
 48  24  25  ar  
 49  24  47  1   
 50  25  48  1   
@<TRIPOS>SUBSTRUCTURE
  1 ****   6 GROUP 4 **** **** 0

# MOE 2024.06 (io_trps.svl 2023.06)
