@<TRIPOS>MOLECULE
NONAME
45 48 1 0 0 
SMALL
USER_CHARGES


@<TRIPOS>ATOM
  1 S        0.6540    -0.4670     0.8120 S.3   1 <1>  -0.0800 
  2 C        0.0760    -2.1210     1.0130 C.ar  1 <1>   0.2970 
  3 C       -0.5030    -0.1680    -0.4880 C.2   1 <1>  -0.1100 
  4 N        0.5780    -2.9630     1.8900 N.ar  1 <1>  -0.5670 
  5 C       -0.9440    -2.3810     0.1330 C.ar  1 <1>   0.0000 
  6 C       -1.2520    -1.2610    -0.7180 C.2   1 <1>  -0.1500 
  7 C       -0.0080    -4.1430     1.8500 C.ar  1 <1>   0.4700 
  8 C       -1.4820    -3.6650     0.2160 C.ar  1 <1>   0.4100 
  9 N       -1.0050    -4.5570     1.0710 N.ar  1 <1>  -0.6200 
 10 N       -2.5430    -4.0640    -0.5700 N.pl3 1 <1>  -0.8380 
 11 C       -2.6100    -5.4730    -1.0390 C.3   1 <1>   0.2090 
 12 C       -3.8660    -3.4160    -0.3610 C.3   1 <1>   0.2090 
 13 C       -3.4220    -6.3280    -0.0350 C.3   1 <1>   0.4230 
 14 C       -4.6660    -4.2480     0.6470 C.3   1 <1>  -0.1600 
 15 N       -3.4210    -7.8240    -0.3410 N.4   1 <1>  -0.9590 
 16 C       -4.8400    -5.7370     0.2290 C.3   1 <1>   0.0000 
 17 C       -4.5080    -8.5910     0.3490 C.3   1 <1>   0.3430 
 18 C       -3.3860    -8.1840    -1.7960 C.3   1 <1>   0.2630 
 19 C       -5.5100    -6.5060     1.4070 C.3   1 <1>  -0.1600 
 20 C       -5.7120    -5.8400    -1.0550 C.3   1 <1>   0.1200 
 21 C       -4.9190    -7.9070     1.6510 C.3   1 <1>  -0.1600 
 22 O       -6.8970    -5.1350    -0.9290 O.3   1 <1>  -0.6800 
 23 H       -0.4870     0.8070    -0.9430 H     1 <1>   0.1500 
 24 H       -2.0220    -1.3460    -1.4640 H     1 <1>   0.1500 
 25 H        0.3740    -4.8710     2.5480 H     1 <1>   0.1500 
 26 H       -3.0540    -5.4840    -2.0170 H     1 <1>   0.0800 
 27 H       -1.6090    -5.8610    -1.1170 H     1 <1>   0.0800 
 28 H       -3.7340    -2.4190     0.0260 H     1 <1>   0.0800 
 29 H       -4.3900    -3.3400    -1.2990 H     1 <1>   0.0800 
 30 H       -2.8990    -6.2140     0.9000 H     1 <1>   0.0800 
 31 H       -4.1460    -4.1920     1.5880 H     1 <1>   0.0800 
 32 H       -5.6230    -3.7800     0.7970 H     1 <1>   0.0800 
 33 H       -2.5370    -8.1590     0.0700 H     1 <1>   0.4500 
 34 H       -5.3740    -8.6530    -0.2900 H     1 <1>   0.0800 
 35 H       -4.1740    -9.5960     0.5540 H     1 <1>   0.0800 
 36 H       -4.2670    -7.8190    -2.2980 H     1 <1>   0.0800 
 37 H       -3.3440    -9.2550    -1.9140 H     1 <1>   0.0800 
 38 H       -2.5170    -7.7590    -2.2710 H     1 <1>   0.0800 
 39 H       -5.4100    -5.9520     2.3260 H     1 <1>   0.0800 
 40 H       -6.5680    -6.6000     1.2320 H     1 <1>   0.0800 
 41 H       -5.9680    -6.8600    -1.2780 H     1 <1>   0.0800 
 42 H       -5.2050    -5.4250    -1.9080 H     1 <1>   0.0800 
 43 H       -5.6510    -8.5150     2.1560 H     1 <1>   0.0800 
 44 H       -4.0630    -7.8410     2.3010 H     1 <1>   0.0800 
 45 H       -7.4590    -5.4790    -0.2070 H     1 <1>   0.4000 
@<TRIPOS>BOND
  1   1   2  1   
  2   1   3  1   
  3   2   4  ar  
  4   2   5  ar  
  5   3   6  2   
  6   3  23  1   
  7   4   7  ar  
  8   5   6  1   
  9   5   8  ar  
 10   6  24  1   
 11   7   9  ar  
 12   7  25  1   
 13   8   9  ar  
 14   8  10  1   
 15  10  11  1   
 16  10  12  1   
 17  11  13  1   
 18  11  26  1   
 19  11  27  1   
 20  12  14  1   
 21  12  28  1   
 22  12  29  1   
 23  13  15  1   
 24  13  16  1   
 25  13  30  1   
 26  14  16  1   
 27  14  31  1   
 28  14  32  1   
 29  15  17  1   
 30  15  18  1   
 31  15  33  1   
 32  16  19  1   
 33  16  20  1   
 34  17  21  1   
 35  17  34  1   
 36  17  35  1   
 37  18  36  1   
 38  18  37  1   
 39  18  38  1   
 40  19  21  1   
 41  19  39  1   
 42  19  40  1   
 43  20  22  1   
 44  20  41  1   
 45  20  42  1   
 46  21  43  1   
 47  21  44  1   
 48  22  45  1   
@<TRIPOS>SUBSTRUCTURE
  1 ****  10 GROUP 4 **** **** 0

# MOE 2024.06 (io_trps.svl 2023.06)
