@<TRIPOS>MOLECULE
NONAME
36 38 1 0 0 
SMALL
USER_CHARGES


@<TRIPOS>ATOM
  1 O       -0.0600    -0.7420    -1.2680 O.2   1 <1>  -0.5700 
  2 C        0.0390    -1.6940    -0.5170 C.2   1 <1>   0.7160 
  3 N        0.5290    -1.4060     0.7180 N.am  1 <1>  -0.8000 
  4 C       -0.3360    -3.0620    -0.8960 C.2   1 <1>   0.4300 
  5 N       -0.7490    -3.4550    -2.0540 N.2   1 <1>  -0.4100 
  6 N       -0.2790    -4.0950    -0.0300 N.2   1 <1>  -0.5650 
  7 O       -0.9600    -4.7300    -2.0000 O.3   1 <1>  -0.0190 
  8 C       -0.6620    -5.0540    -0.7710 C.2   1 <1>   0.2980 
  9 C       -0.8050    -6.5140    -0.3490 C.3   1 <1>   0.2900 
 10 N       -2.2010    -7.0210    -0.4580 N.3   1 <1>  -0.8100 
 11 C       -2.3100    -8.4580    -0.1280 C.3   1 <1>   0.1100 
 12 C       -3.1610    -6.2130     0.3390 C.3   1 <1>   0.1100 
 13 C       -3.7150    -9.0030    -0.4990 C.3   1 <1>   0.4230 
 14 C       -4.5340    -6.9030     0.5420 C.3   1 <1>   0.3430 
 15 N       -4.7920    -7.9640    -0.4880 N.4   1 <1>  -0.9590 
 16 C       -4.2440   -10.0850     0.4310 C.3   1 <1>  -0.1600 
 17 C       -6.0940    -8.6560    -0.2870 C.3   1 <1>   0.3430 
 18 C       -5.7540   -10.0670     0.1920 C.3   1 <1>  -0.1600 
 19 H        0.8020    -0.4490     0.9410 H     1 <1>   0.3700 
 20 H        0.6790    -2.1280     1.4230 H     1 <1>   0.3700 
 21 H       -0.4590    -6.6160     0.6650 H     1 <1>   0.0800 
 22 H       -0.1640    -7.1050    -0.9810 H     1 <1>   0.0800 
 23 H       -2.1190    -8.6020     0.9230 H     1 <1>   0.0800 
 24 H       -1.5700    -9.0190    -0.6730 H     1 <1>   0.0800 
 25 H       -3.3200    -5.2720    -0.1630 H     1 <1>   0.0800 
 26 H       -2.7450    -5.9900     1.3080 H     1 <1>   0.0800 
 27 H       -3.6610    -9.4180    -1.4920 H     1 <1>   0.0800 
 28 H       -5.3120    -6.1570     0.5150 H     1 <1>   0.0800 
 29 H       -4.5480    -7.3510     1.5210 H     1 <1>   0.0800 
 30 H       -4.7430    -7.4950    -1.4030 H     1 <1>   0.4500 
 31 H       -4.0310    -9.8310     1.4550 H     1 <1>   0.0800 
 32 H       -3.8090   -11.0450     0.2120 H     1 <1>   0.0800 
 33 H       -6.6430    -8.7050    -1.2140 H     1 <1>   0.0800 
 34 H       -6.6910    -8.1390     0.4470 H     1 <1>   0.0800 
 35 H       -6.3030   -10.3210     1.0820 H     1 <1>   0.0800 
 36 H       -6.0170   -10.7690    -0.5800 H     1 <1>   0.0800 
@<TRIPOS>BOND
  1   1   2  2   
  2   2   3  am  
  3   2   4  1   
  4   3  19  1   
  5   3  20  1   
  6   4   5  2   
  7   4   6  1   
  8   5   7  1   
  9   6   8  2   
 10   7   8  1   
 11   8   9  1   
 12   9  10  1   
 13   9  21  1   
 14   9  22  1   
 15  10  11  1   
 16  10  12  1   
 17  11  13  1   
 18  11  23  1   
 19  11  24  1   
 20  12  14  1   
 21  12  25  1   
 22  12  26  1   
 23  13  15  1   
 24  13  16  1   
 25  13  27  1   
 26  14  15  1   
 27  14  28  1   
 28  14  29  1   
 29  15  17  1   
 30  15  30  1   
 31  16  18  1   
 32  16  31  1   
 33  16  32  1   
 34  17  18  1   
 35  17  33  1   
 36  17  34  1   
 37  18  35  1   
 38  18  36  1   
@<TRIPOS>SUBSTRUCTURE
  1 ****  10 GROUP 4 **** **** 0

# MOE 2024.06 (io_trps.svl 2023.06)
