@<TRIPOS>MOLECULE
NONAME
50 52 1 0 0 
SMALL
USER_CHARGES


@<TRIPOS>ATOM
  1 O        2.6060    -0.9050    -1.9940 O.2   1 <1>  -0.5700 
  2 C        1.6650    -1.5800    -1.6100 C.2   1 <1>   0.5440 
  3 N        0.7240    -0.9500    -0.8130 N.am  1 <1>  -0.6600 
  4 C        1.6210    -2.9970    -1.9830 C.ar  1 <1>   0.3960 
  5 C        0.8350     0.4740    -0.4200 C.3   1 <1>   0.1400 
  6 C       -0.4160    -1.5940    -0.1150 C.3   1 <1>   0.1400 
  7 N        0.4560    -3.6570    -2.0950 N.ar  1 <1>  -0.6200 
  8 C        2.8390    -3.6470    -2.2170 C.ar  1 <1>   0.1600 
  9 C       -0.0570     0.6100     0.8080 C.3   1 <1>  -0.1600 
 10 C       -1.1220    -0.4660     0.6280 C.3   1 <1>  -0.1600 
 11 C        0.5830    -4.9200    -2.4340 C.ar  1 <1>   0.4100 
 12 N        2.9850    -4.9230    -2.5550 N.ar  1 <1>  -0.6200 
 13 N       -0.6100    -5.5780    -2.5350 N.pl3 1 <1>  -0.8690 
 14 C        1.8220    -5.5280    -2.6750 C.ar  1 <1>   0.1600 
 15 C       -1.1440    -6.4110    -1.4300 C.3   1 <1>   0.4690 
 16 C       -1.5750    -5.5310    -0.2530 C.2   1 <1>   0.0060 
 17 C       -0.2090    -7.5880    -1.0960 C.3   1 <1>  -0.1600 
 18 N       -2.7940    -5.1430    -0.0980 N.2   1 <1>  -0.5650 
 19 N       -0.7940    -5.0580     0.7360 N.pl3 1 <1>   0.3140 
 20 C       -0.7320    -8.5220     0.0160 C.3   1 <1>  -0.0800 
 21 C       -2.7140    -4.4220     1.0240 C.2   1 <1>   0.3660 
 22 N       -1.5450    -4.3410     1.5600 N.2   1 <1>  -0.7070 
 23 C        0.6410    -5.2280     1.0270 C.3   1 <1>   0.0160 
 24 C        0.3160    -9.6000     0.3160 C.3   1 <1>  -0.2400 
 25 C       -2.0580    -9.1910    -0.3660 C.3   1 <1>  -0.2400 
 26 H        0.4680     1.0860    -1.2260 H     1 <1>   0.0800 
 27 H        1.8550     0.7400    -0.2000 H     1 <1>   0.0800 
 28 H       -0.0380    -2.3180     0.5840 H     1 <1>   0.0800 
 29 H       -1.0860    -2.0710    -0.8100 H     1 <1>   0.0800 
 30 H        3.7440    -3.0730    -2.1170 H     1 <1>   0.1500 
 31 H       -0.4770     1.5970     0.8890 H     1 <1>   0.0800 
 32 H        0.5270     0.4030     1.6880 H     1 <1>   0.0800 
 33 H       -1.5300    -0.8050     1.5630 H     1 <1>   0.0800 
 34 H       -1.9210    -0.0920     0.0120 H     1 <1>   0.0800 
 35 H       -1.3360    -4.8810    -2.7320 H     1 <1>   0.4000 
 36 H        1.8220    -6.5590    -2.9780 H     1 <1>   0.1500 
 37 H       -2.0510    -6.8470    -1.8130 H     1 <1>   0.0800 
 38 H        0.7520    -7.2160    -0.8010 H     1 <1>   0.0800 
 39 H       -0.0720    -8.1650    -1.9930 H     1 <1>   0.0800 
 40 H       -0.8900    -7.9570     0.9200 H     1 <1>   0.0800 
 41 H       -3.5900    -3.9470     1.4370 H     1 <1>   0.1500 
 42 H        1.2170    -5.1020     0.1340 H     1 <1>   0.0800 
 43 H        0.8050    -6.2050     1.4390 H     1 <1>   0.0800 
 44 H        0.9420    -4.4880     1.7460 H     1 <1>   0.0800 
 45 H        0.4960   -10.2100    -0.5530 H     1 <1>   0.0800 
 46 H       -0.0230   -10.2380     1.1140 H     1 <1>   0.0800 
 47 H        1.2450    -9.1520     0.6190 H     1 <1>   0.0800 
 48 H       -1.9660    -9.7230    -1.2970 H     1 <1>   0.0800 
 49 H       -2.8460    -8.4640    -0.4570 H     1 <1>   0.0800 
 50 H       -2.3530    -9.8920     0.3960 H     1 <1>   0.0800 
@<TRIPOS>BOND
  1   1   2  2   
  2   2   3  am  
  3   2   4  1   
  4   3   5  1   
  5   3   6  1   
  6   4   7  ar  
  7   4   8  ar  
  8   5   9  1   
  9   5  26  1   
 10   5  27  1   
 11   6  10  1   
 12   6  28  1   
 13   6  29  1   
 14   7  11  ar  
 15   8  12  ar  
 16   8  30  1   
 17   9  10  1   
 18   9  31  1   
 19   9  32  1   
 20  10  33  1   
 21  10  34  1   
 22  11  13  1   
 23  11  14  ar  
 24  12  14  ar  
 25  13  15  1   
 26  13  35  1   
 27  14  36  1   
 28  15  16  1   
 29  15  17  1   
 30  15  37  1   
 31  16  18  2   
 32  16  19  1   
 33  17  20  1   
 34  17  38  1   
 35  17  39  1   
 36  18  21  1   
 37  19  22  1   
 38  19  23  1   
 39  20  24  1   
 40  20  25  1   
 41  20  40  1   
 42  21  22  2   
 43  21  41  1   
 44  23  42  1   
 45  23  43  1   
 46  23  44  1   
 47  24  45  1   
 48  24  46  1   
 49  24  47  1   
 50  25  48  1   
 51  25  49  1   
 52  25  50  1   
@<TRIPOS>SUBSTRUCTURE
  1 ****   7 GROUP 4 **** **** 0

# MOE 2024.06 (io_trps.svl 2023.06)
