@<TRIPOS>MOLECULE
NONAME
59 61 1 0 0 
SMALL
USER_CHARGES


@<TRIPOS>ATOM
  1 O       -0.6230    -0.4180    -0.2410 O.3   1 <1>  -0.3630 
  2 C       -0.3010     0.8640    -0.5610 C.ar  1 <1>   0.0830 
  3 C       -1.9040    -0.7690     0.2140 C.3   1 <1>   0.1200 
  4 C        0.9870     1.1050    -1.0300 C.ar  1 <1>  -0.1440 
  5 C       -1.1980     1.9240    -0.4380 C.ar  1 <1>  -0.1500 
  6 C       -1.8980    -2.2780     0.4530 C.3   1 <1>  -0.1600 
  7 C        1.3610     2.3950    -1.3680 C.ar  1 <1>  -0.1500 
  8 C        1.9880    -0.0330    -1.1760 C.3   1 <1>  -0.0970 
  9 C       -0.8180     3.2120    -0.7790 C.ar  1 <1>  -0.1430 
 10 C       -3.2540    -2.7520     0.9710 C.3   1 <1>   0.3430 
 11 C        0.4650     3.4420    -1.2430 C.ar  1 <1>  -0.1500 
 12 C       -1.7950     4.3660    -0.6430 C.3   1 <1>  -0.0970 
 13 N       -3.2760    -4.2360     1.0830 N.4   1 <1>  -0.9590 
 14 C       -4.6590    -4.7870     1.2170 C.3   1 <1>   0.5230 
 15 C       -2.3700    -4.7770     2.1480 C.3   1 <1>   0.2630 
 16 C       -4.6830    -6.2250     0.7090 C.2   1 <1>   0.0060 
 17 N       -3.7460    -6.7260    -0.0230 N.2   1 <1>  -0.3380 
 18 N       -5.6540    -7.1210     0.9430 N.pl3 1 <1>   0.0480 
 19 N       -4.0800    -7.9810    -0.2830 N.2   1 <1>  -0.3380 
 20 C       -5.2120    -8.2070     0.2910 C.2   1 <1>   0.0250 
 21 C       -6.9110    -6.9770     1.7160 C.3   1 <1>   0.0160 
 22 C       -5.9450    -9.5490     0.2210 C.3   1 <1>   0.1610 
 23 C       -5.0240   -10.7870     0.4290 C.3   1 <1>   0.0000 
 24 C       -6.1690   -10.0630    -1.2310 C.3   1 <1>   0.0000 
 25 C       -4.7990   -10.7810    -1.1060 C.3   1 <1>   0.4720 
 26 N       -4.7690   -12.1260    -1.7120 N.4   1 <1>  -0.8220 
 27 H       -2.6160    -0.4940    -0.5460 H     1 <1>   0.0800 
 28 H       -2.0940    -0.2270     1.1250 H     1 <1>   0.0800 
 29 H       -2.1950     1.7690    -0.0780 H     1 <1>   0.1500 
 30 H       -1.1270    -2.4990     1.1690 H     1 <1>   0.0800 
 31 H       -1.6740    -2.7670    -0.4790 H     1 <1>   0.0800 
 32 H        2.3540     2.5950    -1.7310 H     1 <1>   0.1500 
 33 H        1.6030    -0.7720    -1.8550 H     1 <1>   0.0800 
 34 H        2.1570    -0.4930    -0.2200 H     1 <1>   0.0800 
 35 H        2.9290     0.3240    -1.5560 H     1 <1>   0.0800 
 36 H       -4.0170    -2.4310     0.2790 H     1 <1>   0.0800 
 37 H       -3.4570    -2.3030     1.9310 H     1 <1>   0.0800 
 38 H        0.7750     4.4370    -1.5090 H     1 <1>   0.1500 
 39 H       -2.8060     4.0230    -0.7700 H     1 <1>   0.0800 
 40 H       -1.5970     5.1150    -1.3880 H     1 <1>   0.0800 
 41 H       -1.6980     4.8110     0.3310 H     1 <1>   0.0800 
 42 H       -2.9430    -4.6430     0.1890 H     1 <1>   0.4500 
 43 H       -5.3430    -4.2050     0.6220 H     1 <1>   0.0800 
 44 H       -4.9750    -4.7490     2.2460 H     1 <1>   0.0800 
 45 H       -2.6660    -4.4130     3.1190 H     1 <1>   0.0800 
 46 H       -1.3510    -4.4790     1.9630 H     1 <1>   0.0800 
 47 H       -2.4070    -5.8560     2.1540 H     1 <1>   0.0800 
 48 H       -7.0310    -5.9660     2.0610 H     1 <1>   0.0800 
 49 H       -6.8870    -7.6380     2.5650 H     1 <1>   0.0800 
 50 H       -7.7480    -7.2330     1.0910 H     1 <1>   0.0800 
 51 H       -6.8370    -9.5950     0.8200 H     1 <1>   0.0000 
 52 H       -5.5710   -11.6470     0.7760 H     1 <1>   0.0000 
 53 H       -4.1380   -10.5790     1.0020 H     1 <1>   0.0000 
 54 H       -6.1870    -9.2810    -1.9690 H     1 <1>   0.0000 
 55 H       -7.0020   -10.7430    -1.2980 H     1 <1>   0.0000 
 56 H       -3.9700   -10.1700    -1.4130 H     1 <1>   0.0000 
 57 H       -5.5680   -12.6890    -1.4060 H     1 <1>   0.4500 
 58 H       -3.9030   -12.6060    -1.4470 H     1 <1>   0.4500 
 59 H       -4.7900   -12.0460    -2.7340 H     1 <1>   0.4500 
@<TRIPOS>BOND
  1   1   2  1   
  2   1   3  1   
  3   2   4  ar  
  4   2   5  ar  
  5   3   6  1   
  6   3  27  1   
  7   3  28  1   
  8   4   7  ar  
  9   4   8  1   
 10   5   9  ar  
 11   5  29  1   
 12   6  10  1   
 13   6  30  1   
 14   6  31  1   
 15   7  11  ar  
 16   7  32  1   
 17   8  33  1   
 18   8  34  1   
 19   8  35  1   
 20   9  11  ar  
 21   9  12  1   
 22  10  13  1   
 23  10  36  1   
 24  10  37  1   
 25  11  38  1   
 26  12  39  1   
 27  12  40  1   
 28  12  41  1   
 29  13  14  1   
 30  13  15  1   
 31  13  42  1   
 32  14  16  1   
 33  14  43  1   
 34  14  44  1   
 35  15  45  1   
 36  15  46  1   
 37  15  47  1   
 38  16  17  2   
 39  16  18  1   
 40  17  19  1   
 41  18  20  1   
 42  18  21  1   
 43  19  20  2   
 44  20  22  1   
 45  21  48  1   
 46  21  49  1   
 47  21  50  1   
 48  22  23  1   
 49  22  24  1   
 50  22  51  1   
 51  23  25  1   
 52  23  52  1   
 53  23  53  1   
 54  24  25  1   
 55  24  54  1   
 56  24  55  1   
 57  25  26  1   
 58  25  56  1   
 59  26  57  1   
 60  26  58  1   
 61  26  59  1   
@<TRIPOS>SUBSTRUCTURE
  1 ****  13 GROUP 4 **** **** 0

# MOE 2024.06 (io_trps.svl 2023.06)
