@<TRIPOS>MOLECULE
NONAME
37 39 1 0 0 
SMALL
USER_CHARGES


@<TRIPOS>ATOM
  1 O       -1.4420    -0.5190    -2.7590 O.2   1 <1>  -0.5700 
  2 C       -1.7820    -0.8390    -1.6540 C.2   1 <1>   0.5690 
  3 N       -1.8980     0.0840    -0.6840 N.am  1 <1>  -0.7300 
  4 C       -2.1190    -2.2760    -1.3650 C.3   1 <1>  -0.0190 
  5 C       -2.3160    -0.1760     0.7130 C.3   1 <1>   0.2200 
  6 C       -1.1920    -2.8730    -0.2820 C.3   1 <1>   0.1200 
  7 C       -3.6300    -2.3810    -1.1160 C.3   1 <1>   0.3430 
  8 C       -1.3330    -1.1620     1.3940 C.3   1 <1>   0.1200 
  9 C       -3.7990    -0.6420     0.7590 C.3   1 <1>   0.3430 
 10 O       -1.5510    -2.5010     1.0230 O.3   1 <1>  -0.5600 
 11 N       -4.0430    -2.0550     0.2930 N.4   1 <1>  -0.9590 
 12 C       -5.4100    -2.5400     0.6150 C.3   1 <1>   0.4860 
 13 C       -5.4490    -4.0420     0.4120 C.ar  1 <1>  -0.1440 
 14 C       -4.7090    -4.8820     1.2340 C.ar  1 <1>  -0.1500 
 15 C       -6.2140    -4.5860    -0.6100 C.ar  1 <1>  -0.1500 
 16 C       -4.7270    -6.2500     1.0270 C.ar  1 <1>  -0.1500 
 17 C       -6.2310    -5.9540    -0.8140 C.ar  1 <1>  -0.1500 
 18 C       -5.4860    -6.7860     0.0030 C.ar  1 <1>  -0.1500 
 19 H       -1.6020     1.0350    -0.9330 H     1 <1>   0.3700 
 20 H       -1.9160    -2.8120    -2.2750 H     1 <1>   0.0800 
 21 H       -2.2490     0.7620     1.2370 H     1 <1>   0.0800 
 22 H       -0.1660    -2.5880    -0.4550 H     1 <1>   0.0800 
 23 H       -1.2460    -3.9480    -0.3230 H     1 <1>   0.0800 
 24 H       -3.9180    -3.3960    -1.3350 H     1 <1>   0.0800 
 25 H       -4.1510    -1.7410    -1.8100 H     1 <1>   0.0800 
 26 H       -1.4680    -1.1150     2.4600 H     1 <1>   0.0800 
 27 H       -0.3100    -0.8990     1.1790 H     1 <1>   0.0800 
 28 H       -4.3920     0.0420     0.1750 H     1 <1>   0.0800 
 29 H       -4.1290    -0.5620     1.7820 H     1 <1>   0.0800 
 30 H       -3.3860    -2.6290     0.8590 H     1 <1>   0.4500 
 31 H       -5.6540    -2.3170     1.6410 H     1 <1>   0.0800 
 32 H       -6.1360    -2.0620    -0.0230 H     1 <1>   0.0800 
 33 H       -4.1130    -4.4910     2.0410 H     1 <1>   0.1500 
 34 H       -6.8060    -3.9600    -1.2560 H     1 <1>   0.1500 
 35 H       -4.1530    -6.9020     1.6650 H     1 <1>   0.1500 
 36 H       -6.8250    -6.3780    -1.6060 H     1 <1>   0.1500 
 37 H       -5.5000    -7.8510    -0.1560 H     1 <1>   0.1500 
@<TRIPOS>BOND
  1   1   2  2   
  2   2   3  am  
  3   2   4  1   
  4   3   5  1   
  5   3  19  1   
  6   4   6  1   
  7   4   7  1   
  8   4  20  1   
  9   5   8  1   
 10   5   9  1   
 11   5  21  1   
 12   6  10  1   
 13   6  22  1   
 14   6  23  1   
 15   7  11  1   
 16   7  24  1   
 17   7  25  1   
 18   8  10  1   
 19   8  26  1   
 20   8  27  1   
 21   9  11  1   
 22   9  28  1   
 23   9  29  1   
 24  11  12  1   
 25  11  30  1   
 26  12  13  1   
 27  12  31  1   
 28  12  32  1   
 29  13  14  ar  
 30  13  15  ar  
 31  14  16  ar  
 32  14  33  1   
 33  15  17  ar  
 34  15  34  1   
 35  16  18  ar  
 36  16  35  1   
 37  17  18  ar  
 38  17  36  1   
 39  18  37  1   
@<TRIPOS>SUBSTRUCTURE
  1 ****  11 GROUP 4 **** **** 0

# MOE 2024.06 (io_trps.svl 2023.06)
