@<TRIPOS>MOLECULE
NONAME
53 56 1 0 0 
SMALL
USER_CHARGES


@<TRIPOS>ATOM
  1 O        0.8460     0.0750    -1.5930 O.2   1 <1>  -0.5700 
  2 C        1.2380    -0.7210    -0.7610 C.2   1 <1>   0.5440 
  3 N        0.3310    -1.5890    -0.1820 N.am  1 <1>  -0.6600 
  4 C        2.6460    -0.7380    -0.4120 C.ar  1 <1>   0.0860 
  5 C       -1.1370    -1.4470    -0.4050 C.3   1 <1>   0.1400 
  6 C        0.7330    -2.8240     0.5510 C.3   1 <1>   0.1400 
  7 C        3.0740    -0.5520     0.9020 C.ar  1 <1>  -0.1500 
  8 C        3.6220    -0.9390    -1.3840 C.ar  1 <1>  -0.1500 
  9 C       -1.6640    -2.6700    -1.1560 C.3   1 <1>  -0.1600 
 10 C        0.2090    -4.0520    -0.1940 C.3   1 <1>  -0.1600 
 11 C        4.4160    -0.5850     1.2330 C.ar  1 <1>  -0.1500 
 12 C        4.9660    -0.9730    -1.0590 C.ar  1 <1>  -0.1500 
 13 C       -1.3010    -3.9530    -0.4140 C.3   1 <1>   0.2890 
 14 C        5.3710    -0.8000     0.2540 C.ar  1 <1>  -0.1440 
 15 N       -1.7420    -5.1030    -1.2110 N.pl3 1 <1>  -0.8690 
 16 C        6.8460    -0.8350     0.6120 C.3   1 <1>  -0.0970 
 17 C       -2.0180    -6.2820    -0.5950 C.ar  1 <1>   0.4100 
 18 N       -1.2300    -7.2610    -0.9130 N.ar  1 <1>  -0.6200 
 19 C       -3.0820    -6.3950     0.3160 C.ar  1 <1>  -0.1500 
 20 C       -1.4360    -8.4670    -0.3140 C.ar  1 <1>   0.3100 
 21 C       -3.3200    -7.5810     0.9300 C.ar  1 <1>  -0.1500 
 22 C       -0.5900    -9.5700    -0.6150 C.ar  1 <1>   0.0820 
 23 C       -2.4810    -8.6680     0.6210 C.ar  1 <1>   0.0000 
 24 O        0.4190    -9.3660    -1.5110 O.3   1 <1>  -0.3620 
 25 C       -0.7920   -10.7950    -0.0140 C.ar  1 <1>  -0.1500 
 26 C       -2.6560    -9.9310     1.2130 C.ar  1 <1>  -0.1500 
 27 C        1.2780   -10.3990    -1.9360 C.3   1 <1>   0.0400 
 28 C       -1.8290   -10.9750     0.9030 C.ar  1 <1>  -0.1500 
 29 H       -1.3550    -0.5560    -0.9700 H     1 <1>   0.0800 
 30 H       -1.6280    -1.3600     0.5480 H     1 <1>   0.0800 
 31 H        0.3210    -2.7920     1.5450 H     1 <1>   0.0800 
 32 H        1.8020    -2.8980     0.6330 H     1 <1>   0.0800 
 33 H        2.3390    -0.3770     1.6680 H     1 <1>   0.1500 
 34 H        3.3130    -1.0670    -2.4070 H     1 <1>   0.1500 
 35 H       -1.2360    -2.6800    -2.1430 H     1 <1>   0.0800 
 36 H       -2.7320    -2.5990    -1.2490 H     1 <1>   0.0800 
 37 H        0.4310    -4.9350     0.3780 H     1 <1>   0.0800 
 38 H        0.7140    -4.1250    -1.1400 H     1 <1>   0.0800 
 39 H        4.7170    -0.4390     2.2560 H     1 <1>   0.1500 
 40 H        5.6950    -1.1320    -1.8340 H     1 <1>   0.1500 
 41 H       -1.8000    -3.9620     0.5420 H     1 <1>   0.0800 
 42 H       -1.0920    -5.2780    -1.9800 H     1 <1>   0.4000 
 43 H        6.9820    -1.1870     1.6190 H     1 <1>   0.0800 
 44 H        7.2630     0.1530     0.5300 H     1 <1>   0.0800 
 45 H        7.3790    -1.4920    -0.0520 H     1 <1>   0.0800 
 46 H       -3.6880    -5.5280     0.4940 H     1 <1>   0.1500 
 47 H       -4.1250    -7.7090     1.6310 H     1 <1>   0.1500 
 48 H       -0.1680   -11.6420    -0.2250 H     1 <1>   0.1500 
 49 H       -3.4560   -10.0650     1.9190 H     1 <1>   0.1500 
 50 H        1.9600    -9.9860    -2.6580 H     1 <1>   0.0800 
 51 H        0.6910   -11.1760    -2.3920 H     1 <1>   0.0800 
 52 H        1.8240   -10.7700    -1.0880 H     1 <1>   0.0800 
 53 H       -1.9670   -11.9410     1.3580 H     1 <1>   0.1500 
@<TRIPOS>BOND
  1   1   2  2   
  2   2   3  am  
  3   2   4  1   
  4   3   5  1   
  5   3   6  1   
  6   4   7  ar  
  7   4   8  ar  
  8   5   9  1   
  9   5  29  1   
 10   5  30  1   
 11   6  10  1   
 12   6  31  1   
 13   6  32  1   
 14   7  11  ar  
 15   7  33  1   
 16   8  12  ar  
 17   8  34  1   
 18   9  13  1   
 19   9  35  1   
 20   9  36  1   
 21  10  13  1   
 22  10  37  1   
 23  10  38  1   
 24  11  14  ar  
 25  11  39  1   
 26  12  14  ar  
 27  12  40  1   
 28  13  15  1   
 29  13  41  1   
 30  14  16  1   
 31  15  17  1   
 32  15  42  1   
 33  16  43  1   
 34  16  44  1   
 35  16  45  1   
 36  17  18  ar  
 37  17  19  ar  
 38  18  20  ar  
 39  19  21  ar  
 40  19  46  1   
 41  20  22  ar  
 42  20  23  ar  
 43  21  23  ar  
 44  21  47  1   
 45  22  24  1   
 46  22  25  ar  
 47  23  26  ar  
 48  24  27  1   
 49  25  28  ar  
 50  25  48  1   
 51  26  28  ar  
 52  26  49  1   
 53  27  50  1   
 54  27  51  1   
 55  27  52  1   
 56  28  53  1   
@<TRIPOS>SUBSTRUCTURE
  1 ****  10 GROUP 4 **** **** 0

# MOE 2024.06 (io_trps.svl 2023.06)
