@<TRIPOS>MOLECULE
NONAME
43 47 1 0 0 
SMALL
USER_CHARGES


@<TRIPOS>ATOM
  1 S        0.1370    -0.7490     0.1650 S.3   1 <1>  -0.4600 
  2 C       -1.3010     0.3680     0.2180 C.3   1 <1>   0.2510 
  3 C       -0.7430    -2.3370     0.0950 C.3   1 <1>   0.2510 
  4 C       -2.4740    -0.5840     0.2100 C.2   1 <1>   0.1080 
  5 C       -2.1970    -1.9330     0.1510 C.2   1 <1>  -0.1810 
  6 N       -3.7410    -0.3260     0.2530 N.2   1 <1>  -0.7070 
  7 C       -3.4010    -2.5520     0.1530 C.2   1 <1>  -0.0880 
  8 N       -4.3310    -1.5480     0.2110 N.pl3 1 <1>   0.3140 
  9 N       -3.6210    -3.9510     0.1260 N.am  1 <1>  -0.4940 
 10 C       -5.7920    -1.6490     0.3240 C.3   1 <1>   0.0160 
 11 C       -4.5890    -4.7070    -0.4960 C.2   1 <1>   0.5440 
 12 O       -5.4980    -4.1610    -1.0900 O.2   1 <1>  -0.5700 
 13 C       -4.5260    -6.1540    -0.4310 C.ar  1 <1>   0.0860 
 14 C       -3.3150    -6.8480    -0.3880 C.ar  1 <1>  -0.1500 
 15 C       -5.6890    -6.9230    -0.4100 C.ar  1 <1>  -0.1500 
 16 C       -3.2750    -8.2270    -0.3080 C.ar  1 <1>  -0.1500 
 17 C       -5.6480    -8.3020    -0.3320 C.ar  1 <1>  -0.1500 
 18 C       -4.4390    -8.9970    -0.2740 C.ar  1 <1>   0.0540 
 19 C       -4.3880   -10.4460    -0.1860 C.2   1 <1>   0.4620 
 20 N       -3.3150   -11.1550    -0.1290 N.2   1 <1>  -0.4100 
 21 N       -5.4860   -11.2070    -0.1530 N.2   1 <1>  -0.5650 
 22 O       -3.6670   -12.4000    -0.0570 O.3   1 <1>  -0.0190 
 23 C       -4.9730   -12.3650    -0.0750 C.2   1 <1>   0.3930 
 24 C       -5.7320   -13.6810    -0.0050 C.3   1 <1>  -0.0150 
 25 C       -7.1060   -13.7670     0.5870 C.3   1 <1>  -0.2000 
 26 C       -5.9380   -14.3690     1.3100 C.3   1 <1>  -0.2000 
 27 H       -1.2830     0.9930    -0.6550 H     1 <1>   0.0800 
 28 H       -1.2550     0.9450     1.1230 H     1 <1>   0.0800 
 29 H       -0.4440    -2.9220     0.9450 H     1 <1>   0.0800 
 30 H       -0.4890    -2.8190    -0.8320 H     1 <1>   0.0800 
 31 H       -2.9070    -4.4970     0.6050 H     1 <1>   0.3700 
 32 H       -6.1700    -0.7710     0.8130 H     1 <1>   0.0800 
 33 H       -6.0480    -2.5210     0.8950 H     1 <1>   0.0800 
 34 H       -6.2120    -1.7210    -0.6620 H     1 <1>   0.0800 
 35 H       -2.3870    -6.3070    -0.4290 H     1 <1>   0.1500 
 36 H       -6.6420    -6.4230    -0.4580 H     1 <1>   0.1500 
 37 H       -2.3200    -8.7240    -0.2750 H     1 <1>   0.1500 
 38 H       -6.5730    -8.8530    -0.3170 H     1 <1>   0.1500 
 39 H       -5.5280   -14.3010    -0.8600 H     1 <1>   0.1000 
 40 H       -7.8260   -14.4190     0.1230 H     1 <1>   0.1000 
 41 H       -7.5550   -12.8710     0.9800 H     1 <1>   0.1000 
 42 H       -5.5880   -13.8880     2.2080 H     1 <1>   0.1000 
 43 H       -5.8470   -15.4400     1.3530 H     1 <1>   0.1000 
@<TRIPOS>BOND
  1   1   2  1   
  2   1   3  1   
  3   2   4  1   
  4   2  27  1   
  5   2  28  1   
  6   3   5  1   
  7   3  29  1   
  8   3  30  1   
  9   4   5  1   
 10   4   6  2   
 11   5   7  2   
 12   6   8  1   
 13   7   8  1   
 14   7   9  1   
 15   8  10  1   
 16   9  11  am  
 17   9  31  1   
 18  10  32  1   
 19  10  33  1   
 20  10  34  1   
 21  11  12  2   
 22  11  13  1   
 23  13  14  ar  
 24  13  15  ar  
 25  14  16  ar  
 26  14  35  1   
 27  15  17  ar  
 28  15  36  1   
 29  16  18  ar  
 30  16  37  1   
 31  17  18  ar  
 32  17  38  1   
 33  18  19  1   
 34  19  20  2   
 35  19  21  1   
 36  20  22  1   
 37  21  23  2   
 38  22  23  1   
 39  23  24  1   
 40  24  25  1   
 41  24  26  1   
 42  24  39  1   
 43  25  26  1   
 44  25  40  1   
 45  25  41  1   
 46  26  42  1   
 47  26  43  1   
@<TRIPOS>SUBSTRUCTURE
  1 ****  13 GROUP 4 **** **** 0

# MOE 2024.06 (io_trps.svl 2023.06)
