@<TRIPOS>MOLECULE
NONAME
53 56 1 0 0 
SMALL
USER_CHARGES


@<TRIPOS>ATOM
  1 O       -0.7590     1.2610     3.9840 O.2   1 <1>  -0.5700 
  2 C       -0.5310     1.8570     2.9440 C.2   1 <1>   0.7150 
  3 N       -1.5880     2.0480     2.0670 N.am  1 <1>  -0.6600 
  4 C        0.8220     2.3300     2.7060 C.2   1 <1>   0.0550 
  5 C       -1.5390     3.0270     0.9270 C.3   1 <1>   0.1400 
  6 C       -2.8600     1.2820     2.2390 C.3   1 <1>   0.1400 
  7 O        1.2200     2.8160     1.5340 O.3   1 <1>  -0.2800 
  8 C        1.8890     2.3660     3.5530 C.2   1 <1>  -0.1500 
  9 C       -2.9300     3.5190     0.4910 C.3   1 <1>   0.1440 
 10 C       -3.5310     1.0300     0.8840 C.3   1 <1>  -0.1600 
 11 C        2.4830     3.1780     1.6000 C.2   1 <1>   0.1600 
 12 C        2.9550     2.9140     2.8410 C.2   1 <1>  -0.1500 
 13 C       -2.7410     4.5140    -0.6430 C.ar  1 <1>   0.1670 
 14 C       -3.8210     2.3170     0.0850 C.3   1 <1>  -0.1600 
 15 C       -3.5840     4.4000     1.5970 C.3   1 <1>  -0.1600 
 16 C        3.0950     3.7570     0.4480 C.1   1 <1>  -0.0200 
 17 N       -2.3780     4.2120    -1.8720 N.ar  1 <1>  -0.6200 
 18 C       -2.9640     5.7950    -0.2380 C.ar  1 <1>  -0.1430 
 19 C       -3.3350     5.8710     1.2200 C.3   1 <1>  -0.0170 
 20 C        3.5380     4.2500    -0.5420 C.1   1 <1>  -0.2000 
 21 C       -2.2620     5.2530    -2.6840 C.ar  1 <1>   0.4770 
 22 C       -2.8140     6.7980    -1.1630 C.ar  1 <1>   0.1600 
 23 C        4.0270     4.8710    -1.8010 C.3   1 <1>   0.4800 
 24 N       -2.4610     6.5340    -2.4040 N.ar  1 <1>  -0.6200 
 25 C       -1.8570     4.9460    -4.1050 C.3   1 <1>  -0.0970 
 26 O        4.4940     3.8540    -2.5840 O.3   1 <1>  -0.6800 
 27 C        2.8860     5.5400    -2.5590 C.3   1 <1>  -0.2400 
 28 C        5.1870     5.8240    -1.5470 C.3   1 <1>  -0.2400 
 29 H       -1.0570     2.5550     0.0870 H     1 <1>   0.0800 
 30 H       -0.9510     3.8830     1.2090 H     1 <1>   0.0800 
 31 H       -3.5220     1.8350     2.8830 H     1 <1>   0.0800 
 32 H       -2.6540     0.3360     2.7120 H     1 <1>   0.0800 
 33 H        1.9130     2.0370     4.5770 H     1 <1>   0.1500 
 34 H       -4.4460     0.4850     1.0340 H     1 <1>   0.0800 
 35 H       -2.8760     0.3980     0.3090 H     1 <1>   0.0800 
 36 H        3.9460     3.0870     3.2190 H     1 <1>   0.1500 
 37 H       -3.6570     2.0900    -0.9550 H     1 <1>   0.0800 
 38 H       -4.8600     2.5800     0.1750 H     1 <1>   0.0800 
 39 H       -3.1980     4.1860     2.5780 H     1 <1>   0.0800 
 40 H       -4.6470     4.2390     1.6170 H     1 <1>   0.0800 
 41 H       -2.5100     6.2730     1.7830 H     1 <1>   0.0800 
 42 H       -4.2130     6.4730     1.3760 H     1 <1>   0.0800 
 43 H       -2.9810     7.8250    -0.8870 H     1 <1>   0.1500 
 44 H       -1.3590     3.9950    -4.1530 H     1 <1>   0.0800 
 45 H       -1.1920     5.7070    -4.4680 H     1 <1>   0.0800 
 46 H       -2.7330     4.9180    -4.7240 H     1 <1>   0.0800 
 47 H        3.8630     3.1160    -2.5160 H     1 <1>   0.4000 
 48 H        2.0910     4.8390    -2.7420 H     1 <1>   0.0800 
 49 H        3.2400     5.9320    -3.4950 H     1 <1>   0.0800 
 50 H        2.4900     6.3520    -1.9770 H     1 <1>   0.0800 
 51 H        5.9850     5.3090    -1.0440 H     1 <1>   0.0800 
 52 H        4.8630     6.6390    -0.9270 H     1 <1>   0.0800 
 53 H        5.5520     6.2220    -2.4770 H     1 <1>   0.0800 
@<TRIPOS>BOND
  1   1   2  2   
  2   2   3  am  
  3   2   4  1   
  4   3   5  1   
  5   3   6  1   
  6   4   7  1   
  7   4   8  2   
  8   5   9  1   
  9   5  29  1   
 10   5  30  1   
 11   6  10  1   
 12   6  31  1   
 13   6  32  1   
 14   7  11  1   
 15   8  12  1   
 16   8  33  1   
 17   9  13  1   
 18   9  14  1   
 19   9  15  1   
 20  10  14  1   
 21  10  34  1   
 22  10  35  1   
 23  11  12  2   
 24  11  16  1   
 25  12  36  1   
 26  13  17  ar  
 27  13  18  ar  
 28  14  37  1   
 29  14  38  1   
 30  15  19  1   
 31  15  39  1   
 32  15  40  1   
 33  16  20  3   
 34  17  21  ar  
 35  18  19  1   
 36  18  22  ar  
 37  19  41  1   
 38  19  42  1   
 39  20  23  1   
 40  21  24  ar  
 41  21  25  1   
 42  22  24  ar  
 43  22  43  1   
 44  23  26  1   
 45  23  27  1   
 46  23  28  1   
 47  25  44  1   
 48  25  45  1   
 49  25  46  1   
 50  26  47  1   
 51  27  48  1   
 52  27  49  1   
 53  27  50  1   
 54  28  51  1   
 55  28  52  1   
 56  28  53  1   
@<TRIPOS>SUBSTRUCTURE
  1 ****   5 GROUP 4 **** **** 0

# MOE 2024.06 (io_trps.svl 2023.06)
