@<TRIPOS>MOLECULE
NONAME
39 41 1 0 0 
SMALL
USER_CHARGES


@<TRIPOS>ATOM
  1 CL       0.2070    -0.4540     2.5870 Cl    1 <1>  -0.1770 
  2 C        1.3300    -1.0150     1.3620 C.ar  1 <1>   0.1770 
  3 C        0.9640    -2.0260     0.4640 C.ar  1 <1>   0.4100 
  4 C        2.5740    -0.4390     1.3030 C.ar  1 <1>  -0.1500 
  5 N        1.7880    -2.4730    -0.4820 N.ar  1 <1>  -0.6200 
  6 N       -0.2870    -2.6150     0.5060 N.pl3 1 <1>  -0.8380 
  7 C        3.4340    -0.9080     0.3170 C.ar  1 <1>  -0.1430 
  8 C        2.9850    -1.9090    -0.5290 C.ar  1 <1>   0.1600 
  9 C       -1.2150    -2.2530    -0.6030 C.3   1 <1>   0.2090 
 10 C       -0.3350    -4.0920     0.7010 C.3   1 <1>   0.2090 
 11 C        4.8450    -0.3690     0.1210 C.3   1 <1>   1.1640 
 12 C       -2.1460    -3.4550    -0.7460 C.3   1 <1>   0.2000 
 13 C       -1.2320    -4.6340    -0.4160 C.3   1 <1>  -0.0800 
 14 F        4.9730     0.2730    -1.0310 F     1 <1>  -0.3400 
 15 F        5.7490    -1.3390     0.1110 F     1 <1>  -0.3400 
 16 F        5.2170     0.4800     1.0700 F     1 <1>  -0.3400 
 17 O       -3.1320    -3.3500     0.2240 O.3   1 <1>  -0.6800 
 18 C       -1.9590    -5.9410    -0.0510 C.3   1 <1>   0.0200 
 19 C       -1.0050    -7.1090     0.1390 C.2   1 <1>  -0.0400 
 20 O       -1.4690    -8.2270     0.6330 O.3   1 <1>  -0.0190 
 21 C        0.3050    -7.2830    -0.1010 C.2   1 <1>  -0.1500 
 22 N       -0.5420    -9.1350     0.7390 N.2   1 <1>  -0.4100 
 23 C        0.5380    -8.5940     0.3040 C.2   1 <1>   0.1080 
 24 C        1.8750    -9.2980     0.2440 C.3   1 <1>  -0.0590 
 25 H        2.8480     0.3370     1.9970 H     1 <1>   0.1500 
 26 H        3.6470    -2.2760    -1.2990 H     1 <1>   0.1500 
 27 H       -1.7610    -1.3530    -0.3800 H     1 <1>   0.0800 
 28 H       -0.6580    -2.1160    -1.5140 H     1 <1>   0.0800 
 29 H        0.6480    -4.5300     0.6620 H     1 <1>   0.0800 
 30 H       -0.7670    -4.2970     1.6660 H     1 <1>   0.0800 
 31 H       -2.6130    -3.5240    -1.7130 H     1 <1>   0.0800 
 32 H       -0.6120    -4.8120    -1.2760 H     1 <1>   0.0800 
 33 H       -2.7060    -3.0320     1.0490 H     1 <1>   0.4000 
 34 H       -2.6560    -6.1940    -0.8300 H     1 <1>   0.0800 
 35 H       -2.5200    -5.8080     0.8570 H     1 <1>   0.0800 
 36 H        1.0360    -6.6090    -0.5080 H     1 <1>   0.1500 
 37 H        2.3160    -9.1670    -0.7260 H     1 <1>   0.0800 
 38 H        1.7450   -10.3490     0.4290 H     1 <1>   0.0800 
 39 H        2.5320    -8.8920     0.9910 H     1 <1>   0.0800 
@<TRIPOS>BOND
  1   1   2  1   
  2   2   3  ar  
  3   2   4  ar  
  4   3   5  ar  
  5   3   6  1   
  6   4   7  ar  
  7   4  25  1   
  8   5   8  ar  
  9   6   9  1   
 10   6  10  1   
 11   7   8  ar  
 12   7  11  1   
 13   8  26  1   
 14   9  12  1   
 15   9  27  1   
 16   9  28  1   
 17  10  13  1   
 18  10  29  1   
 19  10  30  1   
 20  11  14  1   
 21  11  15  1   
 22  11  16  1   
 23  12  13  1   
 24  12  17  1   
 25  12  31  1   
 26  13  18  1   
 27  13  32  1   
 28  17  33  1   
 29  18  19  1   
 30  18  34  1   
 31  18  35  1   
 32  19  20  1   
 33  19  21  2   
 34  20  22  1   
 35  21  23  1   
 36  21  36  1   
 37  22  23  2   
 38  23  24  1   
 39  24  37  1   
 40  24  38  1   
 41  24  39  1   
@<TRIPOS>SUBSTRUCTURE
  1 ****  10 GROUP 4 **** **** 0

# MOE 2024.06 (io_trps.svl 2023.06)
