@<TRIPOS>MOLECULE
NONAME
52 53 1 0 0 
SMALL
USER_CHARGES


@<TRIPOS>ATOM
  1 S        0.2700     0.0140     1.0040 S.o2  1 <1>   1.3330 
  2 O        0.9260    -0.3750     2.2320 O.2   1 <1>  -0.6500 
  3 O       -0.6680     1.1140     1.0160 O.2   1 <1>  -0.6500 
  4 N       -0.5260    -1.3540     0.3880 N.am  1 <1>  -0.8490 
  5 C        1.4910     0.3570    -0.2640 C.3   1 <1>  -0.0550 
  6 C        0.1610    -2.6130     0.6970 C.3   1 <1>   0.1160 
  7 C       -1.9230    -1.4280     0.8260 C.3   1 <1>   0.1160 
  8 C        2.3320     1.6200     0.0120 C.3   1 <1>  -0.0800 
  9 C        3.1700     1.9920    -1.1980 C.3   1 <1>   0.2200 
 10 C        3.4140     1.3680     1.0650 C.3   1 <1>   0.1200 
 11 N        3.5170     3.4280    -1.1260 N.am  1 <1>  -0.7300 
 12 C        4.4240     1.1440    -0.9990 C.3   1 <1>   0.1200 
 13 O        4.5290     0.8910     0.3730 O.3   1 <1>  -0.5600 
 14 C        3.1060     4.3870    -1.9960 C.2   1 <1>   0.5690 
 15 O        2.3970     4.1220    -2.9380 O.2   1 <1>  -0.5700 
 16 C        3.5380     5.8340    -1.7880 C.3   1 <1>   0.1810 
 17 O        4.4580     5.9540    -0.7080 O.3   1 <1>  -0.3630 
 18 C        4.9700     7.1630    -0.3620 C.ar  1 <1>   0.0820 
 19 C        5.8800     7.1780     0.6840 C.ar  1 <1>  -0.1500 
 20 C        4.6320     8.3590    -0.9910 C.ar  1 <1>  -0.1500 
 21 C        6.4530     8.3650     1.1050 C.ar  1 <1>  -0.1500 
 22 C        5.2060     9.5460    -0.5690 C.ar  1 <1>  -0.1500 
 23 C        6.1160     9.5600     0.4750 C.ar  1 <1>   0.0820 
 24 O        6.6270    10.7700     0.8210 O.3   1 <1>  -0.3630 
 25 C        7.5600    10.8950     1.8690 C.3   1 <1>   0.1200 
 26 C        7.9300    12.3700     1.9970 C.3   1 <1>  -0.2400 
 27 H        2.1400    -0.4900    -0.3740 H     1 <1>   0.0800 
 28 H        0.9690     0.4920    -1.1910 H     1 <1>   0.0800 
 29 H       -0.3330    -3.4340     0.2050 H     1 <1>   0.0800 
 30 H        0.1630    -2.7910     1.7600 H     1 <1>   0.0800 
 31 H        1.1810    -2.5750     0.3520 H     1 <1>   0.0800 
 32 H       -2.4000    -2.2970     0.4070 H     1 <1>   0.0800 
 33 H       -2.4610    -0.5570     0.4920 H     1 <1>   0.0800 
 34 H       -1.9760    -1.4760     1.9010 H     1 <1>   0.0800 
 35 H        1.6770     2.4250     0.2980 H     1 <1>   0.0800 
 36 H        2.6830     1.7760    -2.1350 H     1 <1>   0.0800 
 37 H        3.1350     0.6500     1.8160 H     1 <1>   0.0800 
 38 H        3.6990     2.2890     1.5440 H     1 <1>   0.0800 
 39 H        4.1410     3.7040    -0.3620 H     1 <1>   0.3700 
 40 H        5.3160     1.6380    -1.3440 H     1 <1>   0.0800 
 41 H        4.3210     0.1940    -1.4940 H     1 <1>   0.0800 
 42 H        2.6730     6.4300    -1.5660 H     1 <1>   0.0800 
 43 H        4.0140     6.1920    -2.6810 H     1 <1>   0.0800 
 44 H        6.1390     6.2530     1.1660 H     1 <1>   0.1500 
 45 H        3.9320     8.3920    -1.8040 H     1 <1>   0.1500 
 46 H        7.1540     8.3390     1.9170 H     1 <1>   0.1500 
 47 H        4.9520    10.4740    -1.0490 H     1 <1>   0.1500 
 48 H        7.1040    10.5370     2.7760 H     1 <1>   0.0800 
 49 H        8.4270    10.3060     1.6260 H     1 <1>   0.0800 
 50 H        7.0540    12.9510     2.2230 H     1 <1>   0.0800 
 51 H        8.3680    12.7210     1.0810 H     1 <1>   0.0800 
 52 H        8.6420    12.4980     2.7910 H     1 <1>   0.0800 
@<TRIPOS>BOND
  1   1   2  2   
  2   1   3  2   
  3   1   4  am  
  4   1   5  1   
  5   4   6  1   
  6   4   7  1   
  7   5   8  1   
  8   5  27  1   
  9   5  28  1   
 10   6  29  1   
 11   6  30  1   
 12   6  31  1   
 13   7  32  1   
 14   7  33  1   
 15   7  34  1   
 16   8   9  1   
 17   8  10  1   
 18   8  35  1   
 19   9  11  1   
 20   9  12  1   
 21   9  36  1   
 22  10  13  1   
 23  10  37  1   
 24  10  38  1   
 25  11  14  am  
 26  11  39  1   
 27  12  13  1   
 28  12  40  1   
 29  12  41  1   
 30  14  15  2   
 31  14  16  1   
 32  16  17  1   
 33  16  42  1   
 34  16  43  1   
 35  17  18  1   
 36  18  19  ar  
 37  18  20  ar  
 38  19  21  ar  
 39  19  44  1   
 40  20  22  ar  
 41  20  45  1   
 42  21  23  ar  
 43  21  46  1   
 44  22  23  ar  
 45  22  47  1   
 46  23  24  1   
 47  24  25  1   
 48  25  26  1   
 49  25  48  1   
 50  25  49  1   
 51  26  50  1   
 52  26  51  1   
 53  26  52  1   
@<TRIPOS>SUBSTRUCTURE
  1 ****  11 GROUP 4 **** **** 0

# MOE 2024.06 (io_trps.svl 2023.06)
