@<TRIPOS>MOLECULE
NONAME
39 41 1 0 0 
SMALL
USER_CHARGES


@<TRIPOS>ATOM
  1 S       -0.0590    -0.2440     0.1380 S.o2  1 <1>   1.3330 
  2 O        0.3110    -0.3130    -1.2540 O.2   1 <1>  -0.6500 
  3 O        0.9090    -0.4740     1.1790 O.2   1 <1>  -0.6500 
  4 N       -1.2600    -1.3770     0.4040 N.am  1 <1>  -0.9140 
  5 C       -0.9050     1.2910     0.4400 C.3   1 <1>  -0.1350 
  6 C       -1.0430    -2.6400    -0.2970 C.3   1 <1>   0.2760 
  7 C       -2.2920    -3.5120    -0.2080 C.3   1 <1>  -0.0800 
  8 C       -0.0580    -3.5090     0.4810 C.3   1 <1>   0.1200 
  9 C       -2.1350    -4.1950     1.1580 C.3   1 <1>   0.1200 
 10 C       -3.6290    -2.7650    -0.3940 C.3   1 <1>  -0.0160 
 11 O       -0.8030    -4.0190     1.5440 O.3   1 <1>  -0.5600 
 12 C       -4.8970    -3.6250    -0.4380 C.ar  1 <1>  -0.1440 
 13 C       -6.1670    -2.9960    -0.4130 C.ar  1 <1>   0.0000 
 14 C       -4.8850    -4.9910    -0.5070 C.ar  1 <1>  -0.1500 
 15 C       -7.3190    -3.8210    -0.4330 C.ar  1 <1>   0.3100 
 16 C       -6.3640    -1.5940    -0.3770 C.ar  1 <1>  -0.1500 
 17 C       -6.0840    -5.7120    -0.5290 C.ar  1 <1>   0.1600 
 18 N       -7.2590    -5.1740    -0.4890 N.ar  1 <1>  -0.6200 
 19 C       -8.5880    -3.2220    -0.3960 C.ar  1 <1>  -0.1500 
 20 C       -7.6160    -1.0420    -0.3450 C.ar  1 <1>  -0.1500 
 21 C       -8.7440    -1.8640    -0.3520 C.ar  1 <1>  -0.1500 
 22 H       -1.1540    -1.6280     1.3910 H     1 <1>   0.4200 
 23 H       -1.7190     1.4040    -0.2490 H     1 <1>   0.0800 
 24 H       -0.2290     2.1130     0.3120 H     1 <1>   0.0800 
 25 H       -1.2900     1.3130     1.4400 H     1 <1>   0.0800 
 26 H       -0.7460    -2.4820    -1.3210 H     1 <1>   0.0800 
 27 H       -2.2050    -4.2620    -0.9740 H     1 <1>   0.0800 
 28 H        0.7960    -2.9740     0.8560 H     1 <1>   0.0800 
 29 H        0.2740    -4.3390    -0.1190 H     1 <1>   0.0800 
 30 H       -2.3430    -5.2500     1.1100 H     1 <1>   0.0800 
 31 H       -2.7560    -3.7360     1.9080 H     1 <1>   0.0800 
 32 H       -3.5780    -2.1980    -1.3080 H     1 <1>   0.0800 
 33 H       -3.7370    -2.0660     0.4160 H     1 <1>   0.0800 
 34 H       -3.9810    -5.5650    -0.5490 H     1 <1>   0.1500 
 35 H       -5.5150    -0.9380    -0.3770 H     1 <1>   0.1500 
 36 H       -6.0240    -6.7860    -0.5820 H     1 <1>   0.1500 
 37 H       -9.4410    -3.8750    -0.4050 H     1 <1>   0.1500 
 38 H       -7.7480     0.0260    -0.3150 H     1 <1>   0.1500 
 39 H       -9.7240    -1.4190    -0.3240 H     1 <1>   0.1500 
@<TRIPOS>BOND
  1   1   2  2   
  2   1   3  2   
  3   1   4  am  
  4   1   5  1   
  5   4   6  1   
  6   4  22  1   
  7   5  23  1   
  8   5  24  1   
  9   5  25  1   
 10   6   7  1   
 11   6   8  1   
 12   6  26  1   
 13   7   9  1   
 14   7  10  1   
 15   7  27  1   
 16   8  11  1   
 17   8  28  1   
 18   8  29  1   
 19   9  11  1   
 20   9  30  1   
 21   9  31  1   
 22  10  12  1   
 23  10  32  1   
 24  10  33  1   
 25  12  13  ar  
 26  12  14  ar  
 27  13  15  ar  
 28  13  16  ar  
 29  14  17  ar  
 30  14  34  1   
 31  15  18  ar  
 32  15  19  ar  
 33  16  20  ar  
 34  16  35  1   
 35  17  18  ar  
 36  17  36  1   
 37  19  21  ar  
 38  19  37  1   
 39  20  21  ar  
 40  20  38  1   
 41  21  39  1   
@<TRIPOS>SUBSTRUCTURE
  1 ****  10 GROUP 4 **** **** 0

# MOE 2024.06 (io_trps.svl 2023.06)
