@<TRIPOS>MOLECULE
NONAME
58 60 1 0 0 
SMALL
USER_CHARGES


@<TRIPOS>ATOM
  1 O        1.3350     2.0090     0.6590 O.2   1 <1>  -0.5700 
  2 C        0.6150     2.8320     0.1550 C.2   1 <1>   0.5690 
  3 N       -0.3450     3.4650     0.8600 N.am  1 <1>  -0.7300 
  4 C        0.8290     3.2930    -1.2800 C.3   1 <1>   0.1810 
  5 C       -1.0840     4.6340     0.3040 C.3   1 <1>   0.3640 
  6 O        0.8880     4.6960    -1.2940 O.3   1 <1>  -0.5600 
  7 C       -2.4750     4.2140    -0.1690 C.ar  1 <1>  -0.1440 
  8 C       -0.3020     5.3530    -0.8450 C.3   1 <1>   0.2610 
  9 C       -3.4540     5.1940    -0.2910 C.ar  1 <1>   0.1600 
 10 C       -2.8130     2.9090    -0.4910 C.ar  1 <1>  -0.1500 
 11 C       -0.0270     6.7990    -0.4080 C.2   1 <1>   0.5690 
 12 N       -4.6960     4.9830    -0.6900 N.ar  1 <1>  -0.6200 
 13 C       -4.1060     2.6750    -0.9080 C.ar  1 <1>  -0.1500 
 14 O       -0.8910     7.5880    -0.7050 O.2   1 <1>  -0.5700 
 15 N        1.0930     7.1810     0.3180 N.am  1 <1>  -0.6600 
 16 C       -4.9950     3.7310    -0.9890 C.ar  1 <1>   0.1600 
 17 C        1.4170     8.6160     0.6150 C.3   1 <1>   0.2200 
 18 C        2.0420     6.2140     0.9490 C.3   1 <1>   0.1400 
 19 C        0.4060     9.2390     1.5870 C.3   1 <1>  -0.1600 
 20 C        1.5720     9.4520    -0.6640 C.3   1 <1>  -0.1600 
 21 C        3.2730     5.9860     0.0520 C.3   1 <1>   0.3430 
 22 C        0.8000    10.6850     1.9270 C.3   1 <1>  -0.1600 
 23 C        1.9700    10.8960    -0.3210 C.3   1 <1>  -0.1600 
 24 N        4.3180     5.1110     0.6920 N.4   1 <1>  -0.9590 
 25 C        0.9670    11.5280     0.6540 C.3   1 <1>  -0.1600 
 26 C        5.5390     5.0630    -0.1700 C.3   1 <1>   0.2630 
 27 C        3.8240     3.7160     0.9470 C.3   1 <1>   0.2630 
 28 H       -0.6250     3.1060     1.7770 H     1 <1>   0.3700 
 29 H        0.0200     2.9670    -1.9110 H     1 <1>   0.0800 
 30 H        1.7570     2.9090    -1.6630 H     1 <1>   0.0800 
 31 H       -1.2270     5.3370     1.1080 H     1 <1>   0.0800 
 32 H       -0.9480     5.4100    -1.7040 H     1 <1>   0.0800 
 33 H       -3.2070     6.2170    -0.0520 H     1 <1>   0.1500 
 34 H       -2.1190     2.0900    -0.4230 H     1 <1>   0.1500 
 35 H       -4.4270     1.6830    -1.1700 H     1 <1>   0.1500 
 36 H       -6.0030     3.5370    -1.3160 H     1 <1>   0.1500 
 37 H        2.3730     8.6510     1.1090 H     1 <1>   0.0800 
 38 H        2.3550     6.6030     1.9030 H     1 <1>   0.0800 
 39 H        1.5440     5.2830     1.1300 H     1 <1>   0.0800 
 40 H       -0.5740     9.2520     1.1440 H     1 <1>   0.0800 
 41 H        0.3630     8.6590     2.4920 H     1 <1>   0.0800 
 42 H        2.3200     9.0160    -1.3010 H     1 <1>   0.0800 
 43 H        0.6420     9.4820    -1.2050 H     1 <1>   0.0800 
 44 H        3.7060     6.9470    -0.1720 H     1 <1>   0.0800 
 45 H        2.9540     5.5430    -0.8770 H     1 <1>   0.0800 
 46 H        0.0430    11.1260     2.5520 H     1 <1>   0.0800 
 47 H        1.7240    10.6880     2.4800 H     1 <1>   0.0800 
 48 H        2.9520    10.9080     0.1200 H     1 <1>   0.0800 
 49 H        2.0080    11.4820    -1.2240 H     1 <1>   0.0800 
 50 H        4.5870     5.5280     1.5970 H     1 <1>   0.4500 
 51 H        1.2960    12.5180     0.9190 H     1 <1>   0.0800 
 52 H        0.0110    11.6220     0.1660 H     1 <1>   0.0800 
 53 H        5.3030     4.6300    -1.1290 H     1 <1>   0.0800 
 54 H        6.3050     4.4660     0.2980 H     1 <1>   0.0800 
 55 H        5.9270     6.0570    -0.3270 H     1 <1>   0.0800 
 56 H        3.5210     3.2480     0.0240 H     1 <1>   0.0800 
 57 H        2.9790     3.7240     1.6150 H     1 <1>   0.0800 
 58 H        4.6010     3.1170     1.3930 H     1 <1>   0.0800 
@<TRIPOS>BOND
  1   1   2  2   
  2   2   3  am  
  3   2   4  1   
  4   3   5  1   
  5   3  28  1   
  6   4   6  1   
  7   4  29  1   
  8   4  30  1   
  9   5   7  1   
 10   5   8  1   
 11   5  31  1   
 12   6   8  1   
 13   7   9  ar  
 14   7  10  ar  
 15   8  11  1   
 16   8  32  1   
 17   9  12  ar  
 18   9  33  1   
 19  10  13  ar  
 20  10  34  1   
 21  11  14  2   
 22  11  15  am  
 23  12  16  ar  
 24  13  16  ar  
 25  13  35  1   
 26  15  17  1   
 27  15  18  1   
 28  16  36  1   
 29  17  19  1   
 30  17  20  1   
 31  17  37  1   
 32  18  21  1   
 33  18  38  1   
 34  18  39  1   
 35  19  22  1   
 36  19  40  1   
 37  19  41  1   
 38  20  23  1   
 39  20  42  1   
 40  20  43  1   
 41  21  24  1   
 42  21  44  1   
 43  21  45  1   
 44  22  25  1   
 45  22  46  1   
 46  22  47  1   
 47  23  25  1   
 48  23  48  1   
 49  23  49  1   
 50  24  26  1   
 51  24  27  1   
 52  24  50  1   
 53  25  51  1   
 54  25  52  1   
 55  26  53  1   
 56  26  54  1   
 57  26  55  1   
 58  27  56  1   
 59  27  57  1   
 60  27  58  1   
@<TRIPOS>SUBSTRUCTURE
  1 ****  11 GROUP 4 **** **** 0

# MOE 2024.06 (io_trps.svl 2023.06)
