@<TRIPOS>MOLECULE
NONAME
56 58 1 0 0 
SMALL
USER_CHARGES


@<TRIPOS>ATOM
  1 O       -0.2510     0.4330     1.4410 O.2   1 <1>  -0.5700 
  2 C       -1.1820     1.0230     0.9500 C.2   1 <1>   0.5690 
  3 N       -2.2510     0.3620     0.4140 N.am  1 <1>  -0.6600 
  4 C       -1.1110     2.5360     0.9160 C.3   1 <1>  -0.0990 
  5 C       -3.4710     0.9540    -0.1980 C.3   1 <1>   0.1400 
  6 C       -2.3090    -1.1200     0.3310 C.3   1 <1>   0.1400 
  7 C       -0.5330     3.0240    -0.4210 C.3   1 <1>  -0.0990 
  8 C       -4.4810    -0.1920    -0.2080 C.3   1 <1>   0.2000 
  9 C       -3.6080    -1.4300    -0.4210 C.3   1 <1>  -0.0800 
 10 C       -0.5460     4.5340    -0.5000 C.2   1 <1>   0.5690 
 11 O       -5.0720    -0.2500     1.0460 O.3   1 <1>  -0.6800 
 12 C       -4.2470    -2.7750    -0.0310 C.3   1 <1>   0.0210 
 13 O       -1.5290     5.0630    -0.9550 O.2   1 <1>  -0.5700 
 14 N        0.5560     5.2010    -0.0440 N.am  1 <1>  -0.5470 
 15 C       -3.2800    -3.9190    -0.2700 C.2   1 <1>   0.1080 
 16 C        0.8570     6.5730     0.0290 C.ar  1 <1>   0.1170 
 17 N       -2.7630    -4.1730    -1.4320 N.2   1 <1>  -0.7070 
 18 C       -2.8350    -4.8020     0.7080 C.2   1 <1>  -0.1500 
 19 C        2.1930     6.9920     0.0700 C.ar  1 <1>  -0.1440 
 20 C       -0.1540     7.5300     0.0850 C.ar  1 <1>  -0.1500 
 21 N       -1.9650    -5.2370    -1.2240 N.pl3 1 <1>   0.3000 
 22 C       -1.9910    -5.6360     0.0650 C.2   1 <1>  -0.3320 
 23 C        2.4730     8.3510     0.1660 C.ar  1 <1>  -0.1500 
 24 C        3.3150     5.9450     0.0050 C.3   1 <1>  -0.0170 
 25 C        0.1390     8.8760     0.1760 C.ar  1 <1>  -0.1500 
 26 C       -1.1940    -6.8060     0.6110 C.3   1 <1>  -0.0600 
 27 C        1.4560     9.2870     0.2170 C.ar  1 <1>  -0.1500 
 28 C        4.7450     6.4920    -0.0860 C.3   1 <1>  -0.2400 
 29 H       -2.0860     2.9570     1.0760 H     1 <1>   0.0800 
 30 H       -0.4830     2.8670     1.7230 H     1 <1>   0.0800 
 31 H       -3.8440     1.7980     0.3550 H     1 <1>   0.0800 
 32 H       -3.2480     1.2520    -1.2080 H     1 <1>   0.0800 
 33 H       -1.4520    -1.5100    -0.1920 H     1 <1>   0.0800 
 34 H       -2.3300    -1.5290     1.3270 H     1 <1>   0.0800 
 35 H       -1.1220     2.6380    -1.2330 H     1 <1>   0.0800 
 36 H        0.4700     2.6580    -0.5410 H     1 <1>   0.0800 
 37 H       -5.2530    -0.0750    -0.9490 H     1 <1>   0.0800 
 38 H       -3.3610    -1.4760    -1.4680 H     1 <1>   0.0800 
 39 H       -4.3650    -0.2280     1.7230 H     1 <1>   0.4000 
 40 H       -5.1280    -2.9390    -0.6230 H     1 <1>   0.0800 
 41 H       -4.5370    -2.7720     1.0040 H     1 <1>   0.0800 
 42 H        1.3170     4.6020     0.2660 H     1 <1>   0.3700 
 43 H       -3.1170    -4.7960     1.7450 H     1 <1>   0.1500 
 44 H       -1.1840     7.2270     0.0610 H     1 <1>   0.1500 
 45 H       -1.4180    -5.6660    -1.9800 H     1 <1>   0.2700 
 46 H        3.4820     8.7150     0.2020 H     1 <1>   0.1500 
 47 H        3.2510     5.3200     0.8790 H     1 <1>   0.0800 
 48 H        3.1490     5.3240    -0.8590 H     1 <1>   0.0800 
 49 H       -0.6560     9.6000     0.2140 H     1 <1>   0.1500 
 50 H       -1.3830    -6.9220     1.6640 H     1 <1>   0.0800 
 51 H       -0.1410    -6.6370     0.4700 H     1 <1>   0.0800 
 52 H       -1.4760    -7.7150     0.1100 H     1 <1>   0.0800 
 53 H        1.6900    10.3350     0.2890 H     1 <1>   0.1500 
 54 H        4.9890     7.0600     0.7950 H     1 <1>   0.0800 
 55 H        4.8530     7.1180    -0.9540 H     1 <1>   0.0800 
 56 H        5.4430     5.6780    -0.1650 H     1 <1>   0.0800 
@<TRIPOS>BOND
  1   1   2  2   
  2   2   3  am  
  3   2   4  1   
  4   3   5  1   
  5   3   6  1   
  6   4   7  1   
  7   4  29  1   
  8   4  30  1   
  9   5   8  1   
 10   5  31  1   
 11   5  32  1   
 12   6   9  1   
 13   6  33  1   
 14   6  34  1   
 15   7  10  1   
 16   7  35  1   
 17   7  36  1   
 18   8   9  1   
 19   8  11  1   
 20   8  37  1   
 21   9  12  1   
 22   9  38  1   
 23  10  13  2   
 24  10  14  am  
 25  11  39  1   
 26  12  15  1   
 27  12  40  1   
 28  12  41  1   
 29  14  16  1   
 30  14  42  1   
 31  15  17  2   
 32  15  18  1   
 33  16  19  ar  
 34  16  20  ar  
 35  17  21  1   
 36  18  22  2   
 37  18  43  1   
 38  19  23  ar  
 39  19  24  1   
 40  20  25  ar  
 41  20  44  1   
 42  21  22  1   
 43  21  45  1   
 44  22  26  1   
 45  23  27  ar  
 46  23  46  1   
 47  24  28  1   
 48  24  47  1   
 49  24  48  1   
 50  25  27  ar  
 51  25  49  1   
 52  26  50  1   
 53  26  51  1   
 54  26  52  1   
 55  27  53  1   
 56  28  54  1   
 57  28  55  1   
 58  28  56  1   
@<TRIPOS>SUBSTRUCTURE
  1 ****   2 GROUP 4 **** **** 0

# MOE 2024.06 (io_trps.svl 2023.06)
