@<TRIPOS>MOLECULE
NONAME
51 54 1 0 0 
SMALL
USER_CHARGES


@<TRIPOS>ATOM
  1 O       -0.9400    -0.4280    -0.6480 O.3   1 <1>  -0.3630 
  2 C       -2.0810    -1.0270    -0.2540 C.ar  1 <1>   0.0830 
  3 C        0.2700    -1.1390    -0.8050 C.3   1 <1>   0.0400 
  4 C       -3.1930    -0.2290    -0.1350 C.ar  1 <1>  -0.1500 
  5 C       -2.1820    -2.3940     0.0320 C.ar  1 <1>  -0.1500 
  6 C       -4.4170    -0.7620     0.2660 C.ar  1 <1>   0.3610 
  7 C       -3.3820    -2.9300     0.4280 C.ar  1 <1>  -0.1500 
  8 N       -5.5330     0.0430     0.3860 N.ar  1 <1>  -0.1790 
  9 C       -4.5340    -2.1340     0.5570 C.ar  1 <1>   0.0000 
 10 C       -6.7450    -0.3690     0.7650 C.ar  1 <1>   0.4610 
 11 C       -5.8130    -2.6180     0.9600 C.ar  1 <1>  -0.1430 
 12 N       -7.7580     0.5290     0.8410 N.pl3 1 <1>  -0.8380 
 13 C       -6.8640    -1.7550     1.0540 C.ar  1 <1>  -0.1500 
 14 C       -6.0050    -4.0960     1.2820 C.3   1 <1>  -0.0970 
 15 C       -9.1530     0.2000     1.3160 C.3   1 <1>   0.2090 
 16 C       -7.7060     1.9720     0.4330 C.3   1 <1>   0.2090 
 17 C      -10.1830     0.3590     0.1670 C.3   1 <1>   0.0000 
 18 C       -8.6620     2.1980    -0.7430 C.3   1 <1>  -0.1600 
 19 C      -11.6090     0.0160     0.6370 C.3   1 <1>   0.2000 
 20 C      -10.1040     1.7990    -0.3880 C.3   1 <1>  -0.1600 
 21 C       -9.9550    -0.6990    -0.9290 C.3   1 <1>  -0.1600 
 22 O      -11.8470     0.4360     1.9350 O.3   1 <1>  -0.6800 
 23 C      -11.7410    -1.5050     0.5470 C.3   1 <1>  -0.1600 
 24 C      -10.6520    -1.9690    -0.4310 C.3   1 <1>  -0.1600 
 25 H        1.0280    -0.4450    -1.1220 H     1 <1>   0.0800 
 26 H        0.1360    -1.8990    -1.5540 H     1 <1>   0.0800 
 27 H        0.5470    -1.5730     0.1400 H     1 <1>   0.0800 
 28 H       -3.0940     0.8170    -0.3590 H     1 <1>   0.1500 
 29 H       -1.3230    -3.0350    -0.0550 H     1 <1>   0.1500 
 30 H       -3.4330    -3.9840     0.6420 H     1 <1>   0.1500 
 31 H       -5.4340     1.0280     0.1810 H     1 <1>   0.4570 
 32 H       -7.8190    -2.1360     1.3500 H     1 <1>   0.1500 
 33 H       -7.0210    -4.3040     1.5670 H     1 <1>   0.0800 
 34 H       -5.3650    -4.3860     2.0970 H     1 <1>   0.0800 
 35 H       -5.7700    -4.6990     0.4220 H     1 <1>   0.0800 
 36 H       -9.2280    -0.7820     1.7380 H     1 <1>   0.0800 
 37 H       -9.4060     0.8840     2.1090 H     1 <1>   0.0800 
 38 H       -8.0130     2.5860     1.2660 H     1 <1>   0.0800 
 39 H       -6.7180     2.2810     0.1500 H     1 <1>   0.0800 
 40 H       -8.6430     3.2380    -1.0190 H     1 <1>   0.0800 
 41 H       -8.3230     1.6310    -1.5920 H     1 <1>   0.0800 
 42 H      -12.3320     0.4830    -0.0110 H     1 <1>   0.0800 
 43 H      -10.7340     1.9030    -1.2540 H     1 <1>   0.0800 
 44 H      -10.4750     2.4770     0.3630 H     1 <1>   0.0800 
 45 H      -10.4380    -0.3820    -1.8380 H     1 <1>   0.0800 
 46 H       -8.9170    -0.8710    -1.1450 H     1 <1>   0.0800 
 47 H      -12.7650     0.2220     2.1930 H     1 <1>   0.4000 
 48 H      -11.5810    -1.9660     1.5070 H     1 <1>   0.0800 
 49 H      -12.7160    -1.7720     0.1800 H     1 <1>   0.0800 
 50 H       -9.9480    -2.5980     0.0850 H     1 <1>   0.0800 
 51 H      -11.0720    -2.5250    -1.2520 H     1 <1>   0.0800 
@<TRIPOS>BOND
  1   1   2  1   
  2   1   3  1   
  3   2   4  ar  
  4   2   5  ar  
  5   3  25  1   
  6   3  26  1   
  7   3  27  1   
  8   4   6  ar  
  9   4  28  1   
 10   5   7  ar  
 11   5  29  1   
 12   6   8  ar  
 13   6   9  ar  
 14   7   9  ar  
 15   7  30  1   
 16   8  10  ar  
 17   8  31  1   
 18   9  11  ar  
 19  10  12  1   
 20  10  13  ar  
 21  11  13  ar  
 22  11  14  1   
 23  12  15  1   
 24  12  16  1   
 25  13  32  1   
 26  14  33  1   
 27  14  34  1   
 28  14  35  1   
 29  15  17  1   
 30  15  36  1   
 31  15  37  1   
 32  16  18  1   
 33  16  38  1   
 34  16  39  1   
 35  17  19  1   
 36  17  20  1   
 37  17  21  1   
 38  18  20  1   
 39  18  40  1   
 40  18  41  1   
 41  19  22  1   
 42  19  23  1   
 43  19  42  1   
 44  20  43  1   
 45  20  44  1   
 46  21  24  1   
 47  21  45  1   
 48  21  46  1   
 49  22  47  1   
 50  23  24  1   
 51  23  48  1   
 52  23  49  1   
 53  24  50  1   
 54  24  51  1   
@<TRIPOS>SUBSTRUCTURE
  1 ****  10 GROUP 4 **** **** 0

# MOE 2024.06 (io_trps.svl 2023.06)
