@<TRIPOS>MOLECULE
NONAME
45 46 1 0 0 
SMALL
USER_CHARGES


@<TRIPOS>ATOM
  1 S       -0.2740    -0.6800     0.6920 S.o2  1 <1>   1.5010 
  2 O        0.1180    -1.9320     1.3020 O.2   1 <1>  -0.6500 
  3 O       -1.3750     0.0470     1.2840 O.2   1 <1>  -0.6500 
  4 N       -0.8570    -1.0050    -0.8550 N.am  1 <1>  -0.9140 
  5 C        1.1980     0.3930     0.4400 C.2   1 <1>   0.1640 
  6 C       -1.2010    -2.3560    -1.3140 C.3   1 <1>   0.2760 
  7 N        1.2330     1.4640    -0.4070 N.2   1 <1>  -0.5650 
  8 C        2.4080     0.2830     1.0500 C.2   1 <1>  -0.3020 
  9 C       -2.2560    -3.1580    -0.5380 C.3   1 <1>  -0.0800 
 10 C        0.0030    -3.3040    -1.4060 C.3   1 <1>   0.1200 
 11 C        2.4240     1.9500    -0.2870 C.2   1 <1>   0.0060 
 12 N        3.1910     1.2710     0.5880 N.pl3 1 <1>   0.0330 
 13 C       -1.4710    -4.3770    -0.0530 C.3   1 <1>   0.1200 
 14 C       -3.0610    -2.4610     0.5830 C.3   1 <1>  -0.0550 
 15 O       -0.4590    -4.5490    -0.9890 O.3   1 <1>  -0.5600 
 16 C        2.9230     3.1620    -1.0520 C.3   1 <1>   0.0200 
 17 S       -4.5460    -3.3430     1.0720 S.o2  1 <1>   1.3330 
 18 C        3.1770     4.3490    -0.1170 C.3   1 <1>  -0.2400 
 19 O       -4.1910    -4.7120     1.3750 O.2   1 <1>  -0.6500 
 20 O       -5.2720    -2.5630     2.0490 O.2   1 <1>  -0.6500 
 21 N       -5.4710    -3.3500    -0.3540 N.am  1 <1>  -0.8490 
 22 C       -6.3690    -4.5070    -0.4260 C.3   1 <1>   0.1160 
 23 C       -6.2390    -2.1150    -0.5510 C.3   1 <1>   0.1160 
 24 H       -1.6460    -0.3720    -0.9550 H     1 <1>   0.4200 
 25 H       -1.5690    -2.2450    -2.3200 H     1 <1>   0.0800 
 26 H        2.7320    -0.4420     1.7750 H     1 <1>   0.1500 
 27 H       -2.9560    -3.5250    -1.2680 H     1 <1>   0.0800 
 28 H        0.8100    -3.0170    -0.7570 H     1 <1>   0.0800 
 29 H        0.3610    -3.3950    -2.4160 H     1 <1>   0.0800 
 30 H        4.1610     1.4780     0.8420 H     1 <1>   0.2700 
 31 H       -2.0700    -5.2710    -0.0140 H     1 <1>   0.0800 
 32 H       -1.0110    -4.2030     0.9060 H     1 <1>   0.0800 
 33 H       -3.3460    -1.4820     0.2550 H     1 <1>   0.0800 
 34 H       -2.4400    -2.3470     1.4500 H     1 <1>   0.0800 
 35 H        3.8250     2.9080    -1.5800 H     1 <1>   0.0800 
 36 H        2.1820     3.4400    -1.7820 H     1 <1>   0.0800 
 37 H        3.9440     4.1150     0.5980 H     1 <1>   0.0800 
 38 H        2.2730     4.5970     0.4110 H     1 <1>   0.0800 
 39 H        3.4870     5.2070    -0.6870 H     1 <1>   0.0800 
 40 H       -6.9350    -4.4860    -1.3410 H     1 <1>   0.0800 
 41 H       -7.0470    -4.5070     0.4120 H     1 <1>   0.0800 
 42 H       -5.7970    -5.4200    -0.4070 H     1 <1>   0.0800 
 43 H       -6.7300    -2.1340    -1.5090 H     1 <1>   0.0800 
 44 H       -5.5850    -1.2600    -0.5210 H     1 <1>   0.0800 
 45 H       -6.9830    -2.0060     0.2210 H     1 <1>   0.0800 
@<TRIPOS>BOND
  1   1   2  2   
  2   1   3  2   
  3   1   4  am  
  4   1   5  1   
  5   4   6  1   
  6   4  24  1   
  7   5   7  1   
  8   5   8  2   
  9   6   9  1   
 10   6  10  1   
 11   6  25  1   
 12   7  11  2   
 13   8  12  1   
 14   8  26  1   
 15   9  13  1   
 16   9  14  1   
 17   9  27  1   
 18  10  15  1   
 19  10  28  1   
 20  10  29  1   
 21  11  12  1   
 22  11  16  1   
 23  12  30  1   
 24  13  15  1   
 25  13  31  1   
 26  13  32  1   
 27  14  17  1   
 28  14  33  1   
 29  14  34  1   
 30  16  18  1   
 31  16  35  1   
 32  16  36  1   
 33  17  19  2   
 34  17  20  2   
 35  17  21  am  
 36  18  37  1   
 37  18  38  1   
 38  18  39  1   
 39  21  22  1   
 40  21  23  1   
 41  22  40  1   
 42  22  41  1   
 43  22  42  1   
 44  23  43  1   
 45  23  44  1   
 46  23  45  1   
@<TRIPOS>SUBSTRUCTURE
  1 ****   4 GROUP 4 **** **** 0

# MOE 2024.06 (io_trps.svl 2023.06)
