@<TRIPOS>MOLECULE
NONAME
48 51 1 0 0 
SMALL
USER_CHARGES


@<TRIPOS>ATOM
  1 O        0.5480     0.1630     1.3740 O.2   1 <1>  -0.5700 
  2 C        1.6310     0.4390     0.9090 C.2   1 <1>   0.6900 
  3 N        2.5200    -0.4350     0.3220 N.am  1 <1>  -0.4770 
  4 N        2.1110     1.7000     0.9130 N.am  1 <1>  -0.4900 
  5 C        2.4750    -1.8350     0.2260 C.ar  1 <1>   0.1170 
  6 C        3.7110     0.3590    -0.1040 C.3   1 <1>   0.2010 
  7 C        3.3280     1.7540     0.3460 C.2   1 <1>   0.5690 
  8 C        3.1100    -2.5020    -0.8190 C.ar  1 <1>  -0.1500 
  9 C        1.8140    -2.6090     1.1760 C.ar  1 <1>  -0.1500 
 10 O        3.9990     2.7440     0.2150 O.2   1 <1>  -0.5700 
 11 C        3.0850    -3.8800    -0.9060 C.ar  1 <1>  -0.1500 
 12 C        1.7910    -3.9870     1.0860 C.ar  1 <1>  -0.1500 
 13 C        2.4200    -4.6610     0.0380 C.ar  1 <1>   0.0860 
 14 C        2.4040    -6.1060    -0.0720 C.2   1 <1>   0.5440 
 15 O        3.4260    -6.6990    -0.3660 O.2   1 <1>  -0.5700 
 16 N        1.2560    -6.8420     0.1270 N.am  1 <1>  -0.6600 
 17 C       -0.1210    -6.3150    -0.0490 C.3   1 <1>   0.1400 
 18 C        1.2580    -8.3250     0.0570 C.3   1 <1>   0.1400 
 19 C       -0.9410    -7.5200    -0.5080 C.3   1 <1>   0.2000 
 20 C       -0.2150    -8.7370     0.0580 C.3   1 <1>  -0.0800 
 21 O       -2.2410    -7.4720    -0.0310 O.3   1 <1>  -0.6800 
 22 C       -0.4920   -10.0240    -0.7330 C.3   1 <1>   0.0200 
 23 C        0.3070   -11.1860    -0.1750 C.2   1 <1>  -0.0400 
 24 O        0.0920   -11.6000     1.0450 O.3   1 <1>  -0.0190 
 25 C        1.2780   -11.9440    -0.7040 C.2   1 <1>  -0.1500 
 26 N        0.8710   -12.5940     1.3630 N.2   1 <1>  -0.4100 
 27 C        1.5960   -12.8230     0.3280 C.2   1 <1>   0.1080 
 28 C        2.6520   -13.9030     0.2520 C.3   1 <1>  -0.0590 
 29 H        1.6050     2.4890     1.3010 H     1 <1>   0.3700 
 30 H        4.5970     0.0220     0.4020 H     1 <1>   0.0800 
 31 H        3.8350     0.3310    -1.1710 H     1 <1>   0.0800 
 32 H        3.6280    -1.9460    -1.5790 H     1 <1>   0.1500 
 33 H        1.3170    -2.1290     2.0000 H     1 <1>   0.1500 
 34 H        3.5890    -4.3770    -1.7180 H     1 <1>   0.1500 
 35 H        1.2840    -4.5580     1.8440 H     1 <1>   0.1500 
 36 H       -0.4820    -5.9490     0.8960 H     1 <1>   0.0800 
 37 H       -0.1430    -5.5330    -0.7870 H     1 <1>   0.0800 
 38 H        1.7450    -8.6320    -0.8530 H     1 <1>   0.0800 
 39 H        1.7860    -8.7440     0.8980 H     1 <1>   0.0800 
 40 H       -0.9740    -7.5460    -1.5840 H     1 <1>   0.0800 
 41 H       -0.5030    -8.8810     1.0850 H     1 <1>   0.0800 
 42 H       -2.2490    -7.5100     0.9460 H     1 <1>   0.4000 
 43 H       -0.2350    -9.8830    -1.7680 H     1 <1>   0.0800 
 44 H       -1.5410   -10.2620    -0.6800 H     1 <1>   0.0800 
 45 H        1.7300   -11.9100    -1.6780 H     1 <1>   0.1500 
 46 H        2.4150   -14.5900    -0.5400 H     1 <1>   0.0800 
 47 H        2.6920   -14.4430     1.1810 H     1 <1>   0.0800 
 48 H        3.6130   -13.4610     0.0640 H     1 <1>   0.0800 
@<TRIPOS>BOND
  1   1   2  2   
  2   2   3  am  
  3   2   4  am  
  4   3   5  1   
  5   3   6  1   
  6   4   7  am  
  7   4  29  1   
  8   5   8  ar  
  9   5   9  ar  
 10   6   7  1   
 11   6  30  1   
 12   6  31  1   
 13   7  10  2   
 14   8  11  ar  
 15   8  32  1   
 16   9  12  ar  
 17   9  33  1   
 18  11  13  ar  
 19  11  34  1   
 20  12  13  ar  
 21  12  35  1   
 22  13  14  1   
 23  14  15  2   
 24  14  16  am  
 25  16  17  1   
 26  16  18  1   
 27  17  19  1   
 28  17  36  1   
 29  17  37  1   
 30  18  20  1   
 31  18  38  1   
 32  18  39  1   
 33  19  20  1   
 34  19  21  1   
 35  19  40  1   
 36  20  22  1   
 37  20  41  1   
 38  21  42  1   
 39  22  23  1   
 40  22  43  1   
 41  22  44  1   
 42  23  24  1   
 43  23  25  2   
 44  24  26  1   
 45  25  27  1   
 46  25  45  1   
 47  26  27  2   
 48  27  28  1   
 49  28  46  1   
 50  28  47  1   
 51  28  48  1   
@<TRIPOS>SUBSTRUCTURE
  1 ****  14 GROUP 4 **** **** 0

# MOE 2024.06 (io_trps.svl 2023.06)
