@<TRIPOS>MOLECULE
NONAME
41 43 1 0 0 
SMALL
USER_CHARGES


@<TRIPOS>ATOM
  1 N        0.1910     0.2310    -0.2450 N.ar  1 <1>  -0.6200 
  2 C        1.3570    -0.1180     0.2810 C.ar  1 <1>   0.4100 
  3 C       -0.7620    -0.6550    -0.0280 C.ar  1 <1>   0.1660 
  4 N        2.3990     0.7800     0.1020 N.pl3 1 <1>  -0.8690 
  5 C        1.5360    -1.3260     0.9940 C.ar  1 <1>   0.1660 
  6 C       -0.5730    -1.8340     0.6830 C.ar  1 <1>   0.1600 
  7 C       -2.1200    -0.3150    -0.6080 C.3   1 <1>  -0.0960 
  8 C        2.1840     2.1270    -0.4590 C.3   1 <1>   0.2090 
  9 N        0.5790    -2.2060     1.2180 N.ar  1 <1>  -0.6200 
 10 C        2.8970    -1.6890     1.5640 C.3   1 <1>  -0.0970 
 11 C        3.5100     2.8800    -0.4520 C.3   1 <1>  -0.1600 
 12 C        3.3440     4.2780    -1.0550 C.3   1 <1>   0.0960 
 13 N        4.6190     5.0160    -0.9820 N.pl3 1 <1>   0.0480 
 14 C        5.1030     5.6990     0.1100 C.ar  1 <1>  -0.1520 
 15 C        5.5460     5.1160    -1.9810 C.2   1 <1>  -0.3020 
 16 C        6.3470     6.2280    -0.2210 C.ar  1 <1>   0.0000 
 17 C        4.5600     5.9050     1.3830 C.ar  1 <1>  -0.1500 
 18 C        6.6040     5.8440    -1.5530 C.2   1 <1>  -0.1500 
 19 C        7.0610     6.9720     0.7230 C.ar  1 <1>  -0.1500 
 20 C        5.2720     6.6390     2.3030 C.ar  1 <1>  -0.1500 
 21 C        6.5230     7.1730     1.9740 C.ar  1 <1>  -0.1500 
 22 H        3.1560     0.7230     0.7840 H     1 <1>   0.4000 
 23 H       -1.4040    -2.5020     0.8190 H     1 <1>   0.1500 
 24 H       -2.0380    -0.2120    -1.6740 H     1 <1>   0.0800 
 25 H       -2.4640     0.6160    -0.1960 H     1 <1>   0.0800 
 26 H       -2.8410    -1.0800    -0.3870 H     1 <1>   0.0800 
 27 H        1.4500     2.6480     0.1340 H     1 <1>   0.0800 
 28 H        1.8090     2.0330    -1.4660 H     1 <1>   0.0800 
 29 H        3.6630    -1.5290     0.8270 H     1 <1>   0.0800 
 30 H        2.9180    -2.7250     1.8510 H     1 <1>   0.0800 
 31 H        3.0990    -1.0870     2.4310 H     1 <1>   0.0800 
 32 H        4.2310     2.3300    -1.0300 H     1 <1>   0.0800 
 33 H        3.8590     2.9700     0.5620 H     1 <1>   0.0800 
 34 H        2.5960     4.8340    -0.5200 H     1 <1>   0.0800 
 35 H        3.0450     4.2070    -2.0860 H     1 <1>   0.0800 
 36 H        5.3990     4.6580    -2.9440 H     1 <1>   0.1500 
 37 H        3.5990     5.4950     1.6330 H     1 <1>   0.1500 
 38 H        7.4960     6.1060    -2.0930 H     1 <1>   0.1500 
 39 H        8.0200     7.3750     0.4550 H     1 <1>   0.1500 
 40 H        4.8730     6.8110     3.2870 H     1 <1>   0.1500 
 41 H        7.0610     7.7440     2.7110 H     1 <1>   0.1500 
@<TRIPOS>BOND
  1   1   2  ar  
  2   1   3  ar  
  3   2   4  1   
  4   2   5  ar  
  5   3   6  ar  
  6   3   7  1   
  7   4   8  1   
  8   4  22  1   
  9   5   9  ar  
 10   5  10  1   
 11   6   9  ar  
 12   6  23  1   
 13   7  24  1   
 14   7  25  1   
 15   7  26  1   
 16   8  11  1   
 17   8  27  1   
 18   8  28  1   
 19  10  29  1   
 20  10  30  1   
 21  10  31  1   
 22  11  12  1   
 23  11  32  1   
 24  11  33  1   
 25  12  13  1   
 26  12  34  1   
 27  12  35  1   
 28  13  14  1   
 29  13  15  1   
 30  14  16  ar  
 31  14  17  ar  
 32  15  18  2   
 33  15  36  1   
 34  16  18  1   
 35  16  19  ar  
 36  17  20  ar  
 37  17  37  1   
 38  18  38  1   
 39  19  21  ar  
 40  19  39  1   
 41  20  21  ar  
 42  20  40  1   
 43  21  41  1   
@<TRIPOS>SUBSTRUCTURE
  1 ****  11 GROUP 4 **** **** 0

# MOE 2024.06 (io_trps.svl 2023.06)
