@<TRIPOS>MOLECULE
NONAME
49 52 1 0 0 
SMALL
USER_CHARGES


@<TRIPOS>ATOM
  1 O       -0.6090    -0.3070    -1.9640 O.2   1 <1>  -0.5700 
  2 C       -1.4420     0.4530    -1.5050 C.2   1 <1>   0.5440 
  3 N       -2.5590    -0.0780    -0.9050 N.am  1 <1>  -0.6600 
  4 C       -1.2550     1.8830    -1.6110 C.ar  1 <1>   0.0860 
  5 C       -3.7100     0.6940    -0.3930 C.3   1 <1>   0.1400 
  6 C       -2.7850    -1.5290    -0.7520 C.3   1 <1>   0.1400 
  7 C       -0.9400     2.6710    -0.4670 C.ar  1 <1>   0.0000 
  8 C       -1.3970     2.5000    -2.8350 C.ar  1 <1>  -0.1500 
  9 C       -4.4510    -0.2810     0.5300 C.3   1 <1>  -0.0800 
 10 C       -4.1480    -1.6710    -0.0640 C.3   1 <1>  -0.0800 
 11 C       -0.8280     4.0740    -0.6080 C.ar  1 <1>   0.0000 
 12 C       -0.7270     2.1200     0.8170 C.ar  1 <1>  -0.1500 
 13 C       -1.2690     3.8820    -2.9750 C.ar  1 <1>  -0.1500 
 14 C       -5.9600     0.0190     0.7790 C.3   1 <1>   0.2800 
 15 C       -5.2550    -2.1060    -1.0370 C.3   1 <1>  -0.1600 
 16 C       -0.9960     4.6510    -1.8800 C.ar  1 <1>  -0.1500 
 17 C       -0.5460     4.8580     0.5290 C.ar  1 <1>  -0.1500 
 18 C       -0.4500     2.9040     1.9030 C.ar  1 <1>  -0.1500 
 19 O       -6.4990     0.6990    -0.2980 O.3   1 <1>  -0.6800 
 20 C       -6.7490    -1.2980     0.9030 C.3   1 <1>  -0.1600 
 21 C       -6.1970     0.8960     2.0290 C.3   1 <1>  -0.1600 
 22 C       -6.6200    -2.2150    -0.3340 C.3   1 <1>  -0.1600 
 23 C       -0.3620     4.2910     1.7580 C.ar  1 <1>  -0.1500 
 24 C       -5.5260     2.2810     2.0090 C.3   1 <1>  -0.2400 
 25 H       -3.3940     1.5750     0.1350 H     1 <1>   0.0800 
 26 H       -4.3160     0.9830    -1.2340 H     1 <1>   0.0800 
 27 H       -2.7650    -2.0120    -1.7140 H     1 <1>   0.0800 
 28 H       -2.0040    -1.9390    -0.1350 H     1 <1>   0.0800 
 29 H       -1.6150     1.9050    -3.7040 H     1 <1>   0.1500 
 30 H       -3.9480    -0.2520     1.4810 H     1 <1>   0.0800 
 31 H       -4.0740    -2.4080     0.7170 H     1 <1>   0.0800 
 32 H       -0.7830     1.0520     0.9420 H     1 <1>   0.1500 
 33 H       -1.3900     4.3260    -3.9490 H     1 <1>   0.1500 
 34 H       -5.3260    -1.3740    -1.8250 H     1 <1>   0.0800 
 35 H       -5.0060    -3.0490    -1.4920 H     1 <1>   0.0800 
 36 H       -0.9000     5.7180    -1.9780 H     1 <1>   0.1500 
 37 H       -0.4740     5.9250     0.4100 H     1 <1>   0.1500 
 38 H       -0.2940     2.4670     2.8740 H     1 <1>   0.1500 
 39 H       -7.4550     0.8170    -0.1580 H     1 <1>   0.4000 
 40 H       -6.3660    -1.8310     1.7560 H     1 <1>   0.0800 
 41 H       -7.7870    -1.1010     1.1010 H     1 <1>   0.0800 
 42 H       -7.2560     1.0330     2.1620 H     1 <1>   0.0800 
 43 H       -5.8430     0.3640     2.8940 H     1 <1>   0.0800 
 44 H       -6.7870    -3.2330    -0.0260 H     1 <1>   0.0800 
 45 H       -7.3880    -1.9640    -1.0460 H     1 <1>   0.0800 
 46 H       -0.1460     4.8960     2.6220 H     1 <1>   0.1500 
 47 H       -5.8010     2.8280     1.1250 H     1 <1>   0.0800 
 48 H       -4.4550     2.1900     2.0430 H     1 <1>   0.0800 
 49 H       -5.8370     2.8490     2.8680 H     1 <1>   0.0800 
@<TRIPOS>BOND
  1   1   2  2   
  2   2   3  am  
  3   2   4  1   
  4   3   5  1   
  5   3   6  1   
  6   4   7  ar  
  7   4   8  ar  
  8   5   9  1   
  9   5  25  1   
 10   5  26  1   
 11   6  10  1   
 12   6  27  1   
 13   6  28  1   
 14   7  11  ar  
 15   7  12  ar  
 16   8  13  ar  
 17   8  29  1   
 18   9  10  1   
 19   9  14  1   
 20   9  30  1   
 21  10  15  1   
 22  10  31  1   
 23  11  16  ar  
 24  11  17  ar  
 25  12  18  ar  
 26  12  32  1   
 27  13  16  ar  
 28  13  33  1   
 29  14  19  1   
 30  14  20  1   
 31  14  21  1   
 32  15  22  1   
 33  15  34  1   
 34  15  35  1   
 35  16  36  1   
 36  17  23  ar  
 37  17  37  1   
 38  18  23  ar  
 39  18  38  1   
 40  19  39  1   
 41  20  22  1   
 42  20  40  1   
 43  20  41  1   
 44  21  24  1   
 45  21  42  1   
 46  21  43  1   
 47  22  44  1   
 48  22  45  1   
 49  23  46  1   
 50  24  47  1   
 51  24  48  1   
 52  24  49  1   
@<TRIPOS>SUBSTRUCTURE
  1 ****   5 GROUP 4 **** **** 0

# MOE 2024.06 (io_trps.svl 2023.06)
