@<TRIPOS>MOLECULE
NONAME
51 53 1 0 0 
SMALL
USER_CHARGES


@<TRIPOS>ATOM
  1 O        0.8530     1.2260    -1.5530 O.3   1 <1>  -0.0190 
  2 N        1.6330     0.2310    -1.8530 N.2   1 <1>  -0.4100 
  3 C        1.0780     1.6730    -0.3460 C.2   1 <1>  -0.0400 
  4 C        2.3610     0.0200    -0.8150 C.2   1 <1>   0.1080 
  5 C        2.0510     0.9270     0.1960 C.2   1 <1>  -0.1500 
  6 C        0.2920     2.8580     0.1810 C.3   1 <1>   0.0200 
  7 C        3.4080    -1.0680    -0.7170 C.3   1 <1>  -0.0590 
  8 C        0.3010     4.0080    -0.8440 C.3   1 <1>  -0.0800 
  9 C       -0.3010     5.3270    -0.3600 C.3   1 <1>   0.2000 
 10 C        1.7070     4.3770    -1.3270 C.3   1 <1>   0.3430 
 11 O        0.1900     5.6010     0.9230 O.3   1 <1>  -0.5600 
 12 C        0.3040     6.3300    -1.3440 C.3   1 <1>   0.3430 
 13 N        1.6950     5.8440    -1.5830 N.4   1 <1>  -0.9590 
 14 C       -0.6240     6.4260     1.7000 C.3   1 <1>   0.0400 
 15 C        2.6540     6.5630    -0.7000 C.3   1 <1>   0.5230 
 16 C        2.8210     7.9870    -1.2160 C.2   1 <1>   0.0070 
 17 N        2.5070     8.3470    -2.4260 N.2   1 <1>  -0.5650 
 18 N        3.3160     8.9960    -0.4560 N.pl3 1 <1>   0.0480 
 19 C        2.8170     9.6560    -2.4610 C.2   1 <1>   0.0770 
 20 C        3.3070    10.0660    -1.2720 C.2   1 <1>  -0.3020 
 21 C        3.7490     9.0120     0.9630 C.3   1 <1>   0.0960 
 22 C        5.1000     8.3180     1.1610 C.3   1 <1>   0.1200 
 23 O        4.9660     6.9540     0.9010 O.3   1 <1>  -0.5600 
 24 C        6.1550     6.2420     1.0590 C.3   1 <1>   0.0400 
 25 H        2.5090     0.9790     1.1670 H     1 <1>   0.1500 
 26 H       -0.7220     2.5520     0.3720 H     1 <1>   0.0800 
 27 H        0.7270     3.1670     1.1150 H     1 <1>   0.0800 
 28 H        3.1540    -1.7470     0.0760 H     1 <1>   0.0800 
 29 H        4.3710    -0.6350    -0.5190 H     1 <1>   0.0800 
 30 H        3.4550    -1.6160    -1.6400 H     1 <1>   0.0800 
 31 H       -0.2550     3.6870    -1.7090 H     1 <1>   0.0800 
 32 H       -1.3790     5.3180    -0.3580 H     1 <1>   0.0800 
 33 H        1.9560     3.8240    -2.2200 H     1 <1>   0.0800 
 34 H        2.4260     4.1410    -0.5590 H     1 <1>   0.0800 
 35 H        0.2830     7.3360    -0.9590 H     1 <1>   0.0800 
 36 H       -0.2470     6.2960    -2.2690 H     1 <1>   0.0800 
 37 H        1.9840     6.1190    -2.5370 H     1 <1>   0.4500 
 38 H       -0.1400     6.5790     2.6490 H     1 <1>   0.0800 
 39 H       -1.5740     5.9440     1.8590 H     1 <1>   0.0800 
 40 H       -0.7590     7.3740     1.2070 H     1 <1>   0.0800 
 41 H        2.3010     6.5690     0.3180 H     1 <1>   0.0800 
 42 H        3.6130     6.0740    -0.7280 H     1 <1>   0.0800 
 43 H        2.6700    10.2460    -3.3520 H     1 <1>   0.1500 
 44 H        3.6410    11.0450    -0.9790 H     1 <1>   0.1500 
 45 H        3.8340    10.0360     1.2780 H     1 <1>   0.0800 
 46 H        3.0020     8.5390     1.5740 H     1 <1>   0.0800 
 47 H        5.4260     8.4380     2.1800 H     1 <1>   0.0800 
 48 H        5.8390     8.7360     0.4970 H     1 <1>   0.0800 
 49 H        5.9610     5.2060     0.8470 H     1 <1>   0.0800 
 50 H        6.5010     6.3430     2.0740 H     1 <1>   0.0800 
 51 H        6.8920     6.6200     0.3710 H     1 <1>   0.0800 
@<TRIPOS>BOND
  1   1   2  1   
  2   1   3  1   
  3   2   4  2   
  4   3   5  2   
  5   3   6  1   
  6   4   5  1   
  7   4   7  1   
  8   5  25  1   
  9   6   8  1   
 10   6  26  1   
 11   6  27  1   
 12   7  28  1   
 13   7  29  1   
 14   7  30  1   
 15   8   9  1   
 16   8  10  1   
 17   8  31  1   
 18   9  11  1   
 19   9  12  1   
 20   9  32  1   
 21  10  13  1   
 22  10  33  1   
 23  10  34  1   
 24  11  14  1   
 25  12  13  1   
 26  12  35  1   
 27  12  36  1   
 28  13  15  1   
 29  13  37  1   
 30  14  38  1   
 31  14  39  1   
 32  14  40  1   
 33  15  16  1   
 34  15  41  1   
 35  15  42  1   
 36  16  17  2   
 37  16  18  1   
 38  17  19  1   
 39  18  20  1   
 40  18  21  1   
 41  19  20  2   
 42  19  43  1   
 43  20  44  1   
 44  21  22  1   
 45  21  45  1   
 46  21  46  1   
 47  22  23  1   
 48  22  47  1   
 49  22  48  1   
 50  23  24  1   
 51  24  49  1   
 52  24  50  1   
 53  24  51  1   
@<TRIPOS>SUBSTRUCTURE
  1 ****  10 GROUP 4 **** **** 0

# MOE 2024.06 (io_trps.svl 2023.06)
