@<TRIPOS>MOLECULE
NONAME
43 44 1 0 0 
SMALL
USER_CHARGES


@<TRIPOS>ATOM
  1 S       -1.1400    -0.5530    -1.8480 S.3   1 <1>  -0.0800 
  2 C       -0.5580     0.7170    -0.8020 C.2   1 <1>   0.1980 
  3 C       -1.4270    -1.5400    -0.4420 C.2   1 <1>  -0.1400 
  4 N       -0.5770     0.4330     0.4410 N.2   1 <1>  -0.5650 
  5 C       -0.0950     2.0100    -1.4580 C.3   1 <1>   0.5230 
  6 C       -1.0700    -0.8450     0.6520 C.2   1 <1>   0.0460 
  7 C       -1.9970    -2.9240    -0.6890 C.3   1 <1>  -0.0600 
  8 N        0.6040     2.8600    -0.4430 N.4   1 <1>  -0.9590 
  9 C       -1.1480    -1.3020     2.0950 C.3   1 <1>  -0.0590 
 10 C        0.6110     4.3130    -0.8160 C.3   1 <1>   0.3430 
 11 C        1.9660     2.3320    -0.1450 C.3   1 <1>   0.3430 
 12 C        1.2790     5.1920     0.2550 C.3   1 <1>   0.2000 
 13 C        2.5970     3.1520     0.9820 C.3   1 <1>  -0.1600 
 14 O        1.4220     6.4540    -0.3090 O.3   1 <1>  -0.5600 
 15 C        2.6640     4.6500     0.6430 C.3   1 <1>  -0.1600 
 16 C        1.5860     7.5100     0.5870 C.3   1 <1>   0.1200 
 17 C        1.6480     8.8020    -0.2250 C.3   1 <1>  -0.1600 
 18 C        1.8240    10.0230     0.6840 C.3   1 <1>  -0.2400 
 19 H       -0.9620     2.5240    -1.8380 H     1 <1>   0.0800 
 20 H        0.5630     1.7880    -2.2800 H     1 <1>   0.0800 
 21 H       -1.3270    -3.4920    -1.3100 H     1 <1>   0.0800 
 22 H       -2.9470    -2.8460    -1.1880 H     1 <1>   0.0800 
 23 H       -2.1390    -3.4530     0.2350 H     1 <1>   0.0800 
 24 H        0.0530     2.7190     0.4200 H     1 <1>   0.4500 
 25 H       -1.5400    -2.2990     2.1640 H     1 <1>   0.0800 
 26 H       -1.7880    -0.6410     2.6500 H     1 <1>   0.0800 
 27 H       -0.1670    -1.2860     2.5330 H     1 <1>   0.0800 
 28 H       -0.3980     4.6610    -0.9650 H     1 <1>   0.0800 
 29 H        1.1560     4.4410    -1.7370 H     1 <1>   0.0800 
 30 H        2.5860     2.3940    -1.0250 H     1 <1>   0.0800 
 31 H        1.9030     1.2970     0.1580 H     1 <1>   0.0800 
 32 H        0.6320     5.2640     1.1130 H     1 <1>   0.0800 
 33 H        3.5940     2.7860     1.1620 H     1 <1>   0.0800 
 34 H        2.0350     3.0020     1.8890 H     1 <1>   0.0800 
 35 H        3.0440     5.1850     1.4960 H     1 <1>   0.0800 
 36 H        3.3440     4.7960    -0.1800 H     1 <1>   0.0800 
 37 H        2.5010     7.3720     1.1370 H     1 <1>   0.0800 
 38 H        0.7480     7.5320     1.2630 H     1 <1>   0.0800 
 39 H        0.7380     8.9110    -0.7900 H     1 <1>   0.0800 
 40 H        2.4750     8.7500    -0.9110 H     1 <1>   0.0800 
 41 H        0.9990    10.1080     1.3690 H     1 <1>   0.0800 
 42 H        1.8660    10.9190     0.0890 H     1 <1>   0.0800 
 43 H        2.7380     9.9470     1.2470 H     1 <1>   0.0800 
@<TRIPOS>BOND
  1   1   2  1   
  2   1   3  1   
  3   2   4  2   
  4   2   5  1   
  5   3   6  2   
  6   3   7  1   
  7   4   6  1   
  8   5   8  1   
  9   5  19  1   
 10   5  20  1   
 11   6   9  1   
 12   7  21  1   
 13   7  22  1   
 14   7  23  1   
 15   8  10  1   
 16   8  11  1   
 17   8  24  1   
 18   9  25  1   
 19   9  26  1   
 20   9  27  1   
 21  10  12  1   
 22  10  28  1   
 23  10  29  1   
 24  11  13  1   
 25  11  30  1   
 26  11  31  1   
 27  12  14  1   
 28  12  15  1   
 29  12  32  1   
 30  13  15  1   
 31  13  33  1   
 32  13  34  1   
 33  14  16  1   
 34  15  35  1   
 35  15  36  1   
 36  16  17  1   
 37  16  37  1   
 38  16  38  1   
 39  17  18  1   
 40  17  39  1   
 41  17  40  1   
 42  18  41  1   
 43  18  42  1   
 44  18  43  1   
@<TRIPOS>SUBSTRUCTURE
  1 ****   8 GROUP 4 **** **** 0

# MOE 2024.06 (io_trps.svl 2023.06)
