@<TRIPOS>MOLECULE
NONAME
44 47 1 0 0 
SMALL
USER_CHARGES


@<TRIPOS>ATOM
  1 S       -0.7820    -1.0530    -1.0360 S.3   1 <1>  -0.2420 
  2 C       -2.0730    -1.5450     0.0620 C.2   1 <1>   0.6510 
  3 C       -1.2270     0.6570    -0.8830 C.2   1 <1>  -0.0490 
  4 N       -2.2970    -2.7800     0.3830 N.2   1 <1>  -0.6210 
  5 N       -2.7600    -0.4360     0.4780 N.am  1 <1>  -0.2290 
  6 C       -2.2750     0.7780    -0.0570 C.2   1 <1>  -0.0410 
  7 C       -3.3390    -2.9890     1.2480 C.2   1 <1>   0.0330 
  8 C       -3.8190    -0.6270     1.3310 C.2   1 <1>   0.6160 
  9 C       -4.0960    -1.9630     1.7180 C.2   1 <1>  -0.1360 
 10 C       -3.5980    -4.4430     1.6400 C.3   1 <1>   0.4810 
 11 O       -4.4860     0.3150     1.7250 O.2   1 <1>  -0.5700 
 12 N       -3.5460    -5.2840     0.4120 N.4   1 <1>  -0.9590 
 13 C       -4.7550    -5.0890    -0.4350 C.3   1 <1>   0.3430 
 14 C       -3.4870    -6.7370     0.7450 C.3   1 <1>   0.3430 
 15 C       -5.7420    -6.1650     0.0230 C.3   1 <1>   0.2000 
 16 C       -4.8450    -7.3550     0.3640 C.3   1 <1>  -0.0800 
 17 O       -6.3590    -5.7320     1.1930 O.3   1 <1>  -0.6800 
 18 C       -4.7040    -8.3220    -0.8280 C.3   1 <1>   0.0210 
 19 C       -3.8830    -9.5410    -0.4560 C.2   1 <1>   0.1080 
 20 N       -2.6460    -9.4680    -0.0720 N.2   1 <1>  -0.7070 
 21 C       -4.3490   -10.8510    -0.4840 C.2   1 <1>  -0.1500 
 22 N       -2.2820   -10.7490     0.1490 N.pl3 1 <1>   0.3000 
 23 C       -3.2990   -11.6020    -0.0900 C.2   1 <1>  -0.3320 
 24 C       -3.2030   -13.1080     0.0710 C.3   1 <1>  -0.0600 
 25 H       -0.6410     1.3710    -1.4380 H     1 <1>   0.1500 
 26 H       -2.7690     1.6940     0.2300 H     1 <1>   0.1500 
 27 H       -4.9220    -2.0970     2.3920 H     1 <1>   0.1500 
 28 H       -4.5520    -4.5400     2.1310 H     1 <1>   0.0800 
 29 H       -2.8250    -4.7550     2.3220 H     1 <1>   0.0800 
 30 H       -2.7010    -4.9610    -0.0890 H     1 <1>   0.4500 
 31 H       -5.1730    -4.1010    -0.3350 H     1 <1>   0.0800 
 32 H       -4.4990    -5.2620    -1.4670 H     1 <1>   0.0800 
 33 H       -2.6920    -7.2020     0.1850 H     1 <1>   0.0800 
 34 H       -3.2930    -6.8830     1.7950 H     1 <1>   0.0800 
 35 H       -6.5020    -6.3730    -0.7120 H     1 <1>   0.0800 
 36 H       -5.2390    -7.9140     1.1950 H     1 <1>   0.0800 
 37 H       -7.0910    -6.3340     1.4490 H     1 <1>   0.4000 
 38 H       -4.2310    -7.8350    -1.6620 H     1 <1>   0.0800 
 39 H       -5.6780    -8.6520    -1.1460 H     1 <1>   0.0800 
 40 H       -5.3350   -11.1760    -0.7650 H     1 <1>   0.1500 
 41 H       -1.3370   -11.0110     0.4570 H     1 <1>   0.2700 
 42 H       -4.1430   -13.5680    -0.1800 H     1 <1>   0.0800 
 43 H       -2.9610   -13.3610     1.0890 H     1 <1>   0.0800 
 44 H       -2.4440   -13.5050    -0.5790 H     1 <1>   0.0800 
@<TRIPOS>BOND
  1   1   2  1   
  2   1   3  1   
  3   2   4  2   
  4   2   5  1   
  5   3   6  2   
  6   3  25  1   
  7   4   7  1   
  8   5   6  1   
  9   5   8  am  
 10   6  26  1   
 11   7   9  2   
 12   7  10  1   
 13   8   9  1   
 14   8  11  2   
 15   9  27  1   
 16  10  12  1   
 17  10  28  1   
 18  10  29  1   
 19  12  13  1   
 20  12  14  1   
 21  12  30  1   
 22  13  15  1   
 23  13  31  1   
 24  13  32  1   
 25  14  16  1   
 26  14  33  1   
 27  14  34  1   
 28  15  16  1   
 29  15  17  1   
 30  15  35  1   
 31  16  18  1   
 32  16  36  1   
 33  17  37  1   
 34  18  19  1   
 35  18  38  1   
 36  18  39  1   
 37  19  20  2   
 38  19  21  1   
 39  20  22  1   
 40  21  23  2   
 41  21  40  1   
 42  22  23  1   
 43  22  41  1   
 44  23  24  1   
 45  24  42  1   
 46  24  43  1   
 47  24  44  1   
@<TRIPOS>SUBSTRUCTURE
  1 ****  12 GROUP 4 **** **** 0

# MOE 2024.06 (io_trps.svl 2023.06)
