@<TRIPOS>MOLECULE
NONAME
58 61 1 0 0 
SMALL
USER_CHARGES


@<TRIPOS>ATOM
  1 O       -1.5560     0.1530    -1.6720 O.2   1 <1>  -0.5700 
  2 C       -1.6690     0.4770    -0.5160 C.2   1 <1>   0.5690 
  3 N       -1.8070    -0.4360     0.4730 N.am  1 <1>  -0.7300 
  4 C       -1.6700     1.9450    -0.1570 C.3   1 <1>  -0.0990 
  5 C       -1.8100    -1.9060     0.2810 C.3   1 <1>   0.2200 
  6 C       -0.2420     2.4840    -0.0330 C.3   1 <1>  -0.0160 
  7 C       -3.2220    -2.4760     0.3600 C.3   1 <1>  -0.0800 
  8 C       -1.1840    -2.5540     1.5080 C.3   1 <1>   0.1200 
  9 C       -0.2680     3.9570     0.3400 C.ar  1 <1>  -0.1440 
 10 C       -3.4470    -2.6040     1.8730 C.3   1 <1>   0.1200 
 11 C       -4.3010    -1.6590    -0.3830 C.3   1 <1>  -0.0160 
 12 O       -2.1870    -2.5280     2.4770 O.3   1 <1>  -0.5600 
 13 C       -0.3650     4.9250    -0.6460 C.ar  1 <1>  -0.1500 
 14 C       -0.2030     4.3440     1.6680 C.ar  1 <1>  -0.1500 
 15 C       -5.7130    -2.2540    -0.4210 C.ar  1 <1>  -0.1440 
 16 C       -0.3980     6.2770    -0.3140 C.ar  1 <1>   0.0820 
 17 C       -0.2350     5.6860     2.0060 C.ar  1 <1>  -0.1500 
 18 C       -6.7860    -1.4740    -0.9210 C.ar  1 <1>   0.0000 
 19 C       -6.0140    -3.5200    -0.0010 C.ar  1 <1>  -0.1500 
 20 O       -0.4930     7.2640    -1.2460 O.3   1 <1>  -0.3630 
 21 C       -0.3330     6.6570     1.0240 C.ar  1 <1>  -0.1440 
 22 C       -8.0830    -2.0430    -0.9150 C.ar  1 <1>   0.3100 
 23 C       -6.6460    -0.1610    -1.4330 C.ar  1 <1>  -0.1500 
 24 C       -7.3320    -3.9910    -0.0480 C.ar  1 <1>   0.1600 
 25 C       -0.5250     6.9790    -2.6260 C.3   1 <1>   0.0400 
 26 C       -0.3670     8.1280     1.4140 C.3   1 <1>  -0.0970 
 27 N       -8.3390    -3.3000    -0.4750 N.ar  1 <1>  -0.6200 
 28 C       -9.1640    -1.2830    -1.3900 C.ar  1 <1>  -0.1500 
 29 C       -7.7210     0.5510    -1.8920 C.ar  1 <1>  -0.1500 
 30 C       -8.9980    -0.0130    -1.8680 C.ar  1 <1>  -0.1500 
 31 H       -1.9390    -0.1480     1.4450 H     1 <1>   0.3700 
 32 H       -2.1920     2.4850    -0.9260 H     1 <1>   0.0800 
 33 H       -2.1970     2.0920     0.7670 H     1 <1>   0.0800 
 34 H       -1.3020    -2.1730    -0.6310 H     1 <1>   0.0800 
 35 H        0.2750     2.3550    -0.9690 H     1 <1>   0.0800 
 36 H        0.2960     1.9270     0.7140 H     1 <1>   0.0800 
 37 H       -3.1880    -3.4640    -0.0620 H     1 <1>   0.0800 
 38 H       -0.3170    -2.0270     1.8640 H     1 <1>   0.0800 
 39 H       -0.9360    -3.5830     1.3140 H     1 <1>   0.0800 
 40 H       -3.9000    -3.5430     2.1390 H     1 <1>   0.0800 
 41 H       -4.0420    -1.7930     2.2570 H     1 <1>   0.0800 
 42 H       -3.9730    -1.5090    -1.3980 H     1 <1>   0.0800 
 43 H       -4.3670    -0.6920     0.0820 H     1 <1>   0.0800 
 44 H       -0.4160     4.6090    -1.6700 H     1 <1>   0.1500 
 45 H       -0.1260     3.6060     2.4470 H     1 <1>   0.1500 
 46 H       -0.1830     5.9680     3.0430 H     1 <1>   0.1500 
 47 H       -5.2750    -4.2010     0.3740 H     1 <1>   0.1500 
 48 H       -5.6750     0.2940    -1.4720 H     1 <1>   0.1500 
 49 H       -7.5190    -4.9930     0.2970 H     1 <1>   0.1500 
 50 H       -0.5850     7.9110    -3.1580 H     1 <1>   0.0800 
 51 H       -1.3930     6.3800    -2.8390 H     1 <1>   0.0800 
 52 H        0.3780     6.4610    -2.8960 H     1 <1>   0.0800 
 53 H       -0.3080     8.2510     2.4800 H     1 <1>   0.0800 
 54 H       -1.2800     8.5750     1.0650 H     1 <1>   0.0800 
 55 H        0.4620     8.6420     0.9620 H     1 <1>   0.0800 
 56 H      -10.1360    -1.7410    -1.3650 H     1 <1>   0.1500 
 57 H       -7.5980     1.5490    -2.2770 H     1 <1>   0.1500 
 58 H       -9.8360     0.5580    -2.2300 H     1 <1>   0.1500 
@<TRIPOS>BOND
  1   1   2  2   
  2   2   3  am  
  3   2   4  1   
  4   3   5  1   
  5   3  31  1   
  6   4   6  1   
  7   4  32  1   
  8   4  33  1   
  9   5   7  1   
 10   5   8  1   
 11   5  34  1   
 12   6   9  1   
 13   6  35  1   
 14   6  36  1   
 15   7  10  1   
 16   7  11  1   
 17   7  37  1   
 18   8  12  1   
 19   8  38  1   
 20   8  39  1   
 21   9  13  ar  
 22   9  14  ar  
 23  10  12  1   
 24  10  40  1   
 25  10  41  1   
 26  11  15  1   
 27  11  42  1   
 28  11  43  1   
 29  13  16  ar  
 30  13  44  1   
 31  14  17  ar  
 32  14  45  1   
 33  15  18  ar  
 34  15  19  ar  
 35  16  20  1   
 36  16  21  ar  
 37  17  21  ar  
 38  17  46  1   
 39  18  22  ar  
 40  18  23  ar  
 41  19  24  ar  
 42  19  47  1   
 43  20  25  1   
 44  21  26  1   
 45  22  27  ar  
 46  22  28  ar  
 47  23  29  ar  
 48  23  48  1   
 49  24  27  ar  
 50  24  49  1   
 51  25  50  1   
 52  25  51  1   
 53  25  52  1   
 54  26  53  1   
 55  26  54  1   
 56  26  55  1   
 57  28  30  ar  
 58  28  56  1   
 59  29  30  ar  
 60  29  57  1   
 61  30  58  1   
@<TRIPOS>SUBSTRUCTURE
  1 ****   2 GROUP 4 **** **** 0

# MOE 2024.06 (io_trps.svl 2023.06)
