@<TRIPOS>MOLECULE
NONAME
37 38 1 0 0 
SMALL
USER_CHARGES


@<TRIPOS>ATOM
  1 F       -1.3080    -0.5720    -0.5250 F     1 <1>  -0.1900 
  2 C       -1.9740     0.4770    -0.1170 C.ar  1 <1>   0.1900 
  3 C       -3.2880     0.6220    -0.5340 C.ar  1 <1>  -0.1440 
  4 C       -1.3440     1.3890     0.7160 C.ar  1 <1>  -0.1440 
  5 C       -3.9950     1.7340    -0.1020 C.ar  1 <1>  -0.1500 
  6 C       -3.9220    -0.4120    -1.4410 C.3   1 <1>   0.4870 
  7 C       -2.0730     2.4900     1.1380 C.ar  1 <1>  -0.1500 
  8 C        0.1010     1.2010     1.1550 C.3   1 <1>  -0.0960 
  9 C       -3.3870     2.6600     0.7310 C.ar  1 <1>  -0.1500 
 10 N       -4.7950    -1.2890    -0.6270 N.4   1 <1>  -0.9590 
 11 C       -3.9720    -2.1620     0.3030 C.3   1 <1>   0.3430 
 12 C       -5.7120    -2.1030    -1.4740 C.3   1 <1>   0.3430 
 13 C       -4.6550    -3.4900     0.6840 C.3   1 <1>   0.2000 
 14 C       -6.7590    -2.7790    -0.5840 C.3   1 <1>  -0.1600 
 15 O       -4.3710    -4.4240    -0.2980 O.3   1 <1>  -0.6800 
 16 C       -6.1770    -3.3170     0.7510 C.3   1 <1>  -0.1860 
 17 C       -6.8200    -4.6170     1.1740 C.2   1 <1>   0.9060 
 18 O       -7.5770    -4.6030     2.1420 O.co2 1 <1>  -0.9000 
 19 O       -6.5370    -5.6360     0.5320 O.co2 1 <1>  -0.9000 
 20 H       -5.0160     1.8980    -0.4060 H     1 <1>   0.1500 
 21 H       -3.1630    -0.9980    -1.9330 H     1 <1>   0.0800 
 22 H       -4.5050     0.0920    -2.1940 H     1 <1>   0.0800 
 23 H       -1.6220     3.2230     1.7850 H     1 <1>   0.1500 
 24 H        0.4140     1.9990     1.8040 H     1 <1>   0.0800 
 25 H        0.7470     1.1880     0.2960 H     1 <1>   0.0800 
 26 H        0.2090     0.2710     1.6830 H     1 <1>   0.0800 
 27 H       -3.9360     3.5260     1.0660 H     1 <1>   0.1500 
 28 H       -5.3850    -0.6980    -0.0320 H     1 <1>   0.4500 
 29 H       -3.0240    -2.4020    -0.1500 H     1 <1>   0.0800 
 30 H       -3.7710    -1.6080     1.2050 H     1 <1>   0.0800 
 31 H       -6.2050    -1.4890    -2.2100 H     1 <1>   0.0800 
 32 H       -5.1430    -2.8640    -1.9860 H     1 <1>   0.0800 
 33 H       -4.2680    -3.8720     1.6140 H     1 <1>   0.0800 
 34 H       -7.5690    -2.1030    -0.3750 H     1 <1>   0.0800 
 35 H       -7.1750    -3.6000    -1.1440 H     1 <1>   0.0800 
 36 H       -5.0380    -5.1680    -0.1650 H     1 <1>   0.4000 
 37 H       -6.3900    -2.6060     1.5270 H     1 <1>   0.0800 
@<TRIPOS>BOND
  1   1   2  1   
  2   2   3  ar  
  3   2   4  ar  
  4   3   5  ar  
  5   3   6  1   
  6   4   7  ar  
  7   4   8  1   
  8   5   9  ar  
  9   5  20  1   
 10   6  10  1   
 11   6  21  1   
 12   6  22  1   
 13   7   9  ar  
 14   7  23  1   
 15   8  24  1   
 16   8  25  1   
 17   8  26  1   
 18   9  27  1   
 19  10  11  1   
 20  10  12  1   
 21  10  28  1   
 22  11  13  1   
 23  11  29  1   
 24  11  30  1   
 25  12  14  1   
 26  12  31  1   
 27  12  32  1   
 28  13  15  1   
 29  13  16  1   
 30  13  33  1   
 31  14  16  1   
 32  14  34  1   
 33  14  35  1   
 34  15  36  1   
 35  16  17  1   
 36  16  37  1   
 37  17  18  ar  
 38  17  19  ar  
@<TRIPOS>SUBSTRUCTURE
  1 ****  11 GROUP 4 **** **** 0

# MOE 2024.06 (io_trps.svl 2023.06)
