@<TRIPOS>MOLECULE
NONAME
53 54 1 0 0 
SMALL
USER_CHARGES


@<TRIPOS>ATOM
  1 O        0.0060    -0.9290    -2.1130 O.2   1 <1>  -0.5700 
  2 C       -0.0540    -1.7860    -1.2560 C.2   1 <1>   0.5440 
  3 N       -1.2960    -2.0730    -0.7990 N.am  1 <1>  -0.8000 
  4 C        1.1340    -2.4160    -0.7300 C.ar  1 <1>   0.0860 
  5 C        1.1830    -3.7750    -0.3610 C.ar  1 <1>   0.4100 
  6 C        2.2900    -1.6660    -0.5680 C.ar  1 <1>  -0.1500 
  7 N        2.2580    -4.3450     0.1760 N.ar  1 <1>  -0.6200 
  8 N        0.1050    -4.6200    -0.5570 N.pl3 1 <1>  -0.8690 
  9 C        3.4100    -2.2610    -0.0290 C.ar  1 <1>  -0.1430 
 10 C        3.3330    -3.6010     0.3350 C.ar  1 <1>   0.1670 
 11 C        0.2040    -6.0930    -0.4390 C.3   1 <1>   0.2090 
 12 C        4.6770    -1.4340     0.1440 C.3   1 <1>  -0.0970 
 13 C        4.5230    -4.3170     0.9490 C.3   1 <1>  -0.0970 
 14 C       -1.1910    -6.6890    -0.2640 C.3   1 <1>  -0.1600 
 15 C       -1.0880    -8.2050    -0.0720 C.3   1 <1>   0.1100 
 16 N       -2.4210    -8.8280     0.0100 N.3   1 <1>  -0.8100 
 17 C       -2.3270   -10.2920    -0.2110 C.3   1 <1>   0.1100 
 18 C       -3.0960    -8.5500     1.3060 C.3   1 <1>   0.1100 
 19 C       -3.7110   -10.9870    -0.1810 C.3   1 <1>   0.3430 
 20 C       -4.4410    -9.3050     1.4580 C.3   1 <1>   0.3430 
 21 N       -4.8010   -10.0250     0.1940 N.4   1 <1>  -0.9590 
 22 C       -6.1650   -10.6070     0.2240 C.3   1 <1>   0.3430 
 23 C       -6.5990   -10.9740    -1.1900 C.3   1 <1>  -0.2400 
 24 H       -2.0870    -1.5180    -1.1270 H     1 <1>   0.3700 
 25 H       -1.4470    -2.6830     0.0080 H     1 <1>   0.3700 
 26 H        2.2950    -0.6300    -0.8620 H     1 <1>   0.1500 
 27 H       -0.5770    -4.3020    -1.2520 H     1 <1>   0.4000 
 28 H        0.8090    -6.3500     0.4150 H     1 <1>   0.0800 
 29 H        0.6770    -6.4880    -1.3230 H     1 <1>   0.0800 
 30 H        4.5790    -0.4750    -0.3320 H     1 <1>   0.0800 
 31 H        5.5170    -1.9420    -0.2970 H     1 <1>   0.0800 
 32 H        4.8730    -1.2740     1.1900 H     1 <1>   0.0800 
 33 H        4.2020    -5.2220     1.4340 H     1 <1>   0.0800 
 34 H        5.0040    -3.6980     1.6820 H     1 <1>   0.0800 
 35 H        5.2250    -4.5730     0.1780 H     1 <1>   0.0800 
 36 H       -1.7800    -6.4800    -1.1390 H     1 <1>   0.0800 
 37 H       -1.6440    -6.2350     0.5970 H     1 <1>   0.0800 
 38 H       -0.5150    -8.4310     0.8140 H     1 <1>   0.0800 
 39 H       -0.5610    -8.6130    -0.9200 H     1 <1>   0.0800 
 40 H       -1.6950   -10.7340     0.5400 H     1 <1>   0.0800 
 41 H       -1.8710   -10.4820    -1.1680 H     1 <1>   0.0800 
 42 H       -3.2930    -7.4960     1.3880 H     1 <1>   0.0800 
 43 H       -2.4500    -8.8210     2.1240 H     1 <1>   0.0800 
 44 H       -3.6810   -11.8050     0.5200 H     1 <1>   0.0800 
 45 H       -3.9080   -11.4000    -1.1560 H     1 <1>   0.0800 
 46 H       -5.2110    -8.5960     1.7130 H     1 <1>   0.0800 
 47 H       -4.3610   -10.0090     2.2700 H     1 <1>   0.0800 
 48 H       -4.7440    -9.2930    -0.5310 H     1 <1>   0.4500 
 49 H       -6.8570    -9.8830     0.6240 H     1 <1>   0.0800 
 50 H       -6.1840   -11.4800     0.8580 H     1 <1>   0.0800 
 51 H       -6.5510   -10.1180    -1.8390 H     1 <1>   0.0800 
 52 H       -7.6190   -11.3150    -1.1660 H     1 <1>   0.0800 
 53 H       -5.9990   -11.7700    -1.5920 H     1 <1>   0.0800 
@<TRIPOS>BOND
  1   1   2  2   
  2   2   3  am  
  3   2   4  1   
  4   3  24  1   
  5   3  25  1   
  6   4   5  ar  
  7   4   6  ar  
  8   5   7  ar  
  9   5   8  1   
 10   6   9  ar  
 11   6  26  1   
 12   7  10  ar  
 13   8  11  1   
 14   8  27  1   
 15   9  10  ar  
 16   9  12  1   
 17  10  13  1   
 18  11  14  1   
 19  11  28  1   
 20  11  29  1   
 21  12  30  1   
 22  12  31  1   
 23  12  32  1   
 24  13  33  1   
 25  13  34  1   
 26  13  35  1   
 27  14  15  1   
 28  14  36  1   
 29  14  37  1   
 30  15  16  1   
 31  15  38  1   
 32  15  39  1   
 33  16  17  1   
 34  16  18  1   
 35  17  19  1   
 36  17  40  1   
 37  17  41  1   
 38  18  20  1   
 39  18  42  1   
 40  18  43  1   
 41  19  21  1   
 42  19  44  1   
 43  19  45  1   
 44  20  21  1   
 45  20  46  1   
 46  20  47  1   
 47  21  22  1   
 48  21  48  1   
 49  22  23  1   
 50  22  49  1   
 51  22  50  1   
 52  23  51  1   
 53  23  52  1   
 54  23  53  1   
@<TRIPOS>SUBSTRUCTURE
  1 ****  11 GROUP 4 **** **** 0

# MOE 2024.06 (io_trps.svl 2023.06)
