@<TRIPOS>MOLECULE
NONAME
51 53 1 0 0 
SMALL
USER_CHARGES


@<TRIPOS>ATOM
  1 S        1.4660    -0.1180    -0.8180 S.o2  1 <1>   1.3330 
  2 O        1.4160     1.3240    -0.8530 O.2   1 <1>  -0.6500 
  3 O        2.0700    -0.8620    -1.8960 O.2   1 <1>  -0.6500 
  4 N       -0.1670    -0.6710    -0.6090 N.am  1 <1>  -0.6930 
  5 C        2.2110    -0.6010     0.7230 C.3   1 <1>  -0.1350 
  6 C       -0.4940    -2.0020    -0.3890 C.ar  1 <1>   0.1990 
  7 C       -1.2330     0.3590    -0.6530 C.3   1 <1>   0.1160 
  8 C       -1.2590    -2.3630     0.7160 C.ar  1 <1>  -0.1500 
  9 C       -0.0700    -3.0140    -1.2450 C.ar  1 <1>  -0.1500 
 10 C       -1.5840    -3.6840     0.9560 C.ar  1 <1>  -0.1500 
 11 C       -0.3930    -4.3340    -1.0010 C.ar  1 <1>  -0.1500 
 12 C       -1.1650    -4.7030     0.1000 C.ar  1 <1>   0.0860 
 13 C       -1.5130    -6.0870     0.3410 C.2   1 <1>   0.5440 
 14 O       -0.6220    -6.9090     0.4480 O.2   1 <1>  -0.5700 
 15 N       -2.8260    -6.5070     0.4500 N.am  1 <1>  -0.6600 
 16 C       -3.9550    -5.7110    -0.1190 C.3   1 <1>   0.2200 
 17 C       -3.1110    -7.8790     0.9740 C.3   1 <1>   0.0600 
 18 C       -4.8250    -6.4870    -1.1050 C.3   1 <1>  -0.1600 
 19 C       -4.9300    -5.2200     0.9460 C.3   1 <1>  -0.1600 
 20 C       -6.1290    -5.6830    -1.1710 C.3   1 <1>  -0.0800 
 21 C       -6.2350    -4.9410     0.1860 C.3   1 <1>  -0.0800 
 22 C       -7.3460    -6.5470    -1.5650 C.3   1 <1>   0.1400 
 23 C       -7.4930    -5.2960     1.0010 C.3   1 <1>  -0.0990 
 24 N       -8.5920    -5.9040    -1.1010 N.am  1 <1>  -0.7300 
 25 C       -8.7130    -5.3140     0.1070 C.2   1 <1>   0.5690 
 26 O       -9.7510    -4.8250     0.4690 O.2   1 <1>  -0.5700 
 27 H        1.6940    -0.1450     1.5440 H     1 <1>   0.0800 
 28 H        3.2380    -0.2920     0.7470 H     1 <1>   0.0800 
 29 H        2.1710    -1.6670     0.8360 H     1 <1>   0.0800 
 30 H       -2.2060    -0.1000    -0.6270 H     1 <1>   0.0800 
 31 H       -1.1450     0.9290    -1.5620 H     1 <1>   0.0800 
 32 H       -1.1310     1.0260     0.1860 H     1 <1>   0.0800 
 33 H       -1.5910    -1.6000     1.3950 H     1 <1>   0.1500 
 34 H        0.5150    -2.7640    -2.1120 H     1 <1>   0.1500 
 35 H       -2.1650    -3.9460     1.8230 H     1 <1>   0.1500 
 36 H       -0.0460    -5.1050    -1.6690 H     1 <1>   0.1500 
 37 H       -3.5730    -4.8510    -0.6430 H     1 <1>   0.0800 
 38 H       -4.0760    -7.9200     1.4430 H     1 <1>   0.0800 
 39 H       -2.3680    -8.1560     1.7030 H     1 <1>   0.0800 
 40 H       -3.0750    -8.5870     0.1650 H     1 <1>   0.0800 
 41 H       -4.3540    -6.5630    -2.0680 H     1 <1>   0.0800 
 42 H       -5.0360    -7.4710    -0.7300 H     1 <1>   0.0800 
 43 H       -5.0890    -5.9840     1.6840 H     1 <1>   0.0800 
 44 H       -4.5670    -4.3320     1.4310 H     1 <1>   0.0800 
 45 H       -6.0090    -4.9330    -1.9350 H     1 <1>   0.0800 
 46 H       -6.2820    -3.8870    -0.0340 H     1 <1>   0.0800 
 47 H       -7.2800    -7.5190    -1.1080 H     1 <1>   0.0800 
 48 H       -7.3760    -6.6750    -2.6340 H     1 <1>   0.0800 
 49 H       -7.6380    -4.5820     1.7920 H     1 <1>   0.0800 
 50 H       -7.3970    -6.2720     1.4390 H     1 <1>   0.0800 
 51 H       -9.4260    -5.9490    -1.6910 H     1 <1>   0.3700 
@<TRIPOS>BOND
  1   1   2  2   
  2   1   3  2   
  3   1   4  am  
  4   1   5  1   
  5   4   6  1   
  6   4   7  1   
  7   5  27  1   
  8   5  28  1   
  9   5  29  1   
 10   6   8  ar  
 11   6   9  ar  
 12   7  30  1   
 13   7  31  1   
 14   7  32  1   
 15   8  10  ar  
 16   8  33  1   
 17   9  11  ar  
 18   9  34  1   
 19  10  12  ar  
 20  10  35  1   
 21  11  12  ar  
 22  11  36  1   
 23  12  13  1   
 24  13  14  2   
 25  13  15  am  
 26  15  16  1   
 27  15  17  1   
 28  16  18  1   
 29  16  19  1   
 30  16  37  1   
 31  17  38  1   
 32  17  39  1   
 33  17  40  1   
 34  18  20  1   
 35  18  41  1   
 36  18  42  1   
 37  19  21  1   
 38  19  43  1   
 39  19  44  1   
 40  20  21  1   
 41  20  22  1   
 42  20  45  1   
 43  21  23  1   
 44  21  46  1   
 45  22  24  1   
 46  22  47  1   
 47  22  48  1   
 48  23  25  1   
 49  23  49  1   
 50  23  50  1   
 51  24  25  am  
 52  24  51  1   
 53  25  26  2   
@<TRIPOS>SUBSTRUCTURE
  1 ****  10 GROUP 4 **** **** 0

# MOE 2024.06 (io_trps.svl 2023.06)
