@<TRIPOS>MOLECULE
NONAME
46 49 1 0 0 
SMALL
USER_CHARGES


@<TRIPOS>ATOM
  1 O       -3.0810     0.1120    -2.6690 O.2   1 <1>  -0.5700 
  2 C       -2.9040    -0.5220    -1.6660 C.2   1 <1>   0.5690 
  3 N       -2.5320     0.0920    -0.5300 N.am  1 <1>  -0.7300 
  4 C       -3.1400    -2.0080    -1.6720 C.3   1 <1>  -0.0190 
  5 C       -2.2870    -0.5710     0.7710 C.3   1 <1>   0.2200 
  6 C       -1.8550    -2.7940    -1.3270 C.3   1 <1>   0.1200 
  7 C       -4.3820    -2.3070    -0.8210 C.3   1 <1>   0.3430 
  8 C       -1.1470    -1.6120     0.6380 C.3   1 <1>   0.1200 
  9 C       -3.6090    -1.1620     1.3390 C.3   1 <1>   0.3430 
 10 O       -1.5680    -2.8160     0.0480 O.3   1 <1>  -0.5600 
 11 N       -4.1000    -2.4110     0.6530 N.4   1 <1>  -0.9590 
 12 C       -5.1820    -3.1010     1.4050 C.3   1 <1>   0.4860 
 13 C       -5.3480    -4.4960     0.8280 C.ar  1 <1>  -0.1440 
 14 C       -6.4470    -4.7540    -0.0390 C.ar  1 <1>   0.0000 
 15 C       -4.4240    -5.4760     1.1190 C.ar  1 <1>  -0.1440 
 16 C       -6.5530    -6.0380    -0.6210 C.ar  1 <1>   0.0000 
 17 C       -7.4480    -3.8080    -0.3770 C.ar  1 <1>  -0.1500 
 18 C       -4.5590    -6.7420     0.5380 C.ar  1 <1>  -0.1500 
 19 C       -3.2170    -5.3020     2.0390 C.3   1 <1>  -0.0970 
 20 C       -5.5920    -7.0130    -0.3080 C.ar  1 <1>  -0.1500 
 21 C       -7.6130    -6.3190    -1.5060 C.ar  1 <1>  -0.1500 
 22 C       -8.4660    -4.1070    -1.2390 C.ar  1 <1>  -0.1500 
 23 C       -8.5510    -5.3770    -1.8130 C.ar  1 <1>  -0.1500 
 24 H       -2.3360     1.0970    -0.6070 H     1 <1>   0.3700 
 25 H       -3.3930    -2.2590    -2.6870 H     1 <1>   0.0800 
 26 H       -1.9510     0.1940     1.4510 H     1 <1>   0.0800 
 27 H       -1.0050    -2.3890    -1.8520 H     1 <1>   0.0800 
 28 H       -1.9740    -3.8190    -1.6340 H     1 <1>   0.0800 
 29 H       -4.7810    -3.2460    -1.1670 H     1 <1>   0.0800 
 30 H       -5.1300    -1.5520    -1.0030 H     1 <1>   0.0800 
 31 H       -0.7830    -1.8630     1.6190 H     1 <1>   0.0800 
 32 H       -0.3220    -1.2110     0.0730 H     1 <1>   0.0800 
 33 H       -4.3710    -0.4010     1.2990 H     1 <1>   0.0800 
 34 H       -3.4380    -1.3930     2.3770 H     1 <1>   0.0800 
 35 H       -3.2870    -3.0590     0.6760 H     1 <1>   0.4500 
 36 H       -4.9120    -3.1840     2.4440 H     1 <1>   0.0800 
 37 H       -6.0970    -2.5400     1.3530 H     1 <1>   0.0800 
 38 H       -7.4370    -2.8220     0.0410 H     1 <1>   0.1500 
 39 H       -3.8360    -7.5100     0.7640 H     1 <1>   0.1500 
 40 H       -3.1170    -6.1690     2.6700 H     1 <1>   0.0800 
 41 H       -3.2960    -4.4480     2.6820 H     1 <1>   0.0800 
 42 H       -2.3210    -5.2140     1.4500 H     1 <1>   0.0800 
 43 H       -5.6870    -7.9890    -0.7510 H     1 <1>   0.1500 
 44 H       -7.6730    -7.3010    -1.9400 H     1 <1>   0.1500 
 45 H       -9.2200    -3.3780    -1.4870 H     1 <1>   0.1500 
 46 H       -9.3590    -5.5970    -2.4890 H     1 <1>   0.1500 
@<TRIPOS>BOND
  1   1   2  2   
  2   2   3  am  
  3   2   4  1   
  4   3   5  1   
  5   3  24  1   
  6   4   6  1   
  7   4   7  1   
  8   4  25  1   
  9   5   8  1   
 10   5   9  1   
 11   5  26  1   
 12   6  10  1   
 13   6  27  1   
 14   6  28  1   
 15   7  11  1   
 16   7  29  1   
 17   7  30  1   
 18   8  10  1   
 19   8  31  1   
 20   8  32  1   
 21   9  11  1   
 22   9  33  1   
 23   9  34  1   
 24  11  12  1   
 25  11  35  1   
 26  12  13  1   
 27  12  36  1   
 28  12  37  1   
 29  13  14  ar  
 30  13  15  ar  
 31  14  16  ar  
 32  14  17  ar  
 33  15  18  ar  
 34  15  19  1   
 35  16  20  ar  
 36  16  21  ar  
 37  17  22  ar  
 38  17  38  1   
 39  18  20  ar  
 40  18  39  1   
 41  19  40  1   
 42  19  41  1   
 43  19  42  1   
 44  20  43  1   
 45  21  23  ar  
 46  21  44  1   
 47  22  23  ar  
 48  22  45  1   
 49  23  46  1   
@<TRIPOS>SUBSTRUCTURE
  1 ****   7 GROUP 4 **** **** 0

# MOE 2024.06 (io_trps.svl 2023.06)
