@<TRIPOS>MOLECULE
NONAME
44 47 1 0 0 
SMALL
USER_CHARGES


@<TRIPOS>ATOM
  1 O       -0.8130     0.8670    -1.3010 O.2   1 <1>  -0.5700 
  2 C       -0.6760     1.9320    -0.7440 C.2   1 <1>   0.5690 
  3 N       -1.7120     2.6020    -0.1470 N.am  1 <1>  -0.5090 
  4 C        0.7200     2.5560    -0.7510 C.3   1 <1>   0.1810 
  5 C       -1.5450     3.9980     0.3720 C.3   1 <1>   0.3640 
  6 C       -3.0580     2.0000     0.0250 C.3   1 <1>   0.0490 
  7 O        0.8640     3.6030     0.1760 O.3   1 <1>  -0.5600 
  8 C       -2.6130     4.9100    -0.2350 C.ar  1 <1>  -0.1440 
  9 C       -0.1430     4.5920     0.0870 C.3   1 <1>   0.2610 
 10 C       -3.6230     1.8830     1.4070 C.3   1 <1>  -0.2000 
 11 C       -3.1890     0.6570     0.6710 C.3   1 <1>  -0.2000 
 12 C       -3.3230     5.7800     0.5810 C.ar  1 <1>   0.1600 
 13 C       -2.8920     4.8990    -1.5900 C.ar  1 <1>  -0.1500 
 14 C        0.1710     5.7800     1.0140 C.2   1 <1>   0.5690 
 15 N       -4.2640     6.6120     0.1650 N.ar  1 <1>  -0.6200 
 16 C       -3.8690     5.7620    -2.0390 C.ar  1 <1>  -0.1500 
 17 O       -0.5000     5.9490     2.0090 O.2   1 <1>  -0.5700 
 18 N        1.1860     6.6470     0.7010 N.am  1 <1>  -0.6600 
 19 C       -4.5150     6.5840    -1.1330 C.ar  1 <1>   0.1600 
 20 C        1.5410     7.7980     1.5600 C.3   1 <1>   0.1400 
 21 C        2.1890     6.4540    -0.3700 C.3   1 <1>   0.1400 
 22 C        2.9630     8.1620     1.1530 C.3   1 <1>  -0.1600 
 23 C        3.0840     7.6860    -0.2920 C.3   1 <1>  -0.1600 
 24 H        0.9380     2.9360    -1.7330 H     1 <1>   0.0800 
 25 H        1.4440     1.8010    -0.5040 H     1 <1>   0.0800 
 26 H       -1.6860     3.9520     1.4380 H     1 <1>   0.0800 
 27 H       -3.7260     2.2390    -0.7860 H     1 <1>   0.1000 
 28 H       -0.1330     4.9650    -0.9200 H     1 <1>   0.0800 
 29 H       -3.0400     2.1860     2.2580 H     1 <1>   0.1000 
 30 H       -4.6780     2.0440     1.5480 H     1 <1>   0.1000 
 31 H       -3.9410    -0.0160     0.3010 H     1 <1>   0.1000 
 32 H       -2.2920     0.1470     0.9770 H     1 <1>   0.1000 
 33 H       -3.1040     5.8000     1.6370 H     1 <1>   0.1500 
 34 H       -2.3810     4.2430    -2.2730 H     1 <1>   0.1500 
 35 H       -4.1320     5.7970    -3.0800 H     1 <1>   0.1500 
 36 H       -5.2770     7.2530    -1.4940 H     1 <1>   0.1500 
 37 H        0.8650     8.6100     1.3520 H     1 <1>   0.0800 
 38 H        1.4790     7.5370     2.6040 H     1 <1>   0.0800 
 39 H        2.7580     5.5630    -0.1630 H     1 <1>   0.0800 
 40 H        1.7190     6.3750    -1.3350 H     1 <1>   0.0800 
 41 H        3.1510     9.2160     1.2580 H     1 <1>   0.0800 
 42 H        3.6520     7.6190     1.7770 H     1 <1>   0.0800 
 43 H        4.1000     7.4600    -0.5650 H     1 <1>   0.0800 
 44 H        2.7020     8.4400    -0.9570 H     1 <1>   0.0800 
@<TRIPOS>BOND
  1   1   2  2   
  2   2   3  am  
  3   2   4  1   
  4   3   5  1   
  5   3   6  1   
  6   4   7  1   
  7   4  24  1   
  8   4  25  1   
  9   5   8  1   
 10   5   9  1   
 11   5  26  1   
 12   6  10  1   
 13   6  11  1   
 14   6  27  1   
 15   7   9  1   
 16   8  12  ar  
 17   8  13  ar  
 18   9  14  1   
 19   9  28  1   
 20  10  11  1   
 21  10  29  1   
 22  10  30  1   
 23  11  31  1   
 24  11  32  1   
 25  12  15  ar  
 26  12  33  1   
 27  13  16  ar  
 28  13  34  1   
 29  14  17  2   
 30  14  18  am  
 31  15  19  ar  
 32  16  19  ar  
 33  16  35  1   
 34  18  20  1   
 35  18  21  1   
 36  19  36  1   
 37  20  22  1   
 38  20  37  1   
 39  20  38  1   
 40  21  23  1   
 41  21  39  1   
 42  21  40  1   
 43  22  23  1   
 44  22  41  1   
 45  22  42  1   
 46  23  43  1   
 47  23  44  1   
@<TRIPOS>SUBSTRUCTURE
  1 ****   5 GROUP 4 **** **** 0

# MOE 2024.06 (io_trps.svl 2023.06)
