@<TRIPOS>MOLECULE
NONAME
46 49 1 0 0 
SMALL
USER_CHARGES


@<TRIPOS>ATOM
  1 F       -2.5630    -0.4750    -1.8190 F     1 <1>  -0.1900 
  2 C       -1.8150    -1.2000    -1.0240 C.ar  1 <1>   0.1900 
  3 C       -1.1040    -0.5780    -0.0100 C.ar  1 <1>   0.1900 
  4 C       -1.7530    -2.5750    -1.2030 C.ar  1 <1>  -0.1440 
  5 F       -1.1820     0.7180     0.1530 F     1 <1>  -0.1900 
  6 C       -0.3110    -1.3070     0.8550 C.ar  1 <1>  -0.1500 
  7 C       -0.9510    -3.3050    -0.3310 C.ar  1 <1>  -0.1500 
  8 C       -2.5150    -3.2970    -2.3150 C.3   1 <1>   0.0450 
  9 C       -0.2400    -2.6810     0.6870 C.ar  1 <1>  -0.1500 
 10 C       -3.3750    -4.4390    -1.7880 C.2   1 <1>   0.5690 
 11 O       -2.9060    -5.5510    -1.8720 O.2   1 <1>  -0.5700 
 12 N       -4.6240    -4.2240    -1.2530 N.am  1 <1>  -0.6600 
 13 C       -5.2740    -2.8830    -1.0690 C.3   1 <1>   0.1400 
 14 C       -5.4940    -5.3710    -0.8600 C.3   1 <1>   0.1400 
 15 C       -5.7680    -2.6800     0.3790 C.3   1 <1>   0.1430 
 16 C       -5.9620    -5.2100     0.5900 C.3   1 <1>  -0.1600 
 17 C       -6.5080    -1.3570     0.4560 C.ar  1 <1>   0.1670 
 18 C       -6.6670    -3.8610     0.8040 C.3   1 <1>  -0.1600 
 19 C       -4.5870    -2.4700     1.3670 C.3   1 <1>  -0.1600 
 20 N       -7.6770    -1.1090    -0.0860 N.ar  1 <1>  -0.6200 
 21 C       -5.8040    -0.4230     1.1560 C.ar  1 <1>  -0.1440 
 22 C       -4.4860    -0.9600     1.6510 C.3   1 <1>  -0.0160 
 23 C       -8.1120     0.1270     0.1090 C.ar  1 <1>   0.7200 
 24 C       -6.3600     0.8250     1.2990 C.ar  1 <1>   0.1600 
 25 N       -7.5320     1.1130     0.7790 N.ar  1 <1>  -0.6200 
 26 N       -9.3040     0.4100    -0.4170 N.pl3 1 <1>  -0.9000 
 27 H        0.2370    -0.8120     1.6380 H     1 <1>   0.1500 
 28 H       -0.8750    -4.3760    -0.4410 H     1 <1>   0.1500 
 29 H       -1.7970    -3.7100    -3.0000 H     1 <1>   0.0800 
 30 H       -3.1300    -2.6270    -2.8840 H     1 <1>   0.0800 
 31 H        0.3720    -3.2720     1.3480 H     1 <1>   0.1500 
 32 H       -6.1180    -2.8190    -1.7350 H     1 <1>   0.0800 
 33 H       -4.6030    -2.0840    -1.3200 H     1 <1>   0.0800 
 34 H       -4.9670    -6.3050    -0.9620 H     1 <1>   0.0800 
 35 H       -6.3470    -5.4010    -1.5160 H     1 <1>   0.0800 
 36 H       -5.1110    -5.2970     1.2420 H     1 <1>   0.0800 
 37 H       -6.6390    -6.0110     0.8310 H     1 <1>   0.0800 
 38 H       -7.5660    -3.8450     0.2110 H     1 <1>   0.0800 
 39 H       -6.9600    -3.7530     1.8330 H     1 <1>   0.0800 
 40 H       -3.6610    -2.8630     0.9870 H     1 <1>   0.0800 
 41 H       -4.7990    -2.9690     2.2960 H     1 <1>   0.0800 
 42 H       -3.6860    -0.5140     1.0910 H     1 <1>   0.0800 
 43 H       -4.3480    -0.7640     2.7010 H     1 <1>   0.0800 
 44 H       -5.8390     1.5940     1.8440 H     1 <1>   0.1500 
 45 H       -9.7660     1.2230    -0.0190 H     1 <1>   0.4000 
 46 H       -9.8860    -0.3940    -0.6280 H     1 <1>   0.4000 
@<TRIPOS>BOND
  1   1   2  1   
  2   2   3  ar  
  3   2   4  ar  
  4   3   5  1   
  5   3   6  ar  
  6   4   7  ar  
  7   4   8  1   
  8   6   9  ar  
  9   6  27  1   
 10   7   9  ar  
 11   7  28  1   
 12   8  10  1   
 13   8  29  1   
 14   8  30  1   
 15   9  31  1   
 16  10  11  2   
 17  10  12  am  
 18  12  13  1   
 19  12  14  1   
 20  13  15  1   
 21  13  32  1   
 22  13  33  1   
 23  14  16  1   
 24  14  34  1   
 25  14  35  1   
 26  15  17  1   
 27  15  18  1   
 28  15  19  1   
 29  16  18  1   
 30  16  36  1   
 31  16  37  1   
 32  17  20  ar  
 33  17  21  ar  
 34  18  38  1   
 35  18  39  1   
 36  19  22  1   
 37  19  40  1   
 38  19  41  1   
 39  20  23  ar  
 40  21  22  1   
 41  21  24  ar  
 42  22  42  1   
 43  22  43  1   
 44  23  25  ar  
 45  23  26  1   
 46  24  25  ar  
 47  24  44  1   
 48  26  45  1   
 49  26  46  1   
@<TRIPOS>SUBSTRUCTURE
  1 ****  13 GROUP 4 **** **** 0

# MOE 2024.06 (io_trps.svl 2023.06)
