@<TRIPOS>MOLECULE
NONAME
50 52 1 0 0 
SMALL
USER_CHARGES


@<TRIPOS>ATOM
  1 O       -1.4970     1.0270    -1.5660 O.2   1 <1>  -0.5700 
  2 C       -1.0440     1.9820    -0.9790 C.2   1 <1>   0.5690 
  3 N       -1.7650     3.1300    -0.7830 N.am  1 <1>  -0.6600 
  4 C        0.3990     1.8850    -0.4730 C.3   1 <1>   0.1810 
  5 C       -1.1790     4.2960    -0.0390 C.3   1 <1>   0.3640 
  6 C       -3.2030     3.2370    -1.1730 C.3   1 <1>   0.0600 
  7 O        0.7290     2.8630     0.4840 O.3   1 <1>  -0.5600 
  8 C       -1.5650     5.6050    -0.7510 C.ar  1 <1>  -0.1430 
  9 C        0.3610     4.1750     0.1110 C.3   1 <1>   0.2610 
 10 C       -2.3910     6.5660    -0.1640 C.ar  1 <1>  -0.1430 
 11 C       -1.0880     5.8280    -2.0390 C.ar  1 <1>  -0.1500 
 12 C        0.9320     5.2030     1.1000 C.2   1 <1>   0.5690 
 13 C       -2.6970     7.7250    -0.8620 C.ar  1 <1>  -0.1500 
 14 C       -2.9990     6.3950     1.2240 C.3   1 <1>  -0.0960 
 15 C       -1.3990     6.9860    -2.7260 C.ar  1 <1>  -0.1500 
 16 O        0.1900     5.7220     1.9070 O.2   1 <1>  -0.5700 
 17 N        2.2550     5.5740     1.0470 N.am  1 <1>  -0.6600 
 18 C       -2.2060     7.9380    -2.1360 C.ar  1 <1>  -0.1500 
 19 C        2.7360     6.7240     1.8650 C.3   1 <1>   0.3200 
 20 C        3.2690     5.0290     0.1010 C.3   1 <1>   0.0600 
 21 C        2.4350     8.0260     1.1440 C.2   1 <1>   0.0060 
 22 N        1.1690     8.3920     0.8530 N.pl3 1 <1>   0.0330 
 23 N        3.3270     8.8780     0.7490 N.2   1 <1>  -0.5650 
 24 C        1.2770     9.5770     0.2250 C.2   1 <1>  -0.3320 
 25 C        2.5990     9.8550     0.1730 C.2   1 <1>   0.0770 
 26 C        0.0870    10.3630    -0.2870 C.3   1 <1>  -0.0600 
 27 H        1.0730     1.9830    -1.3040 H     1 <1>   0.0800 
 28 H        0.5490     0.9230    -0.0200 H     1 <1>   0.0800 
 29 H       -1.5960     4.2790     0.9500 H     1 <1>   0.0800 
 30 H       -3.7890     3.5570    -0.3310 H     1 <1>   0.0800 
 31 H       -3.5790     2.2860    -1.5100 H     1 <1>   0.0800 
 32 H       -3.3140     3.9500    -1.9720 H     1 <1>   0.0800 
 33 H        0.8090     4.3700    -0.8440 H     1 <1>   0.0800 
 34 H       -0.4760     5.0920    -2.5290 H     1 <1>   0.1500 
 35 H       -3.3290     8.4740    -0.4190 H     1 <1>   0.1500 
 36 H       -3.7130     7.1710     1.4310 H     1 <1>   0.0800 
 37 H       -2.2370     6.4380     1.9790 H     1 <1>   0.0800 
 38 H       -3.5110     5.4530     1.2950 H     1 <1>   0.0800 
 39 H       -1.0190     7.1440    -3.7210 H     1 <1>   0.1500 
 40 H       -2.4540     8.8390    -2.6680 H     1 <1>   0.1500 
 41 H        2.2510     6.7260     2.8260 H     1 <1>   0.0800 
 42 H        3.7960     6.6440     2.0320 H     1 <1>   0.0800 
 43 H        4.2040     4.8840     0.6140 H     1 <1>   0.0800 
 44 H        3.4210     5.7280    -0.7050 H     1 <1>   0.0800 
 45 H        2.9610     4.0810    -0.3010 H     1 <1>   0.0800 
 46 H        0.3250     7.8460     1.0680 H     1 <1>   0.2700 
 47 H        3.0740    10.7200    -0.2580 H     1 <1>   0.1500 
 48 H        0.4140    11.2940    -0.7150 H     1 <1>   0.0800 
 49 H       -0.5950    10.5730     0.5170 H     1 <1>   0.0800 
 50 H       -0.4250     9.7990    -1.0450 H     1 <1>   0.0800 
@<TRIPOS>BOND
  1   1   2  2   
  2   2   3  am  
  3   2   4  1   
  4   3   5  1   
  5   3   6  1   
  6   4   7  1   
  7   4  27  1   
  8   4  28  1   
  9   5   8  1   
 10   5   9  1   
 11   5  29  1   
 12   6  30  1   
 13   6  31  1   
 14   6  32  1   
 15   7   9  1   
 16   8  10  ar  
 17   8  11  ar  
 18   9  12  1   
 19   9  33  1   
 20  10  13  ar  
 21  10  14  1   
 22  11  15  ar  
 23  11  34  1   
 24  12  16  2   
 25  12  17  am  
 26  13  18  ar  
 27  13  35  1   
 28  14  36  1   
 29  14  37  1   
 30  14  38  1   
 31  15  18  ar  
 32  15  39  1   
 33  17  19  1   
 34  17  20  1   
 35  18  40  1   
 36  19  21  1   
 37  19  41  1   
 38  19  42  1   
 39  20  43  1   
 40  20  44  1   
 41  20  45  1   
 42  21  22  1   
 43  21  23  2   
 44  22  24  1   
 45  22  46  1   
 46  23  25  1   
 47  24  25  2   
 48  24  26  1   
 49  25  47  1   
 50  26  48  1   
 51  26  49  1   
 52  26  50  1   
@<TRIPOS>SUBSTRUCTURE
  1 ****   8 GROUP 4 **** **** 0

# MOE 2024.06 (io_trps.svl 2023.06)
