@<TRIPOS>MOLECULE
NONAME
52 56 1 0 0 
SMALL
USER_CHARGES


@<TRIPOS>ATOM
  1 O        1.7550    -0.5040     1.8710 O.2   1 <1>  -0.5700 
  2 C        1.7150    -1.4110     1.0760 C.2   1 <1>   0.5690 
  3 N        2.7410    -1.8520     0.3150 N.am  1 <1>  -0.6600 
  4 C        0.4730    -2.2140     0.8120 C.3   1 <1>  -0.0990 
  5 C        2.3440    -2.9650    -0.5650 C.3   1 <1>   0.1400 
  6 C        4.0920    -1.2490     0.2310 C.3   1 <1>   0.0600 
  7 C        1.0050    -3.4340     0.0340 C.3   1 <1>  -0.0190 
  8 C        0.0120    -3.9880    -0.9860 C.2   1 <1>   0.5690 
  9 O        0.2400    -3.7980    -2.1580 O.2   1 <1>  -0.5700 
 10 N       -1.1030    -4.6870    -0.5840 N.am  1 <1>  -0.6600 
 11 C       -2.1120    -5.1630    -1.5750 C.3   1 <1>   0.1400 
 12 C       -1.4520    -5.0620     0.8160 C.3   1 <1>   0.1400 
 13 C       -2.2020    -6.6880    -1.5070 C.3   1 <1>  -0.1600 
 14 C       -1.5270    -6.5870     0.9180 C.3   1 <1>  -0.1600 
 15 C       -2.5250    -7.1690    -0.0870 C.3   1 <1>   0.4600 
 16 O       -3.7930    -6.6760     0.2930 O.3   1 <1>  -0.5600 
 17 C       -2.5300    -8.6910    -0.0060 C.2   1 <1>  -0.3320 
 18 C       -4.9350    -7.3780    -0.1350 C.3   1 <1>   0.1200 
 19 N       -1.4560    -9.5210    -0.1770 N.pl3 1 <1>   0.0330 
 20 C       -3.6260    -9.4330     0.2510 C.2   1 <1>  -0.1810 
 21 C       -4.9740    -8.7920     0.4670 C.3   1 <1>   0.0210 
 22 C       -1.8880   -10.8150    -0.0150 C.ar  1 <1>  -0.1520 
 23 C       -3.2530   -10.7930     0.2590 C.ar  1 <1>   0.0000 
 24 C       -1.1920   -12.0240    -0.0860 C.ar  1 <1>  -0.1500 
 25 C       -3.9370   -11.9940     0.4690 C.ar  1 <1>  -0.1500 
 26 C       -1.8770   -13.1990     0.1220 C.ar  1 <1>  -0.1500 
 27 C       -3.2490   -13.1840     0.4000 C.ar  1 <1>  -0.1500 
 28 H       -0.1930    -1.6260     0.2070 H     1 <1>   0.0800 
 29 H       -0.0060    -2.4880     1.7320 H     1 <1>   0.0800 
 30 H        3.0780    -3.7530    -0.5530 H     1 <1>   0.0800 
 31 H        2.2300    -2.5870    -1.5680 H     1 <1>   0.0800 
 32 H        4.1670    -0.4240     0.9190 H     1 <1>   0.0800 
 33 H        4.2680    -0.8880    -0.7670 H     1 <1>   0.0800 
 34 H        4.8360    -1.9830     0.4830 H     1 <1>   0.0800 
 35 H        1.2480    -4.2130     0.7310 H     1 <1>   0.0800 
 36 H       -1.8460    -4.8610    -2.5740 H     1 <1>   0.0800 
 37 H       -3.0680    -4.7270    -1.3410 H     1 <1>   0.0800 
 38 H       -2.4090    -4.6340     1.0660 H     1 <1>   0.0800 
 39 H       -0.7330    -4.6930     1.5210 H     1 <1>   0.0800 
 40 H       -1.2590    -7.0960    -1.8170 H     1 <1>   0.0800 
 41 H       -2.9430    -7.0460    -2.1960 H     1 <1>   0.0800 
 42 H       -1.8230    -6.8750     1.9100 H     1 <1>   0.0800 
 43 H       -0.5490    -6.9920     0.7370 H     1 <1>   0.0800 
 44 H       -4.9230    -7.4310    -1.2090 H     1 <1>   0.0800 
 45 H       -5.8000    -6.8190     0.1740 H     1 <1>   0.0800 
 46 H       -0.4930    -9.2460    -0.3920 H     1 <1>   0.2700 
 47 H       -5.7410    -9.3710    -0.0140 H     1 <1>   0.0800 
 48 H       -5.1880    -8.7400     1.5190 H     1 <1>   0.0800 
 49 H       -0.1380   -12.0270    -0.3000 H     1 <1>   0.1500 
 50 H       -4.9890   -11.9670     0.6830 H     1 <1>   0.1500 
 51 H       -1.3630   -14.1430     0.0730 H     1 <1>   0.1500 
 52 H       -3.7610   -14.1170     0.5590 H     1 <1>   0.1500 
@<TRIPOS>BOND
  1   1   2  2   
  2   2   3  am  
  3   2   4  1   
  4   3   5  1   
  5   3   6  1   
  6   4   7  1   
  7   4  28  1   
  8   4  29  1   
  9   5   7  1   
 10   5  30  1   
 11   5  31  1   
 12   6  32  1   
 13   6  33  1   
 14   6  34  1   
 15   7   8  1   
 16   7  35  1   
 17   8   9  2   
 18   8  10  am  
 19  10  11  1   
 20  10  12  1   
 21  11  13  1   
 22  11  36  1   
 23  11  37  1   
 24  12  14  1   
 25  12  38  1   
 26  12  39  1   
 27  13  15  1   
 28  13  40  1   
 29  13  41  1   
 30  14  15  1   
 31  14  42  1   
 32  14  43  1   
 33  15  16  1   
 34  15  17  1   
 35  16  18  1   
 36  17  19  1   
 37  17  20  2   
 38  18  21  1   
 39  18  44  1   
 40  18  45  1   
 41  19  22  1   
 42  19  46  1   
 43  20  21  1   
 44  20  23  1   
 45  21  47  1   
 46  21  48  1   
 47  22  23  ar  
 48  22  24  ar  
 49  23  25  ar  
 50  24  26  ar  
 51  24  49  1   
 52  25  27  ar  
 53  25  50  1   
 54  26  27  ar  
 55  26  51  1   
 56  27  52  1   
@<TRIPOS>SUBSTRUCTURE
  1 ****  14 GROUP 4 **** **** 0

# MOE 2024.06 (io_trps.svl 2023.06)
