@<TRIPOS>MOLECULE
NONAME
49 51 1 0 0 
SMALL
USER_CHARGES


@<TRIPOS>ATOM
  1 S       -0.6230    -0.3260     0.4750 S.o2  1 <1>   1.0900 
  2 O        0.1170    -1.5620     0.5750 O.2   1 <1>  -0.6500 
  3 O        0.0850     0.9100     0.2380 O.2   1 <1>  -0.6500 
  4 C       -1.8680    -0.5410    -0.8020 C.3   1 <1>   0.0890 
  5 C       -1.5620    -0.1380     1.9820 C.3   1 <1>  -0.1350 
  6 C       -3.0180     0.4520    -0.7060 C.ar  1 <1>  -0.1440 
  7 C       -4.2960     0.0310    -0.3750 C.ar  1 <1>   0.1600 
  8 C       -2.8040     1.7990    -0.9280 C.ar  1 <1>  -0.1500 
  9 N       -5.3450     0.8200    -0.2420 N.ar  1 <1>  -0.6200 
 10 C       -3.8900     2.6300    -0.7970 C.ar  1 <1>  -0.1500 
 11 C       -5.1390     2.1150    -0.4590 C.ar  1 <1>   0.4100 
 12 N       -6.2210     2.9690    -0.3510 N.pl3 1 <1>  -0.8380 
 13 C       -7.2950     2.7020     0.6660 C.3   1 <1>   0.2090 
 14 C       -6.6360     3.7020    -1.5800 C.3   1 <1>   0.2090 
 15 C       -8.6700     2.4460     0.0150 C.3   1 <1>   0.0000 
 16 C       -7.9050     4.5220    -1.3330 C.3   1 <1>  -0.1600 
 17 C       -9.7050     2.0780     1.0940 C.3   1 <1>   0.2000 
 18 C       -9.0960     3.6630    -0.8640 C.3   1 <1>  -0.1600 
 19 C       -8.6850     1.1610    -0.8370 C.3   1 <1>  -0.1600 
 20 O      -10.1780     3.1980     1.7830 O.3   1 <1>  -0.5600 
 21 C      -10.8260     1.3540     0.3470 C.3   1 <1>  -0.1600 
 22 C      -10.1410     0.6760    -0.8480 C.3   1 <1>  -0.1600 
 23 C      -10.8760     2.9180     2.9540 C.3   1 <1>   0.0400 
 24 H       -1.4050    -0.4450    -1.7650 H     1 <1>   0.0800 
 25 H       -2.2630    -1.5370    -0.7400 H     1 <1>   0.0800 
 26 H       -2.1830    -0.9960     2.1530 H     1 <1>   0.0800 
 27 H       -2.1820     0.7370     1.9360 H     1 <1>   0.0800 
 28 H       -0.8940    -0.0320     2.8160 H     1 <1>   0.0800 
 29 H       -4.4750    -1.0170    -0.2050 H     1 <1>   0.1500 
 30 H       -1.8320     2.1900    -1.1850 H     1 <1>   0.1500 
 31 H       -3.7910     3.6880    -0.9450 H     1 <1>   0.1500 
 32 H       -7.0200     1.8650     1.2840 H     1 <1>   0.0800 
 33 H       -7.3730     3.5600     1.3110 H     1 <1>   0.0800 
 34 H       -5.8420     4.3610    -1.8860 H     1 <1>   0.0800 
 35 H       -6.8070     2.9930    -2.3720 H     1 <1>   0.0800 
 36 H       -7.6810     5.2600    -0.5820 H     1 <1>   0.0800 
 37 H       -8.1740     5.0480    -2.2300 H     1 <1>   0.0800 
 38 H       -9.2490     1.4040     1.8000 H     1 <1>   0.0800 
 39 H       -9.6420     3.3200    -1.7240 H     1 <1>   0.0800 
 40 H       -9.7600     4.3120    -0.3220 H     1 <1>   0.0800 
 41 H       -8.3020     1.3140    -1.8300 H     1 <1>   0.0800 
 42 H       -8.0750     0.4120    -0.3600 H     1 <1>   0.0800 
 43 H      -11.3100     0.6310     0.9780 H     1 <1>   0.0800 
 44 H      -11.5450     2.0700    -0.0110 H     1 <1>   0.0800 
 45 H      -10.1800    -0.3970    -0.7650 H     1 <1>   0.0800 
 46 H      -10.6260     0.9710    -1.7620 H     1 <1>   0.0800 
 47 H      -11.1590     3.8530     3.4040 H     1 <1>   0.0800 
 48 H      -10.2380     2.3710     3.6260 H     1 <1>   0.0800 
 49 H      -11.7590     2.3500     2.7190 H     1 <1>   0.0800 
@<TRIPOS>BOND
  1   1   2  2   
  2   1   3  2   
  3   1   4  1   
  4   1   5  1   
  5   4   6  1   
  6   4  24  1   
  7   4  25  1   
  8   5  26  1   
  9   5  27  1   
 10   5  28  1   
 11   6   7  ar  
 12   6   8  ar  
 13   7   9  ar  
 14   7  29  1   
 15   8  10  ar  
 16   8  30  1   
 17   9  11  ar  
 18  10  11  ar  
 19  10  31  1   
 20  11  12  1   
 21  12  13  1   
 22  12  14  1   
 23  13  15  1   
 24  13  32  1   
 25  13  33  1   
 26  14  16  1   
 27  14  34  1   
 28  14  35  1   
 29  15  17  1   
 30  15  18  1   
 31  15  19  1   
 32  16  18  1   
 33  16  36  1   
 34  16  37  1   
 35  17  20  1   
 36  17  21  1   
 37  17  38  1   
 38  18  39  1   
 39  18  40  1   
 40  19  22  1   
 41  19  41  1   
 42  19  42  1   
 43  20  23  1   
 44  21  22  1   
 45  21  43  1   
 46  21  44  1   
 47  22  45  1   
 48  22  46  1   
 49  23  47  1   
 50  23  48  1   
 51  23  49  1   
@<TRIPOS>SUBSTRUCTURE
  1 ****  11 GROUP 4 **** **** 0

# MOE 2024.06 (io_trps.svl 2023.06)
