@<TRIPOS>MOLECULE
NONAME
56 60 1 0 0 
SMALL
USER_CHARGES


@<TRIPOS>ATOM
  1 O       -5.0200     2.6720    -0.0800 O.2   1 <1>  -0.5700 
  2 C       -4.0420     1.9690     0.0940 C.2   1 <1>   0.5440 
  3 N       -2.7900     2.5350     0.0030 N.am  1 <1>  -0.6600 
  4 C       -4.2270     0.5660     0.3720 C.ar  1 <1>   0.0860 
  5 C       -1.5390     1.7740    -0.2270 C.3   1 <1>   0.1400 
  6 C       -2.5900     3.9730    -0.2920 C.3   1 <1>   0.1400 
  7 C       -5.0650    -0.2000    -0.4320 C.ar  1 <1>   0.1600 
  8 C       -3.6090    -0.0860     1.4350 C.ar  1 <1>  -0.1500 
  9 C       -0.4760     2.8320    -0.5070 C.3   1 <1>  -0.1600 
 10 C       -1.2530     4.0400    -1.0210 C.3   1 <1>  -0.1600 
 11 N       -5.3100    -1.4910    -0.2930 N.ar  1 <1>  -0.6200 
 12 C       -3.8550    -1.4270     1.6000 C.ar  1 <1>  -0.1500 
 13 C       -4.7070    -2.0940     0.7240 C.ar  1 <1>   0.4100 
 14 N       -4.9630    -3.4250     0.9110 N.pl3 1 <1>  -0.8690 
 15 C       -6.0090    -4.1690     0.1680 C.3   1 <1>   0.2890 
 16 C       -7.3730    -3.8700     0.7730 C.3   1 <1>  -0.0800 
 17 C       -5.8650    -5.6610     0.4440 C.3   1 <1>   0.1200 
 18 C       -7.4540    -4.8860     1.9200 C.3   1 <1>   0.1200 
 19 C       -8.5030    -4.0660    -0.2580 C.3   1 <1>  -0.0170 
 20 O       -6.5270    -5.8990     1.6510 O.3   1 <1>  -0.5600 
 21 C       -9.9260    -3.7690     0.2340 C.ar  1 <1>  -0.1440 
 22 C      -11.0450    -4.1820    -0.5330 C.ar  1 <1>   0.0000 
 23 C      -10.1900    -3.0990     1.3970 C.ar  1 <1>  -0.1500 
 24 C      -12.3390    -3.9070    -0.0250 C.ar  1 <1>   0.3100 
 25 C      -10.9570    -4.8460    -1.7800 C.ar  1 <1>  -0.1500 
 26 C      -11.5090    -2.8670     1.8030 C.ar  1 <1>   0.1600 
 27 N      -12.5530    -3.2500     1.1420 N.ar  1 <1>  -0.6200 
 28 C      -13.4630    -4.3230    -0.7560 C.ar  1 <1>  -0.1500 
 29 C      -12.0730    -5.2340    -2.4700 C.ar  1 <1>  -0.1500 
 30 C      -13.3440    -4.9740    -1.9530 C.ar  1 <1>  -0.1500 
 31 H       -1.2760     1.1850     0.6330 H     1 <1>   0.0800 
 32 H       -1.6660     1.1340    -1.0840 H     1 <1>   0.0800 
 33 H       -3.3880     4.3670    -0.8990 H     1 <1>   0.0800 
 34 H       -2.5440     4.5160     0.6360 H     1 <1>   0.0800 
 35 H       -5.5620     0.3030    -1.2450 H     1 <1>   0.1500 
 36 H       -2.9650     0.4570     2.1050 H     1 <1>   0.1500 
 37 H        0.0180     3.0830     0.4150 H     1 <1>   0.0800 
 38 H        0.2570     2.4850    -1.2140 H     1 <1>   0.0800 
 39 H       -1.4300     3.9400    -2.0780 H     1 <1>   0.0800 
 40 H       -0.7430     4.9680    -0.8360 H     1 <1>   0.0800 
 41 H       -3.3990    -1.9740     2.4030 H     1 <1>   0.1500 
 42 H       -4.7490    -3.8390     1.8210 H     1 <1>   0.4000 
 43 H       -5.9460    -3.9440    -0.8840 H     1 <1>   0.0800 
 44 H       -7.4030    -2.8580     1.1350 H     1 <1>   0.0800 
 45 H       -4.8370    -5.9670     0.5280 H     1 <1>   0.0800 
 46 H       -6.3570    -6.2380    -0.3180 H     1 <1>   0.0800 
 47 H       -8.4310    -5.3280     2.0160 H     1 <1>   0.0800 
 48 H       -7.1720    -4.4300     2.8530 H     1 <1>   0.0800 
 49 H       -8.4670    -5.0870    -0.5960 H     1 <1>   0.0800 
 50 H       -8.3090    -3.4300    -1.1050 H     1 <1>   0.0800 
 51 H       -9.4170    -2.7250     2.0400 H     1 <1>   0.1500 
 52 H       -9.9940    -5.0510    -2.2060 H     1 <1>   0.1500 
 53 H      -11.6640    -2.3370     2.7270 H     1 <1>   0.1500 
 54 H      -14.4300    -4.1080    -0.3400 H     1 <1>   0.1500 
 55 H      -11.9880    -5.7410    -3.4160 H     1 <1>   0.1500 
 56 H      -14.2150    -5.2870    -2.5030 H     1 <1>   0.1500 
@<TRIPOS>BOND
  1   1   2  2   
  2   2   3  am  
  3   2   4  1   
  4   3   5  1   
  5   3   6  1   
  6   4   7  ar  
  7   4   8  ar  
  8   5   9  1   
  9   5  31  1   
 10   5  32  1   
 11   6  10  1   
 12   6  33  1   
 13   6  34  1   
 14   7  11  ar  
 15   7  35  1   
 16   8  12  ar  
 17   8  36  1   
 18   9  10  1   
 19   9  37  1   
 20   9  38  1   
 21  10  39  1   
 22  10  40  1   
 23  11  13  ar  
 24  12  13  ar  
 25  12  41  1   
 26  13  14  1   
 27  14  15  1   
 28  14  42  1   
 29  15  16  1   
 30  15  17  1   
 31  15  43  1   
 32  16  18  1   
 33  16  19  1   
 34  16  44  1   
 35  17  20  1   
 36  17  45  1   
 37  17  46  1   
 38  18  20  1   
 39  18  47  1   
 40  18  48  1   
 41  19  21  1   
 42  19  49  1   
 43  19  50  1   
 44  21  22  ar  
 45  21  23  ar  
 46  22  24  ar  
 47  22  25  ar  
 48  23  26  ar  
 49  23  51  1   
 50  24  27  ar  
 51  24  28  ar  
 52  25  29  ar  
 53  25  52  1   
 54  26  27  ar  
 55  26  53  1   
 56  28  30  ar  
 57  28  54  1   
 58  29  30  ar  
 59  29  55  1   
 60  30  56  1   
@<TRIPOS>SUBSTRUCTURE
  1 ****  11 GROUP 4 **** **** 0

# MOE 2024.06 (io_trps.svl 2023.06)
