@<TRIPOS>MOLECULE
NONAME
53 55 1 0 0 
SMALL
USER_CHARGES


@<TRIPOS>ATOM
  1 O        0.5200    -0.2480     1.1180 O.2   1 <1>  -0.5700 
  2 C        1.3480    -1.0040     0.6390 C.2   1 <1>   0.6900 
  3 N        0.9530    -2.2390     0.1910 N.am  1 <1>  -0.6600 
  4 N        2.6640    -0.6100     0.5540 N.am  1 <1>  -0.6600 
  5 C        1.4150    -2.7800    -1.1110 C.3   1 <1>   0.1400 
  6 C       -0.2680    -2.8770     0.7420 C.3   1 <1>   0.1400 
  7 C        3.7870    -1.5640     0.7570 C.3   1 <1>   0.0600 
  8 C        3.0340     0.8250     0.6670 C.3   1 <1>   0.0600 
  9 C        1.6570    -4.2860    -0.9850 C.3   1 <1>  -0.1600 
 10 C       -0.0430    -4.3860     0.8760 C.3   1 <1>  -0.1600 
 11 C        0.4060    -5.0170    -0.4560 C.3   1 <1>  -0.0190 
 12 C        0.6330    -6.5250    -0.2970 C.2   1 <1>   0.5690 
 13 O        1.7170    -6.9110     0.0760 O.2   1 <1>  -0.5700 
 14 N       -0.3770    -7.4130    -0.5600 N.am  1 <1>  -0.6600 
 15 C       -1.7800    -7.0920    -0.9230 C.3   1 <1>   0.1400 
 16 C       -0.2100    -8.8770    -0.3890 C.3   1 <1>   0.1400 
 17 C       -2.5130    -8.4350    -0.9330 C.3   1 <1>   0.2000 
 18 C       -1.6250    -9.4080    -0.1590 C.3   1 <1>  -0.0800 
 19 O       -3.7530    -8.3410    -0.3200 O.3   1 <1>  -0.6800 
 20 C       -1.8300   -10.8700    -0.5940 C.3   1 <1>  -0.0170 
 21 C       -0.9550   -11.8240     0.2030 C.ar  1 <1>   0.1670 
 22 N        0.2910   -11.9720    -0.2180 N.ar  1 <1>  -0.6200 
 23 C       -1.4760   -12.4850     1.3140 C.ar  1 <1>   0.1600 
 24 C        0.9750   -12.8110     0.5420 C.ar  1 <1>   0.1600 
 25 N       -0.7940   -13.3250     2.0750 N.ar  1 <1>  -0.6200 
 26 C        0.4500   -13.4650     1.6500 C.ar  1 <1>   0.1600 
 27 H        0.6580    -2.5910    -1.8520 H     1 <1>   0.0800 
 28 H        2.3170    -2.2850    -1.4280 H     1 <1>   0.0800 
 29 H       -0.4950    -2.4570     1.7080 H     1 <1>   0.0800 
 30 H       -1.0960    -2.6750     0.0840 H     1 <1>   0.0800 
 31 H        4.4080    -1.2300     1.5690 H     1 <1>   0.0800 
 32 H        4.3780    -1.6260    -0.1400 H     1 <1>   0.0800 
 33 H        3.4120    -2.5430     1.0000 H     1 <1>   0.0800 
 34 H        3.8690     1.0400     0.0250 H     1 <1>   0.0800 
 35 H        3.2940     1.0520     1.6860 H     1 <1>   0.0800 
 36 H        2.2040     1.4460     0.3750 H     1 <1>   0.0800 
 37 H        1.9300    -4.6860    -1.9450 H     1 <1>   0.0800 
 38 H        2.4860    -4.4480    -0.3180 H     1 <1>   0.0800 
 39 H        0.7100    -4.5580     1.6260 H     1 <1>   0.0800 
 40 H       -0.9510    -4.8490     1.2150 H     1 <1>   0.0800 
 41 H       -0.3720    -4.8650    -1.1800 H     1 <1>   0.0800 
 42 H       -2.2010    -6.4280    -0.1890 H     1 <1>   0.0800 
 43 H       -1.8160    -6.6410    -1.8990 H     1 <1>   0.0800 
 44 H        0.2160    -9.2890    -1.2880 H     1 <1>   0.0800 
 45 H        0.4370    -9.1030     0.4430 H     1 <1>   0.0800 
 46 H       -2.6610    -8.7600    -1.9490 H     1 <1>   0.0800 
 47 H       -1.8260    -9.3190     0.8940 H     1 <1>   0.0800 
 48 H       -3.6520    -8.1000     0.6210 H     1 <1>   0.4000 
 49 H       -1.6020   -10.9790    -1.6400 H     1 <1>   0.0800 
 50 H       -2.8640   -11.1360    -0.4610 H     1 <1>   0.0800 
 51 H       -2.5010   -12.3100     1.5880 H     1 <1>   0.1500 
 52 H        2.0010   -12.9900     0.2750 H     1 <1>   0.1500 
 53 H        1.0870   -14.1300     2.2070 H     1 <1>   0.1500 
@<TRIPOS>BOND
  1   1   2  2   
  2   2   3  am  
  3   2   4  am  
  4   3   5  1   
  5   3   6  1   
  6   4   7  1   
  7   4   8  1   
  8   5   9  1   
  9   5  27  1   
 10   5  28  1   
 11   6  10  1   
 12   6  29  1   
 13   6  30  1   
 14   7  31  1   
 15   7  32  1   
 16   7  33  1   
 17   8  34  1   
 18   8  35  1   
 19   8  36  1   
 20   9  11  1   
 21   9  37  1   
 22   9  38  1   
 23  10  11  1   
 24  10  39  1   
 25  10  40  1   
 26  11  12  1   
 27  11  41  1   
 28  12  13  2   
 29  12  14  am  
 30  14  15  1   
 31  14  16  1   
 32  15  17  1   
 33  15  42  1   
 34  15  43  1   
 35  16  18  1   
 36  16  44  1   
 37  16  45  1   
 38  17  18  1   
 39  17  19  1   
 40  17  46  1   
 41  18  20  1   
 42  18  47  1   
 43  19  48  1   
 44  20  21  1   
 45  20  49  1   
 46  20  50  1   
 47  21  22  ar  
 48  21  23  ar  
 49  22  24  ar  
 50  23  25  ar  
 51  23  51  1   
 52  24  26  ar  
 53  24  52  1   
 54  25  26  ar  
 55  26  53  1   
@<TRIPOS>SUBSTRUCTURE
  1 ****  12 GROUP 4 **** **** 0

# MOE 2024.06 (io_trps.svl 2023.06)
