@<TRIPOS>MOLECULE
NONAME
37 39 1 0 0 
SMALL
USER_CHARGES


@<TRIPOS>ATOM
  1 F       -0.1860    -0.9460     1.9090 F     1 <1>  -0.1900 
  2 C       -0.3180    -2.0820     1.2730 C.ar  1 <1>   0.1900 
  3 C       -0.7810    -2.0790    -0.0350 C.ar  1 <1>  -0.1440 
  4 C        0.0160    -3.2440     1.9410 C.ar  1 <1>  -0.1500 
  5 C       -0.9140    -3.3020    -0.6770 C.ar  1 <1>  -0.1500 
  6 C       -1.1290    -0.7830    -0.7500 C.3   1 <1>  -0.0960 
  7 C       -0.1250    -4.4510     1.2810 C.ar  1 <1>  -0.1500 
  8 C       -0.5940    -4.4880    -0.0250 C.ar  1 <1>  -0.1440 
  9 C       -0.7660    -5.8370    -0.7330 C.3   1 <1>   0.2280 
 10 N       -1.7950    -6.6490     0.0190 N.3   1 <1>  -0.8100 
 11 C        0.5930    -6.5290    -1.0610 C.2   1 <1>   0.9060 
 12 C       -1.7010    -8.0680    -0.3750 C.3   1 <1>   0.2900 
 13 C       -3.1510    -6.1040    -0.1610 C.3   1 <1>   0.1100 
 14 O        0.7890    -6.8700    -2.2390 O.co2 1 <1>  -0.9000 
 15 O        1.4140    -6.8120    -0.1740 O.co2 1 <1>  -0.9000 
 16 C       -2.8490    -8.8570     0.2300 C.2   1 <1>  -0.3320 
 17 C       -4.1320    -6.7980     0.7880 C.3   1 <1>   0.0960 
 18 N       -3.9420    -8.2540     0.7250 N.pl3 1 <1>   0.3140 
 19 C       -3.0260   -10.1820     0.3940 C.2   1 <1>  -0.1500 
 20 N       -4.8320    -9.1460     1.1940 N.2   1 <1>  -0.7070 
 21 C       -4.2760   -10.3180     1.0000 C.2   1 <1>   0.3080 
 22 C       -4.8510   -11.5900     1.3500 C.1   1 <1>   0.5380 
 23 N       -5.2710   -12.6220     1.6090 N.1   1 <1>  -0.5570 
 24 H        0.3800    -3.2080     2.9510 H     1 <1>   0.1500 
 25 H       -1.2650    -3.3390    -1.6920 H     1 <1>   0.1500 
 26 H       -1.9080    -0.2680    -0.2170 H     1 <1>   0.0800 
 27 H       -1.4650    -0.9740    -1.7530 H     1 <1>   0.0800 
 28 H       -0.2620    -0.1490    -0.7950 H     1 <1>   0.0800 
 29 H        0.1330    -5.3780     1.7670 H     1 <1>   0.1500 
 30 H       -1.1790    -5.6350    -1.7040 H     1 <1>   0.0800 
 31 H       -0.7660    -8.4790    -0.0300 H     1 <1>   0.0800 
 32 H       -1.7330    -8.1510    -1.4490 H     1 <1>   0.0800 
 33 H       -3.4670    -6.2410    -1.1810 H     1 <1>   0.0800 
 34 H       -3.1530    -5.0490     0.0550 H     1 <1>   0.0800 
 35 H       -5.1450    -6.5620     0.5270 H     1 <1>   0.0800 
 36 H       -3.9440    -6.4790     1.7960 H     1 <1>   0.0800 
 37 H       -2.3610   -10.9830     0.1240 H     1 <1>   0.1500 
@<TRIPOS>BOND
  1   1   2  1   
  2   2   3  ar  
  3   2   4  ar  
  4   3   5  ar  
  5   3   6  1   
  6   4   7  ar  
  7   4  24  1   
  8   5   8  ar  
  9   5  25  1   
 10   6  26  1   
 11   6  27  1   
 12   6  28  1   
 13   7   8  ar  
 14   7  29  1   
 15   8   9  1   
 16   9  10  1   
 17   9  11  1   
 18   9  30  1   
 19  10  12  1   
 20  10  13  1   
 21  11  14  ar  
 22  11  15  ar  
 23  12  16  1   
 24  12  31  1   
 25  12  32  1   
 26  13  17  1   
 27  13  33  1   
 28  13  34  1   
 29  16  18  1   
 30  16  19  2   
 31  17  18  1   
 32  17  35  1   
 33  17  36  1   
 34  18  20  1   
 35  19  21  1   
 36  19  37  1   
 37  20  21  2   
 38  21  22  1   
 39  22  23  3   
@<TRIPOS>SUBSTRUCTURE
  1 ****  10 GROUP 4 **** **** 0

# MOE 2024.06 (io_trps.svl 2023.06)
