@<TRIPOS>MOLECULE
NONAME
51 53 1 0 0 
SMALL
USER_CHARGES


@<TRIPOS>ATOM
  1 O       -0.9320     3.6280     3.3340 O.2   1 <1>  -0.5700 
  2 C       -1.4750     3.6640     2.2540 C.2   1 <1>   0.5690 
  3 N       -2.8120     3.3490     2.1130 N.am  1 <1>  -0.6600 
  4 C       -0.6010     4.0910     1.0760 C.3   1 <1>   0.0440 
  5 C       -3.5260     3.3950     0.7990 C.3   1 <1>   0.2200 
  6 C       -3.5870     2.9150     3.3180 C.3   1 <1>   0.0600 
  7 C       -0.4350     3.0130     0.0080 C.ar  1 <1>  -0.1440 
  8 C       -4.9080     4.0420     0.8410 C.3   1 <1>  -0.1600 
  9 C       -3.7960     2.0100     0.2240 C.3   1 <1>  -0.1600 
 10 C       -0.6360     3.3100    -1.3330 C.ar  1 <1>  -0.1500 
 11 C       -0.0810     1.7220     0.3710 C.ar  1 <1>  -0.1500 
 12 C       -5.5940     3.5480    -0.4430 C.3   1 <1>  -0.0800 
 13 C       -4.8810     2.2430    -0.8360 C.3   1 <1>  -0.0800 
 14 C       -0.4970     2.3260    -2.2960 C.ar  1 <1>  -0.1500 
 15 C        0.0590     0.7370    -0.5920 C.ar  1 <1>  -0.1500 
 16 C       -7.0770     3.1980    -0.2610 C.3   1 <1>  -0.1600 
 17 C       -5.9530     1.1480    -0.8750 C.3   1 <1>  -0.1600 
 18 C       -0.1510     1.0380    -1.9260 C.ar  1 <1>  -0.1500 
 19 C       -7.0860     1.6900    -0.0090 C.3   1 <1>   0.4230 
 20 N       -8.3970     1.0180    -0.2730 N.4   1 <1>  -0.9590 
 21 C       -8.9490     1.2050    -1.6570 C.3   1 <1>   0.2630 
 22 C       -9.4150     1.4280     0.7430 C.3   1 <1>   0.2630 
 23 H       -1.0150     4.9860     0.6530 H     1 <1>   0.0800 
 24 H        0.3740     4.3430     1.4510 H     1 <1>   0.0800 
 25 H       -2.9470     3.9440     0.0800 H     1 <1>   0.0800 
 26 H       -4.2740     2.1290     3.0670 H     1 <1>   0.0800 
 27 H       -4.1310     3.7530     3.7170 H     1 <1>   0.0800 
 28 H       -2.9260     2.5450     4.0830 H     1 <1>   0.0800 
 29 H       -5.4600     3.7100     1.7000 H     1 <1>   0.0800 
 30 H       -4.8320     5.1150     0.8600 H     1 <1>   0.0800 
 31 H       -2.9080     1.5900    -0.2150 H     1 <1>   0.0800 
 32 H       -4.1500     1.3520     0.9960 H     1 <1>   0.0800 
 33 H       -0.8990     4.3080    -1.6360 H     1 <1>   0.1500 
 34 H        0.0860     1.4780     1.4070 H     1 <1>   0.1500 
 35 H       -5.4690     4.2850    -1.2200 H     1 <1>   0.0800 
 36 H       -4.4130     2.3530    -1.8020 H     1 <1>   0.0800 
 37 H       -0.6540     2.5610    -3.3340 H     1 <1>   0.1500 
 38 H        0.3330    -0.2620    -0.3010 H     1 <1>   0.1500 
 39 H       -7.5850     3.4410    -1.1760 H     1 <1>   0.0800 
 40 H       -7.5220     3.7480     0.5490 H     1 <1>   0.0800 
 41 H       -5.5800     0.2080    -0.5080 H     1 <1>   0.0800 
 42 H       -6.2650     1.0300    -1.8950 H     1 <1>   0.0800 
 43 H       -0.0410     0.2730    -2.6740 H     1 <1>   0.1500 
 44 H       -6.8060     1.5300     1.0210 H     1 <1>   0.0800 
 45 H       -8.2240     0.0090    -0.1490 H     1 <1>   0.4500 
 46 H       -9.1690     2.2440    -1.8390 H     1 <1>   0.0800 
 47 H       -9.8590     0.6390    -1.7730 H     1 <1>   0.0800 
 48 H       -8.2440     0.8670    -2.3970 H     1 <1>   0.0800 
 49 H       -9.6360     2.4790     0.6490 H     1 <1>   0.0800 
 50 H       -9.0480     1.2410     1.7390 H     1 <1>   0.0800 
 51 H      -10.3280     0.8720     0.6040 H     1 <1>   0.0800 
@<TRIPOS>BOND
  1   1   2  2   
  2   2   3  am  
  3   2   4  1   
  4   3   5  1   
  5   3   6  1   
  6   4   7  1   
  7   4  23  1   
  8   4  24  1   
  9   5   8  1   
 10   5   9  1   
 11   5  25  1   
 12   6  26  1   
 13   6  27  1   
 14   6  28  1   
 15   7  10  ar  
 16   7  11  ar  
 17   8  12  1   
 18   8  29  1   
 19   8  30  1   
 20   9  13  1   
 21   9  31  1   
 22   9  32  1   
 23  10  14  ar  
 24  10  33  1   
 25  11  15  ar  
 26  11  34  1   
 27  12  13  1   
 28  12  16  1   
 29  12  35  1   
 30  13  17  1   
 31  13  36  1   
 32  14  18  ar  
 33  14  37  1   
 34  15  18  ar  
 35  15  38  1   
 36  16  19  1   
 37  16  39  1   
 38  16  40  1   
 39  17  19  1   
 40  17  41  1   
 41  17  42  1   
 42  18  43  1   
 43  19  20  1   
 44  19  44  1   
 45  20  21  1   
 46  20  22  1   
 47  20  45  1   
 48  21  46  1   
 49  21  47  1   
 50  21  48  1   
 51  22  49  1   
 52  22  50  1   
 53  22  51  1   
@<TRIPOS>SUBSTRUCTURE
  1 ****   9 GROUP 4 **** **** 0

# MOE 2024.06 (io_trps.svl 2023.06)
