@<TRIPOS>MOLECULE
NONAME
55 57 1 0 0 
SMALL
USER_CHARGES


@<TRIPOS>ATOM
  1 O       -0.3030    -0.8040     0.2930 O.2   1 <1>  -0.5700 
  2 C       -0.0680    -1.9810     0.4920 C.2   1 <1>   0.5440 
  3 N       -1.1590    -2.8070     0.6390 N.am  1 <1>  -0.6600 
  4 C        1.2930    -2.4910     0.4980 C.ar  1 <1>   0.0860 
  5 C       -2.4010    -2.2420     1.2460 C.3   1 <1>   0.1400 
  6 C       -1.4200    -3.8350    -0.4070 C.3   1 <1>   0.1400 
  7 C        1.6250    -3.7020     1.1100 C.ar  1 <1>  -0.1500 
  8 C        2.3310    -1.7830    -0.1130 C.ar  1 <1>  -0.1500 
  9 C       -3.2860    -1.6270     0.1450 C.3   1 <1>   0.3430 
 10 C       -2.3270    -3.2430    -1.5090 C.3   1 <1>   0.3430 
 11 C        2.9190    -4.1880     1.0950 C.ar  1 <1>  -0.1500 
 12 C        3.6290    -2.2600    -0.1310 C.ar  1 <1>  -0.1500 
 13 N       -3.5800    -2.6210    -0.9490 N.4   1 <1>  -0.9060 
 14 C        3.9320    -3.4760     0.4740 C.ar  1 <1>   0.0830 
 15 O        5.1700    -4.0190     0.5040 O.3   1 <1>  -0.3630 
 16 C        6.2840    -3.3650    -0.0480 C.3   1 <1>   0.1200 
 17 C        7.4990    -4.2580     0.2010 C.3   1 <1>  -0.1600 
 18 C        8.7700    -3.6190    -0.3560 C.3   1 <1>   0.3430 
 19 N        9.9260    -4.5460    -0.2060 N.4   1 <1>  -0.9590 
 20 C       10.3570    -4.6980     1.2190 C.3   1 <1>   0.3430 
 21 C       11.0630    -4.1090    -1.0710 C.3   1 <1>   0.3430 
 22 C       11.4600    -5.7530     1.3160 C.3   1 <1>  -0.1600 
 23 C       12.1800    -5.1540    -1.0240 C.3   1 <1>  -0.1600 
 24 C       12.6520    -5.4150     0.4120 C.3   1 <1>  -0.1600 
 25 H       -2.1380    -1.4780     1.9590 H     1 <1>   0.0800 
 26 H       -2.9340    -3.0140     1.7730 H     1 <1>   0.0800 
 27 H       -1.8860    -4.6960     0.0390 H     1 <1>   0.0800 
 28 H       -0.4900    -4.1560    -0.8480 H     1 <1>   0.0800 
 29 H        0.8620    -4.2700     1.6110 H     1 <1>   0.1500 
 30 H        2.1120    -0.8370    -0.5800 H     1 <1>   0.1500 
 31 H       -2.7610    -0.7790    -0.2660 H     1 <1>   0.0800 
 32 H       -4.2040    -1.2700     0.5800 H     1 <1>   0.0800 
 33 H       -2.5820    -4.0170    -2.2150 H     1 <1>   0.0800 
 34 H       -1.7620    -2.4910    -2.0360 H     1 <1>   0.0800 
 35 H        3.1550    -5.1230     1.5710 H     1 <1>   0.1500 
 36 H        4.3850    -1.6730    -0.6170 H     1 <1>   0.1500 
 37 H       -4.0960    -2.1490    -1.7030 H     1 <1>   0.4500 
 38 H       -4.1900    -3.3580    -0.5770 H     1 <1>   0.4500 
 39 H        6.3910    -2.4120     0.4440 H     1 <1>   0.0800 
 40 H        6.1070    -3.2270    -1.1010 H     1 <1>   0.0800 
 41 H        7.3270    -5.2040    -0.2820 H     1 <1>   0.0800 
 42 H        7.5890    -4.4070     1.2620 H     1 <1>   0.0800 
 43 H        8.9710    -2.6900     0.1540 H     1 <1>   0.0800 
 44 H        8.6180    -3.4030    -1.4010 H     1 <1>   0.0800 
 45 H        9.6390    -5.4770    -0.5360 H     1 <1>   0.4500 
 46 H        9.5240    -5.0030     1.8320 H     1 <1>   0.0800 
 47 H       10.7260    -3.7560     1.5920 H     1 <1>   0.0800 
 48 H       11.4430    -3.1620    -0.7240 H     1 <1>   0.0800 
 49 H       10.7290    -3.9900    -2.0890 H     1 <1>   0.0800 
 50 H       11.0590    -6.7160     1.0500 H     1 <1>   0.0800 
 51 H       11.7960    -5.8170     2.3370 H     1 <1>   0.0800 
 52 H       13.0110    -4.8060    -1.6130 H     1 <1>   0.0800 
 53 H       11.8330    -6.0700    -1.4690 H     1 <1>   0.0800 
 54 H       13.3620    -6.2260     0.4220 H     1 <1>   0.0800 
 55 H       13.1530    -4.5390     0.7900 H     1 <1>   0.0800 
@<TRIPOS>BOND
  1   1   2  2   
  2   2   3  am  
  3   2   4  1   
  4   3   5  1   
  5   3   6  1   
  6   4   7  ar  
  7   4   8  ar  
  8   5   9  1   
  9   5  25  1   
 10   5  26  1   
 11   6  10  1   
 12   6  27  1   
 13   6  28  1   
 14   7  11  ar  
 15   7  29  1   
 16   8  12  ar  
 17   8  30  1   
 18   9  13  1   
 19   9  31  1   
 20   9  32  1   
 21  10  13  1   
 22  10  33  1   
 23  10  34  1   
 24  11  14  ar  
 25  11  35  1   
 26  12  14  ar  
 27  12  36  1   
 28  13  37  1   
 29  13  38  1   
 30  14  15  1   
 31  15  16  1   
 32  16  17  1   
 33  16  39  1   
 34  16  40  1   
 35  17  18  1   
 36  17  41  1   
 37  17  42  1   
 38  18  19  1   
 39  18  43  1   
 40  18  44  1   
 41  19  20  1   
 42  19  21  1   
 43  19  45  1   
 44  20  22  1   
 45  20  46  1   
 46  20  47  1   
 47  21  23  1   
 48  21  48  1   
 49  21  49  1   
 50  22  24  1   
 51  22  50  1   
 52  22  51  1   
 53  23  24  1   
 54  23  52  1   
 55  23  53  1   
 56  24  54  1   
 57  24  55  1   
@<TRIPOS>SUBSTRUCTURE
  1 ****  14 GROUP 4 **** **** 0

# MOE 2024.06 (io_trps.svl 2023.06)
