@<TRIPOS>MOLECULE
NONAME
49 50 1 0 0 
SMALL
USER_CHARGES


@<TRIPOS>ATOM
  1 S       -0.0320    -0.0270    -0.2720 S.o2  1 <1>   1.3330 
  2 O       -1.2830     0.6860    -0.2820 O.2   1 <1>  -0.6500 
  3 O        0.5840    -0.4180     0.9730 O.2   1 <1>  -0.6500 
  4 N        1.0040     1.0320    -1.0510 N.am  1 <1>  -0.9140 
  5 C       -0.1000    -1.4190    -1.3780 C.3   1 <1>  -0.1350 
  6 C        1.6370     1.9610    -0.1440 C.3   1 <1>   0.2760 
  7 C        1.7630     3.3130    -0.8400 C.3   1 <1>  -0.1600 
  8 C        3.0240     1.4360     0.2280 C.3   1 <1>  -0.1600 
  9 C        2.4750     4.3110     0.0690 C.3   1 <1>   0.3430 
 10 C        3.7390     2.4210     1.1420 C.3   1 <1>   0.3430 
 11 N        3.7890     3.7630     0.4980 N.4   1 <1>  -0.9590 
 12 C        4.6160     4.7040     1.3620 C.3   1 <1>   0.4610 
 13 C        4.5200     6.1130     0.7750 C.ar  1 <1>  -0.1430 
 14 C        6.0710     4.1970     1.4940 C.2   1 <1>   0.9060 
 15 C        3.6680     7.0380     1.3590 C.ar  1 <1>  -0.1500 
 16 C        5.2440     6.4850    -0.3480 C.ar  1 <1>  -0.1500 
 17 O        6.6120     4.1800     2.6010 O.co2 1 <1>  -0.9000 
 18 O        6.5670     3.6620     0.4890 O.co2 1 <1>  -0.9000 
 19 C        3.5130     8.3080     0.8310 C.ar  1 <1>   0.0830 
 20 C        5.1010     7.7500    -0.8890 C.ar  1 <1>  -0.1500 
 21 O        2.6360     9.1040     1.5020 O.3   1 <1>  -0.3630 
 22 C        4.2290     8.6760    -0.3200 C.ar  1 <1>   0.0830 
 23 C        2.8950    10.4830     1.6560 C.3   1 <1>   0.0400 
 24 O        4.0440     9.9120    -0.8670 O.3   1 <1>  -0.3630 
 25 C        4.7860    10.3590    -1.9800 C.3   1 <1>   0.0400 
 26 H        0.3550     1.5760    -1.6180 H     1 <1>   0.4200 
 27 H       -0.7700    -2.1620    -0.9920 H     1 <1>   0.0800 
 28 H        0.8740    -1.8560    -1.4820 H     1 <1>   0.0800 
 29 H       -0.4480    -1.1120    -2.3440 H     1 <1>   0.0800 
 30 H        1.0380     2.0870     0.7470 H     1 <1>   0.0800 
 31 H        0.7850     3.6980    -1.0670 H     1 <1>   0.0800 
 32 H        2.3160     3.2150    -1.7570 H     1 <1>   0.0800 
 33 H        3.6170     1.2780    -0.6560 H     1 <1>   0.0800 
 34 H        2.9430     0.4970     0.7450 H     1 <1>   0.0800 
 35 H        1.8680     4.5100     0.9370 H     1 <1>   0.0800 
 36 H        2.6170     5.2390    -0.4620 H     1 <1>   0.0800 
 37 H        4.7420     2.0670     1.3340 H     1 <1>   0.0800 
 38 H        3.2190     2.4860     2.0840 H     1 <1>   0.0800 
 39 H        4.4220     3.6500    -0.3150 H     1 <1>   0.4500 
 40 H        4.2110     4.7230     2.3570 H     1 <1>   0.0800 
 41 H        3.1060     6.7860     2.2410 H     1 <1>   0.1500 
 42 H        5.9300     5.7920    -0.8110 H     1 <1>   0.1500 
 43 H        5.6810     7.9880    -1.7590 H     1 <1>   0.1500 
 44 H        2.3450    10.8350     2.5090 H     1 <1>   0.0800 
 45 H        2.5640    10.9990     0.7730 H     1 <1>   0.0800 
 46 H        3.9500    10.6300     1.8100 H     1 <1>   0.0800 
 47 H        4.4850    11.3680    -2.1980 H     1 <1>   0.0800 
 48 H        4.5700     9.7260    -2.8220 H     1 <1>   0.0800 
 49 H        5.8330    10.3360    -1.7350 H     1 <1>   0.0800 
@<TRIPOS>BOND
  1   1   2  2   
  2   1   3  2   
  3   1   4  am  
  4   1   5  1   
  5   4   6  1   
  6   4  26  1   
  7   5  27  1   
  8   5  28  1   
  9   5  29  1   
 10   6   7  1   
 11   6   8  1   
 12   6  30  1   
 13   7   9  1   
 14   7  31  1   
 15   7  32  1   
 16   8  10  1   
 17   8  33  1   
 18   8  34  1   
 19   9  11  1   
 20   9  35  1   
 21   9  36  1   
 22  10  11  1   
 23  10  37  1   
 24  10  38  1   
 25  11  12  1   
 26  11  39  1   
 27  12  13  1   
 28  12  14  1   
 29  12  40  1   
 30  13  15  ar  
 31  13  16  ar  
 32  14  17  ar  
 33  14  18  ar  
 34  15  19  ar  
 35  15  41  1   
 36  16  20  ar  
 37  16  42  1   
 38  19  21  1   
 39  19  22  ar  
 40  20  22  ar  
 41  20  43  1   
 42  21  23  1   
 43  22  24  1   
 44  23  44  1   
 45  23  45  1   
 46  23  46  1   
 47  24  25  1   
 48  25  47  1   
 49  25  48  1   
 50  25  49  1   
@<TRIPOS>SUBSTRUCTURE
  1 ****   9 GROUP 4 **** **** 0

# MOE 2024.06 (io_trps.svl 2023.06)
