@<TRIPOS>MOLECULE
NONAME
57 60 1 0 0 
SMALL
USER_CHARGES


@<TRIPOS>ATOM
  1 O       -0.2370    -0.3960     0.0650 O.2   1 <1>  -0.5700 
  2 C       -1.1580     0.3070     0.4360 C.2   1 <1>   0.7160 
  3 N       -2.1670    -0.2740     1.1400 N.am  1 <1>  -0.7300 
  4 C       -1.2140     1.7070     0.1350 C.2   1 <1>  -0.0860 
  5 C       -2.4060    -1.7160     1.3240 C.3   1 <1>   0.1400 
  6 C       -2.3540     2.5190     0.2330 C.2   1 <1>   0.3720 
  7 C       -0.2630     2.5660    -0.3290 C.2   1 <1>   0.0870 
  8 C       -3.7380    -2.0610     0.6590 C.3   1 <1>  -0.1600 
  9 N       -2.1060     3.7220    -0.1480 N.2   1 <1>  -0.4100 
 10 N       -3.6240     2.0960     0.6600 N.pl3 1 <1>  -0.8210 
 11 O       -0.8440     3.7290    -0.4810 O.3   1 <1>  -0.0190 
 12 C        1.1380     2.4360    -0.6440 C.ar  1 <1>   0.0530 
 13 C       -4.0340    -3.5690     0.6560 C.3   1 <1>   0.1760 
 14 C       -4.5930     1.9250    -0.4600 C.3   1 <1>   0.2090 
 15 C       -4.2580     2.9510     1.7040 C.3   1 <1>   0.2090 
 16 C        2.0020     1.6470     0.1170 C.ar  1 <1>  -0.1500 
 17 C        1.6880     3.1220    -1.7280 C.ar  1 <1>  -0.1500 
 18 N       -5.2560    -3.8190    -0.1460 N.pl3 1 <1>   0.0480 
 19 C       -4.2080    -4.1470     2.0690 C.3   1 <1>  -0.2400 
 20 C       -5.7870     2.8100    -0.1320 C.3   1 <1>  -0.1600 
 21 C       -5.7440     2.9560     1.3810 C.3   1 <1>  -0.1600 
 22 C        3.3460     1.5370    -0.1910 C.ar  1 <1>  -0.1500 
 23 C        3.0300     3.0200    -2.0410 C.ar  1 <1>  -0.1500 
 24 C       -6.5260    -3.4270     0.1110 C.2   1 <1>   0.0360 
 25 C       -5.3350    -4.4580    -1.3280 C.2   1 <1>  -0.3020 
 26 C        3.8720     2.2270    -1.2790 C.ar  1 <1>   0.0830 
 27 N       -7.3790    -3.7640    -0.8000 N.2   1 <1>  -0.5650 
 28 C       -6.6300    -4.4160    -1.7080 C.2   1 <1>   0.0770 
 29 O        5.1730     2.1750    -1.6500 O.3   1 <1>  -0.3620 
 30 C        6.1000     1.3600    -0.9700 C.3   1 <1>   0.0400 
 31 H       -2.9660     0.3560     1.3130 H     1 <1>   0.3700 
 32 H       -2.4340    -1.9340     2.3780 H     1 <1>   0.0800 
 33 H       -1.6050    -2.2820     0.8760 H     1 <1>   0.0800 
 34 H       -3.6980    -1.7250    -0.3640 H     1 <1>   0.0800 
 35 H       -4.5290    -1.5370     1.1650 H     1 <1>   0.0800 
 36 H       -3.2210    -4.0820     0.1720 H     1 <1>   0.0800 
 37 H       -4.8970     0.8930    -0.5010 H     1 <1>   0.0800 
 38 H       -4.1600     2.2010    -1.4080 H     1 <1>   0.0800 
 39 H       -3.8720     3.9570     1.6580 H     1 <1>   0.0800 
 40 H       -4.0740     2.5500     2.6860 H     1 <1>   0.0800 
 41 H        1.6160     1.1110     0.9640 H     1 <1>   0.1500 
 42 H        1.0520     3.7430    -2.3330 H     1 <1>   0.1500 
 43 H       -4.9640    -3.6090     2.6140 H     1 <1>   0.0800 
 44 H       -3.2860    -4.0890     2.6170 H     1 <1>   0.0800 
 45 H       -4.4900    -5.1830     2.0090 H     1 <1>   0.0800 
 46 H       -6.7110     2.3830    -0.4800 H     1 <1>   0.0800 
 47 H       -5.6450     3.7700    -0.5960 H     1 <1>   0.0800 
 48 H       -6.2240     3.8560     1.7210 H     1 <1>   0.0800 
 49 H       -6.2100     2.1060     1.8490 H     1 <1>   0.0800 
 50 H        3.9650     0.9120     0.4240 H     1 <1>   0.1500 
 51 H        3.4370     3.5550    -2.8800 H     1 <1>   0.1500 
 52 H       -6.7840    -2.8810     1.0010 H     1 <1>   0.1500 
 53 H       -4.4900    -4.8980    -1.8250 H     1 <1>   0.1500 
 54 H       -7.0710    -4.8270    -2.6010 H     1 <1>   0.1500 
 55 H        7.0560     1.4690    -1.4500 H     1 <1>   0.0800 
 56 H        5.7750     0.3370    -1.0300 H     1 <1>   0.0800 
 57 H        6.1650     1.6860     0.0530 H     1 <1>   0.0800 
@<TRIPOS>BOND
  1   1   2  2   
  2   2   3  am  
  3   2   4  1   
  4   3   5  1   
  5   3  31  1   
  6   4   6  1   
  7   4   7  2   
  8   5   8  1   
  9   5  32  1   
 10   5  33  1   
 11   6   9  2   
 12   6  10  1   
 13   7  11  1   
 14   7  12  1   
 15   8  13  1   
 16   8  34  1   
 17   8  35  1   
 18   9  11  1   
 19  10  14  1   
 20  10  15  1   
 21  12  16  ar  
 22  12  17  ar  
 23  13  18  1   
 24  13  19  1   
 25  13  36  1   
 26  14  20  1   
 27  14  37  1   
 28  14  38  1   
 29  15  21  1   
 30  15  39  1   
 31  15  40  1   
 32  16  22  ar  
 33  16  41  1   
 34  17  23  ar  
 35  17  42  1   
 36  18  24  1   
 37  18  25  1   
 38  19  43  1   
 39  19  44  1   
 40  19  45  1   
 41  20  21  1   
 42  20  46  1   
 43  20  47  1   
 44  21  48  1   
 45  21  49  1   
 46  22  26  ar  
 47  22  50  1   
 48  23  26  ar  
 49  23  51  1   
 50  24  27  2   
 51  24  52  1   
 52  25  28  2   
 53  25  53  1   
 54  26  29  1   
 55  27  28  1   
 56  28  54  1   
 57  29  30  1   
 58  30  55  1   
 59  30  56  1   
 60  30  57  1   
@<TRIPOS>SUBSTRUCTURE
  1 ****   2 GROUP 4 **** **** 0

# MOE 2024.06 (io_trps.svl 2023.06)
