@<TRIPOS>MOLECULE
NONAME
56 59 1 0 0 
SMALL
USER_CHARGES


@<TRIPOS>ATOM
  1 O        2.1900    -0.8840     2.4300 O.2   1 <1>  -0.5700 
  2 C        2.3660    -1.2980     1.3020 C.2   1 <1>   0.5440 
  3 N        2.7140    -0.3840     0.3220 N.am  1 <1>  -0.6600 
  4 C        2.2490    -2.7170     1.0330 C.ar  1 <1>   0.0860 
  5 C        2.5520     1.0860     0.5760 C.3   1 <1>   0.1400 
  6 C        3.3780    -0.7860    -0.9460 C.3   1 <1>   0.1400 
  7 C        1.3250    -3.2090     0.1110 C.ar  1 <1>  -0.1500 
  8 C        3.0660    -3.6350     1.6880 C.ar  1 <1>  -0.1500 
  9 C        3.8820     1.8210     0.8680 C.3   1 <1>   0.4230 
 10 C        4.7620    -0.1380    -1.1280 C.3   1 <1>  -0.0800 
 11 C        1.2250    -4.5640    -0.1640 C.ar  1 <1>  -0.1440 
 12 C        2.9820    -4.9880     1.4170 C.ar  1 <1>  -0.1500 
 13 N        4.5940     2.3010    -0.3710 N.4   1 <1>  -0.9590 
 14 C        4.8960     0.9880     1.6930 C.3   1 <1>   0.1200 
 15 C        5.7540    -0.4740     0.0160 C.3   1 <1>   0.1200 
 16 C        4.6360     1.3460    -1.5210 C.3   1 <1>   0.3430 
 17 C        2.0660    -5.4510     0.4910 C.ar  1 <1>  -0.1500 
 18 C        0.1970    -5.0810    -1.1680 C.3   1 <1>   0.2390 
 19 C        4.2150     3.6840    -0.7810 C.3   1 <1>   0.2630 
 20 O        5.9850     0.5930     0.8920 O.3   1 <1>  -0.5600 
 21 N       -0.6010    -6.2050    -0.6250 N.pl3 1 <1>   0.3140 
 22 N       -0.5510    -7.4260    -1.1950 N.2   1 <1>  -0.7070 
 23 C       -1.4570    -6.1920     0.4250 C.2   1 <1>  -0.3320 
 24 C       -1.3640    -8.1540    -0.5000 C.2   1 <1>   0.1080 
 25 C       -1.9630    -7.4390     0.5290 C.2   1 <1>  -0.1500 
 26 C       -1.7560    -4.9850     1.3000 C.3   1 <1>  -0.0600 
 27 C       -1.6070    -9.6130    -0.8060 C.3   1 <1>  -0.0590 
 28 H        2.0510     1.5440    -0.2570 H     1 <1>   0.0800 
 29 H        1.9100     1.2250     1.4290 H     1 <1>   0.0800 
 30 H        3.5050    -1.8550    -0.9700 H     1 <1>   0.0800 
 31 H        2.7360    -0.5270    -1.7710 H     1 <1>   0.0800 
 32 H        0.6770    -2.5090    -0.3860 H     1 <1>   0.1500 
 33 H        3.7710    -3.2810     2.4210 H     1 <1>   0.1500 
 34 H        3.6270     2.6810     1.4640 H     1 <1>   0.0800 
 35 H        5.1560    -0.6270    -2.0010 H     1 <1>   0.0800 
 36 H        3.6220    -5.6850     1.9310 H     1 <1>   0.1500 
 37 H        5.5770     2.2930    -0.0360 H     1 <1>   0.4500 
 38 H        4.4600     0.1270     2.1660 H     1 <1>   0.0800 
 39 H        5.2940     1.6080     2.4760 H     1 <1>   0.0800 
 40 H        6.7120    -0.7250    -0.4080 H     1 <1>   0.0800 
 41 H        5.4210    -1.3240     0.5900 H     1 <1>   0.0800 
 42 H        3.7490     1.4690    -2.1210 H     1 <1>   0.0800 
 43 H        5.4800     1.6030    -2.1410 H     1 <1>   0.0800 
 44 H        2.0020    -6.5090     0.2890 H     1 <1>   0.1500 
 45 H        0.7020    -5.4280    -2.0510 H     1 <1>   0.0800 
 46 H       -0.4830    -4.3010    -1.4520 H     1 <1>   0.0800 
 47 H        3.1910     3.7080    -1.1170 H     1 <1>   0.0800 
 48 H        4.8500     4.0230    -1.5840 H     1 <1>   0.0800 
 49 H        4.3230     4.3630     0.0490 H     1 <1>   0.0800 
 50 H       -2.6720    -7.8230     1.2390 H     1 <1>   0.1500 
 51 H       -2.4940    -5.2400     2.0390 H     1 <1>   0.0800 
 52 H       -2.1350    -4.1750     0.7040 H     1 <1>   0.0800 
 53 H       -0.8640    -4.6640     1.8090 H     1 <1>   0.0800 
 54 H       -2.3100   -10.0310    -0.1110 H     1 <1>   0.0800 
 55 H       -0.6790   -10.1510    -0.7380 H     1 <1>   0.0800 
 56 H       -1.9940    -9.7090    -1.8030 H     1 <1>   0.0800 
@<TRIPOS>BOND
  1   1   2  2   
  2   2   3  am  
  3   2   4  1   
  4   3   5  1   
  5   3   6  1   
  6   4   7  ar  
  7   4   8  ar  
  8   5   9  1   
  9   5  28  1   
 10   5  29  1   
 11   6  10  1   
 12   6  30  1   
 13   6  31  1   
 14   7  11  ar  
 15   7  32  1   
 16   8  12  ar  
 17   8  33  1   
 18   9  13  1   
 19   9  14  1   
 20   9  34  1   
 21  10  15  1   
 22  10  16  1   
 23  10  35  1   
 24  11  17  ar  
 25  11  18  1   
 26  12  17  ar  
 27  12  36  1   
 28  13  16  1   
 29  13  19  1   
 30  13  37  1   
 31  14  20  1   
 32  14  38  1   
 33  14  39  1   
 34  15  20  1   
 35  15  40  1   
 36  15  41  1   
 37  16  42  1   
 38  16  43  1   
 39  17  44  1   
 40  18  21  1   
 41  18  45  1   
 42  18  46  1   
 43  19  47  1   
 44  19  48  1   
 45  19  49  1   
 46  21  22  1   
 47  21  23  1   
 48  22  24  2   
 49  23  25  2   
 50  23  26  1   
 51  24  25  1   
 52  24  27  1   
 53  25  50  1   
 54  26  51  1   
 55  26  52  1   
 56  26  53  1   
 57  27  54  1   
 58  27  55  1   
 59  27  56  1   
@<TRIPOS>SUBSTRUCTURE
  1 ****   4 GROUP 4 **** **** 0

# MOE 2024.06 (io_trps.svl 2023.06)
