@<TRIPOS>MOLECULE
NONAME
58 61 1 0 0 
SMALL
USER_CHARGES


@<TRIPOS>ATOM
  1 O       -1.3910    -0.9270     0.7990 O.3   1 <1>  -0.3630 
  2 C       -0.3840    -0.4790     0.0070 C.ar  1 <1>   0.0830 
  3 C       -2.1600    -2.0420     0.4270 C.3   1 <1>   0.1200 
  4 C        0.3100     0.6340     0.4510 C.ar  1 <1>  -0.1500 
  5 C       -0.0240    -1.0730    -1.2010 C.ar  1 <1>  -0.1500 
  6 C       -3.1200    -2.3570     1.5770 C.3   1 <1>   0.3430 
  7 C        1.3550     1.1610    -0.2880 C.ar  1 <1>   0.0820 
  8 C        1.0200    -0.5490    -1.9450 C.ar  1 <1>  -0.1500 
  9 N       -3.9350    -3.5660     1.2590 N.4   1 <1>  -0.9590 
 10 O        1.9760     2.2520     0.2260 O.3   1 <1>  -0.3630 
 11 C        1.7100     0.5630    -1.4950 C.ar  1 <1>  -0.1500 
 12 C       -5.0730    -3.3680     0.3110 C.3   1 <1>   0.3430 
 13 C       -4.4820    -4.3240     2.4090 C.3   1 <1>   0.3430 
 14 C        3.0480     2.8700    -0.4460 C.3   1 <1>   0.1200 
 15 C       -6.0540    -4.5160     0.6000 C.3   1 <1>   0.2000 
 16 C       -5.4530    -5.3180     1.7650 C.3   1 <1>  -0.0800 
 17 C        3.5100     4.0560     0.3960 C.3   1 <1>  -0.2400 
 18 O       -7.2770    -3.9890     0.9940 O.3   1 <1>  -0.6800 
 19 C       -4.7580    -6.6270     1.2980 C.3   1 <1>  -0.0170 
 20 C       -3.3740    -6.4400     0.6780 C.ar  1 <1>   0.1670 
 21 N       -3.2950    -5.7800    -0.4390 N.ar  1 <1>  -0.6200 
 22 C       -2.2490    -6.9410     1.3540 C.ar  1 <1>  -0.1500 
 23 C       -2.0650    -5.5850    -0.9860 C.ar  1 <1>   0.3100 
 24 C       -1.0020    -6.7260     0.8510 C.ar  1 <1>  -0.1500 
 25 C       -0.8800    -6.0110    -0.3510 C.ar  1 <1>   0.0000 
 26 C       -1.9650    -4.9010    -2.2080 C.ar  1 <1>  -0.1500 
 27 C        0.3600    -5.7020    -0.9440 C.ar  1 <1>  -0.1500 
 28 C       -0.7500    -4.6160    -2.7700 C.ar  1 <1>  -0.1500 
 29 C        0.4250    -5.0160    -2.1260 C.ar  1 <1>  -0.1500 
 30 H       -2.6940    -1.7930    -0.4730 H     1 <1>   0.0800 
 31 H       -1.4910    -2.8690     0.2620 H     1 <1>   0.0800 
 32 H        0.0400     1.0980     1.3810 H     1 <1>   0.1500 
 33 H       -0.5330    -1.9360    -1.5820 H     1 <1>   0.1500 
 34 H       -3.7640    -1.5120     1.7570 H     1 <1>   0.0800 
 35 H       -2.5330    -2.5420     2.4610 H     1 <1>   0.0800 
 36 H        1.2990    -1.0080    -2.8780 H     1 <1>   0.1500 
 37 H       -3.3250    -4.2490     0.7640 H     1 <1>   0.4500 
 38 H        2.5140     0.9470    -2.0920 H     1 <1>   0.1500 
 39 H       -5.5580    -2.4210     0.4810 H     1 <1>   0.0800 
 40 H       -4.7240    -3.4220    -0.7070 H     1 <1>   0.0800 
 41 H       -3.7030    -4.8260     2.9610 H     1 <1>   0.0800 
 42 H       -5.0180    -3.6580     3.0650 H     1 <1>   0.0800 
 43 H        3.8420     2.1510    -0.5570 H     1 <1>   0.0800 
 44 H        2.7020     3.2000    -1.4100 H     1 <1>   0.0800 
 45 H       -6.2240    -5.1150    -0.2800 H     1 <1>   0.0800 
 46 H       -6.2230    -5.5950     2.4660 H     1 <1>   0.0800 
 47 H        3.8370     3.7170     1.3620 H     1 <1>   0.0800 
 48 H        2.7050     4.7590     0.5150 H     1 <1>   0.0800 
 49 H        4.3300     4.5510    -0.0910 H     1 <1>   0.0800 
 50 H       -7.2540    -3.5650     1.8740 H     1 <1>   0.4000 
 51 H       -5.3870    -7.1380     0.5890 H     1 <1>   0.0800 
 52 H       -4.6680    -7.2830     2.1470 H     1 <1>   0.0800 
 53 H       -2.3750    -7.4960     2.2680 H     1 <1>   0.1500 
 54 H       -0.1170    -7.0920     1.3430 H     1 <1>   0.1500 
 55 H       -2.8760    -4.6100    -2.7000 H     1 <1>   0.1500 
 56 H        1.2630    -6.0200    -0.4510 H     1 <1>   0.1500 
 57 H       -0.6800    -4.0930    -3.7100 H     1 <1>   0.1500 
 58 H        1.3770    -4.7840    -2.5770 H     1 <1>   0.1500 
@<TRIPOS>BOND
  1   1   2  1   
  2   1   3  1   
  3   2   4  ar  
  4   2   5  ar  
  5   3   6  1   
  6   3  30  1   
  7   3  31  1   
  8   4   7  ar  
  9   4  32  1   
 10   5   8  ar  
 11   5  33  1   
 12   6   9  1   
 13   6  34  1   
 14   6  35  1   
 15   7  10  1   
 16   7  11  ar  
 17   8  11  ar  
 18   8  36  1   
 19   9  12  1   
 20   9  13  1   
 21   9  37  1   
 22  10  14  1   
 23  11  38  1   
 24  12  15  1   
 25  12  39  1   
 26  12  40  1   
 27  13  16  1   
 28  13  41  1   
 29  13  42  1   
 30  14  17  1   
 31  14  43  1   
 32  14  44  1   
 33  15  16  1   
 34  15  18  1   
 35  15  45  1   
 36  16  19  1   
 37  16  46  1   
 38  17  47  1   
 39  17  48  1   
 40  17  49  1   
 41  18  50  1   
 42  19  20  1   
 43  19  51  1   
 44  19  52  1   
 45  20  21  ar  
 46  20  22  ar  
 47  21  23  ar  
 48  22  24  ar  
 49  22  53  1   
 50  23  25  ar  
 51  23  26  ar  
 52  24  25  ar  
 53  24  54  1   
 54  25  27  ar  
 55  26  28  ar  
 56  26  55  1   
 57  27  29  ar  
 58  27  56  1   
 59  28  29  ar  
 60  28  57  1   
 61  29  58  1   
@<TRIPOS>SUBSTRUCTURE
  1 ****   3 GROUP 4 **** **** 0

# MOE 2024.06 (io_trps.svl 2023.06)
