@<TRIPOS>MOLECULE
NONAME
37 40 1 0 0 
SMALL
USER_CHARGES


@<TRIPOS>ATOM
  1 O        0.9720    -0.1700     1.6880 O.3   1 <1>  -0.0190 
  2 N        1.7320     0.8760     1.4950 N.2   1 <1>  -0.4100 
  3 C        1.4450    -1.0590     0.8510 C.2   1 <1>   0.3930 
  4 C        2.5770     0.5600     0.5900 C.2   1 <1>   0.5990 
  5 N        2.4290    -0.6820     0.1440 N.2   1 <1>  -0.5650 
  6 C        0.7840    -2.4280     0.8070 C.3   1 <1>  -0.0150 
  7 N        3.5830     1.3880     0.0870 N.pl3 1 <1>  -0.8210 
  8 C        0.7780    -3.2570    -0.4420 C.3   1 <1>  -0.2000 
  9 C       -0.4930    -2.6290     0.0490 C.3   1 <1>  -0.2000 
 10 C        3.3810     2.8650     0.2240 C.3   1 <1>   0.3530 
 11 C        4.2130     0.9950    -1.2060 C.3   1 <1>   0.1290 
 12 C        4.7080     3.5980     0.4240 C.ar  1 <1>  -0.1440 
 13 C        4.8560     4.9020    -0.1000 C.ar  1 <1>   0.3100 
 14 C        5.7370     3.0090     1.1200 C.ar  1 <1>  -0.1500 
 15 N        3.8220     5.4850    -0.7720 N.ar  1 <1>  -0.6200 
 16 C        6.0870     5.5740     0.0930 C.ar  1 <1>   0.0000 
 17 C        6.9490     3.6770     1.3090 C.ar  1 <1>  -0.1500 
 18 C        3.9980     6.6830    -1.2390 C.ar  1 <1>   0.1600 
 19 C        6.2330     6.8690    -0.4320 C.ar  1 <1>  -0.1500 
 20 C        7.1200     4.9340     0.8030 C.ar  1 <1>  -0.1500 
 21 C        5.1810     7.4180    -1.0980 C.ar  1 <1>  -0.1500 
 22 H        0.8950    -2.9500     1.7400 H     1 <1>   0.1000 
 23 H        0.9050    -4.3220    -0.3520 H     1 <1>   0.1000 
 24 H        1.2490    -2.8580    -1.3240 H     1 <1>   0.1000 
 25 H       -0.9030    -1.8010    -0.5030 H     1 <1>   0.1000 
 26 H       -1.2530    -3.2590     0.4770 H     1 <1>   0.1000 
 27 H        2.7500     3.0910     1.0660 H     1 <1>   0.0800 
 28 H        2.8780     3.2150    -0.6600 H     1 <1>   0.0800 
 29 H        4.6300     0.0060    -1.1220 H     1 <1>   0.0800 
 30 H        5.0050     1.6770    -1.4620 H     1 <1>   0.0800 
 31 H        3.4750     1.0000    -1.9890 H     1 <1>   0.0800 
 32 H        5.6250     2.0200     1.5330 H     1 <1>   0.1500 
 33 H        7.7360     3.1850     1.8560 H     1 <1>   0.1500 
 34 H        3.1810     7.1440    -1.7700 H     1 <1>   0.1500 
 35 H        7.1590     7.3980    -0.2990 H     1 <1>   0.1500 
 36 H        8.0510     5.4540     0.9440 H     1 <1>   0.1500 
 37 H        5.2360     8.4060    -1.5200 H     1 <1>   0.1500 
@<TRIPOS>BOND
  1   1   2  1   
  2   1   3  1   
  3   2   4  2   
  4   3   5  2   
  5   3   6  1   
  6   4   5  1   
  7   4   7  1   
  8   6   8  1   
  9   6   9  1   
 10   6  22  1   
 11   7  10  1   
 12   7  11  1   
 13   8   9  1   
 14   8  23  1   
 15   8  24  1   
 16   9  25  1   
 17   9  26  1   
 18  10  12  1   
 19  10  27  1   
 20  10  28  1   
 21  11  29  1   
 22  11  30  1   
 23  11  31  1   
 24  12  13  ar  
 25  12  14  ar  
 26  13  15  ar  
 27  13  16  ar  
 28  14  17  ar  
 29  14  32  1   
 30  15  18  ar  
 31  16  19  ar  
 32  16  20  ar  
 33  17  20  ar  
 34  17  33  1   
 35  18  21  ar  
 36  18  34  1   
 37  19  21  ar  
 38  19  35  1   
 39  20  36  1   
 40  21  37  1   
@<TRIPOS>SUBSTRUCTURE
  1 ****  10 GROUP 4 **** **** 0

# MOE 2024.06 (io_trps.svl 2023.06)
