@<TRIPOS>MOLECULE
NONAME
39 41 1 0 0 
SMALL
USER_CHARGES


@<TRIPOS>ATOM
  1 CL       0.4360    -0.6360     2.3300 Cl    1 <1>  -0.1770 
  2 C        1.5440    -1.1800     1.0820 C.ar  1 <1>   0.1770 
  3 C        1.2620    -2.3120     0.3010 C.ar  1 <1>   0.4100 
  4 C        2.7000    -0.4640     0.8940 C.ar  1 <1>  -0.1500 
  5 N        2.0920    -2.7300    -0.6520 N.ar  1 <1>  -0.6200 
  6 N        0.0960    -3.0480     0.4760 N.pl3 1 <1>  -0.8380 
  7 C        3.5630    -0.9120    -0.0970 C.ar  1 <1>  -0.1430 
  8 C        3.2030    -2.0350    -0.8230 C.ar  1 <1>   0.1600 
  9 C       -1.1880    -2.4220     0.0630 C.3   1 <1>   0.2090 
 10 C        0.0610    -4.5010     0.1430 C.3   1 <1>   0.2090 
 11 C        4.8840    -0.2290    -0.4250 C.3   1 <1>   1.1640 
 12 C       -2.0320    -3.5530    -0.5300 C.3   1 <1>   0.2000 
 13 C       -1.4200    -4.8430     0.0060 C.3   1 <1>  -0.0800 
 14 F        4.9330     0.1770    -1.6870 F     1 <1>  -0.3400 
 15 F        5.9190    -1.0390    -0.2530 F     1 <1>  -0.3400 
 16 F        5.1180     0.8420     0.3220 F     1 <1>  -0.3400 
 17 O       -3.3620    -3.4650    -0.1430 O.3   1 <1>  -0.6800 
 18 C       -1.7010    -6.0580    -0.8940 C.3   1 <1>  -0.0170 
 19 C       -1.0800    -7.3260    -0.3330 C.ar  1 <1>   0.1670 
 20 N        0.2020    -7.5210    -0.6000 N.ar  1 <1>  -0.6200 
 21 C       -1.8570    -8.1980     0.4150 C.ar  1 <1>  -0.1500 
 22 C        0.7320    -8.6260    -0.1010 C.ar  1 <1>   0.1600 
 23 C       -1.2930    -9.3460     0.9290 C.ar  1 <1>  -0.1500 
 24 C        0.0420    -9.5560     0.6580 C.ar  1 <1>  -0.1500 
 25 H        2.9070     0.4020     1.5000 H     1 <1>   0.1500 
 26 H        3.8660    -2.3930    -1.5950 H     1 <1>   0.1500 
 27 H       -1.6680    -2.0020     0.9290 H     1 <1>   0.0800 
 28 H       -1.0170    -1.6540    -0.6710 H     1 <1>   0.0800 
 29 H        0.5690    -4.6870    -0.7890 H     1 <1>   0.0800 
 30 H        0.5290    -5.0820     0.9200 H     1 <1>   0.0800 
 31 H       -1.9840    -3.5140    -1.6050 H     1 <1>   0.0800 
 32 H       -1.7920    -5.0360     0.9960 H     1 <1>   0.0800 
 33 H       -3.4290    -3.5050     0.8310 H     1 <1>   0.4000 
 34 H       -1.3080    -5.8840    -1.8810 H     1 <1>   0.0800 
 35 H       -2.7640    -6.1890    -0.9890 H     1 <1>   0.0800 
 36 H       -2.8940    -7.9820     0.5970 H     1 <1>   0.1500 
 37 H        1.7740    -8.8000    -0.3080 H     1 <1>   0.1500 
 38 H       -1.8660   -10.0440     1.5140 H     1 <1>   0.1500 
 39 H        0.5450   -10.4310     1.0280 H     1 <1>   0.1500 
@<TRIPOS>BOND
  1   1   2  1   
  2   2   3  ar  
  3   2   4  ar  
  4   3   5  ar  
  5   3   6  1   
  6   4   7  ar  
  7   4  25  1   
  8   5   8  ar  
  9   6   9  1   
 10   6  10  1   
 11   7   8  ar  
 12   7  11  1   
 13   8  26  1   
 14   9  12  1   
 15   9  27  1   
 16   9  28  1   
 17  10  13  1   
 18  10  29  1   
 19  10  30  1   
 20  11  14  1   
 21  11  15  1   
 22  11  16  1   
 23  12  13  1   
 24  12  17  1   
 25  12  31  1   
 26  13  18  1   
 27  13  32  1   
 28  17  33  1   
 29  18  19  1   
 30  18  34  1   
 31  18  35  1   
 32  19  20  ar  
 33  19  21  ar  
 34  20  22  ar  
 35  21  23  ar  
 36  21  36  1   
 37  22  24  ar  
 38  22  37  1   
 39  23  24  ar  
 40  23  38  1   
 41  24  39  1   
@<TRIPOS>SUBSTRUCTURE
  1 ****   6 GROUP 4 **** **** 0

# MOE 2024.06 (io_trps.svl 2023.06)
