@<TRIPOS>MOLECULE
NONAME
40 42 1 0 0 
SMALL
USER_CHARGES


@<TRIPOS>ATOM
  1 F       -3.5690     0.7180    -1.5610 F     1 <1>  -0.1900 
  2 C       -3.5340    -0.4850    -1.0270 C.ar  1 <1>   0.1900 
  3 C       -3.3300    -0.6820     0.3380 C.ar  1 <1>   0.4100 
  4 C       -3.7000    -1.5760    -1.8330 C.ar  1 <1>   0.1600 
  5 N       -3.2950    -1.8970     0.8330 N.ar  1 <1>  -0.6200 
  6 N       -3.1500     0.3010     1.2820 N.pl3 1 <1>  -0.8690 
  7 N       -3.6740    -2.8020    -1.3450 N.ar  1 <1>  -0.6200 
  8 C       -3.4600    -2.8820    -0.0340 C.ar  1 <1>   0.7200 
  9 C       -3.7870     1.6390     1.2230 C.3   1 <1>   0.1290 
 10 N       -3.4250    -4.1120     0.5240 N.pl3 1 <1>  -0.8690 
 11 C       -4.1430    -5.2770    -0.0420 C.3   1 <1>   0.2890 
 12 C       -5.6350    -5.1330     0.2110 C.3   1 <1>  -0.0800 
 13 C       -3.7970    -6.5400     0.7480 C.3   1 <1>   0.1200 
 14 C       -5.7660    -5.7150     1.6180 C.3   1 <1>   0.1200 
 15 C       -6.4620    -5.9180    -0.8240 C.3   1 <1>  -0.0170 
 16 O       -4.7900    -6.7070     1.7230 O.3   1 <1>  -0.5600 
 17 C       -7.9530    -5.7180    -0.6010 C.ar  1 <1>  -0.1430 
 18 C       -8.5840    -4.5420    -0.9510 C.ar  1 <1>  -0.1500 
 19 C       -8.7500    -6.6950    -0.0400 C.ar  1 <1>  -0.1500 
 20 C       -9.9430    -4.4000    -0.7240 C.ar  1 <1>   0.1600 
 21 C      -10.1010    -6.4520     0.1440 C.ar  1 <1>   0.1600 
 22 N      -10.7170    -5.3270    -0.1840 N.ar  1 <1>  -0.6200 
 23 H       -3.8570    -1.4460    -2.8890 H     1 <1>   0.1500 
 24 H       -3.0400    -0.0880     2.2240 H     1 <1>   0.4000 
 25 H       -4.7620     1.5670     0.7710 H     1 <1>   0.0800 
 26 H       -3.1750     2.3050     0.6390 H     1 <1>   0.0800 
 27 H       -3.8890     2.0390     2.2160 H     1 <1>   0.0800 
 28 H       -3.4170    -4.0680     1.5420 H     1 <1>   0.4000 
 29 H       -3.8970    -5.3840    -1.0850 H     1 <1>   0.0800 
 30 H       -5.9430    -4.1030     0.1920 H     1 <1>   0.0800 
 31 H       -2.8350    -6.4730     1.2230 H     1 <1>   0.0800 
 32 H       -3.8280    -7.4040     0.1090 H     1 <1>   0.0800 
 33 H       -6.7320    -6.1450     1.8160 H     1 <1>   0.0800 
 34 H       -5.5480    -4.9650     2.3580 H     1 <1>   0.0800 
 35 H       -6.2230    -6.9660    -0.7750 H     1 <1>   0.0800 
 36 H       -6.2140    -5.5720    -1.8130 H     1 <1>   0.0800 
 37 H       -8.0320    -3.7340    -1.3960 H     1 <1>   0.1500 
 38 H       -8.3350    -7.6400     0.2590 H     1 <1>   0.1500 
 39 H      -10.4180    -3.4750    -1.0020 H     1 <1>   0.1500 
 40 H      -10.7080    -7.2250     0.5840 H     1 <1>   0.1500 
@<TRIPOS>BOND
  1   1   2  1   
  2   2   3  ar  
  3   2   4  ar  
  4   3   5  ar  
  5   3   6  1   
  6   4   7  ar  
  7   4  23  1   
  8   5   8  ar  
  9   6   9  1   
 10   6  24  1   
 11   7   8  ar  
 12   8  10  1   
 13   9  25  1   
 14   9  26  1   
 15   9  27  1   
 16  10  11  1   
 17  10  28  1   
 18  11  12  1   
 19  11  13  1   
 20  11  29  1   
 21  12  14  1   
 22  12  15  1   
 23  12  30  1   
 24  13  16  1   
 25  13  31  1   
 26  13  32  1   
 27  14  16  1   
 28  14  33  1   
 29  14  34  1   
 30  15  17  1   
 31  15  35  1   
 32  15  36  1   
 33  17  18  ar  
 34  17  19  ar  
 35  18  20  ar  
 36  18  37  1   
 37  19  21  ar  
 38  19  38  1   
 39  20  22  ar  
 40  20  39  1   
 41  21  22  ar  
 42  21  40  1   
@<TRIPOS>SUBSTRUCTURE
  1 ****  12 GROUP 4 **** **** 0

# MOE 2024.06 (io_trps.svl 2023.06)
