@<TRIPOS>MOLECULE
NONAME
41 43 1 0 0 
SMALL
USER_CHARGES


@<TRIPOS>ATOM
  1 O        0.8580     1.5100     0.7100 O.co2 1 <1>  -0.9000 
  2 C        1.9940     1.3480     0.2820 C.2   1 <1>   0.9060 
  3 O        2.4590     2.0200    -0.6490 O.co2 1 <1>  -0.9000 
  4 C        2.9130     0.3800     1.0140 C.3   1 <1>  -0.1860 
  5 C        4.0120    -0.2900     0.1420 C.3   1 <1>   0.2000 
  6 C        3.5540     1.1500     2.1900 C.3   1 <1>  -0.1600 
  7 O        3.8130    -0.0590    -1.2070 O.3   1 <1>  -0.6800 
  8 C        5.4350     0.1990     0.5060 C.3   1 <1>   0.3430 
  9 C        4.4770     2.2430     1.6370 C.3   1 <1>   0.3430 
 10 N        5.5330     1.6910     0.7120 N.4   1 <1>  -0.9590 
 11 C        5.4700     2.3910    -0.6090 C.3   1 <1>   0.4860 
 12 C        5.7220     3.8740    -0.4100 C.ar  1 <1>  -0.1440 
 13 C        4.6540     4.7540    -0.4880 C.ar  1 <1>  -0.1500 
 14 C        6.9930     4.3680    -0.1550 C.ar  1 <1>  -0.1500 
 15 C        4.8520     6.1090    -0.3010 C.ar  1 <1>  -0.1500 
 16 C        7.1880     5.7250     0.0310 C.ar  1 <1>  -0.1500 
 17 C        6.1200     6.6170    -0.0330 C.ar  1 <1>  -0.0230 
 18 N        6.3090     8.0170     0.1640 N.pl3 1 <1>   0.5930 
 19 N        5.5590     8.9680    -0.4490 N.2   1 <1>  -0.7070 
 20 C        7.2250     8.6130     0.9700 C.2   1 <1>  -0.3020 
 21 C        6.0170    10.1050    -0.0280 C.2   1 <1>   0.1390 
 22 C        7.0660     9.9480     0.8670 C.2   1 <1>  -0.1500 
 23 H        2.2840    -0.3930     1.4170 H     1 <1>   0.0800 
 24 H        3.9740    -1.3570     0.2750 H     1 <1>   0.0800 
 25 H        4.0890     0.4910     2.8500 H     1 <1>   0.0800 
 26 H        2.7750     1.6180     2.7680 H     1 <1>   0.0800 
 27 H        3.2220     0.7560    -1.2850 H     1 <1>   0.4000 
 28 H        6.1200    -0.1250    -0.2600 H     1 <1>   0.0800 
 29 H        5.7170    -0.2880     1.4230 H     1 <1>   0.0800 
 30 H        4.9430     2.7720     2.4520 H     1 <1>   0.0800 
 31 H        3.8640     2.9510     1.1010 H     1 <1>   0.0800 
 32 H        6.4450     1.9250     1.1090 H     1 <1>   0.4500 
 33 H        6.2140     1.9890    -1.2750 H     1 <1>   0.0800 
 34 H        4.5120     2.2500    -1.0730 H     1 <1>   0.0800 
 35 H        3.6580     4.3880    -0.6980 H     1 <1>   0.1500 
 36 H        7.8410     3.7060    -0.1080 H     1 <1>   0.1500 
 37 H        4.0120     6.7810    -0.3680 H     1 <1>   0.1500 
 38 H        8.1820     6.0930     0.2180 H     1 <1>   0.1500 
 39 H        7.9230     8.0550     1.5630 H     1 <1>   0.1500 
 40 H        5.6220    11.0580    -0.3420 H     1 <1>   0.1500 
 41 H        7.6080    10.7400     1.3550 H     1 <1>   0.1500 
@<TRIPOS>BOND
  1   1   2  ar  
  2   2   3  ar  
  3   2   4  1   
  4   4   5  1   
  5   4   6  1   
  6   4  23  1   
  7   5   7  1   
  8   5   8  1   
  9   5  24  1   
 10   6   9  1   
 11   6  25  1   
 12   6  26  1   
 13   7  27  1   
 14   8  10  1   
 15   8  28  1   
 16   8  29  1   
 17   9  10  1   
 18   9  30  1   
 19   9  31  1   
 20  10  11  1   
 21  10  32  1   
 22  11  12  1   
 23  11  33  1   
 24  11  34  1   
 25  12  13  ar  
 26  12  14  ar  
 27  13  15  ar  
 28  13  35  1   
 29  14  16  ar  
 30  14  36  1   
 31  15  17  ar  
 32  15  37  1   
 33  16  17  ar  
 34  16  38  1   
 35  17  18  1   
 36  18  19  1   
 37  18  20  1   
 38  19  21  2   
 39  20  22  2   
 40  20  39  1   
 41  21  22  1   
 42  21  40  1   
 43  22  41  1   
@<TRIPOS>SUBSTRUCTURE
  1 ****  13 GROUP 4 **** **** 0

# MOE 2024.06 (io_trps.svl 2023.06)
