@<TRIPOS>MOLECULE
NONAME
40 42 1 0 0 
SMALL
USER_CHARGES


@<TRIPOS>ATOM
  1 CL       2.6630     0.1140     3.1010 Cl    1 <1>  -0.1770 
  2 C        2.6770    -0.8210     1.6290 C.ar  1 <1>   0.1770 
  3 C        2.6130    -2.2000     1.7040 C.ar  1 <1>  -0.1500 
  4 C        2.7500    -0.1610     0.4140 C.ar  1 <1>  -0.1500 
  5 C        2.6140    -2.9760     0.5440 C.ar  1 <1>   0.0860 
  6 C        2.7650    -0.9060    -0.7530 C.ar  1 <1>  -0.1500 
  7 C        2.7000    -2.2860    -0.6670 C.ar  1 <1>   0.1900 
  8 C        2.5400    -4.4180     0.6310 C.2   1 <1>   0.5440 
  9 F        2.7290    -2.9530    -1.7880 F     1 <1>  -0.1900 
 10 O        3.3370    -5.0100     1.3330 O.2   1 <1>  -0.5700 
 11 N        1.5660    -5.1470    -0.0080 N.am  1 <1>  -0.6600 
 12 C        0.3200    -4.6040    -0.6070 C.3   1 <1>   0.1400 
 13 C        1.4900    -6.6310     0.0580 C.3   1 <1>   0.1400 
 14 C       -0.7120    -5.7060    -0.3750 C.3   1 <1>   0.2000 
 15 C        0.1100    -6.9910    -0.5080 C.3   1 <1>  -0.0800 
 16 O       -1.1770    -5.5840     0.9270 O.3   1 <1>  -0.6800 
 17 C       -0.5130    -8.2480     0.1260 C.3   1 <1>   0.0210 
 18 C        0.3860    -9.4520    -0.0750 C.2   1 <1>   0.1080 
 19 N        0.6590    -9.9380    -1.2460 N.2   1 <1>  -0.7070 
 20 C        1.0170   -10.1540     0.9460 C.2   1 <1>  -0.1500 
 21 N        1.4810   -10.9760    -0.9990 N.pl3 1 <1>   0.3000 
 22 C        1.7140   -11.1260     0.3220 C.2   1 <1>  -0.3320 
 23 C        2.6030   -12.2030     0.9140 C.3   1 <1>  -0.0600 
 24 H        2.5660    -2.6810     2.6650 H     1 <1>   0.1500 
 25 H        2.7990     0.9140     0.3890 H     1 <1>   0.1500 
 26 H        2.8280    -0.4270    -1.7140 H     1 <1>   0.1500 
 27 H        0.0170    -3.6750    -0.1560 H     1 <1>   0.0800 
 28 H        0.4720    -4.4640    -1.6630 H     1 <1>   0.0800 
 29 H        2.2790    -7.0790    -0.5230 H     1 <1>   0.0800 
 30 H        1.5830    -6.9470     1.0830 H     1 <1>   0.0800 
 31 H       -1.5500    -5.6570    -1.0490 H     1 <1>   0.0800 
 32 H        0.2430    -7.1840    -1.5590 H     1 <1>   0.0800 
 33 H       -0.4030    -5.5260     1.5240 H     1 <1>   0.4000 
 34 H       -1.4640    -8.4480    -0.3330 H     1 <1>   0.0800 
 35 H       -0.6750    -8.1030     1.1780 H     1 <1>   0.0800 
 36 H        0.9480    -9.9430     1.9990 H     1 <1>   0.1500 
 37 H        1.8660   -11.5580    -1.7520 H     1 <1>   0.2700 
 38 H        2.6280   -12.1130     1.9860 H     1 <1>   0.0800 
 39 H        3.6060   -12.1060     0.5390 H     1 <1>   0.0800 
 40 H        2.2250   -13.1780     0.6620 H     1 <1>   0.0800 
@<TRIPOS>BOND
  1   1   2  1   
  2   2   3  ar  
  3   2   4  ar  
  4   3   5  ar  
  5   3  24  1   
  6   4   6  ar  
  7   4  25  1   
  8   5   7  ar  
  9   5   8  1   
 10   6   7  ar  
 11   6  26  1   
 12   7   9  1   
 13   8  10  2   
 14   8  11  am  
 15  11  12  1   
 16  11  13  1   
 17  12  14  1   
 18  12  27  1   
 19  12  28  1   
 20  13  15  1   
 21  13  29  1   
 22  13  30  1   
 23  14  15  1   
 24  14  16  1   
 25  14  31  1   
 26  15  17  1   
 27  15  32  1   
 28  16  33  1   
 29  17  18  1   
 30  17  34  1   
 31  17  35  1   
 32  18  19  2   
 33  18  20  1   
 34  19  21  1   
 35  20  22  2   
 36  20  36  1   
 37  21  22  1   
 38  21  37  1   
 39  22  23  1   
 40  23  38  1   
 41  23  39  1   
 42  23  40  1   
@<TRIPOS>SUBSTRUCTURE
  1 ****  11 GROUP 4 **** **** 0

# MOE 2024.06 (io_trps.svl 2023.06)
