@<TRIPOS>MOLECULE
NONAME
56 58 1 0 0 
SMALL
USER_CHARGES


@<TRIPOS>ATOM
  1 O        0.2290    -0.2180    -0.4170 O.2   1 <1>  -0.5700 
  2 C        0.2080    -1.4400    -0.4370 C.2   1 <1>   0.5440 
  3 N       -0.6160    -2.1150    -1.3260 N.am  1 <1>  -0.2980 
  4 C        1.0100    -2.2310     0.4500 C.ar  1 <1>   0.0860 
  5 N       -0.6970    -3.4670    -1.4300 N.2   1 <1>  -0.5120 
  6 C       -1.4570    -1.3330    -2.2630 C.3   1 <1>   0.0600 
  7 C        0.9230    -3.6310     0.3550 C.ar  1 <1>   0.0860 
  8 C        1.8530    -1.6490     1.4030 C.ar  1 <1>  -0.1500 
  9 C        0.0460    -4.2080    -0.6450 C.2   1 <1>   0.3640 
 10 C        1.6870    -4.3890     1.2590 C.ar  1 <1>  -0.1500 
 11 C        2.5970    -2.4200     2.2660 C.ar  1 <1>  -0.1500 
 12 C       -0.0170    -5.6550    -0.7710 C.2   1 <1>   0.6300 
 13 C        2.5090    -3.7990     2.1940 C.ar  1 <1>  -0.1500 
 14 O        1.0070    -6.2920    -0.9710 O.2   1 <1>  -0.5700 
 15 N       -1.2020    -6.3710    -0.6610 N.am  1 <1>  -0.6600 
 16 C       -2.5310    -5.7490    -0.3670 C.3   1 <1>   0.1400 
 17 C       -1.2840    -7.8360    -0.9540 C.3   1 <1>   0.1400 
 18 C       -3.3510    -6.6020     0.6270 C.3   1 <1>   0.2000 
 19 C       -2.1700    -8.5650     0.0760 C.3   1 <1>   0.2000 
 20 O       -3.4090    -7.9260     0.1720 O.3   1 <1>  -0.5600 
 21 C       -4.7990    -6.0920     0.8150 C.3   1 <1>  -0.0800 
 22 C       -2.4550   -10.0250    -0.2970 C.3   1 <1>  -0.1600 
 23 C       -4.8460    -4.6410     1.3270 C.3   1 <1>  -0.2400 
 24 C       -5.5880    -6.9820     1.7900 C.3   1 <1>  -0.2400 
 25 C       -1.1940   -10.9040    -0.3030 C.3   1 <1>  -0.1600 
 26 C       -1.5460   -12.3690    -0.5870 C.3   1 <1>  -0.1600 
 27 C       -0.2910   -13.2450    -0.5960 C.3   1 <1>  -0.2400 
 28 H       -2.1210    -0.6980    -1.7050 H     1 <1>   0.0800 
 29 H       -2.0350    -1.9960    -2.8830 H     1 <1>   0.0800 
 30 H       -0.8270    -0.7250    -2.8860 H     1 <1>   0.0800 
 31 H        1.9160    -0.5750     1.4570 H     1 <1>   0.1500 
 32 H        1.6490    -5.4640     1.2400 H     1 <1>   0.1500 
 33 H        3.2430    -1.9570     2.9950 H     1 <1>   0.1500 
 34 H        3.0880    -4.4060     2.8700 H     1 <1>   0.1500 
 35 H       -2.3960    -4.7690     0.0510 H     1 <1>   0.0800 
 36 H       -3.0820    -5.6460    -1.2850 H     1 <1>   0.0800 
 37 H       -1.6980    -7.9730    -1.9370 H     1 <1>   0.0800 
 38 H       -0.3020    -8.2750    -0.9460 H     1 <1>   0.0800 
 39 H       -2.8580    -6.6030     1.5840 H     1 <1>   0.0800 
 40 H       -1.7010    -8.5330     1.0450 H     1 <1>   0.0800 
 41 H       -5.2900    -6.1230    -0.1440 H     1 <1>   0.0800 
 42 H       -3.1510   -10.4230     0.4210 H     1 <1>   0.0800 
 43 H       -2.9200   -10.0570    -1.2670 H     1 <1>   0.0800 
 44 H       -4.3050    -4.5480     2.2520 H     1 <1>   0.0800 
 45 H       -5.8650    -4.3410     1.4980 H     1 <1>   0.0800 
 46 H       -4.4260    -3.9610     0.6080 H     1 <1>   0.0800 
 47 H       -5.1180    -6.9970     2.7560 H     1 <1>   0.0800 
 48 H       -5.6380    -7.9910     1.4200 H     1 <1>   0.0800 
 49 H       -6.5950    -6.6210     1.9000 H     1 <1>   0.0800 
 50 H       -0.5070   -10.5590    -1.0570 H     1 <1>   0.0800 
 51 H       -0.7040   -10.8350     0.6540 H     1 <1>   0.0800 
 52 H       -2.2250   -12.7310     0.1670 H     1 <1>   0.0800 
 53 H       -2.0380   -12.4450    -1.5420 H     1 <1>   0.0800 
 54 H        0.2060   -13.2020     0.3570 H     1 <1>   0.0800 
 55 H        0.3930   -12.9160    -1.3590 H     1 <1>   0.0800 
 56 H       -0.5580   -14.2680    -0.7950 H     1 <1>   0.0800 
@<TRIPOS>BOND
  1   1   2  2   
  2   2   3  am  
  3   2   4  1   
  4   3   5  1   
  5   3   6  1   
  6   4   7  ar  
  7   4   8  ar  
  8   5   9  2   
  9   6  28  1   
 10   6  29  1   
 11   6  30  1   
 12   7   9  1   
 13   7  10  ar  
 14   8  11  ar  
 15   8  31  1   
 16   9  12  1   
 17  10  13  ar  
 18  10  32  1   
 19  11  13  ar  
 20  11  33  1   
 21  12  14  2   
 22  12  15  am  
 23  13  34  1   
 24  15  16  1   
 25  15  17  1   
 26  16  18  1   
 27  16  35  1   
 28  16  36  1   
 29  17  19  1   
 30  17  37  1   
 31  17  38  1   
 32  18  20  1   
 33  18  21  1   
 34  18  39  1   
 35  19  20  1   
 36  19  22  1   
 37  19  40  1   
 38  21  23  1   
 39  21  24  1   
 40  21  41  1   
 41  22  25  1   
 42  22  42  1   
 43  22  43  1   
 44  23  44  1   
 45  23  45  1   
 46  23  46  1   
 47  24  47  1   
 48  24  48  1   
 49  24  49  1   
 50  25  26  1   
 51  25  50  1   
 52  25  51  1   
 53  26  27  1   
 54  26  52  1   
 55  26  53  1   
 56  27  54  1   
 57  27  55  1   
 58  27  56  1   
@<TRIPOS>SUBSTRUCTURE
  1 ****  15 GROUP 4 **** **** 0

# MOE 2024.06 (io_trps.svl 2023.06)
