@<TRIPOS>MOLECULE
NONAME
53 57 1 0 0 
SMALL
USER_CHARGES


@<TRIPOS>ATOM
  1 O        0.3070     0.6850     0.1870 O.3   1 <1>  -0.2800 
  2 C        0.4070     2.0090     0.2370 C.2   1 <1>   0.5620 
  3 C       -0.9580     0.4430    -0.0980 C.ar  1 <1>   0.1400 
  4 N       -0.6880     2.6460     0.0000 N.2   1 <1>  -0.5650 
  5 N        1.6280     2.5800     0.5190 N.pl3 1 <1>  -0.8220 
  6 C       -1.5870     1.6560    -0.2160 C.ar  1 <1>   0.2270 
  7 C       -1.6230    -0.7620    -0.2650 C.ar  1 <1>  -0.1500 
  8 C        1.8070     4.0630     0.5460 C.3   1 <1>   0.2090 
  9 C        2.8880     1.7910     0.6190 C.3   1 <1>   0.2090 
 10 C       -2.9440     1.7010    -0.5170 C.ar  1 <1>  -0.1500 
 11 C       -2.9730    -0.7170    -0.5640 C.ar  1 <1>  -0.1500 
 12 C        2.8320     4.5010    -0.5140 C.3   1 <1>   0.2090 
 13 C        3.9170     2.2600    -0.4330 C.3   1 <1>   0.2090 
 14 C       -3.6300     0.5110    -0.6890 C.ar  1 <1>  -0.1500 
 15 N        4.1440     3.7530    -0.3750 N.pl3 1 <1>  -0.8380 
 16 C        5.3080     4.4050    -0.1160 C.ar  1 <1>   0.7710 
 17 N        5.2700     5.6770     0.2490 N.ar  1 <1>  -0.6200 
 18 N        6.4730     3.7440    -0.2410 N.ar  1 <1>  -0.1790 
 19 C        6.4030     6.3060     0.4970 C.ar  1 <1>   0.4100 
 20 C        7.6610     4.3410     0.0210 C.ar  1 <1>   0.2110 
 21 N        6.3370     7.6180     0.8450 N.pl3 1 <1>  -0.8380 
 22 C        7.6390     5.6390     0.4020 C.ar  1 <1>  -0.1500 
 23 C        7.3700     8.6400     0.4680 C.3   1 <1>   0.2090 
 24 C        5.1230     8.2210     1.4790 C.3   1 <1>   0.2090 
 25 C        6.7630     9.7040    -0.4640 C.3   1 <1>   0.2000 
 26 C        4.4920     9.2390     0.5220 C.3   1 <1>  -0.1600 
 27 O        7.6870    10.7120    -0.6800 O.3   1 <1>  -0.6800 
 28 C        5.4920    10.3340     0.1160 C.3   1 <1>  -0.1600 
 29 H       -1.0930    -1.6920    -0.1630 H     1 <1>   0.1500 
 30 H        2.1510     4.3620     1.5210 H     1 <1>   0.0800 
 31 H        0.8720     4.5630     0.3620 H     1 <1>   0.0800 
 32 H        2.6920     0.7430     0.4800 H     1 <1>   0.0800 
 33 H        3.2990     1.9180     1.6060 H     1 <1>   0.0800 
 34 H       -3.4290     2.6550    -0.6080 H     1 <1>   0.1500 
 35 H       -3.5270    -1.6300    -0.7020 H     1 <1>   0.1500 
 36 H        2.9650     5.5670    -0.4440 H     1 <1>   0.0800 
 37 H        2.4150     4.3020    -1.4860 H     1 <1>   0.0800 
 38 H        3.5400     1.9990    -1.4090 H     1 <1>   0.0800 
 39 H        4.8280     1.7150    -0.2760 H     1 <1>   0.0800 
 40 H       -4.6810     0.5260    -0.9220 H     1 <1>   0.1500 
 41 H        6.4050     2.7910    -0.5750 H     1 <1>   0.4570 
 42 H        8.5740     3.7750    -0.0780 H     1 <1>   0.1500 
 43 H        8.5420     6.1680     0.6440 H     1 <1>   0.1500 
 44 H        8.1950     8.1810    -0.0460 H     1 <1>   0.0800 
 45 H        7.7360     9.1090     1.3640 H     1 <1>   0.0800 
 46 H        5.4120     8.7120     2.3930 H     1 <1>   0.0800 
 47 H        4.4010     7.4640     1.7320 H     1 <1>   0.0800 
 48 H        6.5510     9.2520    -1.4180 H     1 <1>   0.0800 
 49 H        3.6390     9.6900     0.9970 H     1 <1>   0.0800 
 50 H        4.1430     8.7190    -0.3530 H     1 <1>   0.0800 
 51 H        7.7220    11.3140     0.0870 H     1 <1>   0.4000 
 52 H        5.0410    10.9770    -0.6200 H     1 <1>   0.0800 
 53 H        5.7380    10.9190     0.9850 H     1 <1>   0.0800 
@<TRIPOS>BOND
  1   1   2  1   
  2   1   3  1   
  3   2   4  2   
  4   2   5  1   
  5   3   6  ar  
  6   3   7  ar  
  7   4   6  1   
  8   5   8  1   
  9   5   9  1   
 10   6  10  ar  
 11   7  11  ar  
 12   7  29  1   
 13   8  12  1   
 14   8  30  1   
 15   8  31  1   
 16   9  13  1   
 17   9  32  1   
 18   9  33  1   
 19  10  14  ar  
 20  10  34  1   
 21  11  14  ar  
 22  11  35  1   
 23  12  15  1   
 24  12  36  1   
 25  12  37  1   
 26  13  15  1   
 27  13  38  1   
 28  13  39  1   
 29  14  40  1   
 30  15  16  1   
 31  16  17  ar  
 32  16  18  ar  
 33  17  19  ar  
 34  18  20  ar  
 35  18  41  1   
 36  19  21  1   
 37  19  22  ar  
 38  20  22  ar  
 39  20  42  1   
 40  21  23  1   
 41  21  24  1   
 42  22  43  1   
 43  23  25  1   
 44  23  44  1   
 45  23  45  1   
 46  24  26  1   
 47  24  46  1   
 48  24  47  1   
 49  25  27  1   
 50  25  28  1   
 51  25  48  1   
 52  26  28  1   
 53  26  49  1   
 54  26  50  1   
 55  27  51  1   
 56  28  52  1   
 57  28  53  1   
@<TRIPOS>SUBSTRUCTURE
  1 ****  12 GROUP 4 **** **** 0

# MOE 2024.06 (io_trps.svl 2023.06)
