@<TRIPOS>MOLECULE
NONAME
45 47 1 0 0 
SMALL
USER_CHARGES


@<TRIPOS>ATOM
  1 O       -1.1290     0.7660     1.7190 O.2   1 <1>  -0.5700 
  2 C       -1.7860     1.2190     0.7950 C.2   1 <1>   0.7150 
  3 N       -2.9320     0.5290     0.4200 N.am  1 <1>  -0.6600 
  4 C       -1.3220     2.4440     0.1670 C.2   1 <1>   0.0550 
  5 C       -4.0690     1.1910    -0.2950 C.3   1 <1>   0.2200 
  6 C       -3.0250    -0.9370     0.7100 C.3   1 <1>   0.0600 
  7 O       -1.7320     2.8510    -1.0340 O.3   1 <1>  -0.2800 
  8 C       -0.4170     3.3520     0.6310 C.2   1 <1>  -0.1500 
  9 C       -4.6040     2.3930     0.4860 C.3   1 <1>  -0.1600 
 10 C       -5.3230     0.3300    -0.4860 C.3   1 <1>  -0.1600 
 11 C       -1.1230     3.9750    -1.3380 C.2   1 <1>  -0.0100 
 12 C       -0.2910     4.3430    -0.3420 C.2   1 <1>  -0.1500 
 13 C       -6.0010     2.6490    -0.0940 C.3   1 <1>  -0.0800 
 14 C       -6.4480     1.3400    -0.7480 C.3   1 <1>  -0.0800 
 15 C       -7.0880     2.9950     0.9330 C.3   1 <1>  -0.1600 
 16 C       -7.8060     0.9930    -0.1170 C.3   1 <1>  -0.1600 
 17 C       -8.3630     2.3170     0.4190 C.3   1 <1>   0.4230 
 18 N       -8.9890     3.1160    -0.6860 N.4   1 <1>  -0.9590 
 19 C       -9.4100     4.4850    -0.2450 C.3   1 <1>   0.2630 
 20 C      -10.1740     2.4300    -1.2950 C.3   1 <1>   0.2630 
 21 H       -3.7380     1.5110    -1.2690 H     1 <1>   0.0800 
 22 H       -3.3430    -1.4720    -0.1680 H     1 <1>   0.0800 
 23 H       -3.7200    -1.1080     1.5120 H     1 <1>   0.0800 
 24 H       -2.0670    -1.3300     1.0040 H     1 <1>   0.0800 
 25 H        0.1130     3.3160     1.5670 H     1 <1>   0.1500 
 26 H       -4.6610     2.1320     1.5280 H     1 <1>   0.0800 
 27 H       -3.9780     3.2600     0.3710 H     1 <1>   0.0800 
 28 H       -5.2110    -0.3560    -1.3060 H     1 <1>   0.0800 
 29 H       -5.5320    -0.2110     0.4190 H     1 <1>   0.0800 
 30 H       -1.3340     4.4480    -2.2810 H     1 <1>   0.1500 
 31 H        0.3480     5.2060    -0.2830 H     1 <1>   0.1500 
 32 H       -5.9410     3.4150    -0.8500 H     1 <1>   0.0800 
 33 H       -6.5520     1.4970    -1.8100 H     1 <1>   0.0800 
 34 H       -7.1700     4.0520     1.1040 H     1 <1>   0.0800 
 35 H       -6.8440     2.5390     1.8770 H     1 <1>   0.0800 
 36 H       -7.6540     0.3490     0.7320 H     1 <1>   0.0800 
 37 H       -8.4500     0.4710    -0.7990 H     1 <1>   0.0800 
 38 H       -9.0720     2.1540     1.2150 H     1 <1>   0.0800 
 39 H       -8.2620     3.2160    -1.4090 H     1 <1>   0.4500 
 40 H      -10.1010     4.4180     0.5790 H     1 <1>   0.0800 
 41 H       -9.8920     5.0060    -1.0560 H     1 <1>   0.0800 
 42 H       -8.5570     5.0660     0.0640 H     1 <1>   0.0800 
 43 H      -10.9190     2.2290    -0.5410 H     1 <1>   0.0800 
 44 H       -9.8860     1.4990    -1.7540 H     1 <1>   0.0800 
 45 H      -10.6160     3.0540    -2.0550 H     1 <1>   0.0800 
@<TRIPOS>BOND
  1   1   2  2   
  2   2   3  am  
  3   2   4  1   
  4   3   5  1   
  5   3   6  1   
  6   4   7  1   
  7   4   8  2   
  8   5   9  1   
  9   5  10  1   
 10   5  21  1   
 11   6  22  1   
 12   6  23  1   
 13   6  24  1   
 14   7  11  1   
 15   8  12  1   
 16   8  25  1   
 17   9  13  1   
 18   9  26  1   
 19   9  27  1   
 20  10  14  1   
 21  10  28  1   
 22  10  29  1   
 23  11  12  2   
 24  11  30  1   
 25  12  31  1   
 26  13  14  1   
 27  13  15  1   
 28  13  32  1   
 29  14  16  1   
 30  14  33  1   
 31  15  17  1   
 32  15  34  1   
 33  15  35  1   
 34  16  17  1   
 35  16  36  1   
 36  16  37  1   
 37  17  18  1   
 38  17  38  1   
 39  18  19  1   
 40  18  20  1   
 41  18  39  1   
 42  19  40  1   
 43  19  41  1   
 44  19  42  1   
 45  20  43  1   
 46  20  44  1   
 47  20  45  1   
@<TRIPOS>SUBSTRUCTURE
  1 ****   9 GROUP 4 **** **** 0

# MOE 2024.06 (io_trps.svl 2023.06)
