@<TRIPOS>MOLECULE
NONAME
59 61 1 0 0 
SMALL
USER_CHARGES


@<TRIPOS>ATOM
  1 O       -0.1400     0.9080    -1.6530 O.2   1 <1>  -0.5700 
  2 C       -0.1460     2.0280    -1.1660 C.2   1 <1>   0.5440 
  3 N       -1.3660     2.6220    -0.9140 N.am  1 <1>  -0.6600 
  4 C        1.0980     2.7000    -0.8540 C.ar  1 <1>   0.0860 
  5 C       -1.5170     3.7350     0.0680 C.3   1 <1>   0.1400 
  6 C       -2.6170     2.0410    -1.4800 C.3   1 <1>   0.1400 
  7 C        2.0820     2.0890    -0.0580 C.ar  1 <1>   0.1000 
  8 C        1.3370     3.9910    -1.3310 C.ar  1 <1>  -0.1500 
  9 C       -2.8380     3.5780     0.8170 C.3   1 <1>  -0.1600 
 10 C       -3.7290     3.0930    -1.5210 C.3   1 <1>  -0.1600 
 11 N        1.9100     0.7900     0.4060 N.pl3 1 <1>  -0.8690 
 12 C        3.2290     2.8080     0.2720 C.ar  1 <1>  -0.1500 
 13 C        2.4870     4.6870    -1.0150 C.ar  1 <1>  -0.1440 
 14 C       -4.0450     3.7080    -0.1360 C.3   1 <1>   0.2800 
 15 C        2.9930    -0.1930     0.3330 C.3   1 <1>   0.2890 
 16 C        3.4340     4.0880    -0.2000 C.ar  1 <1>  -0.1500 
 17 C        2.7240     6.0910    -1.5400 C.3   1 <1>  -0.0970 
 18 O       -4.2340     5.0740    -0.3870 O.3   1 <1>  -0.5600 
 19 C       -5.3080     3.0650     0.4970 C.3   1 <1>  -0.1600 
 20 C        2.4990    -1.3520    -0.5220 C.3   1 <1>  -0.2400 
 21 C        3.3170    -0.6440     1.7510 C.3   1 <1>  -0.2400 
 22 C       -5.0180     5.8300     0.4940 C.3   1 <1>   0.1200 
 23 C       -6.6120     3.8130     0.1860 C.3   1 <1>   0.2800 
 24 C       -6.4670     5.3090     0.5920 C.3   1 <1>   0.2000 
 25 O       -6.8420     3.7470    -1.1750 O.3   1 <1>  -0.6800 
 26 C       -7.8200     3.1070     0.8170 C.3   1 <1>  -0.2400 
 27 O       -6.8860     5.5240     1.9110 O.3   1 <1>  -0.6800 
 28 H       -0.7030     3.7190     0.7720 H     1 <1>   0.0800 
 29 H       -1.5040     4.6780    -0.4540 H     1 <1>   0.0800 
 30 H       -2.4240     1.6810    -2.4770 H     1 <1>   0.0800 
 31 H       -2.9190     1.2040    -0.8750 H     1 <1>   0.0800 
 32 H        0.5920     4.4440    -1.9620 H     1 <1>   0.1500 
 33 H       -2.8970     4.3060     1.6030 H     1 <1>   0.0800 
 34 H       -2.8350     2.6080     1.2820 H     1 <1>   0.0800 
 35 H       -4.6060     2.6490    -1.9490 H     1 <1>   0.0800 
 36 H       -3.4100     3.8670    -2.1980 H     1 <1>   0.0800 
 37 H        1.0490     0.3620     0.0270 H     1 <1>   0.4000 
 38 H        3.9630     2.3550     0.9100 H     1 <1>   0.1500 
 39 H        3.8650     0.2440    -0.1270 H     1 <1>   0.0800 
 40 H        4.3310     4.6190     0.0660 H     1 <1>   0.1500 
 41 H        3.6350     6.1190    -2.1120 H     1 <1>   0.0800 
 42 H        2.8080     6.7800    -0.7190 H     1 <1>   0.0800 
 43 H        1.9150     6.4080    -2.1730 H     1 <1>   0.0800 
 44 H       -5.3840     2.0330     0.2070 H     1 <1>   0.0800 
 45 H       -5.1890     3.0620     1.5650 H     1 <1>   0.0800 
 46 H        1.6310    -1.8070    -0.0800 H     1 <1>   0.0800 
 47 H        3.2690    -2.0950    -0.6130 H     1 <1>   0.0800 
 48 H        2.2500    -0.9980    -1.5080 H     1 <1>   0.0800 
 49 H        2.4490    -1.0790     2.2130 H     1 <1>   0.0800 
 50 H        3.6420     0.1980     2.3350 H     1 <1>   0.0800 
 51 H        4.1050    -1.3740     1.7340 H     1 <1>   0.0800 
 52 H       -4.5380     5.8200     1.4550 H     1 <1>   0.0800 
 53 H       -5.0270     6.8400     0.1240 H     1 <1>   0.0800 
 54 H       -7.1090     5.9070    -0.0310 H     1 <1>   0.0800 
 55 H       -7.0780     2.8370    -1.4270 H     1 <1>   0.4000 
 56 H       -7.7090     3.0480     1.8850 H     1 <1>   0.0800 
 57 H       -7.9230     2.1060     0.4410 H     1 <1>   0.0800 
 58 H       -8.7180     3.6610     0.6080 H     1 <1>   0.0800 
 59 H       -6.3890     4.9520     2.5240 H     1 <1>   0.4000 
@<TRIPOS>BOND
  1   1   2  2   
  2   2   3  am  
  3   2   4  1   
  4   3   5  1   
  5   3   6  1   
  6   4   7  ar  
  7   4   8  ar  
  8   5   9  1   
  9   5  28  1   
 10   5  29  1   
 11   6  10  1   
 12   6  30  1   
 13   6  31  1   
 14   7  11  1   
 15   7  12  ar  
 16   8  13  ar  
 17   8  32  1   
 18   9  14  1   
 19   9  33  1   
 20   9  34  1   
 21  10  14  1   
 22  10  35  1   
 23  10  36  1   
 24  11  15  1   
 25  11  37  1   
 26  12  16  ar  
 27  12  38  1   
 28  13  16  ar  
 29  13  17  1   
 30  14  18  1   
 31  14  19  1   
 32  15  20  1   
 33  15  21  1   
 34  15  39  1   
 35  16  40  1   
 36  17  41  1   
 37  17  42  1   
 38  17  43  1   
 39  18  22  1   
 40  19  23  1   
 41  19  44  1   
 42  19  45  1   
 43  20  46  1   
 44  20  47  1   
 45  20  48  1   
 46  21  49  1   
 47  21  50  1   
 48  21  51  1   
 49  22  24  1   
 50  22  52  1   
 51  22  53  1   
 52  23  24  1   
 53  23  25  1   
 54  23  26  1   
 55  24  27  1   
 56  24  54  1   
 57  25  55  1   
 58  26  56  1   
 59  26  57  1   
 60  26  58  1   
 61  27  59  1   
@<TRIPOS>SUBSTRUCTURE
  1 ****   5 GROUP 4 **** **** 0

# MOE 2024.06 (io_trps.svl 2023.06)
