@<TRIPOS>MOLECULE
NONAME
47 50 1 0 0 
SMALL
USER_CHARGES


@<TRIPOS>ATOM
  1 S        0.2980    -0.0350     0.3250 S.3   1 <1>  -0.0800 
  2 C       -1.3910     0.4770     0.2410 C.2   1 <1>   0.3250 
  3 C        0.8200     1.6060     0.1390 C.2   1 <1>  -0.1100 
  4 N       -1.4870     1.7620     0.0890 N.2   1 <1>  -0.5650 
  5 C       -2.4290    -0.5430     0.3470 C.ar  1 <1>   0.6730 
  6 C       -0.2620     2.3920     0.0320 C.2   1 <1>   0.0460 
  7 N       -3.7110    -0.1490     0.2800 N.ar  1 <1>  -0.6200 
  8 N       -2.0520    -1.8240     0.5040 N.ar  1 <1>  -0.6200 
  9 C       -0.2940     3.9030    -0.1460 C.3   1 <1>   0.0210 
 10 C       -4.6370    -1.0710     0.3750 C.ar  1 <1>   0.1600 
 11 C       -2.9970    -2.7270     0.5970 C.ar  1 <1>   0.1600 
 12 C        1.1040     4.5150    -0.2420 C.3   1 <1>   0.2090 
 13 C       -4.3270    -2.3970     0.5370 C.ar  1 <1>  -0.1500 
 14 N        1.0180     5.9870    -0.4010 N.pl3 1 <1>  -0.8690 
 15 C        2.1120     6.8200    -0.3610 C.ar  1 <1>   0.4100 
 16 N        3.2420     6.2730     0.0860 N.ar  1 <1>  -0.6200 
 17 C        2.0010     8.1600    -0.7760 C.ar  1 <1>   0.0860 
 18 C        4.3040     7.0530     0.1130 C.ar  1 <1>   0.1600 
 19 C        0.7380     8.6970    -1.2200 C.2   1 <1>   0.5440 
 20 C        3.1450     8.9470    -0.7390 C.ar  1 <1>  -0.1500 
 21 C        4.3130     8.3780    -0.2850 C.ar  1 <1>  -0.1500 
 22 O        0.0980     8.1270    -2.0890 O.2   1 <1>  -0.5700 
 23 N        0.2210     9.8560    -0.6830 N.am  1 <1>  -0.6600 
 24 C        0.6100    10.4090     0.6340 C.3   1 <1>   0.1400 
 25 C       -1.0680    10.4250    -1.1330 C.3   1 <1>   0.1400 
 26 C       -0.6360    11.1300     1.1340 C.3   1 <1>  -0.1600 
 27 C       -1.3800    11.5350    -0.1350 C.3   1 <1>  -0.1600 
 28 H        1.8770     1.7980     0.1320 H     1 <1>   0.1500 
 29 H       -0.8110     4.3340     0.6920 H     1 <1>   0.0800 
 30 H       -0.8430     4.1290    -1.0420 H     1 <1>   0.0800 
 31 H       -5.6670    -0.7600     0.3220 H     1 <1>   0.1500 
 32 H       -2.7030    -3.7560     0.7230 H     1 <1>   0.1500 
 33 H        1.6300     4.1010    -1.0840 H     1 <1>   0.0800 
 34 H        1.6570     4.2890     0.6550 H     1 <1>   0.0800 
 35 H       -5.0930    -3.1450     0.6140 H     1 <1>   0.1500 
 36 H        0.2710     6.3130    -1.0350 H     1 <1>   0.4000 
 37 H        5.2200     6.6150     0.4710 H     1 <1>   0.1500 
 38 H        3.1110     9.9730    -1.0630 H     1 <1>   0.1500 
 39 H        5.2230     8.9490    -0.2380 H     1 <1>   0.1500 
 40 H        1.4160    11.1090     0.4990 H     1 <1>   0.0800 
 41 H        0.9110     9.6290     1.3150 H     1 <1>   0.0800 
 42 H       -1.8240     9.6590    -1.0960 H     1 <1>   0.0800 
 43 H       -0.9870    10.8010    -2.1390 H     1 <1>   0.0800 
 44 H       -0.3900    11.9730     1.7550 H     1 <1>   0.0800 
 45 H       -1.2340    10.4380     1.7030 H     1 <1>   0.0800 
 46 H       -2.4380    11.6420     0.0240 H     1 <1>   0.0800 
 47 H       -0.9860    12.4630    -0.5110 H     1 <1>   0.0800 
@<TRIPOS>BOND
  1   1   2  1   
  2   1   3  1   
  3   2   4  2   
  4   2   5  1   
  5   3   6  2   
  6   3  28  1   
  7   4   6  1   
  8   5   7  ar  
  9   5   8  ar  
 10   6   9  1   
 11   7  10  ar  
 12   8  11  ar  
 13   9  12  1   
 14   9  29  1   
 15   9  30  1   
 16  10  13  ar  
 17  10  31  1   
 18  11  13  ar  
 19  11  32  1   
 20  12  14  1   
 21  12  33  1   
 22  12  34  1   
 23  13  35  1   
 24  14  15  1   
 25  14  36  1   
 26  15  16  ar  
 27  15  17  ar  
 28  16  18  ar  
 29  17  19  1   
 30  17  20  ar  
 31  18  21  ar  
 32  18  37  1   
 33  19  22  2   
 34  19  23  am  
 35  20  21  ar  
 36  20  38  1   
 37  21  39  1   
 38  23  24  1   
 39  23  25  1   
 40  24  26  1   
 41  24  40  1   
 42  24  41  1   
 43  25  27  1   
 44  25  42  1   
 45  25  43  1   
 46  26  27  1   
 47  26  44  1   
 48  26  45  1   
 49  27  46  1   
 50  27  47  1   
@<TRIPOS>SUBSTRUCTURE
  1 ****   9 GROUP 4 **** **** 0

# MOE 2024.06 (io_trps.svl 2023.06)
