@<TRIPOS>MOLECULE
NONAME
36 37 1 0 0 
SMALL
USER_CHARGES


@<TRIPOS>ATOM
  1 O       -0.1610     0.5300    -1.0400 O.2   1 <1>  -0.5700 
  2 C       -1.1330     1.0030    -0.4860 C.2   1 <1>   0.5440 
  3 N       -2.1100     0.1550    -0.0360 N.am  1 <1>  -0.7300 
  4 C       -1.2480     2.4360    -0.2910 C.ar  1 <1>   0.0860 
  5 C       -2.1080    -1.3230    -0.1960 C.3   1 <1>   0.0600 
  6 C       -0.1400     3.2620    -0.2460 C.ar  1 <1>  -0.1500 
  7 C       -2.4650     3.0910    -0.1360 C.ar  1 <1>  -0.1500 
  8 C       -0.2630     4.6300    -0.0410 C.ar  1 <1>   0.4100 
  9 C       -2.4980     4.4570     0.0580 C.ar  1 <1>   0.1600 
 10 N       -1.4340     5.2360     0.1130 N.ar  1 <1>  -0.6200 
 11 N        0.8680     5.4200     0.0140 N.pl3 1 <1>  -0.8380 
 12 C        0.7540     6.8570    -0.3600 C.3   1 <1>   0.3900 
 13 C        1.9310     5.1030     1.0080 C.3   1 <1>   0.1290 
 14 C        2.1040     7.3970    -0.8020 C.2   1 <1>  -0.1810 
 15 C        2.8330     8.4470    -0.3590 C.2   1 <1>  -0.3320 
 16 C        2.8670     6.8410    -1.8230 C.2   1 <1>   0.1390 
 17 N        3.9570     8.4740    -1.1080 N.pl3 1 <1>   0.3000 
 18 C        2.5440     9.4520     0.7430 C.3   1 <1>  -0.0600 
 19 N        3.9810     7.4800    -2.0140 N.2   1 <1>  -0.7070 
 20 H       -2.8640     0.5320     0.5390 H     1 <1>   0.3700 
 21 H       -1.3000    -1.6320    -0.8380 H     1 <1>   0.0800 
 22 H       -3.0370    -1.6430    -0.6330 H     1 <1>   0.0800 
 23 H       -1.9850    -1.7920     0.7650 H     1 <1>   0.0800 
 24 H        0.8400     2.8450    -0.3810 H     1 <1>   0.1500 
 25 H       -3.3860     2.5410    -0.1770 H     1 <1>   0.1500 
 26 H       -3.4540     4.9400     0.1730 H     1 <1>   0.1500 
 27 H        0.3830     7.4140     0.4820 H     1 <1>   0.0800 
 28 H        0.0530     6.9650    -1.1690 H     1 <1>   0.0800 
 29 H        1.7110     4.1830     1.5210 H     1 <1>   0.0800 
 30 H        2.0030     5.8930     1.7350 H     1 <1>   0.0800 
 31 H        2.8780     5.0040     0.5050 H     1 <1>   0.0800 
 32 H        2.5710     5.9730    -2.3890 H     1 <1>   0.1500 
 33 H        4.7230     9.1540    -1.0280 H     1 <1>   0.2700 
 34 H        1.5990     9.2430     1.2110 H     1 <1>   0.0800 
 35 H        2.5080    10.4470     0.3370 H     1 <1>   0.0800 
 36 H        3.3120     9.4090     1.4950 H     1 <1>   0.0800 
@<TRIPOS>BOND
  1   1   2  2   
  2   2   3  am  
  3   2   4  1   
  4   3   5  1   
  5   3  20  1   
  6   4   6  ar  
  7   4   7  ar  
  8   5  21  1   
  9   5  22  1   
 10   5  23  1   
 11   6   8  ar  
 12   6  24  1   
 13   7   9  ar  
 14   7  25  1   
 15   8  10  ar  
 16   8  11  1   
 17   9  10  ar  
 18   9  26  1   
 19  11  12  1   
 20  11  13  1   
 21  12  14  1   
 22  12  27  1   
 23  12  28  1   
 24  13  29  1   
 25  13  30  1   
 26  13  31  1   
 27  14  15  2   
 28  14  16  1   
 29  15  17  1   
 30  15  18  1   
 31  16  19  2   
 32  16  32  1   
 33  17  19  1   
 34  17  33  1   
 35  18  34  1   
 36  18  35  1   
 37  18  36  1   
@<TRIPOS>SUBSTRUCTURE
  1 ****   8 GROUP 4 **** **** 0

# MOE 2024.06 (io_trps.svl 2023.06)
