@<TRIPOS>MOLECULE
NONAME
45 46 1 0 0 
SMALL
USER_CHARGES


@<TRIPOS>ATOM
  1 S       -0.9680     0.6230    -0.9150 S.o2  1 <1>   1.4470 
  2 O       -0.9050    -0.2630    -2.0600 O.2   1 <1>  -0.6500 
  3 O       -1.8120     1.7980    -0.9860 O.2   1 <1>  -0.6500 
  4 N       -1.4580    -0.2820     0.4340 N.am  1 <1>  -0.8490 
  5 C        0.7120     1.1490    -0.4690 C.ar  1 <1>  -0.0090 
  6 C       -0.8000    -1.5990     0.5850 C.3   1 <1>   0.1960 
  7 C       -2.9050    -0.3340     0.6590 C.3   1 <1>   0.1960 
  8 C        1.0260     1.5370     0.8280 C.ar  1 <1>  -0.1500 
  9 C        1.7250     1.1960    -1.4200 C.ar  1 <1>  -0.1500 
 10 C       -1.7230    -2.8120     0.3610 C.3   1 <1>  -0.1860 
 11 C       -3.5980    -1.2240    -0.3780 C.3   1 <1>  -0.1600 
 12 C        2.3040     1.9480     1.1670 C.ar  1 <1>  -0.1500 
 13 C        3.0050     1.6080    -1.0890 C.ar  1 <1>  -0.1500 
 14 C       -2.2600    -3.3040     1.6930 C.2   1 <1>   0.9060 
 15 C       -2.7970    -2.4960    -0.6920 C.3   1 <1>   0.2000 
 16 C        3.3030     1.9850     0.2090 C.ar  1 <1>  -0.1440 
 17 O       -1.4470    -3.5660     2.5840 O.co2 1 <1>  -0.9000 
 18 O       -3.4790    -3.4550     1.8580 O.co2 1 <1>  -0.9000 
 19 O       -3.6760    -3.5540    -0.7580 O.3   1 <1>  -0.6800 
 20 C        4.7070     2.4360     0.5780 C.3   1 <1>  -0.0170 
 21 C        4.8510     3.9510     0.3920 C.3   1 <1>  -0.1600 
 22 C        6.2610     4.4330     0.7580 C.3   1 <1>  -0.1600 
 23 C        6.3910     5.9460     0.5670 C.3   1 <1>  -0.2400 
 24 H        0.0220    -1.6690    -0.1060 H     1 <1>   0.0800 
 25 H       -0.3700    -1.6510     1.5720 H     1 <1>   0.0800 
 26 H       -3.0860    -0.7340     1.6430 H     1 <1>   0.0800 
 27 H       -3.3250     0.6570     0.6370 H     1 <1>   0.0800 
 28 H        0.2580     1.5150     1.5830 H     1 <1>   0.1500 
 29 H        1.5070     0.9060    -2.4340 H     1 <1>   0.1500 
 30 H       -1.1160    -3.6130    -0.0120 H     1 <1>   0.0800 
 31 H       -3.7380    -0.6680    -1.2860 H     1 <1>   0.0800 
 32 H       -4.5690    -1.4770     0.0070 H     1 <1>   0.0800 
 33 H        2.5140     2.2410     2.1810 H     1 <1>   0.1500 
 34 H        3.7680     1.6340    -1.8470 H     1 <1>   0.1500 
 35 H       -2.3340    -2.3980    -1.6600 H     1 <1>   0.0800 
 36 H       -3.9130    -3.7470     0.1960 H     1 <1>   0.4000 
 37 H        4.9120     2.1740     1.6020 H     1 <1>   0.0800 
 38 H        5.4240     1.9230    -0.0390 H     1 <1>   0.0800 
 39 H        4.6400     4.2010    -0.6340 H     1 <1>   0.0800 
 40 H        4.1270     4.4520     1.0110 H     1 <1>   0.0800 
 41 H        6.4740     4.1870     1.7850 H     1 <1>   0.0800 
 42 H        6.9880     3.9360     0.1380 H     1 <1>   0.0800 
 43 H        5.6880     6.4670     1.1940 H     1 <1>   0.0800 
 44 H        6.2040     6.2140    -0.4580 H     1 <1>   0.0800 
 45 H        7.3840     6.2670     0.8280 H     1 <1>   0.0800 
@<TRIPOS>BOND
  1   1   2  2   
  2   1   3  2   
  3   1   4  am  
  4   1   5  1   
  5   4   6  1   
  6   4   7  1   
  7   5   8  ar  
  8   5   9  ar  
  9   6  10  1   
 10   6  24  1   
 11   6  25  1   
 12   7  11  1   
 13   7  26  1   
 14   7  27  1   
 15   8  12  ar  
 16   8  28  1   
 17   9  13  ar  
 18   9  29  1   
 19  10  14  1   
 20  10  15  1   
 21  10  30  1   
 22  11  15  1   
 23  11  31  1   
 24  11  32  1   
 25  12  16  ar  
 26  12  33  1   
 27  13  16  ar  
 28  13  34  1   
 29  14  17  ar  
 30  14  18  ar  
 31  15  19  1   
 32  15  35  1   
 33  16  20  1   
 34  19  36  1   
 35  20  21  1   
 36  20  37  1   
 37  20  38  1   
 38  21  22  1   
 39  21  39  1   
 40  21  40  1   
 41  22  23  1   
 42  22  41  1   
 43  22  42  1   
 44  23  43  1   
 45  23  44  1   
 46  23  45  1   
@<TRIPOS>SUBSTRUCTURE
  1 ****   5 GROUP 4 **** **** 0

# MOE 2024.06 (io_trps.svl 2023.06)
