@<TRIPOS>MOLECULE
NONAME
44 44 1 0 0 
SMALL
USER_CHARGES


@<TRIPOS>ATOM
  1 S       -0.0230     0.5650    -0.0360 S.o2  1 <1>   1.0900 
  2 O       -0.0220    -0.1760     1.2020 O.2   1 <1>  -0.6500 
  3 O       -0.9840     1.6200    -0.2500 O.2   1 <1>  -0.6500 
  4 C        1.6030     1.2740    -0.2290 C.3   1 <1>  -0.0550 
  5 C       -0.1500    -0.5930    -1.3850 C.3   1 <1>  -0.1350 
  6 C        1.8460     2.3210     0.8570 C.3   1 <1>   0.1100 
  7 N        3.1820     2.9340     0.7040 N.3   1 <1>  -0.8100 
  8 C        3.1840     4.2730     1.3590 C.3   1 <1>   0.1100 
  9 C        4.2350     2.0620     1.2700 C.3   1 <1>   0.1100 
 10 C        4.4400     5.1130     1.0450 C.3   1 <1>   0.3430 
 11 C        5.5000     2.1330     0.4070 C.3   1 <1>  -0.1600 
 12 N        5.1660     4.5110    -0.1080 N.4   1 <1>  -0.9590 
 13 C        6.1630     3.5090     0.3360 C.3   1 <1>   0.3430 
 14 C        5.6660     5.4800    -1.1330 C.3   1 <1>   0.3430 
 15 C        6.4890     6.6630    -0.5720 C.3   1 <1>  -0.0800 
 16 C        6.8970     7.5770    -1.7360 C.3   1 <1>  -0.2400 
 17 C        7.7540     6.2500     0.1980 C.3   1 <1>  -0.2400 
 18 H        1.6800     1.7480    -1.1880 H     1 <1>   0.0800 
 19 H        2.3410     0.5000    -0.1600 H     1 <1>   0.0800 
 20 H       -1.1060    -1.0790    -1.3570 H     1 <1>   0.0800 
 21 H        0.6110    -1.3450    -1.3120 H     1 <1>   0.0800 
 22 H       -0.0560    -0.0890    -2.3270 H     1 <1>   0.0800 
 23 H        1.7430     1.8780     1.8360 H     1 <1>   0.0800 
 24 H        1.0800     3.0740     0.7580 H     1 <1>   0.0800 
 25 H        3.0710     4.1720     2.4260 H     1 <1>   0.0800 
 26 H        2.3340     4.8340     1.0070 H     1 <1>   0.0800 
 27 H        3.9040     1.0360     1.2830 H     1 <1>   0.0800 
 28 H        4.4520     2.3350     2.2900 H     1 <1>   0.0800 
 29 H        5.0820     5.1530     1.9090 H     1 <1>   0.0800 
 30 H        4.1320     6.1190     0.8140 H     1 <1>   0.0800 
 31 H        5.2700     1.7930    -0.5870 H     1 <1>   0.0800 
 32 H        6.2190     1.4420     0.8110 H     1 <1>   0.0800 
 33 H        4.4180     3.9230    -0.5280 H     1 <1>   0.4500 
 34 H        6.9810     3.4690    -0.3640 H     1 <1>   0.0800 
 35 H        6.5570     3.7810     1.3010 H     1 <1>   0.0800 
 36 H        4.8190     5.8880    -1.6600 H     1 <1>   0.0800 
 37 H        6.2650     4.9510    -1.8560 H     1 <1>   0.0800 
 38 H        5.8650     7.2500     0.0790 H     1 <1>   0.0800 
 39 H        7.5460     7.0600    -2.4230 H     1 <1>   0.0800 
 40 H        7.4190     8.4440    -1.3680 H     1 <1>   0.0800 
 41 H        6.0300     7.9190    -2.2750 H     1 <1>   0.0800 
 42 H        8.3740     5.6030    -0.3990 H     1 <1>   0.0800 
 43 H        7.5060     5.7540     1.1180 H     1 <1>   0.0800 
 44 H        8.3330     7.1210     0.4540 H     1 <1>   0.0800 
@<TRIPOS>BOND
  1   1   2  2   
  2   1   3  2   
  3   1   4  1   
  4   1   5  1   
  5   4   6  1   
  6   4  18  1   
  7   4  19  1   
  8   5  20  1   
  9   5  21  1   
 10   5  22  1   
 11   6   7  1   
 12   6  23  1   
 13   6  24  1   
 14   7   8  1   
 15   7   9  1   
 16   8  10  1   
 17   8  25  1   
 18   8  26  1   
 19   9  11  1   
 20   9  27  1   
 21   9  28  1   
 22  10  12  1   
 23  10  29  1   
 24  10  30  1   
 25  11  13  1   
 26  11  31  1   
 27  11  32  1   
 28  12  13  1   
 29  12  14  1   
 30  12  33  1   
 31  13  34  1   
 32  13  35  1   
 33  14  15  1   
 34  14  36  1   
 35  14  37  1   
 36  15  16  1   
 37  15  17  1   
 38  15  38  1   
 39  16  39  1   
 40  16  40  1   
 41  16  41  1   
 42  17  42  1   
 43  17  43  1   
 44  17  44  1   
@<TRIPOS>SUBSTRUCTURE
  1 ****   7 GROUP 4 **** **** 0

# MOE 2024.06 (io_trps.svl 2023.06)
