@<TRIPOS>MOLECULE
NONAME
41 42 1 0 0 
SMALL
USER_CHARGES


@<TRIPOS>ATOM
  1 S       -0.0010    -0.3180    -0.3950 S.3   1 <1>  -0.3320 
  2 C        1.7020    -0.7490    -0.0490 C.ar  1 <1>   0.7220 
  3 C       -0.9940    -1.2950     0.8200 C.3   1 <1>  -0.0100 
  4 N        2.5820    -0.1580    -0.8210 N.ar  1 <1>  -0.6200 
  5 N        1.8770    -1.6080     0.9430 N.ar  1 <1>  -0.6200 
  6 C        3.8400    -0.4750    -0.5780 C.ar  1 <1>   0.4100 
  7 C        3.1420    -1.8860     1.1740 C.ar  1 <1>   0.1600 
  8 N        4.7650     0.1340    -1.3950 N.pl3 1 <1>  -0.8380 
  9 C        4.1770    -1.3470     0.4500 C.ar  1 <1>  -0.1790 
 10 C        4.9450     1.6020    -1.3100 C.3   1 <1>   0.2090 
 11 C        5.8600    -0.6450    -2.0350 C.3   1 <1>   0.1290 
 12 C        5.5160    -1.6800     0.8150 C.2   1 <1>   0.9790 
 13 C        5.9950     1.9310    -0.2480 C.3   1 <1>  -0.1600 
 14 O        6.0760    -1.0840     1.7500 O.co2 1 <1>  -0.9000 
 15 O        6.1060    -2.6280     0.2660 O.co2 1 <1>  -0.9000 
 16 C        5.9810     3.4130     0.1210 C.3   1 <1>   0.2000 
 17 O        6.1910     4.1670    -1.0370 O.3   1 <1>  -0.5600 
 18 C        7.0720     3.7530     1.1480 C.3   1 <1>  -0.1600 
 19 C        6.0800     5.5460    -0.8610 C.3   1 <1>   0.1200 
 20 C        7.1060     5.2600     1.4300 C.3   1 <1>  -0.1600 
 21 C        7.1700     6.0290     0.1040 C.3   1 <1>  -0.1600 
 22 H       -2.0310    -1.0720     0.6520 H     1 <1>   0.0800 
 23 H       -0.6870    -1.0000     1.8070 H     1 <1>   0.0800 
 24 H       -0.7880    -2.3360     0.6490 H     1 <1>   0.0800 
 25 H        3.3760    -2.5660     1.9750 H     1 <1>   0.1500 
 26 H        4.0060     2.0560    -1.0420 H     1 <1>   0.0800 
 27 H        5.2420     1.9930    -2.2670 H     1 <1>   0.0800 
 28 H        5.5740    -1.6800    -2.1170 H     1 <1>   0.0800 
 29 H        6.7540    -0.5860    -1.4370 H     1 <1>   0.0800 
 30 H        6.0590    -0.2590    -3.0180 H     1 <1>   0.0800 
 31 H        6.9710     1.6540    -0.6010 H     1 <1>   0.0800 
 32 H        5.7860     1.3610     0.6390 H     1 <1>   0.0800 
 33 H        5.0110     3.6680     0.5150 H     1 <1>   0.0800 
 34 H        8.0250     3.4310     0.7650 H     1 <1>   0.0800 
 35 H        6.8860     3.2140     2.0600 H     1 <1>   0.0800 
 36 H        5.0960     5.7650    -0.4830 H     1 <1>   0.0800 
 37 H        6.1980     6.0090    -1.8250 H     1 <1>   0.0800 
 38 H        7.9560     5.5030     2.0430 H     1 <1>   0.0800 
 39 H        6.2140     5.5410     1.9630 H     1 <1>   0.0800 
 40 H        7.0520     7.0820     0.2850 H     1 <1>   0.0800 
 41 H        8.1290     5.8770    -0.3580 H     1 <1>   0.0800 
@<TRIPOS>BOND
  1   1   2  1   
  2   1   3  1   
  3   2   4  ar  
  4   2   5  ar  
  5   3  22  1   
  6   3  23  1   
  7   3  24  1   
  8   4   6  ar  
  9   5   7  ar  
 10   6   8  1   
 11   6   9  ar  
 12   7   9  ar  
 13   7  25  1   
 14   8  10  1   
 15   8  11  1   
 16   9  12  1   
 17  10  13  1   
 18  10  26  1   
 19  10  27  1   
 20  11  28  1   
 21  11  29  1   
 22  11  30  1   
 23  12  14  ar  
 24  12  15  ar  
 25  13  16  1   
 26  13  31  1   
 27  13  32  1   
 28  16  17  1   
 29  16  18  1   
 30  16  33  1   
 31  17  19  1   
 32  18  20  1   
 33  18  34  1   
 34  18  35  1   
 35  19  21  1   
 36  19  36  1   
 37  19  37  1   
 38  20  21  1   
 39  20  38  1   
 40  20  39  1   
 41  21  40  1   
 42  21  41  1   
@<TRIPOS>SUBSTRUCTURE
  1 ****  10 GROUP 4 **** **** 0

# MOE 2024.06 (io_trps.svl 2023.06)
