@<TRIPOS>MOLECULE
NONAME
45 47 1 0 0 
SMALL
USER_CHARGES


@<TRIPOS>ATOM
  1 O       -0.1240    -1.9760    -2.7710 O.co2 1 <1>  -0.9000 
  2 C       -1.1800    -2.6030    -2.5270 C.2   1 <1>   0.9790 
  3 O       -1.9380    -2.8200    -3.4960 O.co2 1 <1>  -0.9000 
  4 C       -1.4830    -3.0430    -1.1460 C.ar  1 <1>   0.1310 
  5 N       -2.5540    -3.8170    -0.8580 N.ar  1 <1>  -0.6200 
  6 C       -0.6190    -2.6340    -0.1240 C.ar  1 <1>  -0.1500 
  7 C       -2.7490    -4.1670     0.4020 C.ar  1 <1>   0.4100 
  8 C       -0.8250    -2.9980     1.1890 C.ar  1 <1>  -0.1500 
  9 N       -3.8490    -4.9540     0.6700 N.pl3 1 <1>  -0.8380 
 10 C       -1.9190    -3.7840     1.4450 C.ar  1 <1>  -0.1500 
 11 C       -5.1580    -4.2660     0.4790 C.3   1 <1>   0.2090 
 12 C       -3.8690    -6.2620    -0.0440 C.3   1 <1>   0.2090 
 13 C       -6.3320    -5.1770     0.9120 C.3   1 <1>   0.2950 
 14 C       -5.0830    -7.1150     0.3960 C.3   1 <1>   0.2000 
 15 O       -6.2800    -6.4020     0.2310 O.3   1 <1>  -0.5600 
 16 C       -7.7360    -4.5930     0.6670 C.3   1 <1>  -0.1950 
 17 C       -5.2330    -8.4140    -0.4060 C.3   1 <1>  -0.1600 
 18 C       -8.1260    -3.8800    -0.5910 C.3   1 <1>  -0.2000 
 19 C       -8.0470    -3.1260     0.7080 C.3   1 <1>  -0.2000 
 20 C       -4.0640    -9.3910    -0.2000 C.3   1 <1>  -0.1600 
 21 C       -4.3120   -10.7090    -0.9420 C.3   1 <1>  -0.1600 
 22 C       -3.1460   -11.6820    -0.7440 C.3   1 <1>  -0.2400 
 23 H        0.2270    -2.0180    -0.3760 H     1 <1>   0.1500 
 24 H       -0.1570    -2.6800     1.9690 H     1 <1>   0.1500 
 25 H       -2.1540    -4.1140     2.4380 H     1 <1>   0.1500 
 26 H       -5.1660    -3.3630     1.0620 H     1 <1>   0.0800 
 27 H       -5.2680    -3.9950    -0.5570 H     1 <1>   0.0800 
 28 H       -3.9150    -6.0940    -1.1070 H     1 <1>   0.0800 
 29 H       -2.9540    -6.7860     0.1680 H     1 <1>   0.0800 
 30 H       -6.2280    -5.3810     1.9630 H     1 <1>   0.0800 
 31 H       -4.9850    -7.3520     1.4410 H     1 <1>   0.0800 
 32 H       -8.4810    -5.2420     1.0930 H     1 <1>   0.1000 
 33 H       -6.1450    -8.8940    -0.0970 H     1 <1>   0.0800 
 34 H       -5.3190    -8.1720    -1.4510 H     1 <1>   0.0800 
 35 H       -7.3800    -3.7010    -1.3470 H     1 <1>   0.1000 
 36 H       -9.0900    -4.0950    -1.0160 H     1 <1>   0.1000 
 37 H       -8.9650    -2.8080     1.1720 H     1 <1>   0.1000 
 38 H       -7.2640    -2.3960     0.8150 H     1 <1>   0.1000 
 39 H       -3.1510    -8.9530    -0.5640 H     1 <1>   0.0800 
 40 H       -3.9460    -9.5920     0.8520 H     1 <1>   0.0800 
 41 H       -5.2180   -11.1650    -0.5800 H     1 <1>   0.0800 
 42 H       -4.4350   -10.5140    -1.9940 H     1 <1>   0.0800 
 43 H       -3.0180   -11.9070     0.3000 H     1 <1>   0.0800 
 44 H       -2.2330   -11.2560    -1.1220 H     1 <1>   0.0800 
 45 H       -3.3390   -12.5990    -1.2710 H     1 <1>   0.0800 
@<TRIPOS>BOND
  1   1   2  ar  
  2   2   3  ar  
  3   2   4  1   
  4   4   5  ar  
  5   4   6  ar  
  6   5   7  ar  
  7   6   8  ar  
  8   6  23  1   
  9   7   9  1   
 10   7  10  ar  
 11   8  10  ar  
 12   8  24  1   
 13   9  11  1   
 14   9  12  1   
 15  10  25  1   
 16  11  13  1   
 17  11  26  1   
 18  11  27  1   
 19  12  14  1   
 20  12  28  1   
 21  12  29  1   
 22  13  15  1   
 23  13  16  1   
 24  13  30  1   
 25  14  15  1   
 26  14  17  1   
 27  14  31  1   
 28  16  18  1   
 29  16  19  1   
 30  16  32  1   
 31  17  20  1   
 32  17  33  1   
 33  17  34  1   
 34  18  19  1   
 35  18  35  1   
 36  18  36  1   
 37  19  37  1   
 38  19  38  1   
 39  20  21  1   
 40  20  39  1   
 41  20  40  1   
 42  21  22  1   
 43  21  41  1   
 44  21  42  1   
 45  22  43  1   
 46  22  44  1   
 47  22  45  1   
@<TRIPOS>SUBSTRUCTURE
  1 ****   9 GROUP 4 **** **** 0

# MOE 2024.06 (io_trps.svl 2023.06)
