@<TRIPOS>MOLECULE
NONAME
50 53 1 0 0 
SMALL
USER_CHARGES


@<TRIPOS>ATOM
  1 O        0.5800    -0.1230    -0.6060 O.3   1 <1>  -0.6800 
  2 C        1.9480    -0.1800    -0.8500 C.3   1 <1>   0.2000 
  3 C        2.5370    -1.4790    -0.3040 C.3   1 <1>  -0.0800 
  4 C        2.7030     0.9260    -0.1140 C.3   1 <1>   0.2090 
  5 C        4.0080    -1.1340    -0.0580 C.3   1 <1>   0.2090 
  6 C        2.3340    -2.6860    -1.2330 C.3   1 <1>  -0.0170 
  7 N        4.0190     0.3210     0.2180 N.pl3 1 <1>  -0.8380 
  8 C        3.0370    -3.9190    -0.6940 C.ar  1 <1>   0.1660 
  9 C        5.1770     1.0490     0.3490 C.ar  1 <1>   0.7200 
 10 N        4.2020    -4.2030    -1.1880 N.ar  1 <1>  -0.6200 
 11 C        2.4100    -4.6760     0.3090 C.ar  1 <1>  -0.1500 
 12 N        5.0530     2.3720     0.4010 N.ar  1 <1>  -0.6200 
 13 N        6.3130     0.3640     0.4130 N.ar  1 <1>  -0.6200 
 14 C        4.8490    -5.2910    -0.6970 C.ar  1 <1>   0.3100 
 15 C        3.0350    -5.7750     0.8170 C.ar  1 <1>  -0.1500 
 16 C        6.1580     3.0670     0.5300 C.ar  1 <1>   0.1670 
 17 C        7.4030     1.0770     0.5400 C.ar  1 <1>   0.1600 
 18 C        4.3020    -6.1120     0.3130 C.ar  1 <1>   0.0000 
 19 C        6.1160    -5.6150    -1.2090 C.ar  1 <1>  -0.1500 
 20 C        7.3950     2.4530     0.6040 C.ar  1 <1>  -0.1430 
 21 C        5.9830     4.5800     0.5870 C.3   1 <1>  -0.0170 
 22 C        5.0410    -7.2210     0.7700 C.ar  1 <1>  -0.1500 
 23 C        6.8190    -6.6980    -0.7510 C.ar  1 <1>  -0.1500 
 24 C        8.7060     3.2160     0.7470 C.3   1 <1>  -0.0970 
 25 C        5.9260     5.1900    -0.8180 C.3   1 <1>  -0.2400 
 26 C        6.2740    -7.5090     0.2500 C.ar  1 <1>  -0.1500 
 27 H        0.1110    -0.7980    -1.1300 H     1 <1>   0.4000 
 28 H        2.1190    -0.0830    -1.9080 H     1 <1>   0.0800 
 29 H        2.0990    -1.6830     0.6580 H     1 <1>   0.0800 
 30 H        2.1990     1.1900     0.7990 H     1 <1>   0.0800 
 31 H        2.8190     1.7940    -0.7400 H     1 <1>   0.0800 
 32 H        4.6040    -1.3340    -0.9330 H     1 <1>   0.0800 
 33 H        4.4100    -1.6840     0.7770 H     1 <1>   0.0800 
 34 H        2.7230    -2.4610    -2.2110 H     1 <1>   0.0800 
 35 H        1.2850    -2.8950    -1.3390 H     1 <1>   0.0800 
 36 H        1.4430    -4.3760     0.6670 H     1 <1>   0.1500 
 37 H        2.5880    -6.3790     1.5860 H     1 <1>   0.1500 
 38 H        8.3350     0.5420     0.5950 H     1 <1>   0.1500 
 39 H        6.5160    -4.9790    -1.9750 H     1 <1>   0.1500 
 40 H        5.0650     4.8000     1.1050 H     1 <1>   0.0800 
 41 H        6.7780     5.0330     1.1490 H     1 <1>   0.0800 
 42 H        4.6180    -7.8400     1.5400 H     1 <1>   0.1500 
 43 H        7.7890    -6.9360    -1.1520 H     1 <1>   0.1500 
 44 H        9.5480     2.5550     0.6480 H     1 <1>   0.0800 
 45 H        8.7550     3.6850     1.7130 H     1 <1>   0.0800 
 46 H        8.7820     3.9710    -0.0150 H     1 <1>   0.0800 
 47 H        5.1050     4.7630    -1.3680 H     1 <1>   0.0800 
 48 H        6.8370     4.9900    -1.3510 H     1 <1>   0.0800 
 49 H        5.7830     6.2540    -0.7560 H     1 <1>   0.0800 
 50 H        6.8380    -8.3560     0.6010 H     1 <1>   0.1500 
@<TRIPOS>BOND
  1   1   2  1   
  2   1  27  1   
  3   2   3  1   
  4   2   4  1   
  5   2  28  1   
  6   3   5  1   
  7   3   6  1   
  8   3  29  1   
  9   4   7  1   
 10   4  30  1   
 11   4  31  1   
 12   5   7  1   
 13   5  32  1   
 14   5  33  1   
 15   6   8  1   
 16   6  34  1   
 17   6  35  1   
 18   7   9  1   
 19   8  10  ar  
 20   8  11  ar  
 21   9  12  ar  
 22   9  13  ar  
 23  10  14  ar  
 24  11  15  ar  
 25  11  36  1   
 26  12  16  ar  
 27  13  17  ar  
 28  14  18  ar  
 29  14  19  ar  
 30  15  18  ar  
 31  15  37  1   
 32  16  20  ar  
 33  16  21  1   
 34  17  20  ar  
 35  17  38  1   
 36  18  22  ar  
 37  19  23  ar  
 38  19  39  1   
 39  20  24  1   
 40  21  25  1   
 41  21  40  1   
 42  21  41  1   
 43  22  26  ar  
 44  22  42  1   
 45  23  26  ar  
 46  23  43  1   
 47  24  44  1   
 48  24  45  1   
 49  24  46  1   
 50  25  47  1   
 51  25  48  1   
 52  25  49  1   
 53  26  50  1   
@<TRIPOS>SUBSTRUCTURE
  1 ****   5 GROUP 4 **** **** 0

# MOE 2024.06 (io_trps.svl 2023.06)
