@<TRIPOS>MOLECULE
NONAME
58 60 1 0 0 
SMALL
USER_CHARGES


@<TRIPOS>ATOM
  1 O        2.7240    -0.2760    -2.3220 O.2   1 <1>  -0.5700 
  2 C        2.4580    -0.6070    -1.1920 C.2   1 <1>   0.5690 
  3 N        2.5260     0.3200    -0.1810 N.am  1 <1>  -0.6600 
  4 C        2.0830    -2.0730    -0.9500 C.3   1 <1>  -0.0190 
  5 C        3.3220     0.0940     1.0570 C.3   1 <1>   0.1400 
  6 C        2.1540     1.7310    -0.4650 C.3   1 <1>   0.1400 
  7 C        0.9390    -2.2660     0.0670 C.3   1 <1>  -0.1600 
  8 C        3.2940    -2.9590    -0.5980 C.3   1 <1>  -0.1600 
  9 C        4.8310     0.0940     0.7360 C.3   1 <1>   0.3430 
 10 C        3.3770     2.6540    -0.5250 C.3   1 <1>  -0.1600 
 11 C        0.6840    -3.7530     0.3330 C.3   1 <1>   0.1200 
 12 C        2.8470    -4.3930    -0.3000 C.3   1 <1>   0.1200 
 13 N        5.3870     1.4060     0.2400 N.4   1 <1>  -0.9590 
 14 C        4.6650     1.9510    -0.9590 C.3   1 <1>   0.3430 
 15 O        1.8840    -4.3570     0.7040 O.3   1 <1>  -0.5600 
 16 C        6.8390     1.2430    -0.0500 C.3   1 <1>   0.3430 
 17 C        7.5430     2.6000    -0.0420 C.3   1 <1>  -0.1600 
 18 C        9.0630     2.4510    -0.2190 C.3   1 <1>   0.1000 
 19 C        9.7650     3.7870    -0.0320 C.2   1 <1>  -0.0400 
 20 C        9.4250     1.8730    -1.5950 C.3   1 <1>  -0.2400 
 21 O       11.0680     3.7680     0.1610 O.3   1 <1>  -0.2800 
 22 C        9.3100     5.0610    -0.0170 C.2   1 <1>  -0.1500 
 23 C       11.4760     5.0120     0.3010 C.2   1 <1>  -0.0400 
 24 C       10.4360     5.8640     0.2020 C.2   1 <1>  -0.1500 
 25 C       12.9480     5.2690     0.5350 C.3   1 <1>  -0.0600 
 26 H        1.7070    -2.4380    -1.8910 H     1 <1>   0.0800 
 27 H        3.0590    -0.8550     1.4880 H     1 <1>   0.0800 
 28 H        3.0960     0.8500     1.7890 H     1 <1>   0.0800 
 29 H        1.4620     2.0800     0.2830 H     1 <1>   0.0800 
 30 H        1.6400     1.7710    -1.4130 H     1 <1>   0.0800 
 31 H        0.0390    -1.8130    -0.3100 H     1 <1>   0.0800 
 32 H        1.1650    -1.7980     1.0060 H     1 <1>   0.0800 
 33 H        3.8040    -2.5920     0.2700 H     1 <1>   0.0800 
 34 H        3.9890    -2.9670    -1.4190 H     1 <1>   0.0800 
 35 H        5.0130    -0.6680    -0.0040 H     1 <1>   0.0800 
 36 H        5.3620    -0.1930     1.6290 H     1 <1>   0.0800 
 37 H        3.5140     3.1530     0.4170 H     1 <1>   0.0800 
 38 H        3.1550     3.4200    -1.2470 H     1 <1>   0.0800 
 39 H        0.3000    -4.2510    -0.5410 H     1 <1>   0.0800 
 40 H       -0.0140    -3.8800     1.1420 H     1 <1>   0.0800 
 41 H        3.6720    -4.9850     0.0560 H     1 <1>   0.0800 
 42 H        2.4260    -4.8690    -1.1710 H     1 <1>   0.0800 
 43 H        5.2940     2.0980     0.9930 H     1 <1>   0.4500 
 44 H        5.2880     2.6760    -1.4550 H     1 <1>   0.0800 
 45 H        4.4480     1.1670    -1.6670 H     1 <1>   0.0800 
 46 H        6.9710     0.7610    -1.0060 H     1 <1>   0.0800 
 47 H        7.2910     0.6200     0.7050 H     1 <1>   0.0800 
 48 H        7.3650     3.0840     0.9030 H     1 <1>   0.0800 
 49 H        7.1690     3.2290    -0.8290 H     1 <1>   0.0800 
 50 H        9.4400     1.7900     0.5440 H     1 <1>   0.0800 
 51 H        9.0580     2.5110    -2.3800 H     1 <1>   0.0800 
 52 H        9.0320     0.8820    -1.7290 H     1 <1>   0.0800 
 53 H       10.4960     1.8170    -1.6890 H     1 <1>   0.0800 
 54 H        8.3120     5.4370    -0.1440 H     1 <1>   0.1500 
 55 H       10.4360     6.9370     0.2700 H     1 <1>   0.1500 
 56 H       13.2630     4.7750     1.4360 H     1 <1>   0.0800 
 57 H       13.1320     6.3230     0.6290 H     1 <1>   0.0800 
 58 H       13.5180     4.8850    -0.2920 H     1 <1>   0.0800 
@<TRIPOS>BOND
  1   1   2  2   
  2   2   3  am  
  3   2   4  1   
  4   3   5  1   
  5   3   6  1   
  6   4   7  1   
  7   4   8  1   
  8   4  26  1   
  9   5   9  1   
 10   5  27  1   
 11   5  28  1   
 12   6  10  1   
 13   6  29  1   
 14   6  30  1   
 15   7  11  1   
 16   7  31  1   
 17   7  32  1   
 18   8  12  1   
 19   8  33  1   
 20   8  34  1   
 21   9  13  1   
 22   9  35  1   
 23   9  36  1   
 24  10  14  1   
 25  10  37  1   
 26  10  38  1   
 27  11  15  1   
 28  11  39  1   
 29  11  40  1   
 30  12  15  1   
 31  12  41  1   
 32  12  42  1   
 33  13  14  1   
 34  13  16  1   
 35  13  43  1   
 36  14  44  1   
 37  14  45  1   
 38  16  17  1   
 39  16  46  1   
 40  16  47  1   
 41  17  18  1   
 42  17  48  1   
 43  17  49  1   
 44  18  19  1   
 45  18  20  1   
 46  18  50  1   
 47  19  21  1   
 48  19  22  2   
 49  20  51  1   
 50  20  52  1   
 51  20  53  1   
 52  21  23  1   
 53  22  24  1   
 54  22  54  1   
 55  23  24  2   
 56  23  25  1   
 57  24  55  1   
 58  25  56  1   
 59  25  57  1   
 60  25  58  1   
@<TRIPOS>SUBSTRUCTURE
  1 ****  13 GROUP 4 **** **** 0

# MOE 2024.06 (io_trps.svl 2023.06)
