@<TRIPOS>MOLECULE
NONAME
60 63 1 0 0 
SMALL
USER_CHARGES


@<TRIPOS>ATOM
  1 O        0.0520     0.3600     0.2610 O.2   1 <1>  -0.5700 
  2 C       -0.9970     0.9480     0.1470 C.2   1 <1>   0.5690 
  3 N       -2.1990     0.3080     0.2360 N.am  1 <1>  -0.6600 
  4 C       -0.9370     2.4460    -0.0760 C.3   1 <1>  -0.0990 
  5 C       -3.5420     0.9270     0.1540 C.3   1 <1>   0.1400 
  6 C       -2.3060    -1.1530     0.4350 C.3   1 <1>   0.1400 
  7 C       -0.9110     3.1960     1.2640 C.3   1 <1>  -0.0990 
  8 C       -4.5030    -0.1280     0.7190 C.3   1 <1>  -0.0800 
  9 C       -3.8050    -1.4710     0.4320 C.3   1 <1>  -0.0800 
 10 C       -0.8890     4.6930     1.0510 C.2   1 <1>   0.5690 
 11 C       -5.9840    -0.0350     0.2370 C.3   1 <1>   0.2800 
 12 C       -4.2780    -2.0610    -0.9060 C.3   1 <1>  -0.1600 
 13 O       -1.9430     5.2780     1.0520 O.2   1 <1>  -0.5700 
 14 N        0.3280     5.2800     0.8500 N.am  1 <1>  -0.5470 
 15 O       -6.0460     0.5580    -1.0100 O.3   1 <1>  -0.6800 
 16 C       -6.5800    -1.4460     0.0810 C.3   1 <1>  -0.1600 
 17 C       -6.8670     0.8100     1.1820 C.3   1 <1>  -0.1600 
 18 C       -5.7920    -2.3450    -0.8970 C.3   1 <1>  -0.1600 
 19 C        0.6990     6.6140     0.6180 C.ar  1 <1>   0.1170 
 20 C       -6.4370     2.2770     1.3640 C.3   1 <1>  -0.2400 
 21 C        1.9840     6.8650     0.1450 C.ar  1 <1>  -0.1500 
 22 C       -0.1500     7.6970     0.8490 C.ar  1 <1>  -0.1500 
 23 C        2.3930     8.1640    -0.0900 C.ar  1 <1>  -0.1440 
 24 C        0.2650     8.9970     0.6110 C.ar  1 <1>  -0.1500 
 25 C        1.5450     9.2170     0.1390 C.ar  1 <1>  -0.1440 
 26 C        3.7310     8.6410    -0.5990 C.3   1 <1>  -0.0170 
 27 C        2.2020    10.5350    -0.1860 C.3   1 <1>  -0.0170 
 28 C        3.4770    10.1200    -0.9400 C.3   1 <1>  -0.1600 
 29 H       -0.0460     2.6680    -0.6340 H     1 <1>   0.0800 
 30 H       -1.7750     2.7680    -0.6660 H     1 <1>   0.0800 
 31 H       -3.5880     1.8410     0.7170 H     1 <1>   0.0800 
 32 H       -3.7450     1.1350    -0.8820 H     1 <1>   0.0800 
 33 H       -1.7800    -1.6760    -0.3450 H     1 <1>   0.0800 
 34 H       -1.8690    -1.4060     1.3860 H     1 <1>   0.0800 
 35 H       -0.0500     2.8980     1.8340 H     1 <1>   0.0800 
 36 H       -1.7850     2.9450     1.8380 H     1 <1>   0.0800 
 37 H       -4.4960    -0.0150     1.7880 H     1 <1>   0.0800 
 38 H       -4.0160    -2.1830     1.2110 H     1 <1>   0.0800 
 39 H       -4.0610    -1.3540    -1.6900 H     1 <1>   0.0800 
 40 H       -3.7420    -2.9670    -1.1280 H     1 <1>   0.0800 
 41 H        1.1090     4.6280     0.8290 H     1 <1>   0.3700 
 42 H       -6.9690     0.5600    -1.3190 H     1 <1>   0.4000 
 43 H       -6.5720    -1.9160     1.0490 H     1 <1>   0.0800 
 44 H       -7.6080    -1.3910    -0.2290 H     1 <1>   0.0800 
 45 H       -7.8800     0.7950     0.8170 H     1 <1>   0.0800 
 46 H       -6.8820     0.3420     2.1500 H     1 <1>   0.0800 
 47 H       -5.9630    -3.3740    -0.6320 H     1 <1>   0.0800 
 48 H       -6.1680    -2.2030    -1.8960 H     1 <1>   0.0800 
 49 H       -6.3540     2.7730     0.4130 H     1 <1>   0.0800 
 50 H       -5.4930     2.3400     1.8730 H     1 <1>   0.0800 
 51 H       -7.1680     2.8000     1.9540 H     1 <1>   0.0800 
 52 H        2.6620     6.0540    -0.0420 H     1 <1>   0.1500 
 53 H       -1.1450     7.5340     1.2200 H     1 <1>   0.1500 
 54 H       -0.4000     9.8240     0.7910 H     1 <1>   0.1500 
 55 H        4.4630     8.5530     0.1840 H     1 <1>   0.0800 
 56 H        4.0480     8.0840    -1.4630 H     1 <1>   0.0800 
 57 H        1.5660    11.1540    -0.7940 H     1 <1>   0.0800 
 58 H        2.4480    11.0460     0.7270 H     1 <1>   0.0800 
 59 H        4.3160    10.7400    -0.6800 H     1 <1>   0.0800 
 60 H        3.2940    10.2030    -1.9980 H     1 <1>   0.0800 
@<TRIPOS>BOND
  1   1   2  2   
  2   2   3  am  
  3   2   4  1   
  4   3   5  1   
  5   3   6  1   
  6   4   7  1   
  7   4  29  1   
  8   4  30  1   
  9   5   8  1   
 10   5  31  1   
 11   5  32  1   
 12   6   9  1   
 13   6  33  1   
 14   6  34  1   
 15   7  10  1   
 16   7  35  1   
 17   7  36  1   
 18   8   9  1   
 19   8  11  1   
 20   8  37  1   
 21   9  12  1   
 22   9  38  1   
 23  10  13  2   
 24  10  14  am  
 25  11  15  1   
 26  11  16  1   
 27  11  17  1   
 28  12  18  1   
 29  12  39  1   
 30  12  40  1   
 31  14  19  1   
 32  14  41  1   
 33  15  42  1   
 34  16  18  1   
 35  16  43  1   
 36  16  44  1   
 37  17  20  1   
 38  17  45  1   
 39  17  46  1   
 40  18  47  1   
 41  18  48  1   
 42  19  21  ar  
 43  19  22  ar  
 44  20  49  1   
 45  20  50  1   
 46  20  51  1   
 47  21  23  ar  
 48  21  52  1   
 49  22  24  ar  
 50  22  53  1   
 51  23  25  ar  
 52  23  26  1   
 53  24  25  ar  
 54  24  54  1   
 55  25  27  1   
 56  26  28  1   
 57  26  55  1   
 58  26  56  1   
 59  27  28  1   
 60  27  57  1   
 61  27  58  1   
 62  28  59  1   
 63  28  60  1   
@<TRIPOS>SUBSTRUCTURE
  1 ****   4 GROUP 4 **** **** 0

# MOE 2024.06 (io_trps.svl 2023.06)
