@<TRIPOS>MOLECULE
NONAME
56 59 1 0 0 
SMALL
USER_CHARGES


@<TRIPOS>ATOM
  1 O       -0.3940    -0.2680    -0.5830 O.2   1 <1>  -0.5700 
  2 C       -0.3780    -1.4310    -0.2560 C.2   1 <1>   0.5690 
  3 N       -1.4720    -2.2740    -0.3400 N.am  1 <1>  -0.2980 
  4 C        0.8900    -2.0240     0.3090 C.3   1 <1>  -0.0990 
  5 N       -1.4610    -3.6230    -0.0610 N.2   1 <1>  -0.5120 
  6 C       -2.7830    -1.7000    -0.7170 C.3   1 <1>   0.0600 
  7 C        0.9870    -3.5190    -0.0330 C.3   1 <1>  -0.0990 
  8 C       -0.3530    -4.2700     0.1180 C.2   1 <1>   0.3890 
  9 C       -0.2560    -5.6960     0.4280 C.2   1 <1>   0.6300 
 10 O        0.8430    -6.1890     0.6500 O.2   1 <1>  -0.5700 
 11 N       -1.3360    -6.5760     0.4920 N.am  1 <1>  -0.6600 
 12 C       -2.6530    -6.3040    -0.1610 C.3   1 <1>   0.1400 
 13 C       -1.1790    -7.9070     1.1570 C.3   1 <1>   0.1400 
 14 C       -3.3700    -7.6100    -0.4980 C.3   1 <1>  -0.1600 
 15 C       -2.5000    -8.3680     1.7790 C.3   1 <1>  -0.1600 
 16 C       -3.6740    -8.4190     0.7760 C.3   1 <1>   0.4240 
 17 O       -4.7340    -7.7690     1.4370 O.3   1 <1>  -0.5600 
 18 C       -4.0220    -9.8840     0.4300 C.ar  1 <1>  -0.1430 
 19 C       -6.0390    -8.0750     1.0480 C.3   1 <1>   0.1200 
 20 C       -5.2780   -10.4140     0.7090 C.ar  1 <1>  -0.1430 
 21 C       -3.0740   -10.7080    -0.1680 C.ar  1 <1>  -0.1500 
 22 C       -6.3240    -9.5390     1.3680 C.3   1 <1>  -0.0170 
 23 C       -5.5770   -11.7290     0.3890 C.ar  1 <1>  -0.1500 
 24 C       -3.3590   -12.0250    -0.4790 C.ar  1 <1>   0.0820 
 25 C       -4.6340   -12.5360    -0.2200 C.ar  1 <1>   0.0820 
 26 O       -2.3620   -12.7650    -1.0250 O.3   1 <1>  -0.3620 
 27 O       -5.0050   -13.8000    -0.5440 O.3   1 <1>  -0.3630 
 28 C       -1.8870   -13.8430    -0.2490 C.3   1 <1>   0.0400 
 29 C       -5.0580   -14.1010    -1.9210 C.3   1 <1>   0.0400 
 30 H        0.8640    -1.8980     1.3750 H     1 <1>   0.0800 
 31 H        1.7420    -1.4950    -0.0770 H     1 <1>   0.0800 
 32 H       -3.0360    -0.9060    -0.0380 H     1 <1>   0.0800 
 33 H       -3.5450    -2.4580    -0.6760 H     1 <1>   0.0800 
 34 H       -2.7260    -1.3060    -1.7160 H     1 <1>   0.0800 
 35 H        1.7480    -3.9500     0.5930 H     1 <1>   0.0800 
 36 H        1.3050    -3.6270    -1.0540 H     1 <1>   0.0800 
 37 H       -2.5000    -5.7480    -1.0690 H     1 <1>   0.0800 
 38 H       -3.2620    -5.7140     0.5040 H     1 <1>   0.0800 
 39 H       -0.4330    -7.8430     1.9310 H     1 <1>   0.0800 
 40 H       -0.8370    -8.6210     0.4290 H     1 <1>   0.0800 
 41 H       -2.7400    -8.1750    -1.1600 H     1 <1>   0.0800 
 42 H       -4.2750    -7.4040    -1.0350 H     1 <1>   0.0800 
 43 H       -2.7320    -7.6890     2.5800 H     1 <1>   0.0800 
 44 H       -2.3570    -9.3370     2.2210 H     1 <1>   0.0800 
 45 H       -6.1520    -7.8820    -0.0040 H     1 <1>   0.0800 
 46 H       -6.7050    -7.4340     1.5980 H     1 <1>   0.0800 
 47 H       -2.0910   -10.3410    -0.3970 H     1 <1>   0.1500 
 48 H       -7.3040    -9.7960     1.0100 H     1 <1>   0.0800 
 49 H       -6.3020    -9.6840     2.4330 H     1 <1>   0.0800 
 50 H       -6.5470   -12.1390     0.6030 H     1 <1>   0.1500 
 51 H       -1.0300   -14.2620    -0.7450 H     1 <1>   0.0800 
 52 H       -2.6580   -14.5860    -0.1600 H     1 <1>   0.0800 
 53 H       -1.6080   -13.4760     0.7230 H     1 <1>   0.0800 
 54 H       -5.4660   -15.0890    -2.0340 H     1 <1>   0.0800 
 55 H       -4.0660   -14.0640    -2.3340 H     1 <1>   0.0800 
 56 H       -5.6920   -13.3810    -2.4090 H     1 <1>   0.0800 
@<TRIPOS>BOND
  1   1   2  2   
  2   2   3  am  
  3   2   4  1   
  4   3   5  1   
  5   3   6  1   
  6   4   7  1   
  7   4  30  1   
  8   4  31  1   
  9   5   8  2   
 10   6  32  1   
 11   6  33  1   
 12   6  34  1   
 13   7   8  1   
 14   7  35  1   
 15   7  36  1   
 16   8   9  1   
 17   9  10  2   
 18   9  11  am  
 19  11  12  1   
 20  11  13  1   
 21  12  14  1   
 22  12  37  1   
 23  12  38  1   
 24  13  15  1   
 25  13  39  1   
 26  13  40  1   
 27  14  16  1   
 28  14  41  1   
 29  14  42  1   
 30  15  16  1   
 31  15  43  1   
 32  15  44  1   
 33  16  17  1   
 34  16  18  1   
 35  17  19  1   
 36  18  20  ar  
 37  18  21  ar  
 38  19  22  1   
 39  19  45  1   
 40  19  46  1   
 41  20  22  1   
 42  20  23  ar  
 43  21  24  ar  
 44  21  47  1   
 45  22  48  1   
 46  22  49  1   
 47  23  25  ar  
 48  23  50  1   
 49  24  25  ar  
 50  24  26  1   
 51  25  27  1   
 52  26  28  1   
 53  27  29  1   
 54  28  51  1   
 55  28  52  1   
 56  28  53  1   
 57  29  54  1   
 58  29  55  1   
 59  29  56  1   
@<TRIPOS>SUBSTRUCTURE
  1 ****  14 GROUP 4 **** **** 0

# MOE 2024.06 (io_trps.svl 2023.06)
