@<TRIPOS>MOLECULE
NONAME
46 49 1 0 0 
SMALL
USER_CHARGES


@<TRIPOS>ATOM
  1 O       -0.6590     0.4670     1.3130 O.2   1 <1>  -0.5700 
  2 C       -1.6300     1.0470     0.8630 C.2   1 <1>   0.7150 
  3 N       -2.7490     0.3100     0.5530 N.am  1 <1>  -0.6600 
  4 C       -1.5890     2.4720     0.6380 C.2   1 <1>  -0.2370 
  5 C       -3.8000     0.7490    -0.4030 C.3   1 <1>   0.1400 
  6 C       -2.8100    -1.1630     0.7390 C.3   1 <1>   0.1400 
  7 N       -0.4970     3.1280     0.1050 N.pl3 1 <1>   0.0480 
  8 C       -2.5480     3.4090     0.9020 C.2   1 <1>  -0.1500 
  9 C       -4.7500    -0.4430    -0.5060 C.3   1 <1>   0.2000 
 10 C       -3.8400    -1.6550    -0.2840 C.3   1 <1>  -0.0800 
 11 C       -0.7860     4.4690     0.0240 C.ar  1 <1>  -0.1520 
 12 C        0.7870     2.5090    -0.2850 C.3   1 <1>   0.0160 
 13 C       -2.0700     4.6700     0.5160 C.ar  1 <1>   0.0000 
 14 O       -5.6650    -0.3550     0.5330 O.3   1 <1>  -0.6800 
 15 C       -4.5680    -2.9470     0.1340 C.3   1 <1>   0.0200 
 16 C       -0.0310     5.5540    -0.4380 C.ar  1 <1>  -0.1500 
 17 C       -2.6150     5.9590     0.5480 C.ar  1 <1>  -0.1500 
 18 C       -3.6480    -4.1540     0.2060 C.2   1 <1>  -0.0400 
 19 C       -0.5760     6.8160    -0.4040 C.ar  1 <1>  -0.1500 
 20 C       -1.8710     7.0190     0.0890 C.ar  1 <1>  -0.1500 
 21 O       -4.1230    -5.2730     0.6860 O.3   1 <1>  -0.0190 
 22 C       -2.3660    -4.3690    -0.1330 C.2   1 <1>  -0.1500 
 23 N       -3.2300    -6.2200     0.6900 N.2   1 <1>  -0.4100 
 24 C       -2.1610    -5.7040     0.2020 C.2   1 <1>   0.1080 
 25 C       -0.8600    -6.4540     0.0210 C.3   1 <1>  -0.0590 
 26 H       -4.3160     1.6300    -0.0650 H     1 <1>   0.0800 
 27 H       -3.3450     0.9440    -1.3580 H     1 <1>   0.0800 
 28 H       -1.8460    -1.6140     0.5780 H     1 <1>   0.0800 
 29 H       -3.1340    -1.3730     1.7440 H     1 <1>   0.0800 
 30 H       -3.5150     3.2520     1.3430 H     1 <1>   0.1500 
 31 H       -5.2910    -0.4750    -1.4370 H     1 <1>   0.0800 
 32 H       -3.3210    -1.8410    -1.2080 H     1 <1>   0.0800 
 33 H        0.5990     1.5790    -0.7880 H     1 <1>   0.0800 
 34 H        1.3680     2.3230     0.6000 H     1 <1>   0.0800 
 35 H        1.3280     3.1620    -0.9420 H     1 <1>   0.0800 
 36 H       -5.1850    -0.1510     1.3610 H     1 <1>   0.4000 
 37 H       -5.3520    -3.1590    -0.5720 H     1 <1>   0.0800 
 38 H       -5.0290    -2.8150     1.0970 H     1 <1>   0.0800 
 39 H        0.9640     5.4010    -0.8140 H     1 <1>   0.1500 
 40 H       -3.6090     6.0970     0.9320 H     1 <1>   0.1500 
 41 H       -0.0120     7.6620    -0.7560 H     1 <1>   0.1500 
 42 H       -2.2750     8.0170     0.1050 H     1 <1>   0.1500 
 43 H       -1.6360    -3.7090    -0.5620 H     1 <1>   0.1500 
 44 H       -0.0830    -5.9800     0.5920 H     1 <1>   0.0800 
 45 H       -0.5850    -6.4620    -1.0170 H     1 <1>   0.0800 
 46 H       -0.9710    -7.4680     0.3600 H     1 <1>   0.0800 
@<TRIPOS>BOND
  1   1   2  2   
  2   2   3  am  
  3   2   4  1   
  4   3   5  1   
  5   3   6  1   
  6   4   7  1   
  7   4   8  2   
  8   5   9  1   
  9   5  26  1   
 10   5  27  1   
 11   6  10  1   
 12   6  28  1   
 13   6  29  1   
 14   7  11  1   
 15   7  12  1   
 16   8  13  1   
 17   8  30  1   
 18   9  10  1   
 19   9  14  1   
 20   9  31  1   
 21  10  15  1   
 22  10  32  1   
 23  11  13  ar  
 24  11  16  ar  
 25  12  33  1   
 26  12  34  1   
 27  12  35  1   
 28  13  17  ar  
 29  14  36  1   
 30  15  18  1   
 31  15  37  1   
 32  15  38  1   
 33  16  19  ar  
 34  16  39  1   
 35  17  20  ar  
 36  17  40  1   
 37  18  21  1   
 38  18  22  2   
 39  19  20  ar  
 40  19  41  1   
 41  20  42  1   
 42  21  23  1   
 43  22  24  1   
 44  22  43  1   
 45  23  24  2   
 46  24  25  1   
 47  25  44  1   
 48  25  45  1   
 49  25  46  1   
@<TRIPOS>SUBSTRUCTURE
  1 ****   3 GROUP 4 **** **** 0

# MOE 2024.06 (io_trps.svl 2023.06)
