@<TRIPOS>MOLECULE
NONAME
58 60 1 0 0 
SMALL
USER_CHARGES


@<TRIPOS>ATOM
  1 O       -3.0960     1.5340    -2.5540 O.2   1 <1>  -0.5700 
  2 C       -2.7840     1.2850    -1.4110 C.2   1 <1>   0.5690 
  3 N       -2.8470    -0.0090    -0.9440 N.am  1 <1>  -0.6600 
  4 C       -2.3890     2.4790    -0.5290 C.3   1 <1>  -0.0190 
  5 C       -2.2950    -0.4800     0.3810 C.3   1 <1>   0.3640 
  6 C       -3.7890    -0.9390    -1.6550 C.3   1 <1>   0.1400 
  7 C       -3.4880     3.5570    -0.5030 C.3   1 <1>  -0.1600 
  8 C       -1.0700     3.1210    -0.9960 C.3   1 <1>  -0.1600 
  9 C       -0.8480    -0.0200     0.5730 C.ar  1 <1>  -0.1430 
 10 C       -2.3160    -2.0210     0.5710 C.3   1 <1>   0.2000 
 11 C       -3.5770    -2.4220    -1.3350 C.3   1 <1>   0.1200 
 12 C       -3.0930     4.7360     0.3920 C.3   1 <1>   0.1400 
 13 C       -0.6700     4.2900    -0.0960 C.3   1 <1>   0.1400 
 14 C        0.1000    -0.2340    -0.4190 C.ar  1 <1>  -0.1500 
 15 C       -0.4620     0.6080     1.7510 C.ar  1 <1>  -0.1500 
 16 O       -3.4790    -2.6020     0.0410 O.3   1 <1>  -0.5600 
 17 C       -2.2040    -2.4120     2.0530 C.3   1 <1>   0.1200 
 18 N       -1.7760     5.2880    -0.0350 N.am  1 <1>  -0.6600 
 19 C        1.4100     0.1750    -0.2390 C.ar  1 <1>  -0.1500 
 20 C        0.8470     1.0200     1.9290 C.ar  1 <1>  -0.1500 
 21 O       -2.4330    -3.7710     2.1900 O.3   1 <1>  -0.6800 
 22 C       -1.6100     6.6400    -0.2490 C.2   1 <1>   0.5690 
 23 C        1.7840     0.8040     0.9340 C.ar  1 <1>  -0.1500 
 24 O       -2.5340     7.4150    -0.1340 O.2   1 <1>  -0.5700 
 25 C       -0.2660     7.2360    -0.6830 C.3   1 <1>   0.1810 
 26 O        0.7640     6.9990     0.2470 O.3   1 <1>  -0.5600 
 27 C        1.9730     7.5880    -0.0870 C.3   1 <1>   0.1200 
 28 C        2.9880     7.1760     0.9710 C.3   1 <1>  -0.2400 
 29 H       -2.2680     2.1560     0.4830 H     1 <1>   0.0800 
 30 H       -2.9080    -0.0490     1.1530 H     1 <1>   0.0800 
 31 H       -4.7960    -0.6730    -1.3870 H     1 <1>   0.0800 
 32 H       -3.6950    -0.8070    -2.7190 H     1 <1>   0.0800 
 33 H       -4.4060     3.1310    -0.1430 H     1 <1>   0.0800 
 34 H       -3.6680     3.9240    -1.5000 H     1 <1>   0.0800 
 35 H       -1.1740     3.4730    -2.0080 H     1 <1>   0.0800 
 36 H       -0.2830     2.3920    -0.9880 H     1 <1>   0.0800 
 37 H       -1.4740    -2.4510     0.0560 H     1 <1>   0.0800 
 38 H       -2.6830    -2.7930    -1.8070 H     1 <1>   0.0800 
 39 H       -4.4150    -2.9980    -1.6870 H     1 <1>   0.0800 
 40 H       -3.0180     4.4140     1.4150 H     1 <1>   0.0800 
 41 H       -3.8580     5.4920     0.3380 H     1 <1>   0.0800 
 42 H        0.2340     4.7260    -0.4800 H     1 <1>   0.0800 
 43 H       -0.4660     3.9330     0.8990 H     1 <1>   0.0800 
 44 H       -0.1810    -0.7150    -1.3410 H     1 <1>   0.1500 
 45 H       -1.1740     0.7830     2.5390 H     1 <1>   0.1500 
 46 H       -2.9430    -1.8920     2.6370 H     1 <1>   0.0800 
 47 H       -1.2250    -2.1940     2.4420 H     1 <1>   0.0800 
 48 H        2.1370     0.0050    -1.0140 H     1 <1>   0.1500 
 49 H        1.1400     1.5090     2.8430 H     1 <1>   0.1500 
 50 H       -3.1660    -4.0120     1.5800 H     1 <1>   0.4000 
 51 H        2.8020     1.1230     1.0730 H     1 <1>   0.1500 
 52 H       -0.3810     8.2990    -0.7960 H     1 <1>   0.0800 
 53 H        0.0180     6.8080    -1.6270 H     1 <1>   0.0800 
 54 H        2.2770     7.2380    -1.0600 H     1 <1>   0.0800 
 55 H        1.8480     8.6580    -0.1000 H     1 <1>   0.0800 
 56 H        3.0920     6.1060     0.9860 H     1 <1>   0.0800 
 57 H        2.6680     7.5180     1.9390 H     1 <1>   0.0800 
 58 H        3.9440     7.6130     0.7510 H     1 <1>   0.0800 
@<TRIPOS>BOND
  1   1   2  2   
  2   2   3  am  
  3   2   4  1   
  4   3   5  1   
  5   3   6  1   
  6   4   7  1   
  7   4   8  1   
  8   4  29  1   
  9   5   9  1   
 10   5  10  1   
 11   5  30  1   
 12   6  11  1   
 13   6  31  1   
 14   6  32  1   
 15   7  12  1   
 16   7  33  1   
 17   7  34  1   
 18   8  13  1   
 19   8  35  1   
 20   8  36  1   
 21   9  14  ar  
 22   9  15  ar  
 23  10  16  1   
 24  10  17  1   
 25  10  37  1   
 26  11  16  1   
 27  11  38  1   
 28  11  39  1   
 29  12  18  1   
 30  12  40  1   
 31  12  41  1   
 32  13  18  1   
 33  13  42  1   
 34  13  43  1   
 35  14  19  ar  
 36  14  44  1   
 37  15  20  ar  
 38  15  45  1   
 39  17  21  1   
 40  17  46  1   
 41  17  47  1   
 42  18  22  am  
 43  19  23  ar  
 44  19  48  1   
 45  20  23  ar  
 46  20  49  1   
 47  21  50  1   
 48  22  24  2   
 49  22  25  1   
 50  23  51  1   
 51  25  26  1   
 52  25  52  1   
 53  25  53  1   
 54  26  27  1   
 55  27  28  1   
 56  27  54  1   
 57  27  55  1   
 58  28  56  1   
 59  28  57  1   
 60  28  58  1   
@<TRIPOS>SUBSTRUCTURE
  1 ****   4 GROUP 4 **** **** 0

# MOE 2024.06 (io_trps.svl 2023.06)
