@<TRIPOS>MOLECULE
NONAME
48 49 1 0 0 
SMALL
USER_CHARGES


@<TRIPOS>ATOM
  1 O       -0.8890    -0.2650    -1.9350 O.2   1 <1>  -0.5700 
  2 C       -1.7520     0.5400    -1.6540 C.2   1 <1>   0.5440 
  3 N       -3.0780     0.2030    -1.8190 N.am  1 <1>  -0.6600 
  4 C       -1.3840     1.8380    -1.1300 C.ar  1 <1>   0.0860 
  5 C       -3.4770    -1.1830    -2.2240 C.3   1 <1>   0.3210 
  6 C       -4.2060     1.1500    -1.5930 C.3   1 <1>   0.1400 
  7 C       -1.3870     2.0720     0.2410 C.ar  1 <1>  -0.1500 
  8 C       -1.0500     2.8960    -1.9720 C.ar  1 <1>  -0.1500 
  9 C       -4.1690    -1.9100    -1.0720 C.2   1 <1>   0.0460 
 10 C       -4.5760     1.2100    -0.0990 C.3   1 <1>   0.3430 
 11 C       -1.1220     3.3250     0.7620 C.ar  1 <1>   0.0820 
 12 C       -0.7640     4.1500    -1.4630 C.ar  1 <1>  -0.1500 
 13 N       -5.4840    -1.7360    -0.8000 N.2   1 <1>  -0.5650 
 14 C       -3.6140    -2.7960    -0.2120 C.2   1 <1>  -0.3320 
 15 N       -5.9050     1.8600     0.1490 N.4   1 <1>  -0.9590 
 16 O       -1.1990     3.4520     2.1080 O.3   1 <1>  -0.3620 
 17 C       -0.8050     4.3720    -0.0980 C.ar  1 <1>  -0.1500 
 18 C       -5.7010    -2.5430     0.1900 C.2   1 <1>   0.0360 
 19 N       -4.6030    -3.2130     0.5970 N.pl3 1 <1>   0.0330 
 20 C       -2.1850    -3.3020    -0.0950 C.3   1 <1>  -0.0600 
 21 C       -6.0310     2.2150     1.5940 C.3   1 <1>   0.2630 
 22 C       -7.0190     0.9440    -0.2600 C.3   1 <1>   0.2630 
 23 C       -0.6350     4.5690     2.7620 C.3   1 <1>   0.0400 
 24 H       -2.6180    -1.7510    -2.5320 H     1 <1>   0.0800 
 25 H       -4.1440    -1.1370    -3.0660 H     1 <1>   0.0800 
 26 H       -5.0490     0.8160    -2.1700 H     1 <1>   0.0800 
 27 H       -3.9270     2.1300    -1.9380 H     1 <1>   0.0800 
 28 H       -1.5970     1.2610     0.9160 H     1 <1>   0.1500 
 29 H       -1.0150     2.7270    -3.0350 H     1 <1>   0.1500 
 30 H       -3.8100     1.7610     0.4180 H     1 <1>   0.0800 
 31 H       -4.5910     0.2090     0.2990 H     1 <1>   0.0800 
 32 H       -0.5060     4.9560    -2.1310 H     1 <1>   0.1500 
 33 H       -5.9580     2.7270    -0.4070 H     1 <1>   0.4500 
 34 H       -0.5870     5.3550     0.2750 H     1 <1>   0.1500 
 35 H       -6.6580    -2.6910     0.6610 H     1 <1>   0.1500 
 36 H       -4.5400    -3.9070     1.3490 H     1 <1>   0.2700 
 37 H       -1.5390    -2.7930    -0.7890 H     1 <1>   0.0800 
 38 H       -2.1440    -4.3560    -0.3060 H     1 <1>   0.0800 
 39 H       -1.8080    -3.1310     0.8970 H     1 <1>   0.0800 
 40 H       -5.9750     1.3270     2.2030 H     1 <1>   0.0800 
 41 H       -6.9740     2.7020     1.7800 H     1 <1>   0.0800 
 42 H       -5.2360     2.8830     1.8860 H     1 <1>   0.0800 
 43 H       -6.9740     0.0280     0.3080 H     1 <1>   0.0800 
 44 H       -6.9400     0.6910    -1.3050 H     1 <1>   0.0800 
 45 H       -7.9750     1.4110    -0.0900 H     1 <1>   0.0800 
 46 H       -0.6960     4.4030     3.8220 H     1 <1>   0.0800 
 47 H       -1.1910     5.4500     2.4980 H     1 <1>   0.0800 
 48 H        0.3960     4.6630     2.4680 H     1 <1>   0.0800 
@<TRIPOS>BOND
  1   1   2  2   
  2   2   3  am  
  3   2   4  1   
  4   3   5  1   
  5   3   6  1   
  6   4   7  ar  
  7   4   8  ar  
  8   5   9  1   
  9   5  24  1   
 10   5  25  1   
 11   6  10  1   
 12   6  26  1   
 13   6  27  1   
 14   7  11  ar  
 15   7  28  1   
 16   8  12  ar  
 17   8  29  1   
 18   9  13  1   
 19   9  14  2   
 20  10  15  1   
 21  10  30  1   
 22  10  31  1   
 23  11  16  1   
 24  11  17  ar  
 25  12  17  ar  
 26  12  32  1   
 27  13  18  2   
 28  14  19  1   
 29  14  20  1   
 30  15  21  1   
 31  15  22  1   
 32  15  33  1   
 33  16  23  1   
 34  17  34  1   
 35  18  19  1   
 36  18  35  1   
 37  19  36  1   
 38  20  37  1   
 39  20  38  1   
 40  20  39  1   
 41  21  40  1   
 42  21  41  1   
 43  21  42  1   
 44  22  43  1   
 45  22  44  1   
 46  22  45  1   
 47  23  46  1   
 48  23  47  1   
 49  23  48  1   
@<TRIPOS>SUBSTRUCTURE
  1 ****  10 GROUP 4 **** **** 0

# MOE 2024.06 (io_trps.svl 2023.06)
