@<TRIPOS>MOLECULE
NONAME
54 57 1 0 0 
SMALL
USER_CHARGES


@<TRIPOS>ATOM
  1 F        0.6090     0.3850     0.8820 F     1 <1>  -0.1900 
  2 C        1.5320    -0.4810     0.5620 C.ar  1 <1>   0.1900 
  3 C        1.3250    -1.8120     0.8620 C.ar  1 <1>  -0.1500 
  4 C        2.6770    -0.0360    -0.0670 C.ar  1 <1>  -0.1500 
  5 C        2.2970    -2.7420     0.5210 C.ar  1 <1>  -0.1440 
  6 C        3.6470    -0.9630    -0.4010 C.ar  1 <1>  -0.1500 
  7 C        3.4770    -2.3170    -0.1100 C.ar  1 <1>  -0.0230 
  8 C        2.0470    -4.2090     0.8450 C.3   1 <1>   0.4870 
  9 N        4.5090    -3.2350    -0.4630 N.pl3 1 <1>   0.5930 
 10 N        1.7640    -4.9520    -0.4080 N.4   1 <1>  -0.9590 
 11 N        4.3150    -4.2310    -1.3690 N.2   1 <1>  -0.7070 
 12 C        5.7450    -3.3480     0.0920 C.2   1 <1>  -0.3320 
 13 C        0.5080    -4.4940    -1.0750 C.3   1 <1>   0.3430 
 14 C        1.6290    -6.4140    -0.1550 C.3   1 <1>   0.3430 
 15 C        5.4180    -4.9060    -1.3840 C.2   1 <1>   0.1080 
 16 C        6.3510    -4.4050    -0.4850 C.2   1 <1>  -0.1500 
 17 C        6.3000    -2.4240     1.1660 C.3   1 <1>  -0.0600 
 18 C       -0.5490    -5.5390    -0.7100 C.3   1 <1>   0.2000 
 19 C        0.2680    -6.8300    -0.7200 C.3   1 <1>  -0.0800 
 20 C        5.6420    -6.1010    -2.2850 C.3   1 <1>  -0.0590 
 21 O       -0.9990    -5.2760     0.5830 O.3   1 <1>  -0.6800 
 22 C       -0.3400    -8.0450     0.0070 C.3   1 <1>   0.0200 
 23 C        0.6770    -9.1670     0.0910 C.2   1 <1>  -0.0400 
 24 O        1.3430    -9.5220    -0.9760 O.3   1 <1>  -0.0190 
 25 C        1.0990    -9.9280     1.1120 C.2   1 <1>  -0.1500 
 26 N        2.1980   -10.4660    -0.7200 N.2   1 <1>  -0.4100 
 27 C        2.0670   -10.7400     0.5280 C.2   1 <1>   0.1080 
 28 C        2.8630   -11.8030     1.2530 C.3   1 <1>  -0.0590 
 29 H        0.4100    -2.0980     1.3540 H     1 <1>   0.1500 
 30 H        2.8000     1.0100    -0.2870 H     1 <1>   0.1500 
 31 H        4.5450    -0.6310    -0.8970 H     1 <1>   0.1500 
 32 H        1.2100    -4.3000     1.5200 H     1 <1>   0.0800 
 33 H        2.9200    -4.6220     1.3240 H     1 <1>   0.0800 
 34 H        2.5820    -4.7790    -1.0320 H     1 <1>   0.4500 
 35 H        0.2080    -3.5070    -0.7630 H     1 <1>   0.0800 
 36 H        0.6540    -4.4960    -2.1420 H     1 <1>   0.0800 
 37 H        2.4260    -6.9690    -0.6270 H     1 <1>   0.0800 
 38 H        1.6490    -6.6080     0.9050 H     1 <1>   0.0800 
 39 H        7.3380    -4.7980    -0.3100 H     1 <1>   0.1500 
 40 H        7.2790    -2.7520     1.4690 H     1 <1>   0.0800 
 41 H        5.6590    -2.4220     2.0310 H     1 <1>   0.0800 
 42 H        6.3820    -1.4190     0.7920 H     1 <1>   0.0800 
 43 H       -1.3860    -5.5380    -1.3880 H     1 <1>   0.0800 
 44 H        0.4290    -7.1100    -1.7480 H     1 <1>   0.0800 
 45 H        6.6630    -6.4310    -2.2230 H     1 <1>   0.0800 
 46 H        5.4280    -5.8310    -3.3030 H     1 <1>   0.0800 
 47 H        4.9950    -6.9080    -1.9930 H     1 <1>   0.0800 
 48 H       -1.8700    -5.6950     0.7460 H     1 <1>   0.4000 
 49 H       -1.2050    -8.3950    -0.5300 H     1 <1>   0.0800 
 50 H       -0.6450    -7.7900     1.0060 H     1 <1>   0.0800 
 51 H        0.7940    -9.9430     2.1430 H     1 <1>   0.1500 
 52 H        3.3550   -11.3780     2.1080 H     1 <1>   0.0800 
 53 H        3.6060   -12.2180     0.5960 H     1 <1>   0.0800 
 54 H        2.2080   -12.5920     1.5760 H     1 <1>   0.0800 
@<TRIPOS>BOND
  1   1   2  1   
  2   2   3  ar  
  3   2   4  ar  
  4   3   5  ar  
  5   3  29  1   
  6   4   6  ar  
  7   4  30  1   
  8   5   7  ar  
  9   5   8  1   
 10   6   7  ar  
 11   6  31  1   
 12   7   9  1   
 13   8  10  1   
 14   8  32  1   
 15   8  33  1   
 16   9  11  1   
 17   9  12  1   
 18  10  13  1   
 19  10  14  1   
 20  10  34  1   
 21  11  15  2   
 22  12  16  2   
 23  12  17  1   
 24  13  18  1   
 25  13  35  1   
 26  13  36  1   
 27  14  19  1   
 28  14  37  1   
 29  14  38  1   
 30  15  16  1   
 31  15  20  1   
 32  16  39  1   
 33  17  40  1   
 34  17  41  1   
 35  17  42  1   
 36  18  19  1   
 37  18  21  1   
 38  18  43  1   
 39  19  22  1   
 40  19  44  1   
 41  20  45  1   
 42  20  46  1   
 43  20  47  1   
 44  21  48  1   
 45  22  23  1   
 46  22  49  1   
 47  22  50  1   
 48  23  24  1   
 49  23  25  2   
 50  24  26  1   
 51  25  27  1   
 52  25  51  1   
 53  26  27  2   
 54  27  28  1   
 55  28  52  1   
 56  28  53  1   
 57  28  54  1   
@<TRIPOS>SUBSTRUCTURE
  1 ****  10 GROUP 4 **** **** 0

# MOE 2024.06 (io_trps.svl 2023.06)
