@<TRIPOS>MOLECULE
NONAME
55 57 1 0 0 
SMALL
USER_CHARGES


@<TRIPOS>ATOM
  1 O       -2.2570     0.0970     2.3380 O.2   1 <1>  -0.5700 
  2 C       -2.3990     0.5480     1.2290 C.2   1 <1>   0.5690 
  3 N       -2.4650    -0.2420     0.1140 N.am  1 <1>  -0.6600 
  4 C       -2.4570     2.0540     1.1070 C.3   1 <1>  -0.0990 
  5 C       -2.2930    -1.7300     0.2400 C.3   1 <1>   0.3640 
  6 C       -2.7230     0.2870    -1.2670 C.3   1 <1>   0.1400 
  7 C       -1.0650     2.5830     0.7450 C.3   1 <1>   0.0960 
  8 C       -0.8240    -2.1500     0.0730 C.ar  1 <1>  -0.1440 
  9 C       -3.2100    -2.5350    -0.7350 C.3   1 <1>   0.2000 
 10 C       -2.7790    -0.8250    -2.3230 C.3   1 <1>   0.1200 
 11 N       -1.1780     3.7850    -0.0980 N.pl3 1 <1>   0.3140 
 12 C       -0.4500    -3.3940     0.5670 C.ar  1 <1>  -0.1500 
 13 C        0.1480    -1.3620    -0.5380 C.ar  1 <1>  -0.1500 
 14 O       -3.6330    -1.8320    -1.8830 O.3   1 <1>  -0.5600 
 15 C       -4.4820    -3.0220    -0.0310 C.3   1 <1>   0.1200 
 16 N       -1.4130     3.6730    -1.4200 N.2   1 <1>  -0.7070 
 17 C       -1.1030     5.0810     0.2820 C.2   1 <1>  -0.3320 
 18 C        0.8480    -3.8580     0.4440 C.ar  1 <1>   0.0820 
 19 C        1.4550    -1.8070    -0.6490 C.ar  1 <1>  -0.1500 
 20 O       -4.1730    -4.0170     0.8930 O.3   1 <1>  -0.6800 
 21 C       -1.4740     4.8960    -1.8500 C.2   1 <1>   0.1390 
 22 C       -1.2880     5.8220    -0.8320 C.2   1 <1>  -0.1500 
 23 C       -0.8590     5.5660     1.7010 C.3   1 <1>  -0.0600 
 24 O        1.1100    -5.1040     0.9120 O.3   1 <1>  -0.3620 
 25 C        1.8190    -3.0440    -0.1490 C.ar  1 <1>   0.0820 
 26 C        1.5260    -6.0620    -0.0370 C.3   1 <1>   0.0400 
 27 O        3.1220    -3.4030    -0.2520 O.3   1 <1>  -0.3630 
 28 C        3.8330    -3.5080     0.9610 C.3   1 <1>   0.0400 
 29 H       -3.1840     2.3300     0.3670 H     1 <1>   0.0800 
 30 H       -2.7670     2.4730     2.0460 H     1 <1>   0.0800 
 31 H       -2.5650    -2.0160     1.2420 H     1 <1>   0.0800 
 32 H       -3.6660     0.8050    -1.2760 H     1 <1>   0.0800 
 33 H       -1.9580     0.9920    -1.5410 H     1 <1>   0.0800 
 34 H       -0.5200     1.8480     0.1800 H     1 <1>   0.0800 
 35 H       -0.5030     2.8070     1.6320 H     1 <1>   0.0800 
 36 H       -2.6760    -3.3970    -1.0910 H     1 <1>   0.0800 
 37 H       -1.8060    -1.2460    -2.5110 H     1 <1>   0.0800 
 38 H       -3.1710    -0.4380    -3.2470 H     1 <1>   0.0800 
 39 H       -1.1720    -4.0250     1.0550 H     1 <1>   0.1500 
 40 H       -0.0910    -0.3920    -0.9290 H     1 <1>   0.1500 
 41 H       -5.1780    -3.4320    -0.7420 H     1 <1>   0.0800 
 42 H       -4.9460    -2.2080     0.5000 H     1 <1>   0.0800 
 43 H        2.2010    -1.1910    -1.1180 H     1 <1>   0.1500 
 44 H       -4.0230    -4.8730     0.4450 H     1 <1>   0.4000 
 45 H       -1.6490     5.1550    -2.8810 H     1 <1>   0.1500 
 46 H       -1.2970     6.8910    -0.9420 H     1 <1>   0.1500 
 47 H       -0.8670     6.6410     1.7310 H     1 <1>   0.0800 
 48 H        0.0970     5.2220     2.0530 H     1 <1>   0.0800 
 49 H       -1.6290     5.2010     2.3580 H     1 <1>   0.0800 
 50 H        1.5480    -7.0230     0.4440 H     1 <1>   0.0800 
 51 H        2.5080    -5.8100    -0.3930 H     1 <1>   0.0800 
 52 H        0.8250    -6.0720    -0.8520 H     1 <1>   0.0800 
 53 H        4.8630    -3.7140     0.7310 H     1 <1>   0.0800 
 54 H        3.4210    -4.3090     1.5490 H     1 <1>   0.0800 
 55 H        3.7520    -2.5770     1.4930 H     1 <1>   0.0800 
@<TRIPOS>BOND
  1   1   2  2   
  2   2   3  am  
  3   2   4  1   
  4   3   5  1   
  5   3   6  1   
  6   4   7  1   
  7   4  29  1   
  8   4  30  1   
  9   5   8  1   
 10   5   9  1   
 11   5  31  1   
 12   6  10  1   
 13   6  32  1   
 14   6  33  1   
 15   7  11  1   
 16   7  34  1   
 17   7  35  1   
 18   8  12  ar  
 19   8  13  ar  
 20   9  14  1   
 21   9  15  1   
 22   9  36  1   
 23  10  14  1   
 24  10  37  1   
 25  10  38  1   
 26  11  16  1   
 27  11  17  1   
 28  12  18  ar  
 29  12  39  1   
 30  13  19  ar  
 31  13  40  1   
 32  15  20  1   
 33  15  41  1   
 34  15  42  1   
 35  16  21  2   
 36  17  22  2   
 37  17  23  1   
 38  18  24  1   
 39  18  25  ar  
 40  19  25  ar  
 41  19  43  1   
 42  20  44  1   
 43  21  22  1   
 44  21  45  1   
 45  22  46  1   
 46  23  47  1   
 47  23  48  1   
 48  23  49  1   
 49  24  26  1   
 50  25  27  1   
 51  26  50  1   
 52  26  51  1   
 53  26  52  1   
 54  27  28  1   
 55  28  53  1   
 56  28  54  1   
 57  28  55  1   
@<TRIPOS>SUBSTRUCTURE
  1 ****   3 GROUP 4 **** **** 0

# MOE 2024.06 (io_trps.svl 2023.06)
