@<TRIPOS>MOLECULE
NONAME
50 53 1 0 0 
SMALL
USER_CHARGES


@<TRIPOS>ATOM
  1 O       -2.5300     0.7740    -2.7180 O.2   1 <1>  -0.5700 
  2 C       -2.2060     1.1130    -1.5960 C.2   1 <1>   0.5440 
  3 N       -2.2690     0.1450    -0.6160 N.am  1 <1>  -0.6600 
  4 C       -1.8860     2.5010    -1.3330 C.ar  1 <1>   0.0860 
  5 C       -2.7340     0.4260     0.7730 C.3   1 <1>   0.1400 
  6 C       -2.2610    -1.3040    -0.9650 C.3   1 <1>   0.1400 
  7 C       -0.8540     2.8980    -0.4690 C.ar  1 <1>   0.3920 
  8 C       -2.6160     3.5100    -1.9500 C.ar  1 <1>  -0.1500 
  9 C       -4.1400    -0.1740     1.0060 C.3   1 <1>   0.4230 
 10 C       -3.6680    -1.8910    -0.7730 C.3   1 <1>   0.3430 
 11 O       -0.1000     1.9400     0.1090 O.3   1 <1>  -0.3630 
 12 N       -0.5590     4.1620    -0.1670 N.ar  1 <1>  -0.6200 
 13 C       -2.3070     4.8190    -1.6580 C.ar  1 <1>  -0.1500 
 14 N       -4.2100    -1.6440     0.6210 N.4   1 <1>  -0.9590 
 15 C       -5.2080     0.6460     0.2450 C.3   1 <1>   0.1200 
 16 C        1.0380     2.2490     0.8880 C.3   1 <1>   0.1200 
 17 C       -1.2840     5.0870    -0.7670 C.ar  1 <1>   0.1600 
 18 C       -5.6190    -2.1400     0.7910 C.3   1 <1>   0.5180 
 19 O       -6.4800     0.1050     0.4610 O.3   1 <1>  -0.5600 
 20 C        1.6600     0.9370     1.3580 C.3   1 <1>  -0.2400 
 21 C       -5.6900    -3.6290     0.3930 C.3   1 <1>  -0.1950 
 22 C       -6.6290    -1.2270     0.0500 C.3   1 <1>   0.1200 
 23 C       -5.9470    -4.1340    -0.9970 C.3   1 <1>  -0.2000 
 24 C       -6.9790    -4.3250     0.0770 C.3   1 <1>  -0.2000 
 25 H       -2.0330     0.0010     1.4710 H     1 <1>   0.0800 
 26 H       -2.7630     1.4860     0.9550 H     1 <1>   0.0800 
 27 H       -1.9500    -1.4430    -1.9870 H     1 <1>   0.0800 
 28 H       -1.5530    -1.8210    -0.3410 H     1 <1>   0.0800 
 29 H       -3.4030     3.2680    -2.6450 H     1 <1>   0.1500 
 30 H       -4.3640    -0.0760     2.0560 H     1 <1>   0.0800 
 31 H       -3.6320    -2.9480    -0.9740 H     1 <1>   0.0800 
 32 H       -4.3190    -1.4400    -1.5040 H     1 <1>   0.0800 
 33 H       -2.8490     5.6270    -2.1160 H     1 <1>   0.1500 
 34 H       -3.6230    -2.1710     1.2750 H     1 <1>   0.4500 
 35 H       -5.0130     0.6630    -0.8150 H     1 <1>   0.0800 
 36 H       -5.2240     1.6610     0.6030 H     1 <1>   0.0800 
 37 H        1.7280     2.8040     0.2760 H     1 <1>   0.0800 
 38 H        0.7290     2.8520     1.7250 H     1 <1>   0.0800 
 39 H       -1.0510     6.1140    -0.5410 H     1 <1>   0.1500 
 40 H       -5.8730    -2.0830     1.8360 H     1 <1>   0.0800 
 41 H        1.9490     0.3410     0.5110 H     1 <1>   0.0800 
 42 H        0.9630     0.3900     1.9660 H     1 <1>   0.0800 
 43 H        2.5370     1.1440     1.9450 H     1 <1>   0.0800 
 44 H       -5.0220    -4.2100     1.0070 H     1 <1>   0.1000 
 45 H       -7.6360    -1.5210     0.2870 H     1 <1>   0.0800 
 46 H       -6.5010    -1.2750    -1.0160 H     1 <1>   0.0800 
 47 H       -6.2010    -3.4700    -1.8060 H     1 <1>   0.1000 
 48 H       -5.4230    -5.0090    -1.3470 H     1 <1>   0.1000 
 49 H       -7.1390    -5.3220     0.4550 H     1 <1>   0.1000 
 50 H       -7.9060    -3.7860    -0.0200 H     1 <1>   0.1000 
@<TRIPOS>BOND
  1   1   2  2   
  2   2   3  am  
  3   2   4  1   
  4   3   5  1   
  5   3   6  1   
  6   4   7  ar  
  7   4   8  ar  
  8   5   9  1   
  9   5  25  1   
 10   5  26  1   
 11   6  10  1   
 12   6  27  1   
 13   6  28  1   
 14   7  11  1   
 15   7  12  ar  
 16   8  13  ar  
 17   8  29  1   
 18   9  14  1   
 19   9  15  1   
 20   9  30  1   
 21  10  14  1   
 22  10  31  1   
 23  10  32  1   
 24  11  16  1   
 25  12  17  ar  
 26  13  17  ar  
 27  13  33  1   
 28  14  18  1   
 29  14  34  1   
 30  15  19  1   
 31  15  35  1   
 32  15  36  1   
 33  16  20  1   
 34  16  37  1   
 35  16  38  1   
 36  17  39  1   
 37  18  21  1   
 38  18  22  1   
 39  18  40  1   
 40  19  22  1   
 41  20  41  1   
 42  20  42  1   
 43  20  43  1   
 44  21  23  1   
 45  21  24  1   
 46  21  44  1   
 47  22  45  1   
 48  22  46  1   
 49  23  24  1   
 50  23  47  1   
 51  23  48  1   
 52  24  49  1   
 53  24  50  1   
@<TRIPOS>SUBSTRUCTURE
  1 ****   3 GROUP 4 **** **** 0

# MOE 2024.06 (io_trps.svl 2023.06)
