@<TRIPOS>MOLECULE
NONAME
57 61 1 0 0 
SMALL
USER_CHARGES


@<TRIPOS>ATOM
  1 O       -3.1210    -0.3090     3.8850 O.3   1 <1>  -0.5320 
  2 C       -3.8690     0.0970     2.8500 C.ar  1 <1>   0.0830 
  3 C       -4.6270    -0.8320     2.1620 C.ar  1 <1>  -0.1500 
  4 C       -3.8810     1.4300     2.4730 C.ar  1 <1>  -0.1500 
  5 C       -5.4070    -0.4290     1.0930 C.ar  1 <1>  -0.1500 
  6 C       -4.6620     1.8310     1.4040 C.ar  1 <1>  -0.1500 
  7 C       -5.4320     0.9060     0.7110 C.ar  1 <1>  -0.1430 
  8 C       -6.3060     1.3470    -0.4460 C.3   1 <1>  -0.0170 
  9 C       -7.7110     1.6300     0.0900 C.3   1 <1>   0.3430 
 10 N       -8.6330     2.1410    -0.9710 N.4   1 <1>  -0.9590 
 11 C       -9.8820     2.6850    -0.3300 C.3   1 <1>   0.3430 
 12 C       -8.9760     1.0880    -1.9760 C.3   1 <1>   0.3430 
 13 C      -10.8450     3.3100    -1.3570 C.3   1 <1>   0.1430 
 14 C       -9.8760     1.6760    -3.0650 C.3   1 <1>  -0.1600 
 15 C      -12.1190     3.7030    -0.6470 C.ar  1 <1>   0.1670 
 16 C      -11.1560     2.3000    -2.4810 C.3   1 <1>  -0.1600 
 17 C      -10.3440     4.6690    -1.9180 C.3   1 <1>  -0.1600 
 18 N      -12.7660     2.9370     0.1950 N.ar  1 <1>  -0.6200 
 19 C      -12.5170     4.9600    -0.9790 C.ar  1 <1>  -0.1430 
 20 C      -11.5670     5.6070    -1.9560 C.3   1 <1>  -0.0170 
 21 C      -13.8880     3.4650     0.7090 C.ar  1 <1>   0.6200 
 22 C      -13.6670     5.4320    -0.4030 C.ar  1 <1>   0.1600 
 23 N      -14.3540     4.6920     0.4370 N.ar  1 <1>  -0.6200 
 24 C      -14.6580     2.6430     1.6320 C.ar  1 <1>   0.0000 
 25 C      -16.0490     2.7490     1.7170 C.ar  1 <1>  -0.1500 
 26 C      -14.0450     1.7110     2.4740 C.ar  1 <1>  -0.1500 
 27 C      -16.7880     1.9700     2.5880 C.ar  1 <1>  -0.1500 
 28 C      -14.7770     0.9280     3.3490 C.ar  1 <1>  -0.1500 
 29 C      -16.1520     1.0560     3.4080 C.ar  1 <1>  -0.1500 
 30 H       -2.6050     0.4080     4.2950 H     1 <1>   0.4500 
 31 H       -4.5980    -1.8630     2.4680 H     1 <1>   0.1500 
 32 H       -3.2860     2.1500     3.0050 H     1 <1>   0.1500 
 33 H       -5.9860    -1.1680     0.5670 H     1 <1>   0.1500 
 34 H       -4.6600     2.8690     1.1190 H     1 <1>   0.1500 
 35 H       -6.3240     0.5660    -1.1850 H     1 <1>   0.0800 
 36 H       -5.8900     2.2330    -0.8910 H     1 <1>   0.0800 
 37 H       -7.6260     2.3620     0.8770 H     1 <1>   0.0800 
 38 H       -8.1130     0.7290     0.5260 H     1 <1>   0.0800 
 39 H       -8.1710     2.9160    -1.4650 H     1 <1>   0.4500 
 40 H       -9.6300     3.4290     0.4080 H     1 <1>   0.0800 
 41 H      -10.4020     1.8870     0.1750 H     1 <1>   0.0800 
 42 H       -9.4900     0.2740    -1.4890 H     1 <1>   0.0800 
 43 H       -8.0790     0.6970    -2.4300 H     1 <1>   0.0800 
 44 H      -10.1520     0.8910    -3.7480 H     1 <1>   0.0800 
 45 H       -9.3250     2.4060    -3.6320 H     1 <1>   0.0800 
 46 H      -11.7270     2.7750    -3.2600 H     1 <1>   0.0800 
 47 H      -11.7700     1.5110    -2.0770 H     1 <1>   0.0800 
 48 H       -9.8930     4.5860    -2.8910 H     1 <1>   0.0800 
 49 H       -9.6230     5.0970    -1.2430 H     1 <1>   0.0800 
 50 H      -12.0120     5.6190    -2.9370 H     1 <1>   0.0800 
 51 H      -11.3120     6.6100    -1.6600 H     1 <1>   0.0800 
 52 H      -14.0300     6.4210    -0.6300 H     1 <1>   0.1500 
 53 H      -16.5620     3.4560     1.0870 H     1 <1>   0.1500 
 54 H      -12.9770     1.5980     2.4460 H     1 <1>   0.1500 
 55 H      -17.8580     2.0760     2.6300 H     1 <1>   0.1500 
 56 H      -14.2780     0.2180     3.9860 H     1 <1>   0.1500 
 57 H      -16.7250     0.4480     4.0870 H     1 <1>   0.1500 
@<TRIPOS>BOND
  1   1   2  1   
  2   1  30  1   
  3   2   3  ar  
  4   2   4  ar  
  5   3   5  ar  
  6   3  31  1   
  7   4   6  ar  
  8   4  32  1   
  9   5   7  ar  
 10   5  33  1   
 11   6   7  ar  
 12   6  34  1   
 13   7   8  1   
 14   8   9  1   
 15   8  35  1   
 16   8  36  1   
 17   9  10  1   
 18   9  37  1   
 19   9  38  1   
 20  10  11  1   
 21  10  12  1   
 22  10  39  1   
 23  11  13  1   
 24  11  40  1   
 25  11  41  1   
 26  12  14  1   
 27  12  42  1   
 28  12  43  1   
 29  13  15  1   
 30  13  16  1   
 31  13  17  1   
 32  14  16  1   
 33  14  44  1   
 34  14  45  1   
 35  15  18  ar  
 36  15  19  ar  
 37  16  46  1   
 38  16  47  1   
 39  17  20  1   
 40  17  48  1   
 41  17  49  1   
 42  18  21  ar  
 43  19  20  1   
 44  19  22  ar  
 45  20  50  1   
 46  20  51  1   
 47  21  23  ar  
 48  21  24  1   
 49  22  23  ar  
 50  22  52  1   
 51  24  25  ar  
 52  24  26  ar  
 53  25  27  ar  
 54  25  53  1   
 55  26  28  ar  
 56  26  54  1   
 57  27  29  ar  
 58  27  55  1   
 59  28  29  ar  
 60  28  56  1   
 61  29  57  1   
@<TRIPOS>SUBSTRUCTURE
  1 ****  11 GROUP 4 **** **** 0

# MOE 2024.06 (io_trps.svl 2023.06)
