@<TRIPOS>MOLECULE
NONAME
38 40 1 0 0 
SMALL
USER_CHARGES


@<TRIPOS>ATOM
  1 S       -1.6700    -1.6730     2.2070 S.3   1 <1>  -0.1970 
  2 C       -2.8910    -1.3240     1.0030 C.2   1 <1>   0.2420 
  3 C       -0.7870    -0.2330     1.6520 C.2   1 <1>   0.5310 
  4 N       -3.9970    -1.8830     0.6450 N.2   1 <1>  -0.5650 
  5 N       -2.5240    -0.2160     0.3430 N.pl3 1 <1>   0.5050 
  6 N       -1.3370     0.4080     0.7010 N.2   1 <1>  -0.6520 
  7 C       -4.4040    -1.0510    -0.3570 C.2   1 <1>   0.0460 
  8 C       -3.5130    -0.0370    -0.5490 C.2   1 <1>  -0.3020 
  9 C       -5.7110    -1.3280    -1.1090 C.3   1 <1>   0.4010 
 10 N       -5.6970    -2.7280    -1.5400 N.am  1 <1>  -0.7300 
 11 C       -5.8850    -0.4490    -2.3460 C.3   1 <1>  -0.2400 
 12 C       -6.7790    -3.5370    -1.4800 C.2   1 <1>   0.7150 
 13 O       -7.8880    -3.0470    -1.3870 O.2   1 <1>  -0.5700 
 14 C       -6.5630    -4.9520    -1.5050 C.2   1 <1>  -0.2370 
 15 N       -6.8250    -5.8160    -0.4630 N.pl3 1 <1>   0.0480 
 16 C       -6.0420    -5.6860    -2.5390 C.2   1 <1>  -0.1500 
 17 C       -6.4680    -7.0610    -0.8720 C.2   1 <1>  -0.3020 
 18 C       -7.3490    -5.5420     0.9090 C.3   1 <1>   0.1760 
 19 C       -5.9850    -7.0150    -2.1400 C.2   1 <1>  -0.1500 
 20 C       -8.8640    -5.3130     0.8860 C.3   1 <1>  -0.2400 
 21 C       -6.6090    -4.3890     1.6010 C.3   1 <1>  -0.2400 
 22 H        0.1360    -0.0180     2.1600 H     1 <1>   0.0600 
 23 H       -3.5080     0.7830    -1.2410 H     1 <1>   0.1500 
 24 H       -6.5360    -1.1690    -0.4330 H     1 <1>   0.0800 
 25 H       -4.8020    -3.1760    -1.3440 H     1 <1>   0.3700 
 26 H       -5.0680    -0.5960    -3.0280 H     1 <1>   0.0800 
 27 H       -5.9210     0.5850    -2.0580 H     1 <1>   0.0800 
 28 H       -6.8100    -0.6960    -2.8370 H     1 <1>   0.0800 
 29 H       -5.7290    -5.3130    -3.4990 H     1 <1>   0.1500 
 30 H       -6.5700    -7.9270    -0.2420 H     1 <1>   0.1500 
 31 H       -7.1650    -6.4290     1.4900 H     1 <1>   0.0800 
 32 H       -5.6240    -7.8340    -2.7390 H     1 <1>   0.1500 
 33 H       -9.1090    -4.4120     0.3550 H     1 <1>   0.0800 
 34 H       -9.2370    -5.2250     1.8890 H     1 <1>   0.0800 
 35 H       -9.3550    -6.1430     0.4110 H     1 <1>   0.0800 
 36 H       -6.8790    -3.4390     1.1790 H     1 <1>   0.0800 
 37 H       -5.5440    -4.5230     1.5200 H     1 <1>   0.0800 
 38 H       -6.8670    -4.3670     2.6440 H     1 <1>   0.0800 
@<TRIPOS>BOND
  1   1   2  1   
  2   1   3  1   
  3   2   4  2   
  4   2   5  1   
  5   3   6  2   
  6   3  22  1   
  7   4   7  1   
  8   5   6  1   
  9   5   8  1   
 10   7   8  2   
 11   7   9  1   
 12   8  23  1   
 13   9  10  1   
 14   9  11  1   
 15   9  24  1   
 16  10  12  am  
 17  10  25  1   
 18  11  26  1   
 19  11  27  1   
 20  11  28  1   
 21  12  13  2   
 22  12  14  1   
 23  14  15  1   
 24  14  16  2   
 25  15  17  1   
 26  15  18  1   
 27  16  19  1   
 28  16  29  1   
 29  17  19  2   
 30  17  30  1   
 31  18  20  1   
 32  18  21  1   
 33  18  31  1   
 34  19  32  1   
 35  20  33  1   
 36  20  34  1   
 37  20  35  1   
 38  21  36  1   
 39  21  37  1   
 40  21  38  1   
@<TRIPOS>SUBSTRUCTURE
  1 ****  10 GROUP 4 **** **** 0

# MOE 2024.06 (io_trps.svl 2023.06)
