@<TRIPOS>MOLECULE
NONAME
52 54 1 0 0 
SMALL
USER_CHARGES


@<TRIPOS>ATOM
  1 F       -3.4180    -6.8370    -3.5450 F     1 <1>  -0.1900 
  2 C       -2.9060    -5.9640    -2.7230 C.ar  1 <1>   0.1900 
  3 C       -2.2620    -6.4230    -1.5910 C.ar  1 <1>  -0.1500 
  4 C       -3.0360    -4.6190    -3.0060 C.ar  1 <1>  -0.1500 
  5 C       -1.7370    -5.5000    -0.6960 C.ar  1 <1>  -0.1440 
  6 C       -2.5000    -3.7030    -2.1170 C.ar  1 <1>  -0.1500 
  7 C       -1.8560    -4.1410    -0.9690 C.ar  1 <1>  -0.1500 
  8 C       -1.0640    -5.9810     0.5750 C.3   1 <1>   0.4870 
  9 N       -2.1060    -6.6460     1.3870 N.4   1 <1>  -0.9590 
 10 C       -3.1880    -5.7590     1.8980 C.3   1 <1>   0.3430 
 11 C       -1.6390    -7.6110     2.3990 C.3   1 <1>   0.3430 
 12 C       -4.5540    -6.4110     1.5850 C.3   1 <1>   0.1100 
 13 C       -2.4540    -8.8950     2.2330 C.3   1 <1>  -0.1600 
 14 N       -4.4160    -7.8270     1.1470 N.3   1 <1>  -0.8100 
 15 C       -3.9800    -8.7190     2.2450 C.3   1 <1>   0.1100 
 16 C       -5.6460    -8.3290     0.4920 C.3   1 <1>   0.2480 
 17 C       -5.2920    -9.4990    -0.4300 C.2   1 <1>  -0.0380 
 18 N       -4.6020    -9.1390    -1.5680 N.pl3 1 <1>  -0.6000 
 19 C       -5.5970   -10.8160    -0.2160 C.2   1 <1>  -0.1240 
 20 C       -4.2020   -10.0590    -2.5030 C.2   1 <1>  -0.0500 
 21 C       -5.1810   -11.8060    -1.1660 C.2   1 <1>   0.5410 
 22 C       -6.3750   -11.3420     0.9950 C.3   1 <1>  -0.1020 
 23 C       -4.4720   -11.3770    -2.3280 C.2   1 <1>  -0.1240 
 24 O       -5.4200   -13.0010    -0.9850 O.2   1 <1>  -0.5700 
 25 C       -4.0360   -12.4130    -3.3560 C.3   1 <1>  -0.1020 
 26 H       -2.1820    -7.4850    -1.4290 H     1 <1>   0.1500 
 27 H       -3.5410    -4.2990    -3.9010 H     1 <1>   0.1500 
 28 H       -2.5840    -2.6480    -2.3220 H     1 <1>   0.1500 
 29 H       -1.4470    -3.4060    -0.2950 H     1 <1>   0.1500 
 30 H       -0.6300    -5.1560     1.1160 H     1 <1>   0.0800 
 31 H       -0.2850    -6.6810     0.3210 H     1 <1>   0.0800 
 32 H       -2.6570    -7.2450     0.7370 H     1 <1>   0.4500 
 33 H       -3.1460    -4.7930     1.4200 H     1 <1>   0.0800 
 34 H       -3.0840    -5.6120     2.9600 H     1 <1>   0.0800 
 35 H       -1.7720    -7.2080     3.3900 H     1 <1>   0.0800 
 36 H       -0.5930    -7.8320     2.2550 H     1 <1>   0.0800 
 37 H       -5.0050    -5.8400     0.7910 H     1 <1>   0.0800 
 38 H       -5.2050    -6.3390     2.4400 H     1 <1>   0.0800 
 39 H       -2.1870    -9.5670     3.0290 H     1 <1>   0.0800 
 40 H       -2.1720    -9.3810     1.3150 H     1 <1>   0.0800 
 41 H       -4.3140    -8.3410     3.1980 H     1 <1>   0.0800 
 42 H       -4.4140    -9.6970     2.1210 H     1 <1>   0.0800 
 43 H       -6.0770    -7.5550    -0.1210 H     1 <1>   0.0800 
 44 H       -6.3810    -8.5900     1.2290 H     1 <1>   0.0800 
 45 H       -4.4160    -8.1430    -1.7440 H     1 <1>   0.4000 
 46 H       -3.6780    -9.6900    -3.3700 H     1 <1>   0.1500 
 47 H       -7.2770   -11.8200     0.6580 H     1 <1>   0.0800 
 48 H       -6.6440   -10.5820     1.6990 H     1 <1>   0.0800 
 49 H       -5.7820   -12.0780     1.5100 H     1 <1>   0.0800 
 50 H       -3.3840   -13.1330    -2.8940 H     1 <1>   0.0800 
 51 H       -3.5160   -11.9510    -4.1760 H     1 <1>   0.0800 
 52 H       -4.8980   -12.9300    -3.7400 H     1 <1>   0.0800 
@<TRIPOS>BOND
  1   1   2  1   
  2   2   3  ar  
  3   2   4  ar  
  4   3   5  ar  
  5   3  26  1   
  6   4   6  ar  
  7   4  27  1   
  8   5   7  ar  
  9   5   8  1   
 10   6   7  ar  
 11   6  28  1   
 12   7  29  1   
 13   8   9  1   
 14   8  30  1   
 15   8  31  1   
 16   9  10  1   
 17   9  11  1   
 18   9  32  1   
 19  10  12  1   
 20  10  33  1   
 21  10  34  1   
 22  11  13  1   
 23  11  35  1   
 24  11  36  1   
 25  12  14  1   
 26  12  37  1   
 27  12  38  1   
 28  13  15  1   
 29  13  39  1   
 30  13  40  1   
 31  14  15  1   
 32  14  16  1   
 33  15  41  1   
 34  15  42  1   
 35  16  17  1   
 36  16  43  1   
 37  16  44  1   
 38  17  18  1   
 39  17  19  2   
 40  18  20  1   
 41  18  45  1   
 42  19  21  1   
 43  19  22  1   
 44  20  23  2   
 45  20  46  1   
 46  21  23  1   
 47  21  24  2   
 48  22  47  1   
 49  22  48  1   
 50  22  49  1   
 51  23  25  1   
 52  25  50  1   
 53  25  51  1   
 54  25  52  1   
@<TRIPOS>SUBSTRUCTURE
  1 ****  18 GROUP 4 **** **** 0

# MOE 2024.06 (io_trps.svl 2023.06)
