@<TRIPOS>MOLECULE
NONAME
44 46 1 0 0 
SMALL
USER_CHARGES


@<TRIPOS>ATOM
  1 O       -1.2010    -1.3150    -0.9560 O.2   1 <1>  -0.5700 
  2 C       -0.1120    -1.6440    -0.5560 C.2   1 <1>   0.5690 
  3 N        0.6630    -2.6060    -1.0940 N.am  1 <1>  -0.6600 
  4 C        0.5450    -1.0450     0.6560 C.3   1 <1>  -0.0990 
  5 C        1.8980    -2.8500    -0.3340 C.3   1 <1>   0.1400 
  6 C        0.2940    -3.4710    -2.2560 C.3   1 <1>   0.2010 
  7 C        1.9430    -1.6930     0.6740 C.3   1 <1>  -0.1600 
  8 C        0.0470    -4.9320    -1.8700 C.2   1 <1>   0.5690 
  9 O        0.9090    -5.7400    -2.1340 O.2   1 <1>  -0.5700 
 10 N       -1.1130    -5.3090    -1.2470 N.am  1 <1>  -0.6600 
 11 C       -2.2190    -4.4070    -0.8310 C.3   1 <1>   0.1400 
 12 C       -1.3900    -6.7060    -0.8400 C.3   1 <1>   0.1400 
 13 C       -3.3230    -5.3490    -0.3520 C.3   1 <1>   0.2000 
 14 C       -2.6010    -6.6200     0.0900 C.3   1 <1>  -0.0800 
 15 O       -4.0410    -4.8130     0.7040 O.3   1 <1>  -0.6800 
 16 C       -3.4950    -7.8680     0.0560 C.3   1 <1>   0.0210 
 17 C       -2.6990    -9.1180     0.3770 C.2   1 <1>   0.1080 
 18 N       -2.1040    -9.3020     1.5140 N.2   1 <1>  -0.7070 
 19 C       -2.5050   -10.1840    -0.4960 C.2   1 <1>  -0.1500 
 20 N       -1.5100   -10.5050     1.3970 N.pl3 1 <1>   0.3000 
 21 C       -1.7370   -11.0580     0.1870 C.2   1 <1>  -0.3320 
 22 C       -1.1970   -12.4080    -0.2480 C.3   1 <1>  -0.0600 
 23 H        0.6000     0.0240     0.5650 H     1 <1>   0.0800 
 24 H       -0.0200    -1.3140     1.5290 H     1 <1>   0.0800 
 25 H        1.8300    -3.8010     0.1680 H     1 <1>   0.0800 
 26 H        2.7560    -2.8420    -0.9860 H     1 <1>   0.0800 
 27 H       -0.5900    -3.0820    -2.7280 H     1 <1>   0.0800 
 28 H        1.0890    -3.4390    -2.9780 H     1 <1>   0.0800 
 29 H        2.2110    -2.0430     1.6550 H     1 <1>   0.0800 
 30 H        2.6790    -0.9780     0.3510 H     1 <1>   0.0800 
 31 H       -1.8790    -3.7810    -0.0240 H     1 <1>   0.0800 
 32 H       -2.5570    -3.8020    -1.6540 H     1 <1>   0.0800 
 33 H       -1.6160    -7.2870    -1.7180 H     1 <1>   0.0800 
 34 H       -0.5400    -7.1390    -0.3380 H     1 <1>   0.0800 
 35 H       -4.0060    -5.5460    -1.1610 H     1 <1>   0.0800 
 36 H       -2.2200    -6.4900     1.0880 H     1 <1>   0.0800 
 37 H       -3.4590    -4.6850     1.4780 H     1 <1>   0.4000 
 38 H       -3.9470    -7.9740    -0.9130 H     1 <1>   0.0800 
 39 H       -4.2820    -7.7650     0.7820 H     1 <1>   0.0800 
 40 H       -2.8940   -10.2660    -1.4950 H     1 <1>   0.1500 
 41 H       -0.9570   -10.9170     2.1580 H     1 <1>   0.2700 
 42 H       -1.5150   -12.6260    -1.2530 H     1 <1>   0.0800 
 43 H       -1.5620   -13.1820     0.4030 H     1 <1>   0.0800 
 44 H       -0.1220   -12.4040    -0.2230 H     1 <1>   0.0800 
@<TRIPOS>BOND
  1   1   2  2   
  2   2   3  am  
  3   2   4  1   
  4   3   5  1   
  5   3   6  1   
  6   4   7  1   
  7   4  23  1   
  8   4  24  1   
  9   5   7  1   
 10   5  25  1   
 11   5  26  1   
 12   6   8  1   
 13   6  27  1   
 14   6  28  1   
 15   7  29  1   
 16   7  30  1   
 17   8   9  2   
 18   8  10  am  
 19  10  11  1   
 20  10  12  1   
 21  11  13  1   
 22  11  31  1   
 23  11  32  1   
 24  12  14  1   
 25  12  33  1   
 26  12  34  1   
 27  13  14  1   
 28  13  15  1   
 29  13  35  1   
 30  14  16  1   
 31  14  36  1   
 32  15  37  1   
 33  16  17  1   
 34  16  38  1   
 35  16  39  1   
 36  17  18  2   
 37  17  19  1   
 38  18  20  1   
 39  19  21  2   
 40  19  40  1   
 41  20  21  1   
 42  20  41  1   
 43  21  22  1   
 44  22  42  1   
 45  22  43  1   
 46  22  44  1   
@<TRIPOS>SUBSTRUCTURE
  1 ****  12 GROUP 4 **** **** 0

# MOE 2024.06 (io_trps.svl 2023.06)
