@<TRIPOS>MOLECULE
NONAME
56 60 1 0 0 
SMALL
USER_CHARGES


@<TRIPOS>ATOM
  1 O       -1.1630     1.6600     2.2230 O.2   1 <1>  -0.5700 
  2 C       -1.6610     1.3510     1.1490 C.2   1 <1>   0.7160 
  3 N       -2.2360     0.0900     1.0670 N.am  1 <1>  -0.6600 
  4 C       -1.6070     2.3180     0.0510 C.2   1 <1>   0.2030 
  5 C       -2.5530    -0.6070    -0.2100 C.3   1 <1>   0.1400 
  6 C       -2.6760    -0.5920     2.3230 C.3   1 <1>   0.1400 
  7 N       -2.4000     2.4080    -1.0080 N.2   1 <1>  -0.7070 
  8 C       -0.6570     3.3490     0.0100 C.2   1 <1>  -0.1500 
  9 C       -4.0380    -0.9710    -0.2300 C.3   1 <1>  -0.1600 
 10 C       -3.3510    -1.9370     2.0400 C.3   1 <1>  -0.1600 
 11 N       -1.9610     3.4710    -1.6980 N.pl3 1 <1>   0.3000 
 12 C       -0.9060     4.0580    -1.1070 C.2   1 <1>  -0.2370 
 13 C       -4.4780    -1.7990     1.0020 C.3   1 <1>   0.4240 
 14 C       -0.2080     5.2790    -1.6670 C.3   1 <1>  -0.0150 
 15 O       -5.4790    -1.0720     1.6720 O.3   1 <1>  -0.5600 
 16 C       -4.9830    -3.1980     0.5830 C.ar  1 <1>  -0.1430 
 17 C        0.4130     6.2780    -0.7450 C.3   1 <1>  -0.2000 
 18 C       -0.8360     6.6250    -1.5010 C.3   1 <1>  -0.2000 
 19 C       -6.7740    -1.1560     1.1630 C.3   1 <1>   0.1200 
 20 C       -6.3130    -3.5670     0.7590 C.ar  1 <1>  -0.1430 
 21 C       -4.1110    -4.1170     0.0080 C.ar  1 <1>  -0.1500 
 22 C       -7.2870    -2.5780     1.3690 C.3   1 <1>  -0.0170 
 23 C       -6.7550    -4.8230     0.3720 C.ar  1 <1>  -0.1500 
 24 C       -4.5400    -5.3780    -0.3680 C.ar  1 <1>   0.0830 
 25 C       -5.8830    -5.7270    -0.2050 C.ar  1 <1>   0.0830 
 26 O       -3.6110    -6.2230    -0.8810 O.3   1 <1>  -0.3630 
 27 O       -6.3900    -6.9230    -0.5970 O.3   1 <1>  -0.3620 
 28 C       -3.3400    -7.3870    -0.1290 C.3   1 <1>   0.0400 
 29 C       -6.4030    -7.1680    -1.9860 C.3   1 <1>   0.0400 
 30 H       -1.9560    -1.5010    -0.2750 H     1 <1>   0.0800 
 31 H       -2.3090    -0.0060    -1.0650 H     1 <1>   0.0800 
 32 H       -3.3720     0.0530     2.8340 H     1 <1>   0.0800 
 33 H       -1.8250    -0.7390     2.9660 H     1 <1>   0.0800 
 34 H        0.1050     3.5100     0.7530 H     1 <1>   0.1500 
 35 H       -4.2400    -1.5210    -1.1310 H     1 <1>   0.0800 
 36 H       -4.5950    -0.0530    -0.2830 H     1 <1>   0.0800 
 37 H       -3.7570    -2.3410     2.9490 H     1 <1>   0.0800 
 38 H       -2.5990    -2.6240     1.7010 H     1 <1>   0.0800 
 39 H       -2.4010     3.7880    -2.5690 H     1 <1>   0.2700 
 40 H        0.3130     5.0780    -2.5890 H     1 <1>   0.1000 
 41 H        1.3420     6.7370    -1.0330 H     1 <1>   0.1000 
 42 H        0.3420     6.1190     0.3170 H     1 <1>   0.1000 
 43 H       -1.7580     6.7050    -0.9510 H     1 <1>   0.1000 
 44 H       -0.7710     7.3330    -2.3090 H     1 <1>   0.1000 
 45 H       -6.7620    -0.8950     0.1190 H     1 <1>   0.0800 
 46 H       -7.3850    -0.4510     1.6980 H     1 <1>   0.0800 
 47 H       -3.0790    -3.8680    -0.1550 H     1 <1>   0.1500 
 48 H       -8.2540    -2.6760     0.9110 H     1 <1>   0.0800 
 49 H       -7.3890    -2.7720     2.4220 H     1 <1>   0.0800 
 50 H       -7.7820    -5.1090     0.5090 H     1 <1>   0.1500 
 51 H       -2.5010    -7.8880    -0.5770 H     1 <1>   0.0800 
 52 H       -4.2000    -8.0300    -0.1430 H     1 <1>   0.0800 
 53 H       -3.1030    -7.1010     0.8800 H     1 <1>   0.0800 
 54 H       -6.9130    -8.0980    -2.1580 H     1 <1>   0.0800 
 55 H       -5.3920    -7.2310    -2.3470 H     1 <1>   0.0800 
 56 H       -6.9240    -6.3640    -2.4750 H     1 <1>   0.0800 
@<TRIPOS>BOND
  1   1   2  2   
  2   2   3  am  
  3   2   4  1   
  4   3   5  1   
  5   3   6  1   
  6   4   7  2   
  7   4   8  1   
  8   5   9  1   
  9   5  30  1   
 10   5  31  1   
 11   6  10  1   
 12   6  32  1   
 13   6  33  1   
 14   7  11  1   
 15   8  12  2   
 16   8  34  1   
 17   9  13  1   
 18   9  35  1   
 19   9  36  1   
 20  10  13  1   
 21  10  37  1   
 22  10  38  1   
 23  11  12  1   
 24  11  39  1   
 25  12  14  1   
 26  13  15  1   
 27  13  16  1   
 28  14  17  1   
 29  14  18  1   
 30  14  40  1   
 31  15  19  1   
 32  16  20  ar  
 33  16  21  ar  
 34  17  18  1   
 35  17  41  1   
 36  17  42  1   
 37  18  43  1   
 38  18  44  1   
 39  19  22  1   
 40  19  45  1   
 41  19  46  1   
 42  20  22  1   
 43  20  23  ar  
 44  21  24  ar  
 45  21  47  1   
 46  22  48  1   
 47  22  49  1   
 48  23  25  ar  
 49  23  50  1   
 50  24  25  ar  
 51  24  26  1   
 52  25  27  1   
 53  26  28  1   
 54  27  29  1   
 55  28  51  1   
 56  28  52  1   
 57  28  53  1   
 58  29  54  1   
 59  29  55  1   
 60  29  56  1   
@<TRIPOS>SUBSTRUCTURE
  1 ****   9 GROUP 4 **** **** 0

# MOE 2024.06 (io_trps.svl 2023.06)
