@<TRIPOS>MOLECULE
NONAME
42 44 1 0 0 
SMALL
USER_CHARGES


@<TRIPOS>ATOM
  1 S       -0.0940    -0.1110     1.2120 S.o2  1 <1>   1.5000 
  2 O        0.7550    -1.1410     1.7720 O.2   1 <1>  -0.6500 
  3 O       -0.8410     0.7440     2.1060 O.2   1 <1>  -0.6500 
  4 N       -1.2230    -0.9320     0.2480 N.am  1 <1>  -0.8490 
  5 C        0.8730     0.8490     0.0180 C.2   1 <1>  -0.0220 
  6 C       -1.9150    -1.9780     1.0210 C.3   1 <1>   0.1960 
  7 C       -2.2090    -0.0290    -0.3660 C.3   1 <1>   0.1960 
  8 S        0.5660     2.5810    -0.1100 S.3   1 <1>  -0.0800 
  9 C        1.8270     0.5010    -0.8710 C.2   1 <1>  -0.1500 
 10 C       -2.7810    -2.8510     0.0790 C.3   1 <1>   0.4230 
 11 C       -3.0970    -0.8260    -1.3360 C.3   1 <1>  -0.1600 
 12 C        1.7670     2.7670    -1.3750 C.2   1 <1>  -0.1100 
 13 C        2.3370     1.5830    -1.6580 C.2   1 <1>  -0.1500 
 14 N       -3.4310    -4.0440     0.7260 N.4   1 <1>  -0.9590 
 15 C       -3.8500    -1.9830    -0.6190 C.3   1 <1>  -0.1060 
 16 C       -4.2470    -4.8820    -0.2040 C.3   1 <1>   0.3430 
 17 C       -2.5750    -4.8480     1.6380 C.3   1 <1>   0.2630 
 18 C       -4.8020    -1.4250     0.4560 C.2   1 <1>   0.9060 
 19 C       -4.6560    -2.8180    -1.6550 C.3   1 <1>  -0.1600 
 20 C       -4.2970    -4.3140    -1.6290 C.3   1 <1>  -0.1600 
 21 O       -5.0790    -2.1370     1.4340 O.co2 1 <1>  -0.9000 
 22 O       -5.2620    -0.2930     0.3300 O.co2 1 <1>  -0.9000 
 23 H       -1.1770    -2.6040     1.4880 H     1 <1>   0.0800 
 24 H       -2.5200    -1.5270     1.7920 H     1 <1>   0.0800 
 25 H       -2.8120     0.4460     0.3940 H     1 <1>   0.0800 
 26 H       -1.7060     0.7460    -0.9190 H     1 <1>   0.0800 
 27 H        2.2020    -0.4990    -1.0060 H     1 <1>   0.1500 
 28 H       -2.1130    -3.2180    -0.6810 H     1 <1>   0.0800 
 29 H       -3.8120    -0.1510    -1.7760 H     1 <1>   0.0800 
 30 H       -2.4830    -1.2090    -2.1310 H     1 <1>   0.0800 
 31 H        1.9200     3.7540    -1.7740 H     1 <1>   0.1500 
 32 H        3.1050     1.4190    -2.3950 H     1 <1>   0.1500 
 33 H       -4.1580    -3.5470     1.3110 H     1 <1>   0.4500 
 34 H       -3.8520    -5.8830    -0.2390 H     1 <1>   0.0800 
 35 H       -5.2540    -4.9350     0.1810 H     1 <1>   0.0800 
 36 H       -1.7640    -5.2970     1.0900 H     1 <1>   0.0800 
 37 H       -3.1590    -5.6260     2.1010 H     1 <1>   0.0800 
 38 H       -2.1690    -4.2230     2.4170 H     1 <1>   0.0800 
 39 H       -5.7090    -2.7110    -1.4450 H     1 <1>   0.0800 
 40 H       -4.5070    -2.4400    -2.6520 H     1 <1>   0.0800 
 41 H       -3.3430    -4.4680    -2.1020 H     1 <1>   0.0800 
 42 H       -5.0240    -4.8640    -2.2000 H     1 <1>   0.0800 
@<TRIPOS>BOND
  1   1   2  2   
  2   1   3  2   
  3   1   4  am  
  4   1   5  1   
  5   4   6  1   
  6   4   7  1   
  7   5   8  1   
  8   5   9  2   
  9   6  10  1   
 10   6  23  1   
 11   6  24  1   
 12   7  11  1   
 13   7  25  1   
 14   7  26  1   
 15   8  12  1   
 16   9  13  1   
 17   9  27  1   
 18  10  14  1   
 19  10  15  1   
 20  10  28  1   
 21  11  15  1   
 22  11  29  1   
 23  11  30  1   
 24  12  13  2   
 25  12  31  1   
 26  13  32  1   
 27  14  16  1   
 28  14  17  1   
 29  14  33  1   
 30  15  18  1   
 31  15  19  1   
 32  16  20  1   
 33  16  34  1   
 34  16  35  1   
 35  17  36  1   
 36  17  37  1   
 37  17  38  1   
 38  18  21  ar  
 39  18  22  ar  
 40  19  20  1   
 41  19  39  1   
 42  19  40  1   
 43  20  41  1   
 44  20  42  1   
@<TRIPOS>SUBSTRUCTURE
  1 ****   4 GROUP 4 **** **** 0

# MOE 2024.06 (io_trps.svl 2023.06)
