@<TRIPOS>MOLECULE
NONAME
45 48 1 0 0 
SMALL
USER_CHARGES


@<TRIPOS>ATOM
  1 S        0.0610     0.0220    -1.6380 S.3   1 <1>  -0.0800 
  2 C       -0.5690    -1.1240    -0.4780 C.2   1 <1>  -0.1100 
  3 C        1.5110    -0.9360    -1.8520 C.2   1 <1>  -0.1100 
  4 C        0.2720    -2.1710    -0.2870 C.2   1 <1>  -0.0860 
  5 C        1.4670    -2.0370    -1.0810 C.2   1 <1>  -0.1500 
  6 C        0.0730    -3.3020     0.6000 C.2   1 <1>   0.7160 
  7 O        1.0230    -3.7340     1.2270 O.2   1 <1>  -0.5700 
  8 N       -1.1610    -3.9010     0.7530 N.am  1 <1>  -0.6600 
  9 C       -1.4510    -4.8170     1.8920 C.3   1 <1>   0.1400 
 10 C       -2.2390    -3.8550    -0.2740 C.3   1 <1>   0.1400 
 11 C       -1.6930    -6.2350     1.3690 C.3   1 <1>  -0.1600 
 12 C       -2.4860    -5.2640    -0.8200 C.3   1 <1>  -0.1600 
 13 C       -2.7990    -6.2760     0.3000 C.3   1 <1>   0.4240 
 14 O       -3.9400    -5.7900     0.9750 O.3   1 <1>  -0.5600 
 15 C       -3.0220    -7.7180    -0.2400 C.ar  1 <1>  -0.1430 
 16 C       -5.1890    -6.1030     0.4520 C.3   1 <1>   0.1200 
 17 C       -2.0120    -8.4350    -0.8970 C.ar  1 <1>   0.0830 
 18 C       -4.2620    -8.3370    -0.0770 C.ar  1 <1>  -0.1430 
 19 C       -5.4000    -7.6010     0.5990 C.3   1 <1>  -0.0170 
 20 O       -0.8030    -7.8440    -1.0880 O.3   1 <1>  -0.3630 
 21 C       -2.2500    -9.7310    -1.3500 C.ar  1 <1>  -0.1500 
 22 C       -4.4860    -9.6260    -0.5280 C.ar  1 <1>  -0.1500 
 23 C        0.3260    -8.5460    -1.5580 C.3   1 <1>   0.0400 
 24 C       -3.4810   -10.3250    -1.1640 C.ar  1 <1>  -0.1500 
 25 H       -1.5240    -0.9040    -0.0350 H     1 <1>   0.1500 
 26 H        2.2530    -0.5670    -2.5370 H     1 <1>   0.1500 
 27 H        2.2370    -2.7880    -1.0210 H     1 <1>   0.1500 
 28 H       -2.3250    -4.4630     2.4120 H     1 <1>   0.0800 
 29 H       -0.6330    -4.8250     2.5930 H     1 <1>   0.0800 
 30 H       -1.9690    -3.2130    -1.0920 H     1 <1>   0.0800 
 31 H       -3.1390    -3.4700     0.1770 H     1 <1>   0.0800 
 32 H       -1.9680    -6.8810     2.1810 H     1 <1>   0.0800 
 33 H       -0.7640    -6.5950     0.9760 H     1 <1>   0.0800 
 34 H       -1.6040    -5.5630    -1.3520 H     1 <1>   0.0800 
 35 H       -3.2860    -5.2490    -1.5340 H     1 <1>   0.0800 
 36 H       -5.2310    -5.8020    -0.5800 H     1 <1>   0.0800 
 37 H       -5.9290    -5.5590     1.0120 H     1 <1>   0.0800 
 38 H       -6.3390    -7.8710     0.1520 H     1 <1>   0.0800 
 39 H       -5.4330    -7.8590     1.6430 H     1 <1>   0.0800 
 40 H       -1.4920   -10.2960    -1.8550 H     1 <1>   0.1500 
 41 H       -5.4460   -10.0930    -0.3880 H     1 <1>   0.1500 
 42 H        1.1680    -7.8780    -1.5310 H     1 <1>   0.0800 
 43 H        0.1440    -8.8650    -2.5680 H     1 <1>   0.0800 
 44 H        0.5070    -9.3870    -0.9120 H     1 <1>   0.0800 
 45 H       -3.6590   -11.3270    -1.5140 H     1 <1>   0.1500 
@<TRIPOS>BOND
  1   1   2  1   
  2   1   3  1   
  3   2   4  2   
  4   2  25  1   
  5   3   5  2   
  6   3  26  1   
  7   4   5  1   
  8   4   6  1   
  9   5  27  1   
 10   6   7  2   
 11   6   8  am  
 12   8   9  1   
 13   8  10  1   
 14   9  11  1   
 15   9  28  1   
 16   9  29  1   
 17  10  12  1   
 18  10  30  1   
 19  10  31  1   
 20  11  13  1   
 21  11  32  1   
 22  11  33  1   
 23  12  13  1   
 24  12  34  1   
 25  12  35  1   
 26  13  14  1   
 27  13  15  1   
 28  14  16  1   
 29  15  17  ar  
 30  15  18  ar  
 31  16  19  1   
 32  16  36  1   
 33  16  37  1   
 34  17  20  1   
 35  17  21  ar  
 36  18  19  1   
 37  18  22  ar  
 38  19  38  1   
 39  19  39  1   
 40  20  23  1   
 41  21  24  ar  
 42  21  40  1   
 43  22  24  ar  
 44  22  41  1   
 45  23  42  1   
 46  23  43  1   
 47  23  44  1   
 48  24  45  1   
@<TRIPOS>SUBSTRUCTURE
  1 ****  12 GROUP 4 **** **** 0

# MOE 2024.06 (io_trps.svl 2023.06)
