@<TRIPOS>MOLECULE
NONAME
50 54 1 0 0 
SMALL
USER_CHARGES


@<TRIPOS>ATOM
  1 O        0.0030    -1.0680     1.0200 O.2   1 <1>  -0.5700 
  2 C       -0.2450     0.0890     1.2730 C.2   1 <1>   0.5690 
  3 N       -1.5230     0.5900     1.1680 N.am  1 <1>  -0.6600 
  4 C        0.9180     0.9400     1.7550 C.3   1 <1>   0.1570 
  5 C       -1.9190     2.0140     1.4340 C.3   1 <1>   0.1400 
  6 C       -2.6720    -0.3010     0.8260 C.3   1 <1>   0.1400 
  7 N        1.4210     1.8250     0.6850 N.pl3 1 <1>   0.0480 
  8 C       -2.7100     2.6220     0.2600 C.3   1 <1>   0.1440 
  9 C       -3.4600     0.2710    -0.3570 C.3   1 <1>  -0.1600 
 10 C        1.5650     3.1940     0.7420 C.ar  1 <1>  -0.1520 
 11 C        1.8950     1.4090    -0.5290 C.2   1 <1>  -0.3020 
 12 C       -3.1480     4.0200     0.6570 C.ar  1 <1>   0.1660 
 13 C       -3.9100     1.7170    -0.0900 C.3   1 <1>  -0.1600 
 14 C       -1.8070     2.8820    -0.9780 C.3   1 <1>  -0.1600 
 15 C        2.1310     3.6240    -0.4550 C.ar  1 <1>   0.0000 
 16 C        1.2460     4.1210     1.7420 C.ar  1 <1>  -0.1500 
 17 C        2.3300     2.4720    -1.2430 C.2   1 <1>  -0.1500 
 18 N       -4.0490     4.3030     1.5700 N.ar  1 <1>  -0.6200 
 19 C       -2.4700     4.9780    -0.0360 C.ar  1 <1>  -0.1440 
 20 C       -1.4790     4.3860    -1.0040 C.3   1 <1>  -0.0170 
 21 C        2.3810     4.9840    -0.6650 C.ar  1 <1>  -0.1500 
 22 C        1.4900     5.4570     1.5230 C.ar  1 <1>  -0.1500 
 23 C       -4.2400     5.6010     1.7530 C.ar  1 <1>   0.7200 
 24 C       -2.7570     6.2930     0.2380 C.ar  1 <1>   0.1600 
 25 C        2.0580     5.8890     0.3190 C.ar  1 <1>  -0.1500 
 26 N       -3.6570     6.6210     1.1380 N.ar  1 <1>  -0.6200 
 27 N       -5.1610     5.9270     2.6610 N.pl3 1 <1>  -0.9000 
 28 H        1.7190     0.2940     2.0600 H     1 <1>   0.0800 
 29 H        0.6160     1.5220     2.6020 H     1 <1>   0.0800 
 30 H       -1.0610     2.6290     1.6250 H     1 <1>   0.0800 
 31 H       -2.5370     2.0360     2.3160 H     1 <1>   0.0800 
 32 H       -3.3150    -0.3810     1.6860 H     1 <1>   0.0800 
 33 H       -2.3280    -1.2910     0.5780 H     1 <1>   0.0800 
 34 H       -4.3240    -0.3460    -0.5330 H     1 <1>   0.0800 
 35 H       -2.8450     0.2270    -1.2380 H     1 <1>   0.0800 
 36 H        1.8930     0.3690    -0.8110 H     1 <1>   0.1500 
 37 H       -4.4330     2.1080    -0.9450 H     1 <1>   0.0800 
 38 H       -4.6000     1.7180     0.7370 H     1 <1>   0.0800 
 39 H       -2.3440     2.6440    -1.8790 H     1 <1>   0.0800 
 40 H       -0.9110     2.2880    -0.9630 H     1 <1>   0.0800 
 41 H        0.8160     3.7970     2.6720 H     1 <1>   0.1500 
 42 H        2.7580     2.4810    -2.2290 H     1 <1>   0.1500 
 43 H       -1.5940     4.7980    -1.9910 H     1 <1>   0.0800 
 44 H       -0.4810     4.5670    -0.6520 H     1 <1>   0.0800 
 45 H        2.8220     5.2980    -1.5930 H     1 <1>   0.1500 
 46 H        1.2470     6.1840     2.2780 H     1 <1>   0.1500 
 47 H       -2.2440     7.0810    -0.2850 H     1 <1>   0.1500 
 48 H        2.2430     6.9390     0.1740 H     1 <1>   0.1500 
 49 H       -5.5230     6.8720     2.5820 H     1 <1>   0.4000 
 50 H       -5.8310     5.1950     2.8770 H     1 <1>   0.4000 
@<TRIPOS>BOND
  1   1   2  2   
  2   2   3  am  
  3   2   4  1   
  4   3   5  1   
  5   3   6  1   
  6   4   7  1   
  7   4  28  1   
  8   4  29  1   
  9   5   8  1   
 10   5  30  1   
 11   5  31  1   
 12   6   9  1   
 13   6  32  1   
 14   6  33  1   
 15   7  10  1   
 16   7  11  1   
 17   8  12  1   
 18   8  13  1   
 19   8  14  1   
 20   9  13  1   
 21   9  34  1   
 22   9  35  1   
 23  10  15  ar  
 24  10  16  ar  
 25  11  17  2   
 26  11  36  1   
 27  12  18  ar  
 28  12  19  ar  
 29  13  37  1   
 30  13  38  1   
 31  14  20  1   
 32  14  39  1   
 33  14  40  1   
 34  15  17  1   
 35  15  21  ar  
 36  16  22  ar  
 37  16  41  1   
 38  17  42  1   
 39  18  23  ar  
 40  19  20  1   
 41  19  24  ar  
 42  20  43  1   
 43  20  44  1   
 44  21  25  ar  
 45  21  45  1   
 46  22  25  ar  
 47  22  46  1   
 48  23  26  ar  
 49  23  27  1   
 50  24  26  ar  
 51  24  47  1   
 52  25  48  1   
 53  27  49  1   
 54  27  50  1   
@<TRIPOS>SUBSTRUCTURE
  1 ****   5 GROUP 4 **** **** 0

# MOE 2024.06 (io_trps.svl 2023.06)
