@<TRIPOS>MOLECULE
NONAME
45 46 1 0 0 
SMALL
USER_CHARGES


@<TRIPOS>ATOM
  1 S       -1.2310     1.0470     0.7420 S.o2  1 <1>   1.4470 
  2 O       -1.1970     0.3470     2.0070 O.2   1 <1>  -0.6500 
  3 O       -2.0370     2.2480     0.6420 O.2   1 <1>  -0.6500 
  4 N       -1.7780    -0.0070    -0.4740 N.am  1 <1>  -0.8490 
  5 C        0.4600     1.4620     0.2240 C.ar  1 <1>  -0.0090 
  6 C       -1.0570    -1.2900    -0.6030 C.3   1 <1>   0.1960 
  7 C       -3.2340    -0.1580    -0.5500 C.3   1 <1>   0.1960 
  8 C        0.7020     2.4750    -0.6960 C.ar  1 <1>  -0.1500 
  9 C        1.5570     0.7630     0.7160 C.ar  1 <1>  -0.1500 
 10 C       -1.5470    -2.3670     0.3750 C.3   1 <1>  -0.1860 
 11 C       -3.7600    -1.1700     0.4700 C.3   1 <1>  -0.1600 
 12 C        1.9880     2.7870    -1.1040 C.ar  1 <1>  -0.1500 
 13 C        2.8450     1.0670     0.3110 C.ar  1 <1>  -0.1500 
 14 C       -0.8680    -3.6880     0.0820 C.2   1 <1>   0.9060 
 15 C       -3.0630    -2.5100     0.2690 C.3   1 <1>   0.2000 
 16 C        3.0690     2.0830    -0.6030 C.ar  1 <1>  -0.1440 
 17 O        0.0680    -3.7250    -0.7220 O.co2 1 <1>  -0.9000 
 18 O       -1.2840    -4.7030     0.6550 O.co2 1 <1>  -0.9000 
 19 O       -3.4990    -3.3830     1.2380 O.3   1 <1>  -0.6800 
 20 C        4.4830     2.4190    -1.0480 C.3   1 <1>  -0.0170 
 21 C        5.1040     3.4700    -0.1200 C.3   1 <1>  -0.1600 
 22 C        6.5330     3.8280    -0.5470 C.3   1 <1>  -0.1600 
 23 C        7.1390     4.8760     0.3880 C.3   1 <1>  -0.2400 
 24 H       -1.2000    -1.6570    -1.6070 H     1 <1>   0.0800 
 25 H        0.0020    -1.1440    -0.4780 H     1 <1>   0.0800 
 26 H       -3.7180     0.7930    -0.4070 H     1 <1>   0.0800 
 27 H       -3.4880    -0.5010    -1.5390 H     1 <1>   0.0800 
 28 H       -0.1320     3.0270    -1.0960 H     1 <1>   0.1500 
 29 H        1.3990    -0.0340     1.4250 H     1 <1>   0.1500 
 30 H       -1.2760    -2.0910     1.3740 H     1 <1>   0.0800 
 31 H       -4.8180    -1.2960     0.3340 H     1 <1>   0.0800 
 32 H       -3.5840    -0.8080     1.4670 H     1 <1>   0.0800 
 33 H        2.1420     3.5810    -1.8140 H     1 <1>   0.1500 
 34 H        3.6710     0.5050     0.7110 H     1 <1>   0.1500 
 35 H       -3.3220    -2.9320    -0.6880 H     1 <1>   0.0800 
 36 H       -2.8300    -4.1300     1.2410 H     1 <1>   0.4000 
 37 H        5.0840     1.5260    -1.0410 H     1 <1>   0.0800 
 38 H        4.4640     2.7920    -2.0580 H     1 <1>   0.0800 
 39 H        4.4910     4.3550    -0.1310 H     1 <1>   0.0800 
 40 H        5.1130     3.0870     0.8870 H     1 <1>   0.0800 
 41 H        7.1490     2.9440    -0.5340 H     1 <1>   0.0800 
 42 H        6.5250     4.2140    -1.5530 H     1 <1>   0.0800 
 43 H        7.1780     4.5040     1.3970 H     1 <1>   0.0800 
 44 H        6.5520     5.7780     0.3750 H     1 <1>   0.0800 
 45 H        8.1400     5.1160     0.0740 H     1 <1>   0.0800 
@<TRIPOS>BOND
  1   1   2  2   
  2   1   3  2   
  3   1   4  am  
  4   1   5  1   
  5   4   6  1   
  6   4   7  1   
  7   5   8  ar  
  8   5   9  ar  
  9   6  10  1   
 10   6  24  1   
 11   6  25  1   
 12   7  11  1   
 13   7  26  1   
 14   7  27  1   
 15   8  12  ar  
 16   8  28  1   
 17   9  13  ar  
 18   9  29  1   
 19  10  14  1   
 20  10  15  1   
 21  10  30  1   
 22  11  15  1   
 23  11  31  1   
 24  11  32  1   
 25  12  16  ar  
 26  12  33  1   
 27  13  16  ar  
 28  13  34  1   
 29  14  17  ar  
 30  14  18  ar  
 31  15  19  1   
 32  15  35  1   
 33  16  20  1   
 34  19  36  1   
 35  20  21  1   
 36  20  37  1   
 37  20  38  1   
 38  21  22  1   
 39  21  39  1   
 40  21  40  1   
 41  22  23  1   
 42  22  41  1   
 43  22  42  1   
 44  23  43  1   
 45  23  44  1   
 46  23  45  1   
@<TRIPOS>SUBSTRUCTURE
  1 ****   5 GROUP 4 **** **** 0

# MOE 2024.06 (io_trps.svl 2023.06)
