@<TRIPOS>MOLECULE
NONAME
53 56 1 0 0 
SMALL
USER_CHARGES


@<TRIPOS>ATOM
  1 O       -1.1540    -0.1700    -2.3840 O.2   1 <1>  -0.5700 
  2 C       -1.6830    -0.6660    -1.4170 C.2   1 <1>   0.5690 
  3 N       -1.9340     0.0470    -0.2820 N.am  1 <1>  -0.6600 
  4 C       -2.0640    -2.1240    -1.4960 C.3   1 <1>  -0.0190 
  5 C       -2.5920    -0.5740     0.9030 C.3   1 <1>   0.2200 
  6 C       -1.5910     1.4930    -0.1640 C.3   1 <1>   0.0600 
  7 C       -1.2730    -2.9660    -0.4790 C.3   1 <1>   0.1200 
  8 C       -3.5950    -2.2840    -1.5380 C.3   1 <1>   0.2090 
  9 C       -1.7250    -1.7040     1.5040 C.3   1 <1>   0.1200 
 10 C       -4.0660    -0.9460     0.6060 C.3   1 <1>   0.2090 
 11 O       -1.7860    -2.9210     0.8160 O.3   1 <1>  -0.5600 
 12 N       -4.3250    -2.1640    -0.2370 N.pl3 1 <1>  -0.8380 
 13 C       -5.5000    -2.8200    -0.0780 C.ar  1 <1>   0.4100 
 14 N       -6.5840    -2.0710    -0.1250 N.ar  1 <1>  -0.6200 
 15 C       -5.5660    -4.2230     0.1090 C.ar  1 <1>  -0.1430 
 16 C       -7.7630    -2.6660    -0.0530 C.ar  1 <1>   0.7710 
 17 C       -6.7930    -4.8060     0.1540 C.ar  1 <1>   0.2180 
 18 C       -4.2900    -5.0490     0.2790 C.3   1 <1>  -0.0160 
 19 N       -7.8740    -3.9970     0.0640 N.ar  1 <1>  -0.1790 
 20 N       -8.9000    -1.9140    -0.1050 N.pl3 1 <1>  -0.8380 
 21 C       -7.0230    -6.3050     0.3200 C.3   1 <1>  -0.0170 
 22 C       -4.5570    -6.4650     0.8070 C.3   1 <1>  -0.1600 
 23 C       -8.8400    -0.4460    -0.4190 C.3   1 <1>   0.1290 
 24 C      -10.2950    -2.3680     0.1890 C.3   1 <1>   0.1290 
 25 C       -5.7400    -7.1120     0.0820 C.3   1 <1>  -0.1600 
 26 H       -1.7180    -2.4490    -2.4610 H     1 <1>   0.0800 
 27 H       -2.6340     0.1880     1.6610 H     1 <1>   0.0800 
 28 H       -0.9020     1.6390     0.6500 H     1 <1>   0.0800 
 29 H       -2.4830     2.0670     0.0140 H     1 <1>   0.0800 
 30 H       -1.1300     1.8530    -1.0680 H     1 <1>   0.0800 
 31 H       -0.2430    -2.6520    -0.4480 H     1 <1>   0.0800 
 32 H       -1.2990    -3.9980    -0.7810 H     1 <1>   0.0800 
 33 H       -3.8170    -3.2440    -1.9680 H     1 <1>   0.0800 
 34 H       -3.9930    -1.5450    -2.2130 H     1 <1>   0.0800 
 35 H       -2.0710    -1.9090     2.5010 H     1 <1>   0.0800 
 36 H       -0.6960    -1.3950     1.5650 H     1 <1>   0.0800 
 37 H       -4.5420    -0.1010     0.1410 H     1 <1>   0.0800 
 38 H       -4.5540    -1.0980     1.5530 H     1 <1>   0.0800 
 39 H       -3.7800    -5.1140    -0.6650 H     1 <1>   0.0800 
 40 H       -3.6360    -4.5530     0.9740 H     1 <1>   0.0800 
 41 H       -8.8190    -4.3520     0.0720 H     1 <1>   0.4570 
 42 H       -7.3720    -6.4930     1.3210 H     1 <1>   0.0800 
 43 H       -7.7760    -6.6470    -0.3680 H     1 <1>   0.0800 
 44 H       -3.6720    -7.0650     0.6760 H     1 <1>   0.0800 
 45 H       -4.7630    -6.4190     1.8630 H     1 <1>   0.0800 
 46 H       -9.6870    -0.1580    -1.0180 H     1 <1>   0.0800 
 47 H       -7.9500    -0.1960    -0.9700 H     1 <1>   0.0800 
 48 H       -8.8500     0.1230     0.4960 H     1 <1>   0.0800 
 49 H      -10.8040    -1.6220     0.7780 H     1 <1>   0.0800 
 50 H      -10.3090    -3.2860     0.7480 H     1 <1>   0.0800 
 51 H      -10.8390    -2.5010    -0.7320 H     1 <1>   0.0800 
 52 H       -5.8750    -8.1230     0.4310 H     1 <1>   0.0800 
 53 H       -5.5270    -7.1550    -0.9740 H     1 <1>   0.0800 
@<TRIPOS>BOND
  1   1   2  2   
  2   2   3  am  
  3   2   4  1   
  4   3   5  1   
  5   3   6  1   
  6   4   7  1   
  7   4   8  1   
  8   4  26  1   
  9   5   9  1   
 10   5  10  1   
 11   5  27  1   
 12   6  28  1   
 13   6  29  1   
 14   6  30  1   
 15   7  11  1   
 16   7  31  1   
 17   7  32  1   
 18   8  12  1   
 19   8  33  1   
 20   8  34  1   
 21   9  11  1   
 22   9  35  1   
 23   9  36  1   
 24  10  12  1   
 25  10  37  1   
 26  10  38  1   
 27  12  13  1   
 28  13  14  ar  
 29  13  15  ar  
 30  14  16  ar  
 31  15  17  ar  
 32  15  18  1   
 33  16  19  ar  
 34  16  20  1   
 35  17  19  ar  
 36  17  21  1   
 37  18  22  1   
 38  18  39  1   
 39  18  40  1   
 40  19  41  1   
 41  20  23  1   
 42  20  24  1   
 43  21  25  1   
 44  21  42  1   
 45  21  43  1   
 46  22  25  1   
 47  22  44  1   
 48  22  45  1   
 49  23  46  1   
 50  23  47  1   
 51  23  48  1   
 52  24  49  1   
 53  24  50  1   
 54  24  51  1   
 55  25  52  1   
 56  25  53  1   
@<TRIPOS>SUBSTRUCTURE
  1 ****  12 GROUP 4 **** **** 0

# MOE 2024.06 (io_trps.svl 2023.06)
