@<TRIPOS>MOLECULE
NONAME
54 57 1 0 0 
SMALL
USER_CHARGES


@<TRIPOS>ATOM
  1 S       -1.0020     0.1570     0.1960 S.3   1 <1>  -0.0800 
  2 C        0.6460    -0.4260     0.1560 C.2   1 <1>  -0.0450 
  3 C       -0.5720     1.4290    -0.9160 C.2   1 <1>   0.1980 
  4 C        1.3410     0.3980    -0.6630 C.2   1 <1>   0.0460 
  5 C        0.9740    -1.6000     0.9170 C.2   1 <1>   0.7150 
  6 N        0.6480     1.4200    -1.2710 N.2   1 <1>  -0.5650 
  7 C       -1.6600     2.3890    -1.3370 C.3   1 <1>  -0.0600 
  8 C        2.8210     0.3310    -0.9810 C.3   1 <1>  -0.0590 
  9 O        0.6240    -1.7080     2.0770 O.2   1 <1>  -0.5700 
 10 N        1.6420    -2.6700     0.3520 N.am  1 <1>  -0.6600 
 11 C        2.2010    -3.7320     1.2520 C.3   1 <1>   0.2200 
 12 C        1.5740    -2.9340    -1.1100 C.3   1 <1>   0.1400 
 13 C        3.3770    -4.5230     0.6230 C.3   1 <1>   0.1200 
 14 C        1.0510    -4.6360     1.7670 C.3   1 <1>   0.3430 
 15 C        1.2070    -4.3910    -1.4160 C.3   1 <1>  -0.0800 
 16 O        2.9480    -5.5990    -0.1740 O.3   1 <1>  -0.5600 
 17 N        0.4660    -5.5520     0.7260 N.4   1 <1>  -0.9590 
 18 C        2.4600    -5.2950    -1.4490 C.3   1 <1>   0.1200 
 19 C        0.0290    -4.8970    -0.5510 C.3   1 <1>   0.3430 
 20 C       -0.5540    -6.4690     1.2920 C.3   1 <1>   0.5240 
 21 C       -0.8570    -7.5340     0.2660 C.2   1 <1>  -0.1810 
 22 C       -1.9790    -7.7390    -0.4430 C.2   1 <1>  -0.0400 
 23 C        0.0010    -8.5390    -0.1840 C.2   1 <1>   0.1080 
 24 O       -1.7680    -8.7530    -1.2350 O.3   1 <1>  -0.0190 
 25 C       -3.3300    -7.0510    -0.4820 C.3   1 <1>  -0.0600 
 26 N       -0.5720    -9.2410    -1.0910 N.2   1 <1>  -0.4100 
 27 C        1.4150    -8.8200     0.2870 C.3   1 <1>  -0.0590 
 28 H       -1.2560     3.1200    -2.0130 H     1 <1>   0.0800 
 29 H       -2.0550     2.8910    -0.4740 H     1 <1>   0.0800 
 30 H       -2.4500     1.8530    -1.8310 H     1 <1>   0.0800 
 31 H        3.3050    -0.4490    -0.4240 H     1 <1>   0.0800 
 32 H        3.2810     1.2690    -0.7270 H     1 <1>   0.0800 
 33 H        2.9600     0.1560    -2.0320 H     1 <1>   0.0800 
 34 H        2.6090    -3.2230     2.1100 H     1 <1>   0.0800 
 35 H        0.8270    -2.2990    -1.5570 H     1 <1>   0.0800 
 36 H        2.5180    -2.6820    -1.5640 H     1 <1>   0.0800 
 37 H        3.9650    -4.9530     1.4150 H     1 <1>   0.0800 
 38 H        4.0220    -3.8810     0.0490 H     1 <1>   0.0800 
 39 H        0.2780    -4.0060     2.1760 H     1 <1>   0.0800 
 40 H        1.4400    -5.2330     2.5740 H     1 <1>   0.0800 
 41 H        0.8440    -4.3730    -2.4290 H     1 <1>   0.0800 
 42 H        1.2720    -6.1320     0.4270 H     1 <1>   0.4500 
 43 H        3.2550    -4.8370    -2.0150 H     1 <1>   0.0800 
 44 H        2.2180    -6.2310    -1.9240 H     1 <1>   0.0800 
 45 H       -0.5140    -5.6160    -1.1420 H     1 <1>   0.0800 
 46 H       -0.6420    -4.0810    -0.3350 H     1 <1>   0.0800 
 47 H       -0.1830    -6.9340     2.1910 H     1 <1>   0.0800 
 48 H       -1.4510    -5.9220     1.5320 H     1 <1>   0.0800 
 49 H       -3.3700    -6.2320     0.2110 H     1 <1>   0.0800 
 50 H       -4.1000    -7.7580    -0.2270 H     1 <1>   0.0800 
 51 H       -3.5230    -6.6820    -1.4730 H     1 <1>   0.0800 
 52 H        1.5300    -8.5770     1.3260 H     1 <1>   0.0800 
 53 H        2.1190    -8.2580    -0.2970 H     1 <1>   0.0800 
 54 H        1.6320    -9.8660     0.1590 H     1 <1>   0.0800 
@<TRIPOS>BOND
  1   1   2  1   
  2   1   3  1   
  3   2   4  2   
  4   2   5  1   
  5   3   6  2   
  6   3   7  1   
  7   4   6  1   
  8   4   8  1   
  9   5   9  2   
 10   5  10  am  
 11   7  28  1   
 12   7  29  1   
 13   7  30  1   
 14   8  31  1   
 15   8  32  1   
 16   8  33  1   
 17  10  11  1   
 18  10  12  1   
 19  11  13  1   
 20  11  14  1   
 21  11  34  1   
 22  12  15  1   
 23  12  35  1   
 24  12  36  1   
 25  13  16  1   
 26  13  37  1   
 27  13  38  1   
 28  14  17  1   
 29  14  39  1   
 30  14  40  1   
 31  15  18  1   
 32  15  19  1   
 33  15  41  1   
 34  16  18  1   
 35  17  19  1   
 36  17  20  1   
 37  17  42  1   
 38  18  43  1   
 39  18  44  1   
 40  19  45  1   
 41  19  46  1   
 42  20  21  1   
 43  20  47  1   
 44  20  48  1   
 45  21  22  2   
 46  21  23  1   
 47  22  24  1   
 48  22  25  1   
 49  23  26  2   
 50  23  27  1   
 51  24  26  1   
 52  25  49  1   
 53  25  50  1   
 54  25  51  1   
 55  27  52  1   
 56  27  53  1   
 57  27  54  1   
@<TRIPOS>SUBSTRUCTURE
  1 ****  19 GROUP 4 **** **** 0

# MOE 2024.06 (io_trps.svl 2023.06)
