@<TRIPOS>MOLECULE
NONAME
51 54 1 0 0 
SMALL
USER_CHARGES


@<TRIPOS>ATOM
  1 O       -0.2510     0.7860    -0.9290 O.2   1 <1>  -0.5700 
  2 C       -0.2350     1.9660    -0.6620 C.2   1 <1>   0.5690 
  3 N       -1.3380     2.6450    -0.2120 N.am  1 <1>  -0.5090 
  4 C        1.0760     2.7200    -0.8800 C.3   1 <1>   0.1810 
  5 C       -1.3260     4.1350    -0.0430 C.3   1 <1>   0.3640 
  6 C       -2.6040     1.9580     0.1460 C.3   1 <1>   0.0490 
  7 O        1.1100     3.9700    -0.2360 O.3   1 <1>  -0.5600 
  8 C       -2.4990     4.7560    -0.8020 C.ar  1 <1>  -0.1440 
  9 C       -0.0040     4.7950    -0.5150 C.3   1 <1>   0.2610 
 10 C       -3.1520     2.1270     1.5300 C.3   1 <1>  -0.2000 
 11 C       -2.5730     0.8150     1.1110 C.3   1 <1>  -0.2000 
 12 C       -2.7970     4.3730    -2.1040 C.ar  1 <1>   0.1600 
 13 C       -3.2830     5.7260    -0.2060 C.ar  1 <1>  -0.1500 
 14 C        0.1900     6.2000     0.0900 C.2   1 <1>   0.5690 
 15 N       -3.7750     4.8740    -2.8400 N.ar  1 <1>  -0.6200 
 16 C       -4.3110     6.2540    -0.9560 C.ar  1 <1>  -0.1500 
 17 O       -0.4870     6.5140     1.0460 O.2   1 <1>  -0.5700 
 18 N        1.1000     7.0850    -0.4480 N.am  1 <1>  -0.6600 
 19 C       -4.5100     5.8010    -2.2480 C.ar  1 <1>   0.1600 
 20 C        1.2850     8.4480     0.1260 C.3   1 <1>   0.1400 
 21 C        2.0930     6.7520    -1.5060 C.3   1 <1>   0.1400 
 22 C        2.6890     8.5620     0.7270 C.3   1 <1>  -0.1600 
 23 C        3.5040     6.8340    -0.9170 C.3   1 <1>  -0.1600 
 24 C        3.7860     8.2160    -0.3000 C.3   1 <1>  -0.0800 
 25 C        5.1860     8.2360     0.3330 C.3   1 <1>   0.1200 
 26 O        5.4670     9.5040     0.8140 O.3   1 <1>  -0.6800 
 27 H        1.2320     2.8730    -1.9330 H     1 <1>   0.0800 
 28 H        1.8890     2.1330    -0.4930 H     1 <1>   0.0800 
 29 H       -1.4480     4.3290     1.0080 H     1 <1>   0.0800 
 30 H       -3.2960     1.9020    -0.6790 H     1 <1>   0.1000 
 31 H       -0.0550     4.9140    -1.5810 H     1 <1>   0.0800 
 32 H       -2.6100     2.7000     2.2610 H     1 <1>   0.1000 
 33 H       -4.2180     2.1930     1.6580 H     1 <1>   0.1000 
 34 H       -3.2380    -0.0130     0.9420 H     1 <1>   0.1000 
 35 H       -1.6220     0.5060     1.5080 H     1 <1>   0.1000 
 36 H       -2.1990     3.6090    -2.5720 H     1 <1>   0.1500 
 37 H       -3.1000     6.0660     0.8000 H     1 <1>   0.1500 
 38 H       -4.9520     7.0120    -0.5450 H     1 <1>   0.1500 
 39 H       -5.3160     6.2220    -2.8250 H     1 <1>   0.1500 
 40 H        1.1590     9.1780    -0.6550 H     1 <1>   0.0800 
 41 H        0.5510     8.6490     0.8880 H     1 <1>   0.0800 
 42 H        1.9340     5.7670    -1.9040 H     1 <1>   0.0800 
 43 H        1.9920     7.4570    -2.3140 H     1 <1>   0.0800 
 44 H        2.8290     9.5650     1.0920 H     1 <1>   0.0800 
 45 H        2.7540     7.8990     1.5720 H     1 <1>   0.0800 
 46 H        3.6050     6.0680    -0.1670 H     1 <1>   0.0800 
 47 H        4.2200     6.6300    -1.6940 H     1 <1>   0.0800 
 48 H        3.7610     8.9430    -1.0940 H     1 <1>   0.0800 
 49 H        5.9420     7.9780    -0.3890 H     1 <1>   0.0800 
 50 H        5.2410     7.5500     1.1620 H     1 <1>   0.0800 
 51 H        5.4440    10.1590     0.0910 H     1 <1>   0.4000 
@<TRIPOS>BOND
  1   1   2  2   
  2   2   3  am  
  3   2   4  1   
  4   3   5  1   
  5   3   6  1   
  6   4   7  1   
  7   4  27  1   
  8   4  28  1   
  9   5   8  1   
 10   5   9  1   
 11   5  29  1   
 12   6  10  1   
 13   6  11  1   
 14   6  30  1   
 15   7   9  1   
 16   8  12  ar  
 17   8  13  ar  
 18   9  14  1   
 19   9  31  1   
 20  10  11  1   
 21  10  32  1   
 22  10  33  1   
 23  11  34  1   
 24  11  35  1   
 25  12  15  ar  
 26  12  36  1   
 27  13  16  ar  
 28  13  37  1   
 29  14  17  2   
 30  14  18  am  
 31  15  19  ar  
 32  16  19  ar  
 33  16  38  1   
 34  18  20  1   
 35  18  21  1   
 36  19  39  1   
 37  20  22  1   
 38  20  40  1   
 39  20  41  1   
 40  21  23  1   
 41  21  42  1   
 42  21  43  1   
 43  22  24  1   
 44  22  44  1   
 45  22  45  1   
 46  23  24  1   
 47  23  46  1   
 48  23  47  1   
 49  24  25  1   
 50  24  48  1   
 51  25  26  1   
 52  25  49  1   
 53  25  50  1   
 54  26  51  1   
@<TRIPOS>SUBSTRUCTURE
  1 ****   9 GROUP 4 **** **** 0

# MOE 2024.06 (io_trps.svl 2023.06)
