@<TRIPOS>MOLECULE
NONAME
50 54 1 0 0 
SMALL
USER_CHARGES


@<TRIPOS>ATOM
  1 O        2.0530    -0.6780     0.5740 O.3   1 <1>  -0.5600 
  2 C        2.6600    -1.4290    -0.4570 C.3   1 <1>   0.4600 
  3 C        0.6730    -0.3990     0.4750 C.3   1 <1>   0.1200 
  4 C        1.7250    -2.5480    -0.8920 C.2   1 <1>  -0.3320 
  5 C        3.9440    -1.9940     0.1480 C.3   1 <1>  -0.1600 
  6 C        3.0180    -0.4870    -1.6190 C.3   1 <1>  -0.1600 
  7 C       -0.1580    -1.6910     0.5100 C.3   1 <1>   0.0210 
  8 N        2.0050    -3.5750    -1.7550 N.pl3 1 <1>   0.0330 
  9 C        0.4550    -2.6750    -0.4550 C.2   1 <1>  -0.1810 
 10 C        4.8320    -0.8910     0.7340 C.3   1 <1>   0.3430 
 11 C        4.2640     0.3680    -1.3570 C.3   1 <1>   0.3430 
 12 C        0.8850    -4.3630    -1.8560 C.ar  1 <1>  -0.1520 
 13 C       -0.1100    -3.8230    -1.0450 C.ar  1 <1>   0.0000 
 14 N        4.5480     0.4280     0.0990 N.4   1 <1>  -0.9590 
 15 C        0.6520    -5.5230    -2.5980 C.ar  1 <1>  -0.1500 
 16 C       -1.3580    -4.4500    -0.9700 C.ar  1 <1>  -0.1500 
 17 C        5.4620     1.5330     0.4900 C.3   1 <1>   0.5230 
 18 C       -0.5800    -6.1290    -2.5160 C.ar  1 <1>  -0.1500 
 19 C       -1.5850    -5.5920    -1.7020 C.ar  1 <1>  -0.1500 
 20 C        4.7040     2.8520     0.3840 C.2   1 <1>   0.0060 
 21 N        5.3120     4.0600     0.4430 N.pl3 1 <1>   0.0330 
 22 N        3.4160     2.9310     0.2370 N.2   1 <1>  -0.5650 
 23 C        4.3200     4.9600     0.3200 C.2   1 <1>  -0.3320 
 24 C        3.1750     4.2550     0.1970 C.2   1 <1>   0.0770 
 25 C        4.5400     6.4630     0.3330 C.3   1 <1>  -0.0600 
 26 H        0.4910     0.1340    -0.4410 H     1 <1>   0.0800 
 27 H        0.4040     0.2360     1.3010 H     1 <1>   0.0800 
 28 H        4.4920    -2.5270    -0.6060 H     1 <1>   0.0800 
 29 H        3.6950    -2.7030     0.9180 H     1 <1>   0.0800 
 30 H        2.1850     0.1500    -1.8480 H     1 <1>   0.0800 
 31 H        3.2040    -1.0680    -2.5020 H     1 <1>   0.0800 
 32 H       -1.1720    -1.4770     0.2280 H     1 <1>   0.0800 
 33 H       -0.1570    -2.1050     1.5020 H     1 <1>   0.0800 
 34 H        2.8820    -3.7620    -2.2480 H     1 <1>   0.2700 
 35 H        5.8680    -1.1580     0.6020 H     1 <1>   0.0800 
 36 H        4.6340    -0.8150     1.7910 H     1 <1>   0.0800 
 37 H        4.0950     1.3620    -1.7430 H     1 <1>   0.0800 
 38 H        5.1110    -0.0580    -1.8700 H     1 <1>   0.0800 
 39 H        3.6310     0.7360     0.4920 H     1 <1>   0.4500 
 40 H        1.4280    -5.9320    -3.2210 H     1 <1>   0.1500 
 41 H       -2.1190    -4.0280    -0.3410 H     1 <1>   0.1500 
 42 H        6.3290     1.5440    -0.1490 H     1 <1>   0.0800 
 43 H        5.7790     1.4010     1.5110 H     1 <1>   0.0800 
 44 H       -0.7850    -7.0230    -3.0780 H     1 <1>   0.1500 
 45 H       -2.5400    -6.0860    -1.6550 H     1 <1>   0.1500 
 46 H        6.3070     4.2770     0.5610 H     1 <1>   0.2700 
 47 H        2.1740     4.6420     0.0820 H     1 <1>   0.1500 
 48 H        4.9850     6.7690     1.2630 H     1 <1>   0.0800 
 49 H        3.6000     6.9750     0.2210 H     1 <1>   0.0800 
 50 H        5.1850     6.7550    -0.4770 H     1 <1>   0.0800 
@<TRIPOS>BOND
  1   1   2  1   
  2   1   3  1   
  3   2   4  1   
  4   2   5  1   
  5   2   6  1   
  6   3   7  1   
  7   3  26  1   
  8   3  27  1   
  9   4   8  1   
 10   4   9  2   
 11   5  10  1   
 12   5  28  1   
 13   5  29  1   
 14   6  11  1   
 15   6  30  1   
 16   6  31  1   
 17   7   9  1   
 18   7  32  1   
 19   7  33  1   
 20   8  12  1   
 21   8  34  1   
 22   9  13  1   
 23  10  14  1   
 24  10  35  1   
 25  10  36  1   
 26  11  14  1   
 27  11  37  1   
 28  11  38  1   
 29  12  13  ar  
 30  12  15  ar  
 31  13  16  ar  
 32  14  17  1   
 33  14  39  1   
 34  15  18  ar  
 35  15  40  1   
 36  16  19  ar  
 37  16  41  1   
 38  17  20  1   
 39  17  42  1   
 40  17  43  1   
 41  18  19  ar  
 42  18  44  1   
 43  19  45  1   
 44  20  21  1   
 45  20  22  2   
 46  21  23  1   
 47  21  46  1   
 48  22  24  1   
 49  23  24  2   
 50  23  25  1   
 51  24  47  1   
 52  25  48  1   
 53  25  49  1   
 54  25  50  1   
@<TRIPOS>SUBSTRUCTURE
  1 ****   2 GROUP 4 **** **** 0

# MOE 2024.06 (io_trps.svl 2023.06)
