@<TRIPOS>MOLECULE
NONAME
51 53 1 0 0 
SMALL
USER_CHARGES


@<TRIPOS>ATOM
  1 O       -1.6720    -0.3230     1.1690 O.2   1 <1>  -0.5700 
  2 C       -1.6240     0.3610     0.1630 C.2   1 <1>   0.7160 
  3 N       -1.6000    -0.2400    -1.0620 N.am  1 <1>  -0.7300 
  4 C       -1.5590     1.7790     0.2300 C.2   1 <1>  -0.0860 
  5 C       -1.9460    -1.6580    -1.3860 C.3   1 <1>   0.2810 
  6 C       -2.6420     2.6500     0.3750 C.2   1 <1>   0.3720 
  7 C       -0.4860     2.6040     0.1380 C.2   1 <1>   0.0870 
  8 C       -3.3780    -2.0620    -0.9680 C.2   1 <1>   0.5690 
  9 C       -0.8640    -2.5920    -0.8300 C.3   1 <1>  -0.2400 
 10 N       -2.2430     3.8750     0.3610 N.2   1 <1>  -0.4100 
 11 N       -3.9810     2.2540     0.5150 N.pl3 1 <1>  -0.8210 
 12 O       -0.9440     3.8280     0.2160 O.3   1 <1>  -0.0190 
 13 C        0.9200     2.3450    -0.0270 C.ar  1 <1>   0.0530 
 14 O       -4.1640    -2.3730    -1.8320 O.2   1 <1>  -0.5700 
 15 N       -3.7360    -2.0390     0.3450 N.am  1 <1>  -0.7300 
 16 C       -4.9650     3.2740     0.9660 C.3   1 <1>   0.2090 
 17 C       -4.5810     1.4440    -0.5770 C.3   1 <1>   0.2090 
 18 C        1.7360     3.2360    -0.7250 C.ar  1 <1>  -0.1500 
 19 C        1.5210     1.1980     0.4950 C.ar  1 <1>  -0.1500 
 20 C       -5.0660    -2.3810     0.9030 C.3   1 <1>   0.0600 
 21 C       -6.3030     2.8000     0.4180 C.3   1 <1>  -0.1600 
 22 C       -5.9360     2.0760    -0.8700 C.3   1 <1>  -0.1600 
 23 C        3.0830     2.9870    -0.9050 C.ar  1 <1>  -0.1500 
 24 C        2.8680     0.9410     0.3180 C.ar  1 <1>  -0.1500 
 25 C        3.6620     1.8380    -0.3910 C.ar  1 <1>   0.0830 
 26 O        4.9850     1.6650    -0.6130 O.3   1 <1>  -0.3630 
 27 C        5.6840     0.5550    -0.0950 C.3   1 <1>   0.0400 
 28 H       -1.5320     0.3720    -1.8750 H     1 <1>   0.3700 
 29 H       -1.9150    -1.7500    -2.4580 H     1 <1>   0.0800 
 30 H       -0.8690    -2.5900     0.2450 H     1 <1>   0.0800 
 31 H        0.1050    -2.2920    -1.1830 H     1 <1>   0.0800 
 32 H       -1.0540    -3.5960    -1.1620 H     1 <1>   0.0800 
 33 H       -3.0570    -1.6260     1.0080 H     1 <1>   0.3700 
 34 H       -4.7240     4.2370     0.5490 H     1 <1>   0.0800 
 35 H       -4.9760     3.3390     2.0400 H     1 <1>   0.0800 
 36 H       -4.7160     0.4360    -0.2280 H     1 <1>   0.0800 
 37 H       -3.9610     1.4400    -1.4570 H     1 <1>   0.0800 
 38 H        1.3070     4.1350    -1.1330 H     1 <1>   0.1500 
 39 H        0.9300     0.4970     1.0580 H     1 <1>   0.1500 
 40 H       -5.7170    -2.7400     0.1240 H     1 <1>   0.0800 
 41 H       -5.5050    -1.5070     1.3520 H     1 <1>   0.0800 
 42 H       -4.9590    -3.1480     1.6490 H     1 <1>   0.0800 
 43 H       -6.9800     3.6200     0.2530 H     1 <1>   0.0800 
 44 H       -6.7420     2.1110     1.1170 H     1 <1>   0.0800 
 45 H       -6.6670     1.3390    -1.1510 H     1 <1>   0.0800 
 46 H       -5.8240     2.7860    -1.6710 H     1 <1>   0.0800 
 47 H        3.7000     3.6820    -1.4470 H     1 <1>   0.1500 
 48 H        3.2830     0.0450     0.7370 H     1 <1>   0.1500 
 49 H        6.7150     0.6440    -0.3870 H     1 <1>   0.0800 
 50 H        5.2640    -0.3460    -0.5070 H     1 <1>   0.0800 
 51 H        5.6060     0.5620     0.9780 H     1 <1>   0.0800 
@<TRIPOS>BOND
  1   1   2  2   
  2   2   3  am  
  3   2   4  1   
  4   3   5  1   
  5   3  28  1   
  6   4   6  1   
  7   4   7  2   
  8   5   8  1   
  9   5   9  1   
 10   5  29  1   
 11   6  10  2   
 12   6  11  1   
 13   7  12  1   
 14   7  13  1   
 15   8  14  2   
 16   8  15  am  
 17   9  30  1   
 18   9  31  1   
 19   9  32  1   
 20  10  12  1   
 21  11  16  1   
 22  11  17  1   
 23  13  18  ar  
 24  13  19  ar  
 25  15  20  1   
 26  15  33  1   
 27  16  21  1   
 28  16  34  1   
 29  16  35  1   
 30  17  22  1   
 31  17  36  1   
 32  17  37  1   
 33  18  23  ar  
 34  18  38  1   
 35  19  24  ar  
 36  19  39  1   
 37  20  40  1   
 38  20  41  1   
 39  20  42  1   
 40  21  22  1   
 41  21  43  1   
 42  21  44  1   
 43  22  45  1   
 44  22  46  1   
 45  23  25  ar  
 46  23  47  1   
 47  24  25  ar  
 48  24  48  1   
 49  25  26  1   
 50  26  27  1   
 51  27  49  1   
 52  27  50  1   
 53  27  51  1   
@<TRIPOS>SUBSTRUCTURE
  1 ****   2 GROUP 4 **** **** 0

# MOE 2024.06 (io_trps.svl 2023.06)
