@<TRIPOS>MOLECULE
NONAME
56 59 1 0 0 
SMALL
USER_CHARGES


@<TRIPOS>ATOM
  1 O       -1.3320     0.8560    -1.2860 O.2   1 <1>  -0.5700 
  2 C       -2.3510     1.2260    -0.7510 C.2   1 <1>   0.5690 
  3 N       -3.4930     0.4610    -0.8070 N.am  1 <1>  -0.6600 
  4 C       -2.3280     2.5790    -0.0220 C.3   1 <1>  -0.0190 
  5 C       -4.8320     0.7910    -0.2230 C.3   1 <1>   0.1400 
  6 C       -3.4960    -0.8680    -1.4980 C.3   1 <1>   0.1400 
  7 C       -2.9100     3.6940    -0.9120 C.3   1 <1>  -0.1600 
  8 C       -0.9140     2.9870     0.4450 C.3   1 <1>  -0.1600 
  9 C       -5.3280    -0.3470     0.6920 C.3   1 <1>   0.1900 
 10 C       -4.0380    -1.9710    -0.5750 C.3   1 <1>   0.1100 
 11 C       -2.8980     5.0530    -0.2060 C.3   1 <1>   0.1400 
 12 C       -0.9170     4.3470     1.1480 C.3   1 <1>   0.1400 
 13 N       -5.3790    -1.6310    -0.0490 N.3   1 <1>  -0.8100 
 14 C       -6.7150    -0.0080     1.2730 C.3   1 <1>   0.1200 
 15 N       -1.5170     5.3730     0.2500 N.am  1 <1>  -0.6600 
 16 C       -5.9170    -2.7010     0.8260 C.3   1 <1>   0.3330 
 17 O       -7.1610    -1.0390     2.1050 O.3   1 <1>  -0.5600 
 18 C       -0.8120     6.4990    -0.0970 C.2   1 <1>   0.5690 
 19 C       -6.1080    -4.0040     0.0510 C.ar  1 <1>  -0.1440 
 20 C       -7.2660    -2.2740     1.4460 C.3   1 <1>   0.1200 
 21 O        0.2840     6.7380     0.3490 O.2   1 <1>  -0.5700 
 22 C       -1.3920     7.5050    -1.0640 C.3   1 <1>  -0.1790 
 23 C       -6.7360    -4.0110    -1.1870 C.ar  1 <1>  -0.1500 
 24 C       -5.6560    -5.2030     0.5840 C.ar  1 <1>  -0.1500 
 25 C       -6.9120    -5.1950    -1.8810 C.ar  1 <1>  -0.1500 
 26 C       -5.8300    -6.3890    -0.1090 C.ar  1 <1>  -0.1500 
 27 C       -6.4580    -6.3860    -1.3410 C.ar  1 <1>  -0.1500 
 28 H       -2.9240     2.4910     0.8660 H     1 <1>   0.0800 
 29 H       -4.8020     1.7050     0.3360 H     1 <1>   0.0800 
 30 H       -5.5360     0.9210    -1.0270 H     1 <1>   0.0800 
 31 H       -4.1160    -0.8080    -2.3750 H     1 <1>   0.0800 
 32 H       -2.5040    -1.1370    -1.8170 H     1 <1>   0.0800 
 33 H       -3.9190     3.4510    -1.1930 H     1 <1>   0.0800 
 34 H       -2.3310     3.7660    -1.8170 H     1 <1>   0.0800 
 35 H       -0.2480     3.0420    -0.3990 H     1 <1>   0.0800 
 36 H       -0.5250     2.2410     1.1150 H     1 <1>   0.0800 
 37 H       -4.6400    -0.4340     1.5150 H     1 <1>   0.0800 
 38 H       -3.3470    -2.1210     0.2380 H     1 <1>   0.0800 
 39 H       -4.0890    -2.8870    -1.1390 H     1 <1>   0.0800 
 40 H       -3.5460     5.0230     0.6530 H     1 <1>   0.0800 
 41 H       -3.2730     5.8040    -0.8760 H     1 <1>   0.0800 
 42 H        0.0940     4.6120     1.4110 H     1 <1>   0.0800 
 43 H       -1.4920     4.2950     2.0560 H     1 <1>   0.0800 
 44 H       -7.4350     0.1330     0.4850 H     1 <1>   0.0800 
 45 H       -6.6660     0.8870     1.8660 H     1 <1>   0.0800 
 46 H       -5.2250    -2.8730     1.6330 H     1 <1>   0.0800 
 47 H       -7.5860    -3.0060     2.1650 H     1 <1>   0.0800 
 48 H       -8.0180    -2.1920     0.6820 H     1 <1>   0.0800 
 49 H       -1.6080     7.0270    -2.0010 H     1 <1>   0.0800 
 50 H       -0.6800     8.2910    -1.2370 H     1 <1>   0.0800 
 51 H       -2.2850     7.9340    -0.6530 H     1 <1>   0.0800 
 52 H       -7.0850    -3.0850    -1.6130 H     1 <1>   0.1500 
 53 H       -5.1660    -5.2210     1.5410 H     1 <1>   0.1500 
 54 H       -7.4000    -5.1890    -2.8400 H     1 <1>   0.1500 
 55 H       -5.4770    -7.3140     0.3110 H     1 <1>   0.1500 
 56 H       -6.5940    -7.3070    -1.8800 H     1 <1>   0.1500 
@<TRIPOS>BOND
  1   1   2  2   
  2   2   3  am  
  3   2   4  1   
  4   3   5  1   
  5   3   6  1   
  6   4   7  1   
  7   4   8  1   
  8   4  28  1   
  9   5   9  1   
 10   5  29  1   
 11   5  30  1   
 12   6  10  1   
 13   6  31  1   
 14   6  32  1   
 15   7  11  1   
 16   7  33  1   
 17   7  34  1   
 18   8  12  1   
 19   8  35  1   
 20   8  36  1   
 21   9  13  1   
 22   9  14  1   
 23   9  37  1   
 24  10  13  1   
 25  10  38  1   
 26  10  39  1   
 27  11  15  1   
 28  11  40  1   
 29  11  41  1   
 30  12  15  1   
 31  12  42  1   
 32  12  43  1   
 33  13  16  1   
 34  14  17  1   
 35  14  44  1   
 36  14  45  1   
 37  15  18  am  
 38  16  19  1   
 39  16  20  1   
 40  16  46  1   
 41  17  20  1   
 42  18  21  2   
 43  18  22  1   
 44  19  23  ar  
 45  19  24  ar  
 46  20  47  1   
 47  20  48  1   
 48  22  49  1   
 49  22  50  1   
 50  22  51  1   
 51  23  25  ar  
 52  23  52  1   
 53  24  26  ar  
 54  24  53  1   
 55  25  27  ar  
 56  25  54  1   
 57  26  27  ar  
 58  26  55  1   
 59  27  56  1   
@<TRIPOS>SUBSTRUCTURE
  1 ****   3 GROUP 4 **** **** 0

# MOE 2024.06 (io_trps.svl 2023.06)
