@<TRIPOS>MOLECULE
NONAME
16 16 1 0 0 
SMALL
USER_CHARGES


@<TRIPOS>ATOM
  1 F        5.4930     2.4510     0.3590 F     1 <1>  -0.1500 
  2 C        5.5370     1.1630     0.1710 C.2   1 <1>   0.0110 
  3 C        6.6940     0.5080     0.0590 C.2   1 <1>  -0.2880 
  4 C        4.1630     0.5330     0.1000 C.3   1 <1>  -0.0220 
  5 C        6.7790    -0.9890    -0.1360 C.3   1 <1>   0.4810 
  6 C        4.2920    -0.9140    -0.3940 C.3   1 <1>   0.3430 
  7 N        5.4690    -1.5940     0.2400 N.4   1 <1>  -0.9060 
  8 H        7.6520     1.0010     0.0950 H     1 <1>   0.1500 
  9 H        3.5400     1.0870    -0.5810 H     1 <1>   0.0800 
 10 H        3.7010     0.5610     1.0710 H     1 <1>   0.0800 
 11 H        7.5600    -1.3940     0.4890 H     1 <1>   0.0800 
 12 H        7.0170    -1.2070    -1.1660 H     1 <1>   0.0800 
 13 H        4.4230    -0.9050    -1.4650 H     1 <1>   0.0800 
 14 H        3.3830    -1.4500    -0.1730 H     1 <1>   0.0800 
 15 H        5.3770    -1.5150     1.2600 H     1 <1>   0.4500 
 16 H        5.4730    -2.5950     0.0090 H     1 <1>   0.4500 
@<TRIPOS>BOND
  1   1   2  1   
  2   2   3  2   
  3   2   4  1   
  4   3   5  1   
  5   3   8  1   
  6   4   6  1   
  7   4   9  1   
  8   4  10  1   
  9   5   7  1   
 10   5  11  1   
 11   5  12  1   
 12   6   7  1   
 13   6  13  1   
 14   6  14  1   
 15   7  15  1   
 16   7  16  1   
@<TRIPOS>SUBSTRUCTURE
  1 ****   2 GROUP 4 **** **** 0

# MOE 2024.06 (io_trps.svl 2023.06)
