@<TRIPOS>MOLECULE
NONAME
42 44 1 0 0 
SMALL
USER_CHARGES


@<TRIPOS>ATOM
  1 O       -0.3340     0.1800    -0.3630 O.2   1 <1>  -0.5700 
  2 C       -1.3760     0.7800    -0.2420 C.2   1 <1>   0.5690 
  3 N       -2.5710     0.1220    -0.1980 N.am  1 <1>  -0.6600 
  4 C       -1.3550     2.2980    -0.1470 C.3   1 <1>  -0.0990 
  5 C       -3.9210     0.7350    -0.1350 C.3   1 <1>   0.1400 
  6 C       -2.6650    -1.3540    -0.2820 C.3   1 <1>   0.1400 
  7 C        0.0550     2.8830     0.0060 C.3   1 <1>   0.0210 
  8 C       -4.8900    -0.4280    -0.3520 C.3   1 <1>   0.2000 
  9 C       -4.1210    -1.6850     0.0510 C.3   1 <1>  -0.0800 
 10 C       -0.0150     4.3940     0.1280 C.2   1 <1>  -0.1810 
 11 O       -6.0290    -0.2940     0.4260 O.3   1 <1>  -0.6800 
 12 C       -4.6420    -2.9530    -0.6440 C.3   1 <1>  -0.0170 
 13 C       -0.2690     5.3000    -0.8980 C.2   1 <1>   0.1390 
 14 C        0.1480     5.1590     1.2270 C.2   1 <1>  -0.3020 
 15 C       -3.8530    -4.1790    -0.2120 C.ar  1 <1>  -0.1440 
 16 N       -0.2730     6.5280    -0.4800 N.2   1 <1>  -0.7070 
 17 N       -0.0100     6.4390     0.8380 N.pl3 1 <1>   0.3000 
 18 C       -4.1430    -4.8490     0.9590 C.ar  1 <1>  -0.1500 
 19 C       -2.8100    -4.6850    -0.9610 C.ar  1 <1>  -0.1500 
 20 C       -3.3960    -5.9600     1.3160 C.ar  1 <1>   0.1600 
 21 C       -2.1250    -5.8020    -0.5130 C.ar  1 <1>   0.1600 
 22 N       -2.3930    -6.4520     0.6070 N.ar  1 <1>  -0.6200 
 23 H       -1.8080     2.6990    -1.0340 H     1 <1>   0.0800 
 24 H       -1.9430     2.5980     0.7000 H     1 <1>   0.0800 
 25 H       -4.0640     1.1790     0.8350 H     1 <1>   0.0800 
 26 H       -4.0380     1.4760    -0.9070 H     1 <1>   0.0800 
 27 H       -2.4180    -1.6590    -1.2850 H     1 <1>   0.0800 
 28 H       -1.9840    -1.8230     0.4090 H     1 <1>   0.0800 
 29 H        0.6600     2.6190    -0.8440 H     1 <1>   0.0800 
 30 H        0.5220     2.4740     0.8850 H     1 <1>   0.0800 
 31 H       -5.1870    -0.4640    -1.3860 H     1 <1>   0.0800 
 32 H       -4.1790    -1.8140     1.1180 H     1 <1>   0.0800 
 33 H       -5.8000    -0.3120     1.3750 H     1 <1>   0.4000 
 34 H       -4.5800    -2.8400    -1.7120 H     1 <1>   0.0800 
 35 H       -5.6800    -3.0940    -0.3950 H     1 <1>   0.0800 
 36 H       -0.4450     5.0260    -1.9250 H     1 <1>   0.1500 
 37 H        0.3620     4.8720     2.2400 H     1 <1>   0.1500 
 38 H        0.0550     7.2690     1.4390 H     1 <1>   0.2700 
 39 H       -4.9420    -4.5200     1.5970 H     1 <1>   0.1500 
 40 H       -2.5200    -4.2230    -1.8870 H     1 <1>   0.1500 
 41 H       -3.6370    -6.4700     2.2320 H     1 <1>   0.1500 
 42 H       -1.3120    -6.1820    -1.1100 H     1 <1>   0.1500 
@<TRIPOS>BOND
  1   1   2  2   
  2   2   3  am  
  3   2   4  1   
  4   3   5  1   
  5   3   6  1   
  6   4   7  1   
  7   4  23  1   
  8   4  24  1   
  9   5   8  1   
 10   5  25  1   
 11   5  26  1   
 12   6   9  1   
 13   6  27  1   
 14   6  28  1   
 15   7  10  1   
 16   7  29  1   
 17   7  30  1   
 18   8   9  1   
 19   8  11  1   
 20   8  31  1   
 21   9  12  1   
 22   9  32  1   
 23  10  13  1   
 24  10  14  2   
 25  11  33  1   
 26  12  15  1   
 27  12  34  1   
 28  12  35  1   
 29  13  16  2   
 30  13  36  1   
 31  14  17  1   
 32  14  37  1   
 33  15  18  ar  
 34  15  19  ar  
 35  16  17  1   
 36  17  38  1   
 37  18  20  ar  
 38  18  39  1   
 39  19  21  ar  
 40  19  40  1   
 41  20  22  ar  
 42  20  41  1   
 43  21  22  ar  
 44  21  42  1   
@<TRIPOS>SUBSTRUCTURE
  1 ****   3 GROUP 4 **** **** 0

# MOE 2024.06 (io_trps.svl 2023.06)
