@<TRIPOS>MOLECULE
NONAME
38 39 1 0 0 
SMALL
USER_CHARGES


@<TRIPOS>ATOM
  1 N        0.1750    -0.0910     0.0450 N.ar  1 <1>  -0.6200 
  2 C        1.2210     0.7140    -0.0010 C.ar  1 <1>   0.7710 
  3 C       -1.0220     0.4550     0.0870 C.ar  1 <1>   0.4100 
  4 N        1.0880     2.0480     0.0010 N.ar  1 <1>  -0.1790 
  5 N        2.4670     0.1810    -0.0500 N.pl3 1 <1>  -0.8380 
  6 N       -2.0720    -0.3880     0.1560 N.pl3 1 <1>  -0.8690 
  7 C       -1.2240     1.8580     0.0730 C.ar  1 <1>  -0.1430 
  8 C       -0.1200     2.6590     0.0460 C.ar  1 <1>   0.2170 
  9 C        3.7800     0.8820    -0.0460 C.3   1 <1>   0.2090 
 10 C        2.6790    -1.2940    -0.0890 C.3   1 <1>   0.2090 
 11 C       -2.0340    -1.8580     0.1340 C.3   1 <1>   0.3470 
 12 C       -2.6620     2.3930     0.0790 C.3   1 <1>  -0.0970 
 13 C       -0.1100     4.1830     0.0580 C.3   1 <1>  -0.0970 
 14 C        4.8100    -0.2110     0.2050 C.3   1 <1>  -0.1600 
 15 C        4.1680    -1.4770    -0.3470 C.3   1 <1>  -0.1600 
 16 C       -3.3410    -2.3140    -0.4720 C.2   1 <1>  -0.2880 
 17 C       -4.2990    -2.9970     0.1640 C.2   1 <1>  -0.3000 
 18 H        1.9550     2.5650    -0.0420 H     1 <1>   0.4570 
 19 H       -3.0270    -0.0340     0.2440 H     1 <1>   0.4000 
 20 H        3.8330     1.6320     0.7250 H     1 <1>   0.0800 
 21 H        3.9550     1.3250    -1.0130 H     1 <1>   0.0800 
 22 H        2.0890    -1.7550    -0.8640 H     1 <1>   0.0800 
 23 H        2.4100    -1.7170     0.8650 H     1 <1>   0.0800 
 24 H       -1.9320    -2.2300     1.1400 H     1 <1>   0.0800 
 25 H       -1.2050    -2.2120    -0.4560 H     1 <1>   0.0800 
 26 H       -3.2460     1.8870    -0.6700 H     1 <1>   0.0800 
 27 H       -2.7210     3.4420    -0.1380 H     1 <1>   0.0800 
 28 H       -3.1140     2.2170     1.0400 H     1 <1>   0.0800 
 29 H        0.7350     4.5550     0.6100 H     1 <1>   0.0800 
 30 H       -0.9910     4.5790     0.5290 H     1 <1>   0.0800 
 31 H       -0.0600     4.5590    -0.9490 H     1 <1>   0.0800 
 32 H        4.9660    -0.3140     1.2650 H     1 <1>   0.0800 
 33 H        5.7530     0.0070    -0.2660 H     1 <1>   0.0800 
 34 H        4.3340    -1.5440    -1.4080 H     1 <1>   0.0800 
 35 H        4.5460    -2.3690     0.1220 H     1 <1>   0.0800 
 36 H       -3.4270    -2.0220    -1.5050 H     1 <1>   0.1500 
 37 H       -5.2200    -3.3080    -0.2980 H     1 <1>   0.1500 
 38 H       -4.2460    -3.3050     1.1950 H     1 <1>   0.1500 
@<TRIPOS>BOND
  1   1   2  ar  
  2   1   3  ar  
  3   2   4  ar  
  4   2   5  1   
  5   3   6  1   
  6   3   7  ar  
  7   4   8  ar  
  8   4  18  1   
  9   5   9  1   
 10   5  10  1   
 11   6  11  1   
 12   6  19  1   
 13   7   8  ar  
 14   7  12  1   
 15   8  13  1   
 16   9  14  1   
 17   9  20  1   
 18   9  21  1   
 19  10  15  1   
 20  10  22  1   
 21  10  23  1   
 22  11  16  1   
 23  11  24  1   
 24  11  25  1   
 25  12  26  1   
 26  12  27  1   
 27  12  28  1   
 28  13  29  1   
 29  13  30  1   
 30  13  31  1   
 31  14  15  1   
 32  14  32  1   
 33  14  33  1   
 34  15  34  1   
 35  15  35  1   
 36  16  17  2   
 37  16  36  1   
 38  17  37  1   
 39  17  38  1   
@<TRIPOS>SUBSTRUCTURE
  1 ****   1 GROUP 4 **** **** 0

# MOE 2024.06 (io_trps.svl 2023.06)
