@<TRIPOS>MOLECULE
NONAME
50 53 1 0 0 
SMALL
USER_CHARGES


@<TRIPOS>ATOM
  1 O       -2.5320     0.7810    -2.3060 O.2   1 <1>  -0.5700 
  2 C       -2.2660     1.0260    -1.1460 C.2   1 <1>   0.5440 
  3 N       -2.2010    -0.0200    -0.2700 N.am  1 <1>  -0.7300 
  4 C       -2.0260     2.3920    -0.7070 C.ar  1 <1>   0.0860 
  5 C       -2.4580    -1.4360    -0.6130 C.3   1 <1>   0.2200 
  6 C       -1.6460     3.3780    -1.6180 C.ar  1 <1>  -0.1500 
  7 C       -2.1660     2.7840     0.6260 C.ar  1 <1>  -0.1500 
  8 C       -3.8570    -1.8100    -0.1550 C.3   1 <1>  -0.0800 
  9 C       -1.5960    -2.3360     0.2640 C.3   1 <1>   0.1200 
 10 C       -1.4110     4.6830    -1.2240 C.ar  1 <1>  -0.1500 
 11 C       -1.9320     4.0870     1.0280 C.ar  1 <1>  -0.1500 
 12 C       -3.6360    -2.1870     1.3160 C.3   1 <1>   0.1200 
 13 C       -4.4280    -2.9770    -0.9810 C.3   1 <1>  -0.0160 
 14 O       -2.2670    -2.4230     1.4840 O.3   1 <1>  -0.5600 
 15 C       -1.5490     5.0480     0.1060 C.ar  1 <1>  -0.1440 
 16 C       -5.8430    -3.3250    -0.5440 C.ar  1 <1>  -0.1440 
 17 C       -1.2910     6.4870     0.5430 C.3   1 <1>   0.2390 
 18 C       -6.9170    -2.5200    -0.8650 C.ar  1 <1>  -0.1500 
 19 C       -6.1290    -4.4570     0.1930 C.ar  1 <1>  -0.1500 
 20 N        0.0480     6.9610     0.1340 N.pl3 1 <1>   0.3140 
 21 C       -8.1880    -2.8720    -0.4420 C.ar  1 <1>   0.1600 
 22 C       -7.4370    -4.7180     0.5670 C.ar  1 <1>   0.1600 
 23 N        0.2190     8.0750    -0.5440 N.2   1 <1>  -0.4180 
 24 C        1.2490     6.4450     0.3600 C.2   1 <1>   0.0070 
 25 N       -8.4730    -3.9510     0.2690 N.ar  1 <1>  -0.6200 
 26 N        1.4850     8.2070    -0.7140 N.2   1 <1>   0.0000 
 27 N        2.1430     7.1990    -0.1540 N.2   1 <1>  -0.3380 
 28 C        1.5460     5.1590     1.1100 C.3   1 <1>  -0.0600 
 29 H       -1.9590     0.1310     0.7100 H     1 <1>   0.3700 
 30 H       -2.2900    -1.6070    -1.6640 H     1 <1>   0.0800 
 31 H       -1.5350     3.1120    -2.6560 H     1 <1>   0.1500 
 32 H       -2.4740     2.0640     1.3620 H     1 <1>   0.1500 
 33 H       -4.5260    -0.9710    -0.2400 H     1 <1>   0.0800 
 34 H       -0.6070    -1.9440     0.4180 H     1 <1>   0.0800 
 35 H       -1.5350    -3.3270    -0.1490 H     1 <1>   0.0800 
 36 H       -1.1190     5.4110    -1.9640 H     1 <1>   0.1500 
 37 H       -2.0550     4.3450     2.0670 H     1 <1>   0.1500 
 38 H       -4.1780    -3.0690     1.6090 H     1 <1>   0.0800 
 39 H       -3.9070    -1.3720     1.9640 H     1 <1>   0.0800 
 40 H       -3.7970    -3.8440    -0.8910 H     1 <1>   0.0800 
 41 H       -4.4500    -2.6980    -2.0210 H     1 <1>   0.0800 
 42 H       -1.3650     6.5770     1.6100 H     1 <1>   0.0800 
 43 H       -2.0280     7.1310     0.0990 H     1 <1>   0.0800 
 44 H       -6.7780    -1.6230    -1.4410 H     1 <1>   0.1500 
 45 H       -5.3500    -5.1390     0.4810 H     1 <1>   0.1500 
 46 H       -9.0130    -2.2310    -0.7020 H     1 <1>   0.1500 
 47 H       -7.6420    -5.6050     1.1420 H     1 <1>   0.1500 
 48 H        2.6070     5.0590     1.2540 H     1 <1>   0.0800 
 49 H        1.1980     4.3140     0.5440 H     1 <1>   0.0800 
 50 H        1.0680     5.1660     2.0720 H     1 <1>   0.0800 
@<TRIPOS>BOND
  1   1   2  2   
  2   2   3  am  
  3   2   4  1   
  4   3   5  1   
  5   3  29  1   
  6   4   6  ar  
  7   4   7  ar  
  8   5   8  1   
  9   5   9  1   
 10   5  30  1   
 11   6  10  ar  
 12   6  31  1   
 13   7  11  ar  
 14   7  32  1   
 15   8  12  1   
 16   8  13  1   
 17   8  33  1   
 18   9  14  1   
 19   9  34  1   
 20   9  35  1   
 21  10  15  ar  
 22  10  36  1   
 23  11  15  ar  
 24  11  37  1   
 25  12  14  1   
 26  12  38  1   
 27  12  39  1   
 28  13  16  1   
 29  13  40  1   
 30  13  41  1   
 31  15  17  1   
 32  16  18  ar  
 33  16  19  ar  
 34  17  20  1   
 35  17  42  1   
 36  17  43  1   
 37  18  21  ar  
 38  18  44  1   
 39  19  22  ar  
 40  19  45  1   
 41  20  23  1   
 42  20  24  1   
 43  21  25  ar  
 44  21  46  1   
 45  22  25  ar  
 46  22  47  1   
 47  23  26  2   
 48  24  27  2   
 49  24  28  1   
 50  26  27  1   
 51  28  48  1   
 52  28  49  1   
 53  28  50  1   
@<TRIPOS>SUBSTRUCTURE
  1 ****   2 GROUP 4 **** **** 0

# MOE 2024.06 (io_trps.svl 2023.06)
