@<TRIPOS>MOLECULE
NONAME
58 61 1 0 0 
SMALL
USER_CHARGES


@<TRIPOS>ATOM
  1 O       -0.1590    -0.8280     1.5800 O.3   1 <1>  -0.5600 
  2 C       -0.1320    -1.9900     0.7810 C.3   1 <1>   0.2800 
  3 C       -1.3670    -0.1380     1.7510 C.3   1 <1>   0.1200 
  4 C       -1.5450    -2.3460     0.2220 C.3   1 <1>   0.2000 
  5 C        0.3870    -3.1140     1.7060 C.3   1 <1>  -0.1600 
  6 C        0.8910    -1.6790    -0.3310 C.3   1 <1>  -0.1600 
  7 C       -1.9730     0.1650     0.3780 C.3   1 <1>  -0.1600 
  8 O       -1.5030    -3.4350    -0.6570 O.3   1 <1>  -0.6800 
  9 C       -2.2990    -1.1290    -0.3900 C.3   1 <1>   0.2800 
 10 C        1.3570    -4.0510     0.9850 C.3   1 <1>   0.2090 
 11 C        2.3190    -1.8570     0.1770 C.3   1 <1>   0.2090 
 12 O       -3.6470    -1.3820    -0.2250 O.3   1 <1>  -0.6800 
 13 C       -2.1140    -0.9240    -1.9010 C.3   1 <1>  -0.2400 
 14 N        2.5780    -3.3030     0.5140 N.pl3 1 <1>  -0.8380 
 15 C        3.7770    -3.9130     0.3830 C.ar  1 <1>   0.4610 
 16 N        4.8770    -3.1770     0.2200 N.ar  1 <1>  -0.1790 
 17 C        3.9610    -5.3210     0.4140 C.ar  1 <1>  -0.1500 
 18 C        6.1570    -3.6820     0.0940 C.ar  1 <1>   0.3610 
 19 C        5.1890    -5.8990     0.2990 C.ar  1 <1>  -0.1440 
 20 C        6.3450    -5.0750     0.1350 C.ar  1 <1>   0.0000 
 21 C        7.2540    -2.8300    -0.0680 C.ar  1 <1>  -0.1500 
 22 C        5.3290    -7.4170     0.3360 C.3   1 <1>  -0.0970 
 23 C        7.6570    -5.5630     0.0110 C.ar  1 <1>  -0.1500 
 24 C        8.5230    -3.3400    -0.1870 C.ar  1 <1>  -0.1500 
 25 C        8.7300    -4.7170    -0.1470 C.ar  1 <1>  -0.1440 
 26 C       10.1430    -5.2670    -0.2810 C.3   1 <1>  -0.0170 
 27 C       10.5570    -5.3370    -1.7520 C.3   1 <1>  -0.2400 
 28 H       -2.0290    -0.7360     2.3550 H     1 <1>   0.0800 
 29 H       -1.1480     0.7750     2.2780 H     1 <1>   0.0800 
 30 H       -2.1270    -2.6790     1.0630 H     1 <1>   0.0800 
 31 H        0.8980    -2.6950     2.5550 H     1 <1>   0.0800 
 32 H       -0.4340    -3.6950     2.0830 H     1 <1>   0.0800 
 33 H        0.7510    -2.3310    -1.1740 H     1 <1>   0.0800 
 34 H        0.7560    -0.6710    -0.6750 H     1 <1>   0.0800 
 35 H       -1.2500     0.7470    -0.1650 H     1 <1>   0.0800 
 36 H       -2.8510     0.7750     0.4940 H     1 <1>   0.0800 
 37 H       -2.4170    -3.6060    -0.9670 H     1 <1>   0.4000 
 38 H        0.8630    -4.5020     0.1400 H     1 <1>   0.0800 
 39 H        1.6390    -4.8300     1.6710 H     1 <1>   0.0800 
 40 H        2.4600    -1.2470     1.0550 H     1 <1>   0.0800 
 41 H        2.9920    -1.5220    -0.5930 H     1 <1>   0.0800 
 42 H       -4.1680    -0.6820    -0.6620 H     1 <1>   0.4000 
 43 H       -1.0780    -0.7760    -2.1380 H     1 <1>   0.0800 
 44 H       -2.6550    -0.0570    -2.2360 H     1 <1>   0.0800 
 45 H       -2.4580    -1.7820    -2.4500 H     1 <1>   0.0800 
 46 H        4.7520    -2.1730     0.2340 H     1 <1>   0.4570 
 47 H        3.0900    -5.9400     0.5190 H     1 <1>   0.1500 
 48 H        7.1130    -1.7650    -0.1010 H     1 <1>   0.1500 
 49 H        4.3720    -7.8930     0.4600 H     1 <1>   0.0800 
 50 H        5.9570    -7.7130     1.1580 H     1 <1>   0.0800 
 51 H        5.7620    -7.7730    -0.5820 H     1 <1>   0.0800 
 52 H        7.8320    -6.6240     0.0360 H     1 <1>   0.1500 
 53 H        9.3690    -2.6820    -0.3130 H     1 <1>   0.1500 
 54 H       10.8300    -4.6380     0.2590 H     1 <1>   0.0800 
 55 H       10.1980    -6.2510     0.1520 H     1 <1>   0.0800 
 56 H       10.5380    -4.3570    -2.1950 H     1 <1>   0.0800 
 57 H        9.8860    -5.9760    -2.2980 H     1 <1>   0.0800 
 58 H       11.5540    -5.7330    -1.8360 H     1 <1>   0.0800 
@<TRIPOS>BOND
  1   1   2  1   
  2   1   3  1   
  3   2   4  1   
  4   2   5  1   
  5   2   6  1   
  6   3   7  1   
  7   3  28  1   
  8   3  29  1   
  9   4   8  1   
 10   4   9  1   
 11   4  30  1   
 12   5  10  1   
 13   5  31  1   
 14   5  32  1   
 15   6  11  1   
 16   6  33  1   
 17   6  34  1   
 18   7   9  1   
 19   7  35  1   
 20   7  36  1   
 21   8  37  1   
 22   9  12  1   
 23   9  13  1   
 24  10  14  1   
 25  10  38  1   
 26  10  39  1   
 27  11  14  1   
 28  11  40  1   
 29  11  41  1   
 30  12  42  1   
 31  13  43  1   
 32  13  44  1   
 33  13  45  1   
 34  14  15  1   
 35  15  16  ar  
 36  15  17  ar  
 37  16  18  ar  
 38  16  46  1   
 39  17  19  ar  
 40  17  47  1   
 41  18  20  ar  
 42  18  21  ar  
 43  19  20  ar  
 44  19  22  1   
 45  20  23  ar  
 46  21  24  ar  
 47  21  48  1   
 48  22  49  1   
 49  22  50  1   
 50  22  51  1   
 51  23  25  ar  
 52  23  52  1   
 53  24  25  ar  
 54  24  53  1   
 55  25  26  1   
 56  26  27  1   
 57  26  54  1   
 58  26  55  1   
 59  27  56  1   
 60  27  57  1   
 61  27  58  1   
@<TRIPOS>SUBSTRUCTURE
  1 ****  14 GROUP 4 **** **** 0

# MOE 2024.06 (io_trps.svl 2023.06)
