@<TRIPOS>MOLECULE
NONAME
59 62 1 0 0 
SMALL
USER_CHARGES


@<TRIPOS>ATOM
  1 O       -2.0870     0.2470     2.5720 O.2   1 <1>  -0.5700 
  2 C       -1.9060     0.7410     1.4760 C.2   1 <1>   0.5440 
  3 N       -1.8710    -0.0750     0.3670 N.am  1 <1>  -0.6600 
  4 C       -1.7580     2.1780     1.3560 C.ar  1 <1>   0.0860 
  5 C       -1.8470    -1.5740     0.5040 C.3   1 <1>   0.3640 
  6 C       -2.2440     0.4480    -0.9880 C.3   1 <1>   0.1400 
  7 C       -0.7100     2.7480     0.6490 C.ar  1 <1>  -0.1500 
  8 C       -2.6960     3.0380     1.9640 C.ar  1 <1>  -0.1500 
  9 C       -0.5350    -2.1830    -0.0270 C.ar  1 <1>  -0.1430 
 10 C       -3.0990    -2.2130    -0.1810 C.3   1 <1>   0.2000 
 11 C       -2.7100    -0.6640    -1.9400 C.3   1 <1>   0.1200 
 12 C       -0.6050     4.1320     0.5170 C.ar  1 <1>   0.0000 
 13 C       -2.6080     4.4040     1.8490 C.ar  1 <1>  -0.1500 
 14 C       -0.3410    -3.5520     0.1230 C.ar  1 <1>  -0.1500 
 15 C        0.4760    -1.4400    -0.6300 C.ar  1 <1>  -0.1500 
 16 O       -3.6160    -1.4910    -1.2800 O.3   1 <1>  -0.5600 
 17 C       -4.2470    -2.3740     0.8220 C.3   1 <1>   0.1200 
 18 C       -1.5550     4.9510     1.1140 C.ar  1 <1>  -0.1520 
 19 C        0.3140     4.9900    -0.1320 C.2   1 <1>  -0.1810 
 20 C        0.8050    -4.1750    -0.3440 C.ar  1 <1>   0.0830 
 21 C        1.6340    -2.0480    -1.0830 C.ar  1 <1>  -0.1500 
 22 O       -3.9930    -3.4520     1.6660 O.3   1 <1>  -0.6800 
 23 N       -1.2320     6.2520     0.8400 N.pl3 1 <1>   0.0330 
 24 C       -0.0940     6.2660     0.0810 C.2   1 <1>  -0.3320 
 25 C        1.5160     4.4790    -0.9020 C.3   1 <1>  -0.0590 
 26 O        0.8820    -5.5220    -0.2010 O.3   1 <1>  -0.3630 
 27 C        1.8150    -3.4100    -0.9340 C.ar  1 <1>   0.0830 
 28 C        0.5120     7.5810    -0.3790 C.3   1 <1>  -0.0600 
 29 C        0.9320    -6.2800    -1.3900 C.3   1 <1>   0.0400 
 30 O        2.9870    -3.9370    -1.3660 O.3   1 <1>  -0.3630 
 31 C        3.8420    -4.4530    -0.3690 C.3   1 <1>   0.0400 
 32 H       -1.8800    -1.8410     1.5460 H     1 <1>   0.0800 
 33 H       -3.0420     1.1630    -0.8830 H     1 <1>   0.0800 
 34 H       -1.4040     0.9570    -1.4250 H     1 <1>   0.0800 
 35 H        0.0380     2.1250     0.1970 H     1 <1>   0.1500 
 36 H       -3.4950     2.5920     2.5310 H     1 <1>   0.1500 
 37 H       -2.8490    -3.1860    -0.5600 H     1 <1>   0.0800 
 38 H       -1.8820    -1.2580    -2.2870 H     1 <1>   0.0800 
 39 H       -3.2080    -0.2380    -2.7930 H     1 <1>   0.0800 
 40 H       -3.3310     5.0490     2.3160 H     1 <1>   0.1500 
 41 H       -1.0840    -4.1610     0.6070 H     1 <1>   0.1500 
 42 H        0.3860    -0.3770    -0.7470 H     1 <1>   0.1500 
 43 H       -5.1760    -2.5630     0.3130 H     1 <1>   0.0800 
 44 H       -4.3390    -1.4890     1.4290 H     1 <1>   0.0800 
 45 H        2.4100    -1.4640    -1.5450 H     1 <1>   0.1500 
 46 H       -4.1980    -4.2980     1.2210 H     1 <1>   0.4000 
 47 H       -1.7560     7.0710     1.1610 H     1 <1>   0.2700 
 48 H        2.1480     3.9070    -0.2470 H     1 <1>   0.0800 
 49 H        2.0900     5.2900    -1.3080 H     1 <1>   0.0800 
 50 H        1.1900     3.8510    -1.7100 H     1 <1>   0.0800 
 51 H        1.3970     7.4150    -0.9640 H     1 <1>   0.0800 
 52 H        0.7770     8.1820     0.4720 H     1 <1>   0.0800 
 53 H       -0.1960     8.1220    -0.9820 H     1 <1>   0.0800 
 54 H        0.8500    -7.3200    -1.1290 H     1 <1>   0.0800 
 55 H        1.8680    -6.1020    -1.8890 H     1 <1>   0.0800 
 56 H        0.1110    -5.9920    -2.0220 H     1 <1>   0.0800 
 57 H        4.7620    -4.7530    -0.8370 H     1 <1>   0.0800 
 58 H        3.3750    -5.3010     0.0990 H     1 <1>   0.0800 
 59 H        4.0310    -3.6830     0.3580 H     1 <1>   0.0800 
@<TRIPOS>BOND
  1   1   2  2   
  2   2   3  am  
  3   2   4  1   
  4   3   5  1   
  5   3   6  1   
  6   4   7  ar  
  7   4   8  ar  
  8   5   9  1   
  9   5  10  1   
 10   5  32  1   
 11   6  11  1   
 12   6  33  1   
 13   6  34  1   
 14   7  12  ar  
 15   7  35  1   
 16   8  13  ar  
 17   8  36  1   
 18   9  14  ar  
 19   9  15  ar  
 20  10  16  1   
 21  10  17  1   
 22  10  37  1   
 23  11  16  1   
 24  11  38  1   
 25  11  39  1   
 26  12  18  ar  
 27  12  19  1   
 28  13  18  ar  
 29  13  40  1   
 30  14  20  ar  
 31  14  41  1   
 32  15  21  ar  
 33  15  42  1   
 34  17  22  1   
 35  17  43  1   
 36  17  44  1   
 37  18  23  1   
 38  19  24  2   
 39  19  25  1   
 40  20  26  1   
 41  20  27  ar  
 42  21  27  ar  
 43  21  45  1   
 44  22  46  1   
 45  23  24  1   
 46  23  47  1   
 47  24  28  1   
 48  25  48  1   
 49  25  49  1   
 50  25  50  1   
 51  26  29  1   
 52  27  30  1   
 53  28  51  1   
 54  28  52  1   
 55  28  53  1   
 56  29  54  1   
 57  29  55  1   
 58  29  56  1   
 59  30  31  1   
 60  31  57  1   
 61  31  58  1   
 62  31  59  1   
@<TRIPOS>SUBSTRUCTURE
  1 ****   3 GROUP 4 **** **** 0

# MOE 2024.06 (io_trps.svl 2023.06)
