@<TRIPOS>MOLECULE
NONAME
43 45 1 0 0 
SMALL
USER_CHARGES


@<TRIPOS>ATOM
  1 O       -0.0940    -1.2830     1.0290 O.3   1 <1>  -0.5600 
  2 C       -0.1080    -2.1980    -0.0410 C.3   1 <1>   0.4180 
  3 C       -0.6630    -0.0230     0.8080 C.3   1 <1>   0.1200 
  4 C       -1.4510    -2.1450    -0.7660 C.2   1 <1>  -0.2880 
  5 C        0.0900    -3.5830     0.5760 C.3   1 <1>  -0.1600 
  6 C        1.0460    -1.8860    -1.0000 C.3   1 <1>  -0.1600 
  7 C       -2.1630    -0.1530     0.5120 C.3   1 <1>  -0.0220 
  8 C       -2.4000    -1.2380    -0.5220 C.2   1 <1>  -0.2760 
  9 C        1.4560    -3.7090     1.2470 C.3   1 <1>   0.2090 
 10 C        2.4010    -2.0250    -0.3090 C.3   1 <1>   0.2090 
 11 C       -3.7530    -1.2020    -1.2090 C.3   1 <1>  -0.1020 
 12 N        2.5300    -3.3950     0.2620 N.pl3 1 <1>  -0.8210 
 13 C        3.8170    -3.8330     0.5910 C.2   1 <1>   0.5990 
 14 N        4.0960    -4.7690     1.4170 N.2   1 <1>  -0.4100 
 15 N        4.8960    -3.2880     0.0400 N.2   1 <1>  -0.5650 
 16 O        5.3970    -4.8830     1.4430 O.3   1 <1>  -0.0190 
 17 C        5.8070    -3.9720     0.5970 C.2   1 <1>   0.2980 
 18 C        7.2970    -3.8140     0.3620 C.3   1 <1>   0.0200 
 19 C        7.8940    -5.0400    -0.3440 C.3   1 <1>  -0.1600 
 20 C        9.3960    -4.8720    -0.5970 C.3   1 <1>  -0.2400 
 21 H       -0.1550     0.4450    -0.0160 H     1 <1>   0.0800 
 22 H       -0.5070     0.5680     1.6930 H     1 <1>   0.0800 
 23 H       -1.5580    -2.9270    -1.4960 H     1 <1>   0.1500 
 24 H        0.0160    -4.3340    -0.1880 H     1 <1>   0.0800 
 25 H       -0.6880    -3.7650     1.2930 H     1 <1>   0.0800 
 26 H        0.9380    -0.8990    -1.4070 H     1 <1>   0.0800 
 27 H        1.0170    -2.5750    -1.8230 H     1 <1>   0.0800 
 28 H       -2.5230     0.7930     0.1490 H     1 <1>   0.0800 
 29 H       -2.6930    -0.3900     1.4170 H     1 <1>   0.0800 
 30 H        1.5710    -4.7130     1.6170 H     1 <1>   0.0800 
 31 H        1.5250    -3.0300     2.0800 H     1 <1>   0.0800 
 32 H        2.4960    -1.2980     0.4800 H     1 <1>   0.0800 
 33 H        3.1780    -1.8460    -1.0330 H     1 <1>   0.0800 
 34 H       -4.5400    -1.2950    -0.4820 H     1 <1>   0.0800 
 35 H       -3.8410    -2.0120    -1.9120 H     1 <1>   0.0800 
 36 H       -3.8770    -0.2750    -1.7400 H     1 <1>   0.0800 
 37 H        7.7810    -3.6620     1.3100 H     1 <1>   0.0800 
 38 H        7.4590    -2.9370    -0.2410 H     1 <1>   0.0800 
 39 H        7.3880    -5.1870    -1.2840 H     1 <1>   0.0800 
 40 H        7.7310    -5.9170     0.2590 H     1 <1>   0.0800 
 41 H        9.5810    -4.0150    -1.2220 H     1 <1>   0.0800 
 42 H        9.7850    -5.7440    -1.0930 H     1 <1>   0.0800 
 43 H        9.9250    -4.7450     0.3320 H     1 <1>   0.0800 
@<TRIPOS>BOND
  1   1   2  1   
  2   1   3  1   
  3   2   4  1   
  4   2   5  1   
  5   2   6  1   
  6   3   7  1   
  7   3  21  1   
  8   3  22  1   
  9   4   8  2   
 10   4  23  1   
 11   5   9  1   
 12   5  24  1   
 13   5  25  1   
 14   6  10  1   
 15   6  26  1   
 16   6  27  1   
 17   7   8  1   
 18   7  28  1   
 19   7  29  1   
 20   8  11  1   
 21   9  12  1   
 22   9  30  1   
 23   9  31  1   
 24  10  12  1   
 25  10  32  1   
 26  10  33  1   
 27  11  34  1   
 28  11  35  1   
 29  11  36  1   
 30  12  13  1   
 31  13  14  2   
 32  13  15  1   
 33  14  16  1   
 34  15  17  2   
 35  16  17  1   
 36  17  18  1   
 37  18  19  1   
 38  18  37  1   
 39  18  38  1   
 40  19  20  1   
 41  19  39  1   
 42  19  40  1   
 43  20  41  1   
 44  20  42  1   
 45  20  43  1   
@<TRIPOS>SUBSTRUCTURE
  1 ****  12 GROUP 4 **** **** 0

# MOE 2024.06 (io_trps.svl 2023.06)
