@<TRIPOS>MOLECULE
NONAME
47 49 1 0 0 
SMALL
USER_CHARGES


@<TRIPOS>ATOM
  1 O       -0.1180     1.2640    -2.1340 O.2   1 <1>  -0.5700 
  2 C        0.5540     0.5440    -1.4350 C.2   1 <1>   0.5690 
  3 N        1.8790     0.7630    -1.2570 N.am  1 <1>  -0.7300 
  4 C       -0.0970    -0.6400    -0.7220 C.3   1 <1>   0.1810 
  5 C        2.5930     1.9790    -1.6600 C.3   1 <1>   0.2840 
  6 O        0.7230    -1.1350     0.3200 O.3   1 <1>  -0.5600 
  7 C        3.8080     2.1370    -0.7570 C.ar  1 <1>  -0.1430 
  8 C        0.1010    -2.0410     1.1890 C.3   1 <1>   0.1200 
  9 C        3.6930     2.6470     0.5390 C.ar  1 <1>  -0.0230 
 10 C        5.0520     1.7550    -1.2350 C.ar  1 <1>  -0.1500 
 11 C       -0.0850    -3.4340     0.5580 C.3   1 <1>   0.2000 
 12 N        2.4440     3.0550     1.0760 N.pl3 1 <1>   0.3260 
 13 C        4.8340     2.7620     1.3250 C.ar  1 <1>  -0.1500 
 14 C        6.1800     1.8770    -0.4430 C.ar  1 <1>  -0.1500 
 15 O       -1.1260    -3.4360    -0.3650 O.3   1 <1>  -0.5600 
 16 C       -0.4910    -4.5050     1.5620 C.3   1 <1>  -0.1600 
 17 C        1.9480     4.3180     1.2100 C.2   1 <1>   0.0060 
 18 C        1.4860     2.2770     1.6250 C.2   1 <1>  -0.3020 
 19 C        6.0700     2.3820     0.8400 C.ar  1 <1>  -0.1500 
 20 C       -1.5880    -4.7330    -0.5650 C.3   1 <1>   0.1200 
 21 C       -1.2470    -5.5080     0.7060 C.3   1 <1>  -0.1600 
 22 N        0.7920     4.3800     1.7850 N.2   1 <1>  -0.5650 
 23 C        2.6940     5.5450     0.7230 C.3   1 <1>  -0.0600 
 24 C        0.4960     3.0920     2.0430 C.2   1 <1>   0.0770 
 25 H        2.3700     0.1480    -0.6020 H     1 <1>   0.3700 
 26 H       -0.2620    -1.4230    -1.4370 H     1 <1>   0.0800 
 27 H       -1.0380    -0.3250    -0.3090 H     1 <1>   0.0800 
 28 H        1.9380     2.8310    -1.5760 H     1 <1>   0.0800 
 29 H        2.8920     1.8870    -2.6900 H     1 <1>   0.0800 
 30 H       -0.8410    -1.6390     1.5170 H     1 <1>   0.0800 
 31 H        0.7470    -2.1320     2.0440 H     1 <1>   0.0800 
 32 H        5.1510     1.3550    -2.2290 H     1 <1>   0.1500 
 33 H        0.8150    -3.7340     0.0470 H     1 <1>   0.0800 
 34 H        4.7530     3.1520     2.3260 H     1 <1>   0.1500 
 35 H        7.1420     1.5790    -0.8240 H     1 <1>   0.1500 
 36 H       -1.1500    -4.0820     2.3000 H     1 <1>   0.0800 
 37 H        0.3620    -4.9390     2.0520 H     1 <1>   0.0800 
 38 H        1.5700     1.2080     1.6750 H     1 <1>   0.1500 
 39 H        6.9470     2.4760     1.4580 H     1 <1>   0.1500 
 40 H       -1.0800    -5.1430    -1.4220 H     1 <1>   0.0800 
 41 H       -2.6480    -4.6940    -0.7470 H     1 <1>   0.0800 
 42 H       -2.1380    -5.8590     1.1970 H     1 <1>   0.0800 
 43 H       -0.6280    -6.3530     0.4580 H     1 <1>   0.0800 
 44 H        2.8870     5.4640    -0.3310 H     1 <1>   0.0800 
 45 H        3.6270     5.6430     1.2480 H     1 <1>   0.0800 
 46 H        2.1040     6.4260     0.9000 H     1 <1>   0.0800 
 47 H       -0.4290     2.8190     2.5240 H     1 <1>   0.1500 
@<TRIPOS>BOND
  1   1   2  2   
  2   2   3  am  
  3   2   4  1   
  4   3   5  1   
  5   3  25  1   
  6   4   6  1   
  7   4  26  1   
  8   4  27  1   
  9   5   7  1   
 10   5  28  1   
 11   5  29  1   
 12   6   8  1   
 13   7   9  ar  
 14   7  10  ar  
 15   8  11  1   
 16   8  30  1   
 17   8  31  1   
 18   9  12  1   
 19   9  13  ar  
 20  10  14  ar  
 21  10  32  1   
 22  11  15  1   
 23  11  16  1   
 24  11  33  1   
 25  12  17  1   
 26  12  18  1   
 27  13  19  ar  
 28  13  34  1   
 29  14  19  ar  
 30  14  35  1   
 31  15  20  1   
 32  16  21  1   
 33  16  36  1   
 34  16  37  1   
 35  17  22  2   
 36  17  23  1   
 37  18  24  2   
 38  18  38  1   
 39  19  39  1   
 40  20  21  1   
 41  20  40  1   
 42  20  41  1   
 43  21  42  1   
 44  21  43  1   
 45  22  24  1   
 46  23  44  1   
 47  23  45  1   
 48  23  46  1   
 49  24  47  1   
@<TRIPOS>SUBSTRUCTURE
  1 ****   3 GROUP 4 **** **** 0

# MOE 2024.06 (io_trps.svl 2023.06)
