@<TRIPOS>MOLECULE
NONAME
47 49 1 0 0 
SMALL
USER_CHARGES


@<TRIPOS>ATOM
  1 S        0.3360    -0.0270     0.6730 S.o2  1 <1>   1.3330 
  2 O        1.7780    -0.0310     0.5670 O.2   1 <1>  -0.6500 
  3 O       -0.2880     0.0880     1.9710 O.2   1 <1>  -0.6500 
  4 N       -0.2470    -1.4320    -0.0820 N.am  1 <1>  -0.8490 
  5 C       -0.3170     1.2800    -0.3630 C.3   1 <1>  -0.0550 
  6 C       -0.4640    -2.5260     0.8700 C.3   1 <1>   0.1160 
  7 C        0.5980    -1.8940    -1.1890 C.3   1 <1>   0.1160 
  8 C       -0.0180     2.6890     0.1780 C.3   1 <1>  -0.0800 
  9 C       -0.6450     3.7830    -0.6810 C.3   1 <1>   0.2000 
 10 C        1.4690     3.0520     0.2120 C.3   1 <1>   0.1400 
 11 O       -1.9720     3.9580    -0.3290 O.3   1 <1>  -0.6800 
 12 C        0.1880     5.0350    -0.4170 C.3   1 <1>   0.1400 
 13 N        1.5060     4.5250     0.0410 N.am  1 <1>  -0.6600 
 14 C        2.6410     5.2810     0.2760 C.2   1 <1>   0.7160 
 15 O        3.6590     4.6780     0.5730 O.2   1 <1>  -0.5700 
 16 C        2.6860     6.7380     0.1840 C.2   1 <1>   0.2030 
 17 N        1.7090     7.5630    -0.0620 N.2   1 <1>  -0.4100 
 18 C        3.8350     7.4880     0.3590 C.2   1 <1>  -0.1500 
 19 O        2.1470     8.7970    -0.0610 O.3   1 <1>  -0.0190 
 20 C        3.4450     8.7640     0.1960 C.2   1 <1>   0.0870 
 21 C        4.2030     9.9960     0.2620 C.ar  1 <1>   0.0530 
 22 C        5.5660     9.9920     0.5640 C.ar  1 <1>  -0.1500 
 23 C        3.6060    11.2350     0.0250 C.ar  1 <1>  -0.1500 
 24 C        6.2960    11.1650     0.6280 C.ar  1 <1>  -0.1500 
 25 C        4.3300    12.4120     0.0880 C.ar  1 <1>  -0.1500 
 26 C        5.6790    12.3790     0.3890 C.ar  1 <1>  -0.1500 
 27 H        0.0820     1.1850    -1.3530 H     1 <1>   0.0800 
 28 H       -1.3820     1.1620    -0.4270 H     1 <1>   0.0800 
 29 H       -0.8480    -3.3930     0.3620 H     1 <1>   0.0800 
 30 H       -1.1820    -2.2290     1.6160 H     1 <1>   0.0800 
 31 H        0.4600    -2.7820     1.3630 H     1 <1>   0.0800 
 32 H        0.1330    -2.7290    -1.6850 H     1 <1>   0.0800 
 33 H        1.5650    -2.1980    -0.8230 H     1 <1>   0.0800 
 34 H        0.7330    -1.1050    -1.9080 H     1 <1>   0.0800 
 35 H       -0.3890     2.7700     1.1860 H     1 <1>   0.0800 
 36 H       -0.6020     3.5340    -1.7280 H     1 <1>   0.0800 
 37 H        2.0020     2.5920    -0.6030 H     1 <1>   0.0800 
 38 H        1.9280     2.7600     1.1430 H     1 <1>   0.0800 
 39 H       -2.0520     4.1720     0.6210 H     1 <1>   0.4000 
 40 H       -0.2510     5.6350     0.3610 H     1 <1>   0.0800 
 41 H        0.2980     5.6160    -1.3170 H     1 <1>   0.0800 
 42 H        4.8070     7.0870     0.5780 H     1 <1>   0.1500 
 43 H        6.0670     9.0610     0.7540 H     1 <1>   0.1500 
 44 H        2.5570    11.2830    -0.2110 H     1 <1>   0.1500 
 45 H        7.3460    11.1340     0.8640 H     1 <1>   0.1500 
 46 H        3.8440    13.3540    -0.0990 H     1 <1>   0.1500 
 47 H        6.2450    13.2930     0.4380 H     1 <1>   0.1500 
@<TRIPOS>BOND
  1   1   2  2   
  2   1   3  2   
  3   1   4  am  
  4   1   5  1   
  5   4   6  1   
  6   4   7  1   
  7   5   8  1   
  8   5  27  1   
  9   5  28  1   
 10   6  29  1   
 11   6  30  1   
 12   6  31  1   
 13   7  32  1   
 14   7  33  1   
 15   7  34  1   
 16   8   9  1   
 17   8  10  1   
 18   8  35  1   
 19   9  11  1   
 20   9  12  1   
 21   9  36  1   
 22  10  13  1   
 23  10  37  1   
 24  10  38  1   
 25  11  39  1   
 26  12  13  1   
 27  12  40  1   
 28  12  41  1   
 29  13  14  am  
 30  14  15  2   
 31  14  16  1   
 32  16  17  2   
 33  16  18  1   
 34  17  19  1   
 35  18  20  2   
 36  18  42  1   
 37  19  20  1   
 38  20  21  1   
 39  21  22  ar  
 40  21  23  ar  
 41  22  24  ar  
 42  22  43  1   
 43  23  25  ar  
 44  23  44  1   
 45  24  26  ar  
 46  24  45  1   
 47  25  26  ar  
 48  25  46  1   
 49  26  47  1   
@<TRIPOS>SUBSTRUCTURE
  1 ****  14 GROUP 4 **** **** 0

# MOE 2024.06 (io_trps.svl 2023.06)
