@<TRIPOS>MOLECULE
NONAME
44 45 1 0 0 
SMALL
USER_CHARGES


@<TRIPOS>ATOM
  1 CL      -1.2190    -0.4810     0.8950 Cl    1 <1>  -0.1770 
  2 C       -0.8540    -2.1700     0.6440 C.ar  1 <1>   0.1770 
  3 C        0.4210    -2.5670     0.2710 C.ar  1 <1>  -0.1440 
  4 C       -1.8640    -3.0950     0.8280 C.ar  1 <1>  -0.1500 
  5 C        0.6630    -3.9180     0.0800 C.ar  1 <1>  -0.1500 
  6 C        1.5360    -1.5490     0.0750 C.3   1 <1>  -0.0960 
  7 C       -1.6020    -4.4390     0.6330 C.ar  1 <1>  -0.1500 
  8 C       -0.3340    -4.8830     0.2480 C.ar  1 <1>   0.0860 
  9 C       -0.0500    -6.2910     0.0270 C.2   1 <1>   0.5440 
 10 O        1.0750    -6.7290     0.1580 O.2   1 <1>  -0.5700 
 11 N       -1.0410    -7.1510    -0.3580 N.am  1 <1>  -0.7300 
 12 C       -0.8330    -8.5870    -0.6810 C.3   1 <1>   0.2200 
 13 C       -2.1300    -9.3390    -0.9690 C.3   1 <1>  -0.0800 
 14 C       -0.2140    -9.3990     0.4630 C.3   1 <1>   0.1200 
 15 C       -1.6890   -10.7610    -0.6330 C.3   1 <1>   0.1200 
 16 C       -3.3170    -8.9310    -0.0630 C.3   1 <1>  -0.0550 
 17 O       -0.8970   -10.6210     0.5010 O.3   1 <1>  -0.5600 
 18 S       -4.8960    -9.5610    -0.6290 S.o2  1 <1>   1.3330 
 19 O       -4.9240   -11.0040    -0.5570 O.2   1 <1>  -0.6500 
 20 O       -5.1780    -8.9030    -1.8850 O.2   1 <1>  -0.6500 
 21 N       -5.9750    -8.9600     0.5340 N.am  1 <1>  -0.8490 
 22 C       -6.0100    -9.7670     1.7590 C.3   1 <1>   0.1160 
 23 C       -7.3330    -8.8160     0.0000 C.3   1 <1>   0.1160 
 24 H       -2.8420    -2.7580     1.1230 H     1 <1>   0.1500 
 25 H        1.6480    -4.2480    -0.2070 H     1 <1>   0.1500 
 26 H        2.4550    -2.0310    -0.2060 H     1 <1>   0.0800 
 27 H        1.7020    -1.0060     0.9880 H     1 <1>   0.0800 
 28 H        1.2660    -0.8520    -0.6980 H     1 <1>   0.0800 
 29 H       -2.3920    -5.1510     0.7930 H     1 <1>   0.1500 
 30 H       -1.8970    -6.7450    -0.7370 H     1 <1>   0.3700 
 31 H       -0.1770    -8.6560    -1.5330 H     1 <1>   0.0800 
 32 H       -2.3990    -9.2550    -2.0080 H     1 <1>   0.0800 
 33 H       -0.3470    -8.9130     1.4130 H     1 <1>   0.0800 
 34 H        0.8300    -9.5890     0.2860 H     1 <1>   0.0800 
 35 H       -1.0760   -11.1740    -1.4170 H     1 <1>   0.0800 
 36 H       -2.4970   -11.4370    -0.4170 H     1 <1>   0.0800 
 37 H       -3.4040    -7.8650    -0.0320 H     1 <1>   0.0800 
 38 H       -3.1290    -9.2650     0.9400 H     1 <1>   0.0800 
 39 H       -6.6450    -9.2990     2.4920 H     1 <1>   0.0800 
 40 H       -5.0220    -9.8570     2.1760 H     1 <1>   0.0800 
 41 H       -6.3870   -10.7550     1.5500 H     1 <1>   0.0800 
 42 H       -7.9920    -8.4210     0.7530 H     1 <1>   0.0800 
 43 H       -7.7080    -9.7700    -0.3340 H     1 <1>   0.0800 
 44 H       -7.3320    -8.1360    -0.8360 H     1 <1>   0.0800 
@<TRIPOS>BOND
  1   1   2  1   
  2   2   3  ar  
  3   2   4  ar  
  4   3   5  ar  
  5   3   6  1   
  6   4   7  ar  
  7   4  24  1   
  8   5   8  ar  
  9   5  25  1   
 10   6  26  1   
 11   6  27  1   
 12   6  28  1   
 13   7   8  ar  
 14   7  29  1   
 15   8   9  1   
 16   9  10  2   
 17   9  11  am  
 18  11  12  1   
 19  11  30  1   
 20  12  13  1   
 21  12  14  1   
 22  12  31  1   
 23  13  15  1   
 24  13  16  1   
 25  13  32  1   
 26  14  17  1   
 27  14  33  1   
 28  14  34  1   
 29  15  17  1   
 30  15  35  1   
 31  15  36  1   
 32  16  18  1   
 33  16  37  1   
 34  16  38  1   
 35  18  19  2   
 36  18  20  2   
 37  18  21  am  
 38  21  22  1   
 39  21  23  1   
 40  22  39  1   
 41  22  40  1   
 42  22  41  1   
 43  23  42  1   
 44  23  43  1   
 45  23  44  1   
@<TRIPOS>SUBSTRUCTURE
  1 ****  11 GROUP 4 **** **** 0

# MOE 2024.06 (io_trps.svl 2023.06)
