@<TRIPOS>MOLECULE
NONAME
44 45 1 0 0 
SMALL
USER_CHARGES


@<TRIPOS>ATOM
  1 O        0.3310     1.3900     0.0000 O.3   1 <1>  -0.3630 
  2 C       -0.8800     1.7440    -0.4980 C.ar  1 <1>   0.0820 
  3 C        0.8010     0.0670    -0.1820 C.3   1 <1>   0.0400 
  4 C       -1.6120     2.7110     0.1860 C.ar  1 <1>  -0.1440 
  5 C       -1.3750     1.2000    -1.6790 C.ar  1 <1>  -0.1500 
  6 C       -2.8260     3.1340    -0.3320 C.ar  1 <1>  -0.1500 
  7 C       -1.1180     3.3080     1.4990 C.3   1 <1>   0.3530 
  8 C       -2.5910     1.6270    -2.1810 C.ar  1 <1>  -0.1500 
  9 C       -3.3140     2.5960    -1.5100 C.ar  1 <1>  -0.1500 
 10 N       -0.6450     4.7120     1.2900 N.pl3 1 <1>  -0.8380 
 11 C        0.3820     5.0790     0.4720 C.ar  1 <1>   0.7710 
 12 C       -1.3970     5.7110     2.1220 C.3   1 <1>   0.1290 
 13 N        0.7790     6.3430     0.4560 N.ar  1 <1>  -0.6200 
 14 N        0.9780     4.1520    -0.2990 N.ar  1 <1>  -0.1790 
 15 C        1.7680     6.6970    -0.3460 C.ar  1 <1>   0.4100 
 16 C        1.9990     4.4580    -1.1280 C.ar  1 <1>   0.2110 
 17 N        2.1410     8.0080    -0.3540 N.pl3 1 <1>  -0.8380 
 18 C        2.4130     5.7450    -1.1610 C.ar  1 <1>  -0.1500 
 19 C        2.8700     8.6680    -1.4700 C.3   1 <1>   0.2090 
 20 C        1.6850     8.9620     0.7060 C.3   1 <1>   0.1290 
 21 C        4.3540     8.7530    -1.1250 C.3   1 <1>  -0.2400 
 22 H        1.6390    -0.0900     0.4740 H     1 <1>   0.0800 
 23 H        1.1110    -0.0650    -1.2040 H     1 <1>   0.0800 
 24 H        0.0130    -0.6240     0.0660 H     1 <1>   0.0800 
 25 H       -0.8300     0.4520    -2.2250 H     1 <1>   0.1500 
 26 H       -3.4030     3.8860     0.1780 H     1 <1>   0.1500 
 27 H       -0.3240     2.7190     1.9280 H     1 <1>   0.0800 
 28 H       -1.9300     3.2940     2.2070 H     1 <1>   0.0800 
 29 H       -2.9770     1.2080    -3.0950 H     1 <1>   0.1500 
 30 H       -4.2590     2.9300    -1.9040 H     1 <1>   0.1500 
 31 H       -2.4570     5.5560     2.0170 H     1 <1>   0.0800 
 32 H       -1.1870     6.7250     1.8240 H     1 <1>   0.0800 
 33 H       -1.1280     5.6000     3.1580 H     1 <1>   0.0800 
 34 H        0.5870     3.2090    -0.2350 H     1 <1>   0.4570 
 35 H        2.4420     3.6780    -1.7260 H     1 <1>   0.1500 
 36 H        3.2270     6.0500    -1.7890 H     1 <1>   0.1500 
 37 H        2.4740     9.6580    -1.6250 H     1 <1>   0.0800 
 38 H        2.7300     8.1210    -2.3860 H     1 <1>   0.0800 
 39 H        1.5190     8.4460     1.6360 H     1 <1>   0.0800 
 40 H        0.7660     9.4300     0.3990 H     1 <1>   0.0800 
 41 H        2.4280     9.7200     0.8750 H     1 <1>   0.0800 
 42 H        4.5010     9.3530    -0.2460 H     1 <1>   0.0800 
 43 H        4.8890     9.2090    -1.9390 H     1 <1>   0.0800 
 44 H        4.7600     7.7730    -0.9550 H     1 <1>   0.0800 
@<TRIPOS>BOND
  1   1   2  1   
  2   1   3  1   
  3   2   4  ar  
  4   2   5  ar  
  5   3  22  1   
  6   3  23  1   
  7   3  24  1   
  8   4   6  ar  
  9   4   7  1   
 10   5   8  ar  
 11   5  25  1   
 12   6   9  ar  
 13   6  26  1   
 14   7  10  1   
 15   7  27  1   
 16   7  28  1   
 17   8   9  ar  
 18   8  29  1   
 19   9  30  1   
 20  10  11  1   
 21  10  12  1   
 22  11  13  ar  
 23  11  14  ar  
 24  12  31  1   
 25  12  32  1   
 26  12  33  1   
 27  13  15  ar  
 28  14  16  ar  
 29  14  34  1   
 30  15  17  1   
 31  15  18  ar  
 32  16  18  ar  
 33  16  35  1   
 34  17  19  1   
 35  17  20  1   
 36  18  36  1   
 37  19  21  1   
 38  19  37  1   
 39  19  38  1   
 40  20  39  1   
 41  20  40  1   
 42  20  41  1   
 43  21  42  1   
 44  21  43  1   
 45  21  44  1   
@<TRIPOS>SUBSTRUCTURE
  1 ****  14 GROUP 4 **** **** 0

# MOE 2024.06 (io_trps.svl 2023.06)
