@<TRIPOS>MOLECULE
NONAME
50 52 1 0 0 
SMALL
USER_CHARGES


@<TRIPOS>ATOM
  1 S       -0.7980     0.8240     1.4880 S.o2  1 <1>   1.4470 
  2 O       -0.5950    -0.2800     2.3990 O.2   1 <1>  -0.6500 
  3 O       -1.4660     2.0040     1.9970 O.2   1 <1>  -0.6500 
  4 N       -1.7180     0.3050     0.1580 N.am  1 <1>  -0.8490 
  5 C        0.7860     1.3490     0.7750 C.ar  1 <1>  -0.0090 
  6 C       -1.1320    -0.6400    -0.8270 C.3   1 <1>   0.1960 
  7 C       -3.1440     0.1170     0.4140 C.3   1 <1>   0.1960 
  8 C        0.8300     2.1910    -0.3300 C.ar  1 <1>  -0.1500 
  9 C        1.9950     0.9320     1.3180 C.ar  1 <1>  -0.1500 
 10 C       -1.4670    -2.1390    -0.6220 C.3   1 <1>  -0.1060 
 11 C       -3.4670    -1.3340     0.7640 C.3   1 <1>  -0.1600 
 12 C        2.0290     2.6000    -0.8900 C.ar  1 <1>  -0.1440 
 13 C        3.2030     1.3280     0.7740 C.ar  1 <1>  -0.1500 
 14 C       -1.2060    -2.8750    -1.9390 C.2   1 <1>   0.9060 
 15 C       -2.9850    -2.2410    -0.3650 C.3   1 <1>   0.2000 
 16 C       -0.6300    -2.8250     0.5000 C.3   1 <1>  -0.0650 
 17 C        3.2290     2.1650    -0.3370 C.ar  1 <1>   0.0820 
 18 C        2.0220     3.5130    -2.1070 C.3   1 <1>  -0.0970 
 19 O       -0.6210    -2.3040    -2.8670 O.co2 1 <1>  -0.9000 
 20 O       -1.6360    -4.0320    -2.0630 O.co2 1 <1>  -0.9000 
 21 O       -3.3400    -3.5410    -0.0700 O.3   1 <1>  -0.6800 
 22 C        0.8900    -2.6210     0.3900 C.3   1 <1>  -0.1950 
 23 O        4.3840     2.5840    -0.9180 O.3   1 <1>  -0.3620 
 24 C        1.7130    -3.4310    -0.5590 C.3   1 <1>  -0.2000 
 25 C        1.8310    -3.6530     0.9230 C.3   1 <1>  -0.2000 
 26 C        5.6420     2.1100    -0.4940 C.3   1 <1>   0.0400 
 27 H       -1.5340    -0.3520    -1.7850 H     1 <1>   0.0800 
 28 H       -0.0700    -0.5030    -0.9110 H     1 <1>   0.0800 
 29 H       -3.4750     0.7680     1.2060 H     1 <1>   0.0800 
 30 H       -3.6870     0.3890    -0.4760 H     1 <1>   0.0800 
 31 H       -0.1020     2.5230    -0.7560 H     1 <1>   0.1500 
 32 H        1.9870     0.2820     2.1770 H     1 <1>   0.1500 
 33 H       -4.5300    -1.4390     0.8710 H     1 <1>   0.0800 
 34 H       -3.0040    -1.5960     1.6970 H     1 <1>   0.0800 
 35 H        4.1080     0.9750     1.2290 H     1 <1>   0.1500 
 36 H       -3.5060    -1.9780    -1.2710 H     1 <1>   0.0800 
 37 H       -0.9510    -2.4950     1.4660 H     1 <1>   0.0800 
 38 H       -0.8250    -3.8830     0.4690 H     1 <1>   0.0800 
 39 H        1.0180     3.7590    -2.4040 H     1 <1>   0.0800 
 40 H        2.5130     3.0240    -2.9300 H     1 <1>   0.0800 
 41 H        2.5480     4.4230    -1.8830 H     1 <1>   0.0800 
 42 H       -2.8690    -4.0990    -0.7540 H     1 <1>   0.4000 
 43 H        1.1840    -1.6010     0.5470 H     1 <1>   0.1000 
 44 H        1.2100    -4.1660    -1.1670 H     1 <1>   0.1000 
 45 H        2.4930    -2.9250    -1.0980 H     1 <1>   0.1000 
 46 H        2.7240    -3.3270     1.4260 H     1 <1>   0.1000 
 47 H        1.4300    -4.5630     1.3350 H     1 <1>   0.1000 
 48 H        6.3920     2.5450    -1.1280 H     1 <1>   0.0800 
 49 H        5.6600     1.0380    -0.5880 H     1 <1>   0.0800 
 50 H        5.8030     2.4130     0.5250 H     1 <1>   0.0800 
@<TRIPOS>BOND
  1   1   2  2   
  2   1   3  2   
  3   1   4  am  
  4   1   5  1   
  5   4   6  1   
  6   4   7  1   
  7   5   8  ar  
  8   5   9  ar  
  9   6  10  1   
 10   6  27  1   
 11   6  28  1   
 12   7  11  1   
 13   7  29  1   
 14   7  30  1   
 15   8  12  ar  
 16   8  31  1   
 17   9  13  ar  
 18   9  32  1   
 19  10  14  1   
 20  10  15  1   
 21  10  16  1   
 22  11  15  1   
 23  11  33  1   
 24  11  34  1   
 25  12  17  ar  
 26  12  18  1   
 27  13  17  ar  
 28  13  35  1   
 29  14  19  ar  
 30  14  20  ar  
 31  15  21  1   
 32  15  36  1   
 33  16  22  1   
 34  16  37  1   
 35  16  38  1   
 36  17  23  1   
 37  18  39  1   
 38  18  40  1   
 39  18  41  1   
 40  21  42  1   
 41  22  24  1   
 42  22  25  1   
 43  22  43  1   
 44  23  26  1   
 45  24  25  1   
 46  24  44  1   
 47  24  45  1   
 48  25  46  1   
 49  25  47  1   
 50  26  48  1   
 51  26  49  1   
 52  26  50  1   
@<TRIPOS>SUBSTRUCTURE
  1 ****   6 GROUP 4 **** **** 0

# MOE 2024.06 (io_trps.svl 2023.06)
