@<TRIPOS>MOLECULE
NONAME
55 57 1 0 0 
SMALL
USER_CHARGES


@<TRIPOS>ATOM
  1 O       -0.6840     0.3780    -0.1280 O.2   1 <1>  -0.5700 
  2 C       -1.7790     0.8420    -0.3300 C.2   1 <1>   0.5690 
  3 N       -2.8780     0.0560    -0.5130 N.am  1 <1>  -0.6600 
  4 C       -1.9090     2.3520    -0.3770 C.3   1 <1>  -0.0990 
  5 C       -4.2800     0.5030    -0.7200 C.3   1 <1>   0.1400 
  6 C       -2.8090    -1.4290    -0.4830 C.3   1 <1>   0.1400 
  7 C       -0.5200     2.9840    -0.2610 C.3   1 <1>   0.3430 
  8 C       -5.0990    -0.7830    -0.8550 C.3   1 <1>   0.2000 
  9 C       -4.2470    -1.8890    -0.2350 C.3   1 <1>  -0.0800 
 10 N       -0.5620     4.4740    -0.3760 N.4   1 <1>  -0.9590 
 11 O       -6.3080    -0.6810    -0.1870 O.3   1 <1>  -0.6800 
 12 C       -4.5730    -3.2780    -0.8120 C.3   1 <1>  -0.0170 
 13 C        0.8370     5.0130    -0.5330 C.3   1 <1>   0.3430 
 14 C       -1.2230     5.1300     0.8110 C.3   1 <1>   0.3430 
 15 C       -3.7330    -4.3680    -0.1680 C.ar  1 <1>   0.1670 
 16 C        0.8750     6.5590    -0.5150 C.3   1 <1>   0.2000 
 17 C       -1.0980     6.6720     0.7720 C.3   1 <1>   0.2000 
 18 N       -2.5190    -4.5460    -0.6660 N.ar  1 <1>  -0.6200 
 19 C       -4.2560    -5.1060     0.8840 C.ar  1 <1>  -0.1500 
 20 O        0.2410     7.0340     0.6330 O.3   1 <1>  -0.5600 
 21 C        2.3040     7.0960    -0.4830 C.3   1 <1>  -0.2400 
 22 C       -1.5990     7.3180     2.0610 C.3   1 <1>  -0.2400 
 23 C       -1.7980    -5.4970    -0.0940 C.ar  1 <1>   0.1600 
 24 C       -3.4930    -6.0930     1.4710 C.ar  1 <1>  -0.1500 
 25 C       -2.2280    -6.2850     0.9590 C.ar  1 <1>  -0.1500 
 26 H       -2.3590     2.6250    -1.3130 H     1 <1>   0.0800 
 27 H       -2.5350     2.6580     0.4380 H     1 <1>   0.0800 
 28 H       -4.6060     1.0730     0.1320 H     1 <1>   0.0800 
 29 H       -4.3590     1.0890    -1.6180 H     1 <1>   0.0800 
 30 H       -2.4520    -1.7860    -1.4350 H     1 <1>   0.0800 
 31 H       -2.1460    -1.7770     0.2920 H     1 <1>   0.0800 
 32 H        0.1010     2.5780    -1.0440 H     1 <1>   0.0800 
 33 H       -0.0770     2.6970     0.6810 H     1 <1>   0.0800 
 34 H       -5.3000    -0.9780    -1.8950 H     1 <1>   0.0800 
 35 H       -4.3940    -1.9050     0.8310 H     1 <1>   0.0800 
 36 H       -1.0860     4.7300    -1.2220 H     1 <1>   0.4500 
 37 H       -6.1680    -0.6540     0.7790 H     1 <1>   0.4000 
 38 H       -4.3980    -3.2870    -1.8740 H     1 <1>   0.0800 
 39 H       -5.6150    -3.4910    -0.6560 H     1 <1>   0.0800 
 40 H        1.4560     4.6560     0.2740 H     1 <1>   0.0800 
 41 H        1.2670     4.6610    -1.4560 H     1 <1>   0.0800 
 42 H       -2.2660     4.8650     0.8480 H     1 <1>   0.0800 
 43 H       -0.7630     4.7820     1.7210 H     1 <1>   0.0800 
 44 H        0.3650     6.9590    -1.3750 H     1 <1>   0.0800 
 45 H       -1.6470     7.0740    -0.0630 H     1 <1>   0.0800 
 46 H       -5.2500    -4.9130     1.2430 H     1 <1>   0.1500 
 47 H        2.8230     6.7420     0.3900 H     1 <1>   0.0800 
 48 H        2.2890     8.1720    -0.4680 H     1 <1>   0.0800 
 49 H        2.8440     6.7810    -1.3580 H     1 <1>   0.0800 
 50 H       -1.0370     6.9610     2.9070 H     1 <1>   0.0800 
 51 H       -2.6390     7.0940     2.2160 H     1 <1>   0.0800 
 52 H       -1.4910     8.3860     1.9970 H     1 <1>   0.0800 
 53 H       -0.8080    -5.6560    -0.4860 H     1 <1>   0.1500 
 54 H       -3.8670    -6.6850     2.2880 H     1 <1>   0.1500 
 55 H       -1.5800    -7.0370     1.3700 H     1 <1>   0.1500 
@<TRIPOS>BOND
  1   1   2  2   
  2   2   3  am  
  3   2   4  1   
  4   3   5  1   
  5   3   6  1   
  6   4   7  1   
  7   4  26  1   
  8   4  27  1   
  9   5   8  1   
 10   5  28  1   
 11   5  29  1   
 12   6   9  1   
 13   6  30  1   
 14   6  31  1   
 15   7  10  1   
 16   7  32  1   
 17   7  33  1   
 18   8   9  1   
 19   8  11  1   
 20   8  34  1   
 21   9  12  1   
 22   9  35  1   
 23  10  13  1   
 24  10  14  1   
 25  10  36  1   
 26  11  37  1   
 27  12  15  1   
 28  12  38  1   
 29  12  39  1   
 30  13  16  1   
 31  13  40  1   
 32  13  41  1   
 33  14  17  1   
 34  14  42  1   
 35  14  43  1   
 36  15  18  ar  
 37  15  19  ar  
 38  16  20  1   
 39  16  21  1   
 40  16  44  1   
 41  17  20  1   
 42  17  22  1   
 43  17  45  1   
 44  18  23  ar  
 45  19  24  ar  
 46  19  46  1   
 47  21  47  1   
 48  21  48  1   
 49  21  49  1   
 50  22  50  1   
 51  22  51  1   
 52  22  52  1   
 53  23  25  ar  
 54  23  53  1   
 55  24  25  ar  
 56  24  54  1   
 57  25  55  1   
@<TRIPOS>SUBSTRUCTURE
  1 ****   2 GROUP 4 **** **** 0

# MOE 2024.06 (io_trps.svl 2023.06)
