@<TRIPOS>MOLECULE
NONAME
18 17 1 0 0 
SMALL
USER_CHARGES


@<TRIPOS>ATOM
  1 O       -0.7270     1.3390     2.2440 O.co2 1 <1>  -0.9000 
  2 C       -1.0800     1.4360     1.0510 C.2   1 <1>   0.9060 
  3 O       -0.2070     1.6960     0.1970 O.co2 1 <1>  -0.9000 
  4 C       -2.5660     1.1390     0.5760 C.3   1 <1>   0.1740 
  5 O       -3.4540     0.9270     1.6390 O.3   1 <1>  -0.6800 
  6 C       -3.1630     2.3380    -0.2020 C.3   1 <1>  -0.2660 
  7 C       -2.5600    -0.1600    -0.2760 C.3   1 <1>  -0.2660 
  8 C       -3.3660     3.6120     0.5950 C.2   1 <1>   0.9060 
  9 C       -3.8410    -0.6820    -0.8970 C.2   1 <1>   0.9060 
 10 O       -3.8080     3.5570     1.7540 O.co2 1 <1>  -0.9000 
 11 O       -3.1940     4.7050     0.0350 O.co2 1 <1>  -0.9000 
 12 O       -4.2740    -0.1660    -1.9390 O.co2 1 <1>  -0.9000 
 13 O       -4.3440    -1.7320    -0.4660 O.co2 1 <1>  -0.9000 
 14 H       -3.6240     1.8380     2.0090 H     1 <1>   0.4000 
 15 H       -4.1150     2.0660    -0.6100 H     1 <1>   0.0800 
 16 H       -2.5140     2.5670    -1.0240 H     1 <1>   0.0800 
 17 H       -2.1520    -0.9460     0.3290 H     1 <1>   0.0800 
 18 H       -1.8770    -0.0100    -1.0870 H     1 <1>   0.0800 
@<TRIPOS>BOND
  1   1   2  ar  
  2   2   3  ar  
  3   2   4  1   
  4   4   5  1   
  5   4   6  1   
  6   4   7  1   
  7   5  14  1   
  8   6   8  1   
  9   6  15  1   
 10   6  16  1   
 11   7   9  1   
 12   7  17  1   
 13   7  18  1   
 14   8  10  ar  
 15   8  11  ar  
 16   9  12  ar  
 17   9  13  ar  
@<TRIPOS>SUBSTRUCTURE
  1 ****   4 GROUP 4 **** **** 0

# MOE 2024.06 (io_trps.svl 2023.06)
