@<TRIPOS>MOLECULE
NONAME
50 52 1 0 0 
SMALL
USER_CHARGES


@<TRIPOS>ATOM
  1 N       -2.1500     0.1230    -0.4580 N.ar  1 <1>  -0.6200 
  2 C       -2.8160     0.4600     0.6310 C.ar  1 <1>   0.7200 
  3 C       -1.8430    -1.1460    -0.5670 C.ar  1 <1>   0.1600 
  4 N       -3.1980    -0.3250     1.6220 N.ar  1 <1>  -0.6200 
  5 N       -3.1600     1.7420     0.7350 N.pl3 1 <1>  -0.9000 
  6 C       -2.2160    -2.0730     0.3820 C.ar  1 <1>  -0.1430 
  7 C       -2.8670    -1.5850     1.4950 C.ar  1 <1>   0.1600 
  8 C       -1.9190    -3.5540     0.2480 C.3   1 <1>   0.4860 
  9 N       -2.6440    -4.2170    -0.8980 N.4   1 <1>  -0.9590 
 10 C       -4.1460    -4.1500    -0.9850 C.3   1 <1>   0.4230 
 11 C       -2.2210    -5.6520    -0.9660 C.3   1 <1>   0.2630 
 12 C       -4.6090    -2.9370    -1.7880 C.3   1 <1>  -0.1600 
 13 C       -4.9120    -4.1440     0.3430 C.3   1 <1>  -0.1600 
 14 C       -5.9050    -2.4270    -1.1400 C.3   1 <1>  -0.0800 
 15 C       -6.1260    -3.2150     0.1520 C.3   1 <1>  -0.0800 
 16 C       -5.8800    -0.9380    -0.7650 C.3   1 <1>  -0.1600 
 17 C       -6.3560    -2.1870     1.2770 C.3   1 <1>  -0.1600 
 18 C       -6.4740    -0.8000     0.6390 C.3   1 <1>   0.4230 
 19 N       -7.8970    -0.3380     0.6270 N.4   1 <1>  -0.9590 
 20 C       -8.8220    -1.1400    -0.2370 C.3   1 <1>   0.2630 
 21 C       -7.9720     1.1150     0.2740 C.3   1 <1>   0.2630 
 22 H       -1.2880    -1.4410    -1.4430 H     1 <1>   0.1500 
 23 H       -3.2250     2.0860     1.6910 H     1 <1>   0.4000 
 24 H       -2.6390     2.3580     0.1120 H     1 <1>   0.4000 
 25 H       -3.1320    -2.2420     2.3070 H     1 <1>   0.1500 
 26 H       -2.1810    -4.0490     1.1700 H     1 <1>   0.0800 
 27 H       -0.8560    -3.6750     0.1140 H     1 <1>   0.0800 
 28 H       -2.3040    -3.7680    -1.7590 H     1 <1>   0.4500 
 29 H       -4.4930    -5.0110    -1.5350 H     1 <1>   0.0800 
 30 H       -2.5640    -6.1880    -0.0950 H     1 <1>   0.0800 
 31 H       -1.1460    -5.7290    -1.0160 H     1 <1>   0.0800 
 32 H       -2.6340    -6.1250    -1.8430 H     1 <1>   0.0800 
 33 H       -3.8660    -2.1680    -1.8240 H     1 <1>   0.0800 
 34 H       -4.8130    -3.2380    -2.8010 H     1 <1>   0.0800 
 35 H       -5.2560    -5.1400     0.5620 H     1 <1>   0.0800 
 36 H       -4.3150    -3.8230     1.1680 H     1 <1>   0.0800 
 37 H       -6.7340    -2.6110    -1.8050 H     1 <1>   0.0800 
 38 H       -7.0130    -3.8180     0.0350 H     1 <1>   0.0800 
 39 H       -6.3770    -0.3340    -1.5010 H     1 <1>   0.0800 
 40 H       -4.8680    -0.5920    -0.7090 H     1 <1>   0.0800 
 41 H       -5.5170    -2.1620     1.9460 H     1 <1>   0.0800 
 42 H       -7.2210    -2.4400     1.8650 H     1 <1>   0.0800 
 43 H       -5.8840    -0.0970     1.2080 H     1 <1>   0.0800 
 44 H       -8.2290    -0.4250     1.5990 H     1 <1>   0.4500 
 45 H       -8.5310    -1.0600    -1.2720 H     1 <1>   0.0800 
 46 H       -9.8330    -0.7810    -0.1360 H     1 <1>   0.0800 
 47 H       -8.7970    -2.1780     0.0490 H     1 <1>   0.0800 
 48 H       -7.6460     1.2750    -0.7400 H     1 <1>   0.0800 
 49 H       -7.3410     1.6930     0.9310 H     1 <1>   0.0800 
 50 H       -8.9840     1.4730     0.3700 H     1 <1>   0.0800 
@<TRIPOS>BOND
  1   1   2  ar  
  2   1   3  ar  
  3   2   4  ar  
  4   2   5  1   
  5   3   6  ar  
  6   3  22  1   
  7   4   7  ar  
  8   5  23  1   
  9   5  24  1   
 10   6   7  ar  
 11   6   8  1   
 12   7  25  1   
 13   8   9  1   
 14   8  26  1   
 15   8  27  1   
 16   9  10  1   
 17   9  11  1   
 18   9  28  1   
 19  10  12  1   
 20  10  13  1   
 21  10  29  1   
 22  11  30  1   
 23  11  31  1   
 24  11  32  1   
 25  12  14  1   
 26  12  33  1   
 27  12  34  1   
 28  13  15  1   
 29  13  35  1   
 30  13  36  1   
 31  14  15  1   
 32  14  16  1   
 33  14  37  1   
 34  15  17  1   
 35  15  38  1   
 36  16  18  1   
 37  16  39  1   
 38  16  40  1   
 39  17  18  1   
 40  17  41  1   
 41  17  42  1   
 42  18  19  1   
 43  18  43  1   
 44  19  20  1   
 45  19  21  1   
 46  19  44  1   
 47  20  45  1   
 48  20  46  1   
 49  20  47  1   
 50  21  48  1   
 51  21  49  1   
 52  21  50  1   
@<TRIPOS>SUBSTRUCTURE
  1 ****  16 GROUP 4 **** **** 0

# MOE 2024.06 (io_trps.svl 2023.06)
