@<TRIPOS>MOLECULE
NONAME
45 47 1 0 0 
SMALL
USER_CHARGES


@<TRIPOS>ATOM
  1 CL      -4.0760     2.9350    -2.5950 Cl    1 <1>  -0.1770 
  2 C       -3.7330     1.7860    -1.3230 C.ar  1 <1>   0.1770 
  3 C       -2.5110     1.1360    -1.2630 C.ar  1 <1>   0.1770 
  4 C       -4.7090     1.5310    -0.3770 C.ar  1 <1>  -0.1500 
  5 CL      -1.2710     1.4470    -2.4550 Cl    1 <1>  -0.1770 
  6 C       -2.2560     0.2250    -0.2550 C.ar  1 <1>  -0.1500 
  7 C       -4.4640     0.6130     0.6360 C.ar  1 <1>  -0.1440 
  8 C       -3.2350    -0.0330     0.6930 C.ar  1 <1>  -0.1500 
  9 C       -5.5320     0.3100     1.6840 C.3   1 <1>   0.0450 
 10 C       -5.8290    -1.1770     1.8140 C.2   1 <1>   0.5690 
 11 O       -5.4890    -1.7340     2.8310 O.2   1 <1>  -0.5700 
 12 N       -6.4620    -1.8530     0.8080 N.am  1 <1>  -0.6600 
 13 C       -6.7880    -1.3390    -0.5470 C.3   1 <1>   0.1400 
 14 C       -6.8200    -3.2850     0.9040 C.3   1 <1>   0.1400 
 15 C       -7.4740    -2.5010    -1.2790 C.3   1 <1>   0.2000 
 16 C       -6.9660    -3.7480    -0.5470 C.3   1 <1>  -0.0800 
 17 O       -8.8610    -2.4130    -1.1120 O.3   1 <1>  -0.5600 
 18 C       -7.8550    -4.9940    -0.7090 C.3   1 <1>   0.0200 
 19 C       -9.5250    -1.6310    -2.0550 C.3   1 <1>   0.0400 
 20 C       -7.2350    -6.2510    -0.1210 C.2   1 <1>  -0.0400 
 21 O       -7.9320    -7.3560    -0.1260 O.3   1 <1>  -0.0190 
 22 C       -6.0460    -6.5240     0.4420 C.2   1 <1>  -0.1500 
 23 N       -7.2790    -8.3490     0.4040 N.2   1 <1>  -0.4100 
 24 C       -6.1380    -7.8760     0.7570 C.2   1 <1>   0.1080 
 25 C       -5.0510    -8.6860     1.4250 C.3   1 <1>  -0.0590 
 26 H       -5.6480     2.0530    -0.4420 H     1 <1>   0.1500 
 27 H       -1.3040    -0.2730    -0.2120 H     1 <1>   0.1500 
 28 H       -3.0350    -0.7430     1.4800 H     1 <1>   0.1500 
 29 H       -6.4480     0.8200     1.4520 H     1 <1>   0.0800 
 30 H       -5.1940     0.6760     2.6370 H     1 <1>   0.0800 
 31 H       -7.4240    -0.4750    -0.4920 H     1 <1>   0.0800 
 32 H       -5.8720    -1.0890    -1.0530 H     1 <1>   0.0800 
 33 H       -6.0640    -3.8380     1.4340 H     1 <1>   0.0800 
 34 H       -7.7590    -3.3720     1.4250 H     1 <1>   0.0800 
 35 H       -7.2410    -2.5300    -2.3310 H     1 <1>   0.0800 
 36 H       -5.9830    -3.9700    -0.9230 H     1 <1>   0.0800 
 37 H       -8.0400    -5.1660    -1.7540 H     1 <1>   0.0800 
 38 H       -8.8070    -4.8280    -0.2340 H     1 <1>   0.0800 
 39 H      -10.5720    -1.6290    -1.8070 H     1 <1>   0.0800 
 40 H       -9.3880    -2.0610    -3.0330 H     1 <1>   0.0800 
 41 H       -9.1450    -0.6260    -2.0260 H     1 <1>   0.0800 
 42 H       -5.1990    -5.8910     0.6270 H     1 <1>   0.1500 
 43 H       -4.8150    -8.2600     2.3830 H     1 <1>   0.0800 
 44 H       -4.1700    -8.6900     0.8110 H     1 <1>   0.0800 
 45 H       -5.3820    -9.6990     1.5670 H     1 <1>   0.0800 
@<TRIPOS>BOND
  1   1   2  1   
  2   2   3  ar  
  3   2   4  ar  
  4   3   5  1   
  5   3   6  ar  
  6   4   7  ar  
  7   4  26  1   
  8   6   8  ar  
  9   6  27  1   
 10   7   8  ar  
 11   7   9  1   
 12   8  28  1   
 13   9  10  1   
 14   9  29  1   
 15   9  30  1   
 16  10  11  2   
 17  10  12  am  
 18  12  13  1   
 19  12  14  1   
 20  13  15  1   
 21  13  31  1   
 22  13  32  1   
 23  14  16  1   
 24  14  33  1   
 25  14  34  1   
 26  15  16  1   
 27  15  17  1   
 28  15  35  1   
 29  16  18  1   
 30  16  36  1   
 31  17  19  1   
 32  18  20  1   
 33  18  37  1   
 34  18  38  1   
 35  19  39  1   
 36  19  40  1   
 37  19  41  1   
 38  20  21  1   
 39  20  22  2   
 40  21  23  1   
 41  22  24  1   
 42  22  42  1   
 43  23  24  2   
 44  24  25  1   
 45  25  43  1   
 46  25  44  1   
 47  25  45  1   
@<TRIPOS>SUBSTRUCTURE
  1 ****  12 GROUP 4 **** **** 0

# MOE 2024.06 (io_trps.svl 2023.06)
