@<TRIPOS>MOLECULE
NONAME
31 32 1 0 0 
SMALL
USER_CHARGES


@<TRIPOS>ATOM
  1 O       -9.3970     1.3360     1.7520 O.2   1 <1>  -0.5700 
  2 C       -9.4350     1.3950     0.5510 C.2   1 <1>   0.6590 
  3 O       -9.8890     2.4500    -0.1060 O.3   1 <1>  -0.4300 
  4 C       -8.9740     0.2330    -0.2970 C.3   1 <1>  -0.0190 
  5 C      -10.3570     3.6030     0.5660 C.3   1 <1>   0.0400 
  6 C       -7.9420    -0.5820     0.4770 C.3   1 <1>   0.5660 
  7 C      -10.0910    -0.7640    -0.6240 C.3   1 <1>  -0.1600 
  8 N       -8.2540    -2.0070     0.2370 N.4   1 <1>  -0.9060 
  9 C       -6.5100    -0.3340     0.0370 C.ar  1 <1>  -0.1440 
 10 C       -9.3810    -2.1040    -0.7220 C.3   1 <1>   0.3430 
 11 C       -5.6060     0.1760     0.9590 C.ar  1 <1>  -0.1500 
 12 C       -6.0760    -0.6100    -1.2560 C.ar  1 <1>  -0.1500 
 13 C       -4.2900     0.4010     0.5980 C.ar  1 <1>  -0.1500 
 14 C       -4.7590    -0.3850    -1.6140 C.ar  1 <1>  -0.1500 
 15 C       -3.8650     0.1190    -0.6870 C.ar  1 <1>  -0.1500 
 16 H       -8.5410     0.6170    -1.2030 H     1 <1>   0.0800 
 17 H      -10.6750     4.3220    -0.1680 H     1 <1>   0.0800 
 18 H       -9.5580     4.0110     1.1610 H     1 <1>   0.0800 
 19 H      -11.1860     3.3300     1.1970 H     1 <1>   0.0800 
 20 H       -8.0270    -0.3820     1.5340 H     1 <1>   0.0800 
 21 H      -10.6040    -0.5150    -1.5370 H     1 <1>   0.0800 
 22 H      -10.8110    -0.8040     0.1770 H     1 <1>   0.0800 
 23 H       -7.3980    -2.4580    -0.1130 H     1 <1>   0.4500 
 24 H       -8.4940    -2.4420     1.1340 H     1 <1>   0.4500 
 25 H       -8.9970    -2.2350    -1.7220 H     1 <1>   0.0800 
 26 H      -10.0400    -2.9260    -0.4850 H     1 <1>   0.0800 
 27 H       -5.9110     0.4090     1.9670 H     1 <1>   0.1500 
 28 H       -6.7450    -0.9950    -2.0060 H     1 <1>   0.1500 
 29 H       -3.5920     0.7970     1.3170 H     1 <1>   0.1500 
 30 H       -4.4220    -0.5970    -2.6150 H     1 <1>   0.1500 
 31 H       -2.8400     0.2950    -0.9660 H     1 <1>   0.1500 
@<TRIPOS>BOND
  1   1   2  2   
  2   2   3  1   
  3   2   4  1   
  4   3   5  1   
  5   4   6  1   
  6   4   7  1   
  7   4  16  1   
  8   5  17  1   
  9   5  18  1   
 10   5  19  1   
 11   6   8  1   
 12   6   9  1   
 13   6  20  1   
 14   7  10  1   
 15   7  21  1   
 16   7  22  1   
 17   8  10  1   
 18   8  23  1   
 19   8  24  1   
 20   9  11  ar  
 21   9  12  ar  
 22  10  25  1   
 23  10  26  1   
 24  11  13  ar  
 25  11  27  1   
 26  12  14  ar  
 27  12  28  1   
 28  13  15  ar  
 29  13  29  1   
 30  14  15  ar  
 31  14  30  1   
 32  15  31  1   
@<TRIPOS>SUBSTRUCTURE
  1 ****   6 GROUP 4 **** **** 0

# MOE 2024.06 (io_trps.svl 2023.06)
