@<TRIPOS>MOLECULE
NONAME
48 50 1 0 0 
SMALL
USER_CHARGES


@<TRIPOS>ATOM
  1 O       -0.6200    -0.3200     0.0660 O.2   1 <1>  -0.5700 
  2 C       -1.6320     0.3410    -0.0740 C.2   1 <1>   0.5440 
  3 N       -1.5100     1.6890    -0.3410 N.am  1 <1>  -0.6600 
  4 C       -2.9180    -0.3040     0.0560 C.ar  1 <1>   0.0860 
  5 C       -2.5230     2.7100     0.0630 C.3   1 <1>   0.1400 
  6 C       -0.2100     2.2950    -0.7660 C.3   1 <1>   0.1400 
  7 C       -3.1360    -1.2460     1.0590 C.ar  1 <1>   0.1600 
  8 C       -3.9870    -0.0400    -0.7950 C.ar  1 <1>  -0.1500 
  9 C       -1.9080     3.7310     1.0380 C.3   1 <1>   0.1200 
 10 C        0.2680     3.3280     0.2650 C.3   1 <1>   0.1200 
 11 N       -4.2680    -1.8880     1.2930 N.ar  1 <1>  -0.6200 
 12 C       -5.1700    -0.7020    -0.5730 C.ar  1 <1>  -0.1500 
 13 O       -0.7320     4.2760     0.5110 O.3   1 <1>  -0.5600 
 14 C       -5.2760    -1.6120     0.4750 C.ar  1 <1>   0.4100 
 15 N       -6.4590    -2.2630     0.6910 N.pl3 1 <1>  -0.8690 
 16 C       -6.5650    -3.4830     1.5290 C.3   1 <1>   0.2090 
 17 C       -7.9030    -4.1890     1.2680 C.3   1 <1>   0.2090 
 18 N       -8.1530    -4.3360    -0.1930 N.pl3 1 <1>  -0.8690 
 19 C       -8.8850    -5.4130    -0.5990 C.ar  1 <1>   0.4100 
 20 N       -8.1400    -6.3450    -1.1650 N.ar  1 <1>  -0.6200 
 21 C      -10.2730    -5.5040    -0.4270 C.ar  1 <1>  -0.1440 
 22 C       -8.7860    -7.4240    -1.5700 C.ar  1 <1>   0.1600 
 23 C      -10.9190    -6.6430    -0.8540 C.ar  1 <1>  -0.1500 
 24 C      -11.0800    -4.3770     0.2040 C.3   1 <1>  -0.0970 
 25 C      -10.1470    -7.6250    -1.4400 C.ar  1 <1>  -0.1500 
 26 H       -3.3670     2.2430     0.5400 H     1 <1>   0.0800 
 27 H       -2.8750     3.2270    -0.8130 H     1 <1>   0.0800 
 28 H       -0.3420     2.7810    -1.7170 H     1 <1>   0.0800 
 29 H        0.5440     1.5370    -0.8880 H     1 <1>   0.0800 
 30 H       -2.3080    -1.4750     1.7100 H     1 <1>   0.1500 
 31 H       -3.8790     0.6600    -1.6050 H     1 <1>   0.1500 
 32 H       -1.6790     3.2630     1.9800 H     1 <1>   0.0800 
 33 H       -2.5960     4.5390     1.2120 H     1 <1>   0.0800 
 34 H        1.1330     3.8490    -0.1040 H     1 <1>   0.0800 
 35 H        0.5250     2.8430     1.1920 H     1 <1>   0.0800 
 36 H       -6.0240    -0.5300    -1.2000 H     1 <1>   0.1500 
 37 H       -7.1530    -2.2660    -0.0660 H     1 <1>   0.4000 
 38 H       -6.4850    -3.2130     2.5680 H     1 <1>   0.0800 
 39 H       -5.7550    -4.1530     1.2930 H     1 <1>   0.0800 
 40 H       -8.6940    -3.6080     1.7060 H     1 <1>   0.0800 
 41 H       -7.8950    -5.1580     1.7380 H     1 <1>   0.0800 
 42 H       -7.2510    -4.3950    -0.6780 H     1 <1>   0.4000 
 43 H       -8.1940    -8.1950    -2.0330 H     1 <1>   0.1500 
 44 H      -11.9820    -6.7690    -0.7450 H     1 <1>   0.1500 
 45 H      -10.7270    -3.4260    -0.1520 H     1 <1>   0.0800 
 46 H      -10.9800    -4.4090     1.2730 H     1 <1>   0.0800 
 47 H      -12.1210    -4.4650    -0.0480 H     1 <1>   0.0800 
 48 H      -10.5980    -8.5340    -1.7950 H     1 <1>   0.1500 
@<TRIPOS>BOND
  1   1   2  2   
  2   2   3  am  
  3   2   4  1   
  4   3   5  1   
  5   3   6  1   
  6   4   7  ar  
  7   4   8  ar  
  8   5   9  1   
  9   5  26  1   
 10   5  27  1   
 11   6  10  1   
 12   6  28  1   
 13   6  29  1   
 14   7  11  ar  
 15   7  30  1   
 16   8  12  ar  
 17   8  31  1   
 18   9  13  1   
 19   9  32  1   
 20   9  33  1   
 21  10  13  1   
 22  10  34  1   
 23  10  35  1   
 24  11  14  ar  
 25  12  14  ar  
 26  12  36  1   
 27  14  15  1   
 28  15  16  1   
 29  15  37  1   
 30  16  17  1   
 31  16  38  1   
 32  16  39  1   
 33  17  18  1   
 34  17  40  1   
 35  17  41  1   
 36  18  19  1   
 37  18  42  1   
 38  19  20  ar  
 39  19  21  ar  
 40  20  22  ar  
 41  21  23  ar  
 42  21  24  1   
 43  22  25  ar  
 44  22  43  1   
 45  23  25  ar  
 46  23  44  1   
 47  24  45  1   
 48  24  46  1   
 49  24  47  1   
 50  25  48  1   
@<TRIPOS>SUBSTRUCTURE
  1 ****  14 GROUP 4 **** **** 0

# MOE 2024.06 (io_trps.svl 2023.06)
