@<TRIPOS>MOLECULE
NONAME
45 47 1 0 0 
SMALL
USER_CHARGES


@<TRIPOS>ATOM
  1 N        3.0600     1.0750    -2.1020 N.1   1 <1>  -0.5570 
  2 C        3.2780     0.0870    -1.5800 C.1   1 <1>   0.3570 
  3 C        3.6930    -1.0150    -0.6430 C.3   1 <1>   0.3440 
  4 C        3.1290    -2.3610    -1.1360 C.ar  1 <1>  -0.1440 
  5 C        3.1180    -0.7170     0.7630 C.3   1 <1>  -0.1600 
  6 C        5.2320    -0.9800    -0.5210 C.3   1 <1>  -0.1600 
  7 C        3.9170    -3.4980    -1.3070 C.ar  1 <1>  -0.1500 
  8 C        1.7680    -2.4610    -1.4150 C.ar  1 <1>  -0.1500 
  9 C        3.9220     0.3030     1.5860 C.3   1 <1>   0.3430 
 10 C        5.7650     0.3880    -0.0660 C.3   1 <1>   0.3430 
 11 C        3.3610    -4.6880    -1.7410 C.ar  1 <1>  -0.1500 
 12 C        1.2130    -3.6510    -1.8500 C.ar  1 <1>  -0.1500 
 13 N        4.7330     1.1800     0.6950 N.4   1 <1>  -0.9590 
 14 C        2.0090    -4.7670    -2.0130 C.ar  1 <1>  -0.1500 
 15 C        5.3580     2.3220     1.4560 C.3   1 <1>   0.3430 
 16 C        5.7100     3.5380     0.5830 C.3   1 <1>   0.0960 
 17 N        6.7950     3.2070    -0.3500 N.pl3 1 <1>   0.3140 
 18 N        7.8950     2.5680     0.0910 N.2   1 <1>  -0.7070 
 19 C        6.8390     3.3920    -1.6880 C.2   1 <1>  -0.3320 
 20 C        8.6330     2.4050    -0.9650 C.2   1 <1>   0.1390 
 21 C        8.0200     2.8930    -2.1100 C.2   1 <1>  -0.1500 
 22 C        5.7550     4.0480    -2.5300 C.3   1 <1>  -0.0600 
 23 H        3.0810    -1.6310     1.3300 H     1 <1>   0.0800 
 24 H        2.1010    -0.3750     0.6770 H     1 <1>   0.0800 
 25 H        5.6860    -1.2230    -1.4670 H     1 <1>   0.0800 
 26 H        5.5570    -1.7180     0.1900 H     1 <1>   0.0800 
 27 H        4.9730    -3.4990    -1.1120 H     1 <1>   0.1500 
 28 H        1.1120    -1.6140    -1.3030 H     1 <1>   0.1500 
 29 H        4.5840    -0.2250     2.2550 H     1 <1>   0.0800 
 30 H        3.2460     0.8940     2.1830 H     1 <1>   0.0800 
 31 H        6.0640     0.9480    -0.9380 H     1 <1>   0.0800 
 32 H        6.6480     0.2470     0.5400 H     1 <1>   0.0800 
 33 H        3.9810    -5.5590    -1.8710 H     1 <1>   0.1500 
 34 H        0.1590    -3.7090    -2.0630 H     1 <1>   0.1500 
 35 H        4.0940     1.5930    -0.0090 H     1 <1>   0.4500 
 36 H        1.5780    -5.6940    -2.3520 H     1 <1>   0.1500 
 37 H        6.2500     1.9850     1.9610 H     1 <1>   0.0800 
 38 H        4.6660     2.6570     2.2110 H     1 <1>   0.0800 
 39 H        6.0590     4.3370     1.2110 H     1 <1>   0.0800 
 40 H        4.8500     3.8790     0.0410 H     1 <1>   0.0800 
 41 H        9.6070     1.9410    -0.9480 H     1 <1>   0.1500 
 42 H        8.4280     2.8660    -3.1060 H     1 <1>   0.1500 
 43 H        5.5720     5.0530    -2.1930 H     1 <1>   0.0800 
 44 H        4.8390     3.4840    -2.4790 H     1 <1>   0.0800 
 45 H        6.0640     4.0910    -3.5600 H     1 <1>   0.0800 
@<TRIPOS>BOND
  1   1   2  3   
  2   2   3  1   
  3   3   4  1   
  4   3   5  1   
  5   3   6  1   
  6   4   7  ar  
  7   4   8  ar  
  8   5   9  1   
  9   5  23  1   
 10   5  24  1   
 11   6  10  1   
 12   6  25  1   
 13   6  26  1   
 14   7  11  ar  
 15   7  27  1   
 16   8  12  ar  
 17   8  28  1   
 18   9  13  1   
 19   9  29  1   
 20   9  30  1   
 21  10  13  1   
 22  10  31  1   
 23  10  32  1   
 24  11  14  ar  
 25  11  33  1   
 26  12  14  ar  
 27  12  34  1   
 28  13  15  1   
 29  13  35  1   
 30  14  36  1   
 31  15  16  1   
 32  15  37  1   
 33  15  38  1   
 34  16  17  1   
 35  16  39  1   
 36  16  40  1   
 37  17  18  1   
 38  17  19  1   
 39  18  20  2   
 40  19  21  2   
 41  19  22  1   
 42  20  21  1   
 43  20  41  1   
 44  21  42  1   
 45  22  43  1   
 46  22  44  1   
 47  22  45  1   
@<TRIPOS>SUBSTRUCTURE
  1 ****   6 GROUP 4 **** **** 0

# MOE 2024.06 (io_trps.svl 2023.06)
