@<TRIPOS>MOLECULE
NONAME
46 49 1 0 0 
SMALL
USER_CHARGES


@<TRIPOS>ATOM
  1 O       -0.6160     0.0870    -2.6600 O.2   1 <1>  -0.5700 
  2 C       -1.2710     0.7470    -1.8880 C.2   1 <1>   0.5690 
  3 N       -2.1560     0.1550    -1.0210 N.am  1 <1>  -0.6600 
  4 C       -1.0700     2.2500    -1.9230 C.3   1 <1>   0.0440 
  5 C       -2.2930    -1.3350    -0.9360 C.3   1 <1>   0.1400 
  6 C       -3.0060     0.8760    -0.0190 C.3   1 <1>   0.1400 
  7 C       -0.4130     2.7480    -0.6500 C.ar  1 <1>   0.1660 
  8 C       -3.7690    -1.7650    -0.8650 C.3   1 <1>   0.3440 
  9 C       -4.4410     0.3120     0.0150 C.3   1 <1>   0.2950 
 10 N       -1.0920     3.6390     0.0590 N.ar  1 <1>  -0.6200 
 11 C        0.8380     2.2640    -0.2940 C.ar  1 <1>  -0.1500 
 12 O       -4.4240    -1.0770     0.1690 O.3   1 <1>  -0.5600 
 13 C       -3.8800    -3.2690    -0.6310 C.ar  1 <1>  -0.1440 
 14 C       -5.2440     0.8940     1.1810 C.3   1 <1>  -0.1950 
 15 C       -0.4990     4.0650     1.1640 C.ar  1 <1>   0.1600 
 16 C        1.4410     2.7140     0.8610 C.ar  1 <1>  -0.1500 
 17 C       -3.9470    -4.1270    -1.7200 C.ar  1 <1>  -0.1500 
 18 C       -3.8990    -3.8040     0.6500 C.ar  1 <1>  -0.1500 
 19 C       -6.7390     0.9170     1.1590 C.3   1 <1>  -0.2000 
 20 C       -5.9630     2.2000     1.0490 C.3   1 <1>  -0.2000 
 21 C        0.7440     3.6420     1.6030 C.ar  1 <1>  -0.1500 
 22 C       -4.0320    -5.4960    -1.5320 C.ar  1 <1>  -0.1500 
 23 C       -3.9840    -5.1720     0.8400 C.ar  1 <1>  -0.1500 
 24 C       -4.0500    -6.0200    -0.2510 C.ar  1 <1>  -0.1500 
 25 H       -0.4400     2.5010    -2.7560 H     1 <1>   0.0800 
 26 H       -2.0150     2.7330    -2.0780 H     1 <1>   0.0800 
 27 H       -1.8350    -1.8060    -1.7880 H     1 <1>   0.0800 
 28 H       -1.7830    -1.6860    -0.0560 H     1 <1>   0.0800 
 29 H       -2.5610     0.7740     0.9560 H     1 <1>   0.0800 
 30 H       -3.0650     1.9240    -0.2430 H     1 <1>   0.0800 
 31 H       -4.2610    -1.5160    -1.7890 H     1 <1>   0.0800 
 32 H       -4.9410     0.5390    -0.9120 H     1 <1>   0.0800 
 33 H        1.3350     1.5390    -0.9140 H     1 <1>   0.1500 
 34 H       -4.7740     0.6920     2.1290 H     1 <1>   0.1000 
 35 H       -1.0330     4.7920     1.7520 H     1 <1>   0.1500 
 36 H        2.4100     2.3580     1.1660 H     1 <1>   0.1500 
 37 H       -3.9320    -3.7360    -2.7220 H     1 <1>   0.1500 
 38 H       -3.8520    -3.1520     1.5060 H     1 <1>   0.1500 
 39 H       -7.2470     0.5330     0.2910 H     1 <1>   0.1000 
 40 H       -7.2660     0.6990     2.0720 H     1 <1>   0.1000 
 41 H       -5.9660     2.8770     1.8860 H     1 <1>   0.1000 
 42 H       -5.9630     2.7150     0.1030 H     1 <1>   0.1000 
 43 H        1.1570     4.0360     2.5140 H     1 <1>   0.1500 
 44 H       -4.0830    -6.1540    -2.3810 H     1 <1>   0.1500 
 45 H       -4.0010    -5.5750     1.8370 H     1 <1>   0.1500 
 46 H       -4.1160    -7.0830    -0.1040 H     1 <1>   0.1500 
@<TRIPOS>BOND
  1   1   2  2   
  2   2   3  am  
  3   2   4  1   
  4   3   5  1   
  5   3   6  1   
  6   4   7  1   
  7   4  25  1   
  8   4  26  1   
  9   5   8  1   
 10   5  27  1   
 11   5  28  1   
 12   6   9  1   
 13   6  29  1   
 14   6  30  1   
 15   7  10  ar  
 16   7  11  ar  
 17   8  12  1   
 18   8  13  1   
 19   8  31  1   
 20   9  12  1   
 21   9  14  1   
 22   9  32  1   
 23  10  15  ar  
 24  11  16  ar  
 25  11  33  1   
 26  13  17  ar  
 27  13  18  ar  
 28  14  19  1   
 29  14  20  1   
 30  14  34  1   
 31  15  21  ar  
 32  15  35  1   
 33  16  21  ar  
 34  16  36  1   
 35  17  22  ar  
 36  17  37  1   
 37  18  23  ar  
 38  18  38  1   
 39  19  20  1   
 40  19  39  1   
 41  19  40  1   
 42  20  41  1   
 43  20  42  1   
 44  21  43  1   
 45  22  24  ar  
 46  22  44  1   
 47  23  24  ar  
 48  23  45  1   
 49  24  46  1   
@<TRIPOS>SUBSTRUCTURE
  1 ****   3 GROUP 4 **** **** 0

# MOE 2024.06 (io_trps.svl 2023.06)
