@<TRIPOS>MOLECULE
NONAME
54 56 1 0 0 
SMALL
USER_CHARGES


@<TRIPOS>ATOM
  1 O        2.3810    -0.5040    -2.0060 O.2   1 <1>  -0.5700 
  2 C        1.4470    -0.7260    -1.2650 C.2   1 <1>   0.5690 
  3 N        1.2900     0.0080    -0.1350 N.am  1 <1>  -0.7300 
  4 C        0.4370    -1.8570    -1.5960 C.3   1 <1>   0.3410 
  5 C        2.2780     0.9440     0.3950 C.3   1 <1>   0.4950 
  6 O       -0.4410    -2.0110    -0.4700 O.3   1 <1>  -0.3630 
  7 C        1.1870    -3.1680    -1.9260 C.3   1 <1>  -0.2400 
  8 C       -0.4420    -1.4460    -2.7850 C.3   1 <1>  -0.2400 
  9 C        3.1640     0.1850     1.3890 C.2   1 <1>   0.0060 
 10 C        1.5200     2.1710     0.9390 C.3   1 <1>  -0.1950 
 11 C       -0.8130    -3.2240     0.0030 C.ar  1 <1>   0.0830 
 12 N        2.8200    -0.2530     2.5550 N.2   1 <1>  -0.5650 
 13 N        4.4370    -0.1400     1.1160 N.pl3 1 <1>   0.3140 
 14 C        2.0420     3.0090     2.0660 C.3   1 <1>  -0.2000 
 15 C        0.7700     2.2260     2.2350 C.3   1 <1>  -0.2000 
 16 C       -0.2010    -3.7500     1.1400 C.ar  1 <1>  -0.1430 
 17 C       -1.8190    -3.9190    -0.6490 C.ar  1 <1>  -0.1500 
 18 C        3.9460    -0.8380     2.9720 C.2   1 <1>   0.3660 
 19 N        4.9400    -0.8000     2.1510 N.2   1 <1>  -0.7070 
 20 C        5.2490     0.1100    -0.0980 C.3   1 <1>   0.0960 
 21 C       -0.5800    -5.0150     1.5850 C.ar  1 <1>  -0.1430 
 22 C        0.8620    -2.9190     1.8590 C.3   1 <1>  -0.0970 
 23 C       -2.1980    -5.1660    -0.1960 C.ar  1 <1>  -0.1500 
 24 C        5.8460     1.5230    -0.0860 C.3   1 <1>  -0.2400 
 25 C       -1.5750    -5.7110     0.9120 C.ar  1 <1>  -0.1500 
 26 C        0.0600    -5.6760     2.7980 C.3   1 <1>  -0.0970 
 27 H        0.5700    -0.2710     0.5360 H     1 <1>   0.3700 
 28 H        2.8890     1.2970    -0.4160 H     1 <1>   0.0800 
 29 H        1.7790    -3.4830    -1.0860 H     1 <1>   0.0800 
 30 H        1.8510    -3.0060    -2.7550 H     1 <1>   0.0800 
 31 H        0.5060    -3.9520    -2.2020 H     1 <1>   0.0800 
 32 H       -0.9960    -0.5570    -2.5440 H     1 <1>   0.0800 
 33 H       -1.1230    -2.2330    -3.0480 H     1 <1>   0.0800 
 34 H        0.1770    -1.2370    -3.6390 H     1 <1>   0.0800 
 35 H        1.0760     2.7120     0.1220 H     1 <1>   0.1000 
 36 H        1.9810     4.0810     1.9900 H     1 <1>   0.1000 
 37 H        2.9010     2.6870     2.6310 H     1 <1>   0.1000 
 38 H        0.7750     1.3760     2.8950 H     1 <1>   0.1000 
 39 H       -0.1650     2.7580     2.2670 H     1 <1>   0.1000 
 40 H       -2.3030    -3.4850    -1.5030 H     1 <1>   0.1500 
 41 H        3.9970    -1.3080     3.9410 H     1 <1>   0.1500 
 42 H        4.6380    -0.0370    -0.9690 H     1 <1>   0.0800 
 43 H        6.0410    -0.6170    -0.1230 H     1 <1>   0.0800 
 44 H        0.5200    -1.9060     1.9700 H     1 <1>   0.0800 
 45 H        1.7740    -2.9110     1.2910 H     1 <1>   0.0800 
 46 H        1.0790    -3.2840     2.8430 H     1 <1>   0.0800 
 47 H       -2.9740    -5.7130    -0.7020 H     1 <1>   0.1500 
 48 H        5.0720     2.2690    -0.0730 H     1 <1>   0.0800 
 49 H        6.4460     1.6700    -0.9670 H     1 <1>   0.0800 
 50 H        6.4760     1.6490     0.7770 H     1 <1>   0.0800 
 51 H       -1.8770    -6.6870     1.2500 H     1 <1>   0.1500 
 52 H        1.1300    -5.6890     2.6900 H     1 <1>   0.0800 
 53 H       -0.2750    -6.6910     2.9100 H     1 <1>   0.0800 
 54 H       -0.1990    -5.1340     3.6900 H     1 <1>   0.0800 
@<TRIPOS>BOND
  1   1   2  2   
  2   2   3  am  
  3   2   4  1   
  4   3   5  1   
  5   3  27  1   
  6   4   6  1   
  7   4   7  1   
  8   4   8  1   
  9   5   9  1   
 10   5  10  1   
 11   5  28  1   
 12   6  11  1   
 13   7  29  1   
 14   7  30  1   
 15   7  31  1   
 16   8  32  1   
 17   8  33  1   
 18   8  34  1   
 19   9  12  2   
 20   9  13  1   
 21  10  14  1   
 22  10  15  1   
 23  10  35  1   
 24  11  16  ar  
 25  11  17  ar  
 26  12  18  1   
 27  13  19  1   
 28  13  20  1   
 29  14  15  1   
 30  14  36  1   
 31  14  37  1   
 32  15  38  1   
 33  15  39  1   
 34  16  21  ar  
 35  16  22  1   
 36  17  23  ar  
 37  17  40  1   
 38  18  19  2   
 39  18  41  1   
 40  20  24  1   
 41  20  42  1   
 42  20  43  1   
 43  21  25  ar  
 44  21  26  1   
 45  22  44  1   
 46  22  45  1   
 47  22  46  1   
 48  23  25  ar  
 49  23  47  1   
 50  24  48  1   
 51  24  49  1   
 52  24  50  1   
 53  25  51  1   
 54  26  52  1   
 55  26  53  1   
 56  26  54  1   
@<TRIPOS>SUBSTRUCTURE
  1 ****   3 GROUP 4 **** **** 0

# MOE 2024.06 (io_trps.svl 2023.06)
