@<TRIPOS>MOLECULE
NONAME
51 53 1 0 0 
SMALL
USER_CHARGES


@<TRIPOS>ATOM
  1 F       -2.2460    -0.9900    -1.5810 F     1 <1>  -0.1900 
  2 C       -2.2320    -2.2260    -1.1500 C.ar  1 <1>   0.1900 
  3 C       -1.0380    -2.9080    -0.8900 C.ar  1 <1>   0.0830 
  4 C       -3.4620    -2.8240    -0.9610 C.ar  1 <1>  -0.1500 
  5 O        0.2310    -2.4270    -1.0340 O.3   1 <1>  -0.3630 
  6 C       -1.1320    -4.2140    -0.4380 C.ar  1 <1>  -0.1500 
  7 C       -3.5180    -4.1270    -0.5040 C.ar  1 <1>  -0.1500 
  8 C        0.5130    -1.1250    -1.4950 C.3   1 <1>   0.0400 
  9 C       -2.3570    -4.8550    -0.2370 C.ar  1 <1>   0.0530 
 10 C       -2.3920    -6.2160     0.2390 C.2   1 <1>   0.0870 
 11 O       -1.5280    -6.5950     1.1550 O.3   1 <1>  -0.0190 
 12 C       -3.1520    -7.3060    -0.0510 C.2   1 <1>  -0.2330 
 13 N       -1.6540    -7.8530     1.4890 N.2   1 <1>  -0.4100 
 14 C       -2.6100    -8.2980     0.7590 C.2   1 <1>   0.3720 
 15 C       -4.2810    -7.5450    -0.8920 C.2   1 <1>   1.0330 
 16 N       -3.0660    -9.6080     0.7720 N.pl3 1 <1>  -0.8520 
 17 O       -5.2280    -6.7480    -0.9580 O.co2 1 <1>  -0.9000 
 18 O       -4.4540    -8.6570    -1.4300 O.co2 1 <1>  -0.9000 
 19 C       -3.9040    -9.9650     1.9330 C.3   1 <1>   0.2090 
 20 C       -5.3760    -9.6430     1.6550 C.3   1 <1>  -0.1600 
 21 C       -5.9150   -10.4490     0.4690 C.3   1 <1>   0.3430 
 22 N       -7.3050   -10.0430     0.1120 N.4   1 <1>  -0.9590 
 23 C       -7.8980   -11.0490    -0.8060 C.3   1 <1>   0.3430 
 24 C       -7.3000    -8.6950    -0.5490 C.3   1 <1>   0.3430 
 25 C       -9.3560   -10.6870    -1.1040 C.3   1 <1>  -0.1600 
 26 C       -8.7340    -8.2580    -0.8520 C.3   1 <1>  -0.1600 
 27 C       -9.4700    -9.2870    -1.7200 C.3   1 <1>  -0.1600 
 28 H       -4.3660    -2.2790    -1.1670 H     1 <1>   0.1500 
 29 H       -0.2240    -4.7540    -0.2370 H     1 <1>   0.1500 
 30 H       -4.4780    -4.5850    -0.3480 H     1 <1>   0.1500 
 31 H        1.5800    -1.0030    -1.5220 H     1 <1>   0.0800 
 32 H        0.0820    -0.4110    -0.8150 H     1 <1>   0.0800 
 33 H        0.1080    -1.0090    -2.4850 H     1 <1>   0.0800 
 34 H       -3.5750    -9.7170    -0.1270 H     1 <1>   0.4000 
 35 H       -3.5660    -9.4150     2.7980 H     1 <1>   0.0800 
 36 H       -3.7800   -11.0140     2.1420 H     1 <1>   0.0800 
 37 H       -5.4570    -8.5860     1.4770 H     1 <1>   0.0800 
 38 H       -5.9470    -9.8800     2.5340 H     1 <1>   0.0800 
 39 H       -5.9000   -11.4930     0.7320 H     1 <1>   0.0800 
 40 H       -5.2770   -10.3260    -0.3890 H     1 <1>   0.0800 
 41 H       -7.8750    -9.9720     0.9590 H     1 <1>   0.4500 
 42 H       -7.8540   -12.0290    -0.3600 H     1 <1>   0.0800 
 43 H       -7.3370   -11.0670    -1.7270 H     1 <1>   0.0800 
 44 H       -6.7310    -8.7340    -1.4650 H     1 <1>   0.0800 
 45 H       -6.8350    -7.9620     0.0890 H     1 <1>   0.0800 
 46 H       -9.9300   -10.7390    -0.1960 H     1 <1>   0.0800 
 47 H       -9.7640   -11.4090    -1.7890 H     1 <1>   0.0800 
 48 H       -8.6960    -7.3140    -1.3680 H     1 <1>   0.0800 
 49 H       -9.2610    -8.1010     0.0720 H     1 <1>   0.0800 
 50 H      -10.5050    -9.0080    -1.8230 H     1 <1>   0.0800 
 51 H       -9.0300    -9.2930    -2.7040 H     1 <1>   0.0800 
@<TRIPOS>BOND
  1   1   2  1   
  2   2   3  ar  
  3   2   4  ar  
  4   3   5  1   
  5   3   6  ar  
  6   4   7  ar  
  7   4  28  1   
  8   5   8  1   
  9   6   9  ar  
 10   6  29  1   
 11   7   9  ar  
 12   7  30  1   
 13   8  31  1   
 14   8  32  1   
 15   8  33  1   
 16   9  10  1   
 17  10  11  1   
 18  10  12  2   
 19  11  13  1   
 20  12  14  1   
 21  12  15  1   
 22  13  14  2   
 23  14  16  1   
 24  15  17  ar  
 25  15  18  ar  
 26  16  19  1   
 27  16  34  1   
 28  19  20  1   
 29  19  35  1   
 30  19  36  1   
 31  20  21  1   
 32  20  37  1   
 33  20  38  1   
 34  21  22  1   
 35  21  39  1   
 36  21  40  1   
 37  22  23  1   
 38  22  24  1   
 39  22  41  1   
 40  23  25  1   
 41  23  42  1   
 42  23  43  1   
 43  24  26  1   
 44  24  44  1   
 45  24  45  1   
 46  25  27  1   
 47  25  46  1   
 48  25  47  1   
 49  26  27  1   
 50  26  48  1   
 51  26  49  1   
 52  27  50  1   
 53  27  51  1   
@<TRIPOS>SUBSTRUCTURE
  1 ****  15 GROUP 4 **** **** 0

# MOE 2024.06 (io_trps.svl 2023.06)
