@<TRIPOS>MOLECULE
NONAME
45 47 1 0 0 
SMALL
USER_CHARGES


@<TRIPOS>ATOM
  1 O        3.0970    -0.9160     2.2570 O.2   1 <1>  -0.5700 
  2 C        2.7100    -1.0140     1.1070 C.2   1 <1>   0.5440 
  3 N        2.5110     0.1320     0.3740 N.am  1 <1>  -0.4940 
  4 C        2.4520    -2.3290     0.5440 C.ar  1 <1>   0.0860 
  5 C        2.7090     1.5040     0.6580 C.2   1 <1>  -0.0880 
  6 C        2.3710    -2.5990    -0.8400 C.ar  1 <1>   0.3920 
  7 C        2.2690    -3.4100     1.4050 C.ar  1 <1>  -0.1500 
  8 N        2.5120     2.1620     1.8350 N.pl3 1 <1>   0.3140 
  9 C        3.1090     2.4390    -0.2360 C.2   1 <1>  -0.1810 
 10 O        2.5610    -1.5840    -1.7160 O.3   1 <1>  -0.3630 
 11 N        2.1200    -3.7940    -1.3790 N.ar  1 <1>  -0.6200 
 12 C        2.0160    -4.6400     0.8500 C.ar  1 <1>  -0.1430 
 13 N        2.7650     3.4840     1.7080 N.2   1 <1>  -0.7070 
 14 C        2.0000     1.6370     3.1070 C.3   1 <1>   0.0160 
 15 C        3.1220     3.6370     0.4740 C.2   1 <1>   0.1080 
 16 C        3.4730     2.2280    -1.6960 C.3   1 <1>   0.0210 
 17 C        2.5240    -1.7770    -3.1190 C.3   1 <1>   0.0400 
 18 C        1.9510    -4.7680    -0.5120 C.ar  1 <1>   0.1670 
 19 C        1.7860    -5.9600     1.5460 C.3   1 <1>  -0.0170 
 20 C        3.5010     4.9910    -0.0810 C.3   1 <1>  -0.0590 
 21 C        2.2280     2.3250    -2.5790 C.3   1 <1>  -0.2400 
 22 C        1.6610    -6.1910    -0.9130 C.3   1 <1>  -0.0160 
 23 C        1.2970    -6.8830     0.4150 C.3   1 <1>  -0.1600 
 24 H        2.3490    -0.0580    -0.6180 H     1 <1>   0.3700 
 25 H        2.3260    -3.2860     2.4740 H     1 <1>   0.1500 
 26 H        1.2680     0.8780     2.9100 H     1 <1>   0.0800 
 27 H        1.5520     2.4380     3.6640 H     1 <1>   0.0800 
 28 H        2.8170     1.2210     3.6650 H     1 <1>   0.0800 
 29 H        3.9250     1.2590    -1.8130 H     1 <1>   0.0800 
 30 H        4.1970     2.9640    -1.9990 H     1 <1>   0.0800 
 31 H        2.7090    -0.8330    -3.5990 H     1 <1>   0.0800 
 32 H        1.5520    -2.1480    -3.3940 H     1 <1>   0.0800 
 33 H        3.2860    -2.4860    -3.3930 H     1 <1>   0.0800 
 34 H        1.0530    -5.8720     2.3290 H     1 <1>   0.0800 
 35 H        2.7160    -6.3180     1.9550 H     1 <1>   0.0800 
 36 H        3.0620     5.1310    -1.0510 H     1 <1>   0.0800 
 37 H        4.5700     5.0620    -0.1560 H     1 <1>   0.0800 
 38 H        3.1460     5.7640     0.5750 H     1 <1>   0.0800 
 39 H        1.5100     1.5780    -2.2910 H     1 <1>   0.0800 
 40 H        2.4910     2.1770    -3.6110 H     1 <1>   0.0800 
 41 H        1.7740     3.2950    -2.4730 H     1 <1>   0.0800 
 42 H        2.5440    -6.6230    -1.3470 H     1 <1>   0.0800 
 43 H        0.8490    -6.2340    -1.6180 H     1 <1>   0.0800 
 44 H        0.2270    -6.9740     0.4780 H     1 <1>   0.0800 
 45 H        1.7350    -7.8630     0.4850 H     1 <1>   0.0800 
@<TRIPOS>BOND
  1   1   2  2   
  2   2   3  am  
  3   2   4  1   
  4   3   5  1   
  5   3  24  1   
  6   4   6  ar  
  7   4   7  ar  
  8   5   8  1   
  9   5   9  2   
 10   6  10  1   
 11   6  11  ar  
 12   7  12  ar  
 13   7  25  1   
 14   8  13  1   
 15   8  14  1   
 16   9  15  1   
 17   9  16  1   
 18  10  17  1   
 19  11  18  ar  
 20  12  18  ar  
 21  12  19  1   
 22  13  15  2   
 23  14  26  1   
 24  14  27  1   
 25  14  28  1   
 26  15  20  1   
 27  16  21  1   
 28  16  29  1   
 29  16  30  1   
 30  17  31  1   
 31  17  32  1   
 32  17  33  1   
 33  18  22  1   
 34  19  23  1   
 35  19  34  1   
 36  19  35  1   
 37  20  36  1   
 38  20  37  1   
 39  20  38  1   
 40  21  39  1   
 41  21  40  1   
 42  21  41  1   
 43  22  23  1   
 44  22  42  1   
 45  22  43  1   
 46  23  44  1   
 47  23  45  1   
@<TRIPOS>SUBSTRUCTURE
  1 ****   2 GROUP 4 **** **** 0

# MOE 2024.06 (io_trps.svl 2023.06)
