@<TRIPOS>MOLECULE
NONAME
42 44 1 0 0 
SMALL
USER_CHARGES


@<TRIPOS>ATOM
  1 O       -0.7450     0.9800     0.4620 O.co2 1 <1>  -0.9000 
  2 C       -1.1370     2.1490     0.6470 C.2   1 <1>   1.0330 
  3 O       -2.3390     2.3250     0.9340 O.co2 1 <1>  -0.9000 
  4 C       -0.2560     3.3140     0.5380 C.2   1 <1>  -0.0060 
  5 N        1.0890     3.3490     0.2410 N.2   1 <1>  -0.5650 
  6 C       -0.6510     4.5880     0.7200 C.2   1 <1>  -0.0100 
  7 C        1.3860     4.6030     0.2650 C.2   1 <1>   0.5620 
  8 O        0.3680     5.3890     0.5490 O.3   1 <1>  -0.2800 
  9 N        2.6330     5.1530     0.0180 N.pl3 1 <1>  -0.8220 
 10 C        2.7670     6.5990    -0.3110 C.3   1 <1>   0.2090 
 11 C        3.7230     4.2650    -0.4650 C.3   1 <1>   0.2090 
 12 C        4.1220     7.1380     0.1650 C.3   1 <1>   0.1000 
 13 C        5.0760     4.7970     0.0210 C.3   1 <1>  -0.1600 
 14 C        4.2790     8.5890    -0.2570 C.2   1 <1>   0.2980 
 15 C        5.2860     6.2720    -0.3570 C.3   1 <1>  -0.1600 
 16 O        4.2780     8.8830    -1.5350 O.3   1 <1>  -0.0190 
 17 N        4.4130     9.5790     0.5310 N.2   1 <1>  -0.5650 
 18 N        4.4250    10.1710    -1.5600 N.2   1 <1>  -0.4100 
 19 C        4.5070    10.5630    -0.3520 C.2   1 <1>   0.3350 
 20 C        4.6870    12.0070     0.0820 C.3   1 <1>   0.0210 
 21 C        6.1530    12.4780     0.0110 C.3   1 <1>  -0.0800 
 22 C        7.0560    11.6920     0.9740 C.3   1 <1>  -0.2400 
 23 C        6.2490    13.9760     0.3260 C.3   1 <1>  -0.2400 
 24 H       -1.6220     4.9790     0.9660 H     1 <1>   0.1500 
 25 H        1.9810     7.1650     0.1590 H     1 <1>   0.0800 
 26 H        2.6760     6.7200    -1.3770 H     1 <1>   0.0800 
 27 H        3.6980     4.2320    -1.5410 H     1 <1>   0.0800 
 28 H        3.5800     3.2630    -0.0940 H     1 <1>   0.0800 
 29 H        4.1240     7.1050     1.2400 H     1 <1>   0.0800 
 30 H        5.8610     4.1970    -0.4030 H     1 <1>   0.0800 
 31 H        5.1200     4.6840     1.0900 H     1 <1>   0.0800 
 32 H        6.2130     6.6260     0.0580 H     1 <1>   0.0800 
 33 H        5.3460     6.3560    -1.4290 H     1 <1>   0.0800 
 34 H        4.3110    12.1210     1.0830 H     1 <1>   0.0800 
 35 H        4.0870    12.6210    -0.5650 H     1 <1>   0.0800 
 36 H        6.5100    12.3200    -0.9940 H     1 <1>   0.0800 
 37 H        6.7110    11.7930     1.9870 H     1 <1>   0.0800 
 38 H        8.0680    12.0540     0.9170 H     1 <1>   0.0800 
 39 H        7.0640    10.6470     0.7180 H     1 <1>   0.0800 
 40 H        5.9050    14.1790     1.3250 H     1 <1>   0.0800 
 41 H        5.6530    14.5450    -0.3660 H     1 <1>   0.0800 
 42 H        7.2680    14.3100     0.2410 H     1 <1>   0.0800 
@<TRIPOS>BOND
  1   1   2  ar  
  2   2   3  ar  
  3   2   4  1   
  4   4   5  1   
  5   4   6  2   
  6   5   7  2   
  7   6   8  1   
  8   6  24  1   
  9   7   8  1   
 10   7   9  1   
 11   9  10  1   
 12   9  11  1   
 13  10  12  1   
 14  10  25  1   
 15  10  26  1   
 16  11  13  1   
 17  11  27  1   
 18  11  28  1   
 19  12  14  1   
 20  12  15  1   
 21  12  29  1   
 22  13  15  1   
 23  13  30  1   
 24  13  31  1   
 25  14  16  1   
 26  14  17  2   
 27  15  32  1   
 28  15  33  1   
 29  16  18  1   
 30  17  19  1   
 31  18  19  2   
 32  19  20  1   
 33  20  21  1   
 34  20  34  1   
 35  20  35  1   
 36  21  22  1   
 37  21  23  1   
 38  21  36  1   
 39  22  37  1   
 40  22  38  1   
 41  22  39  1   
 42  23  40  1   
 43  23  41  1   
 44  23  42  1   
@<TRIPOS>SUBSTRUCTURE
  1 ****  10 GROUP 4 **** **** 0

# MOE 2024.06 (io_trps.svl 2023.06)
