@<TRIPOS>MOLECULE
NONAME
40 42 1 0 0 
SMALL
USER_CHARGES


@<TRIPOS>ATOM
  1 O        0.5500    -0.3030     0.5900 O.3   1 <1>  -0.6800 
  2 C        1.4300    -0.0860    -0.4690 C.3   1 <1>   0.2000 
  3 C        2.5510    -1.1280    -0.4590 C.3   1 <1>  -0.0800 
  4 C        2.1550     1.2510    -0.2660 C.3   1 <1>   0.2090 
  5 C        3.5980    -0.5270     0.4750 C.3   1 <1>   0.2090 
  6 C        2.1480    -2.5670    -0.0880 C.3   1 <1>  -0.0170 
  7 N        3.5070     0.9420     0.2880 N.pl3 1 <1>  -0.8380 
  8 C        3.3500    -3.4980    -0.1190 C.ar  1 <1>  -0.1440 
  9 C        4.5750     1.5320    -0.3510 C.ar  1 <1>   0.4100 
 10 C        3.9590    -3.9450     1.0370 C.ar  1 <1>  -0.1500 
 11 C        3.8980    -3.9410    -1.3050 C.ar  1 <1>  -0.1500 
 12 N        4.7910     1.1920    -1.6170 N.ar  1 <1>  -0.6200 
 13 C        5.3660     2.4360     0.3480 C.ar  1 <1>  -0.1500 
 14 C        5.0550    -4.7860     0.9520 C.ar  1 <1>   0.1600 
 15 C        4.9980    -4.7820    -1.2800 C.ar  1 <1>   0.1600 
 16 C        5.8300     1.7720    -2.1940 C.ar  1 <1>   0.1600 
 17 C        6.4440     3.0370    -0.2620 C.ar  1 <1>  -0.1440 
 18 N        5.5900    -5.2160    -0.1790 N.ar  1 <1>  -0.6200 
 19 C        6.6710     2.6810    -1.5780 C.ar  1 <1>  -0.1500 
 20 C        7.3350     4.0270     0.4640 C.3   1 <1>   0.2630 
 21 O        8.5900     3.4630     0.5730 O.3   1 <1>  -0.6800 
 22 H        0.0310    -1.1150     0.4440 H     1 <1>   0.4000 
 23 H        0.8640    -0.0920    -1.3840 H     1 <1>   0.0800 
 24 H        2.9890    -1.1390    -1.4420 H     1 <1>   0.0800 
 25 H        1.6100     1.8870     0.4100 H     1 <1>   0.0800 
 26 H        2.2560     1.7520    -1.2130 H     1 <1>   0.0800 
 27 H        4.5850    -0.8940     0.2420 H     1 <1>   0.0800 
 28 H        3.3660    -0.7580     1.5000 H     1 <1>   0.0800 
 29 H        1.4080    -2.9250    -0.7830 H     1 <1>   0.0800 
 30 H        1.7130    -2.5890     0.8960 H     1 <1>   0.0800 
 31 H        3.5940    -3.6460     2.0030 H     1 <1>   0.1500 
 32 H        3.4840    -3.6370    -2.2490 H     1 <1>   0.1500 
 33 H        5.1070     2.6450     1.3690 H     1 <1>   0.1500 
 34 H        5.5170    -5.1240     1.8640 H     1 <1>   0.1500 
 35 H        5.4130    -5.1160    -2.2160 H     1 <1>   0.1500 
 36 H        6.0230     1.5070    -3.2190 H     1 <1>   0.1500 
 37 H        7.4980     3.1050    -2.1200 H     1 <1>   0.1500 
 38 H        6.9670     4.2290     1.4550 H     1 <1>   0.0800 
 39 H        7.4230     4.9500    -0.0830 H     1 <1>   0.0800 
 40 H        8.4880     2.5170     0.7960 H     1 <1>   0.4000 
@<TRIPOS>BOND
  1   1   2  1   
  2   1  22  1   
  3   2   3  1   
  4   2   4  1   
  5   2  23  1   
  6   3   5  1   
  7   3   6  1   
  8   3  24  1   
  9   4   7  1   
 10   4  25  1   
 11   4  26  1   
 12   5   7  1   
 13   5  27  1   
 14   5  28  1   
 15   6   8  1   
 16   6  29  1   
 17   6  30  1   
 18   7   9  1   
 19   8  10  ar  
 20   8  11  ar  
 21   9  12  ar  
 22   9  13  ar  
 23  10  14  ar  
 24  10  31  1   
 25  11  15  ar  
 26  11  32  1   
 27  12  16  ar  
 28  13  17  ar  
 29  13  33  1   
 30  14  18  ar  
 31  14  34  1   
 32  15  18  ar  
 33  15  35  1   
 34  16  19  ar  
 35  16  36  1   
 36  17  19  ar  
 37  17  20  1   
 38  19  37  1   
 39  20  21  1   
 40  20  38  1   
 41  20  39  1   
 42  21  40  1   
@<TRIPOS>SUBSTRUCTURE
  1 ****   5 GROUP 4 **** **** 0

# MOE 2024.06 (io_trps.svl 2023.06)
