@<TRIPOS>MOLECULE
NONAME
39 40 1 0 0 
SMALL
USER_CHARGES


@<TRIPOS>ATOM
  1 O       -0.6860     0.3980    -0.7430 O.2   1 <1>  -0.5700 
  2 C        0.1180    -0.1520    -0.0230 C.2   1 <1>   0.5690 
  3 N        1.3550     0.3580     0.2440 N.am  1 <1>  -0.4930 
  4 C       -0.2610    -1.4990     0.5890 C.3   1 <1>   0.2610 
  5 C        1.9570     1.5530    -0.2170 C.2   1 <1>   0.0630 
  6 O        0.6150    -1.7940     1.6700 O.3   1 <1>  -0.2170 
  7 C       -0.0370    -2.6630    -0.3760 C.3   1 <1>  -0.0990 
  8 C        1.4420     2.5410    -1.0570 C.2   1 <1>   0.1390 
  9 C        3.2000     1.9820     0.0840 C.2   1 <1>  -0.3020 
 10 N        1.4520    -2.7680     1.3720 N.2   1 <1>  -0.5130 
 11 C        1.1560    -3.2990     0.2730 C.2   1 <1>   0.3280 
 12 N        2.2900     3.5050    -1.2660 N.2   1 <1>  -0.7070 
 13 N        3.3830     3.1600    -0.5570 N.pl3 1 <1>   0.3140 
 14 C        1.8660    -4.4600    -0.4320 C.3   1 <1>  -0.0190 
 15 C        4.5980     4.0190    -0.5310 C.3   1 <1>   0.1760 
 16 C        0.9680    -5.7050    -0.4960 C.3   1 <1>  -0.2400 
 17 C        3.1970    -4.8260     0.2450 C.3   1 <1>  -0.2400 
 18 C        5.8010     3.2780    -1.1320 C.3   1 <1>  -0.2400 
 19 C        4.9010     4.4910     0.8980 C.3   1 <1>  -0.2400 
 20 H        1.9210    -0.2110     0.8820 H     1 <1>   0.3700 
 21 H       -1.2670    -1.4720     0.9650 H     1 <1>   0.0800 
 22 H        0.1740    -2.3260    -1.3750 H     1 <1>   0.0800 
 23 H       -0.8820    -3.3260    -0.3750 H     1 <1>   0.0800 
 24 H        0.4550     2.5120    -1.4870 H     1 <1>   0.1500 
 25 H        3.9490     1.5280     0.7030 H     1 <1>   0.1500 
 26 H        2.0870    -4.1460    -1.4370 H     1 <1>   0.0800 
 27 H        4.3880     4.8810    -1.1400 H     1 <1>   0.0800 
 28 H        0.7010    -6.0230     0.4970 H     1 <1>   0.0800 
 29 H        1.4820    -6.5120    -0.9880 H     1 <1>   0.0800 
 30 H        0.0670    -5.4980    -1.0460 H     1 <1>   0.0800 
 31 H        3.0270    -5.1570     1.2550 H     1 <1>   0.0800 
 32 H        3.8460    -3.9690     0.2750 H     1 <1>   0.0800 
 33 H        3.6950    -5.6110    -0.2960 H     1 <1>   0.0800 
 34 H        6.0550     2.4160    -0.5410 H     1 <1>   0.0800 
 35 H        6.6540     3.9310    -1.1680 H     1 <1>   0.0800 
 36 H        5.5720     2.9650    -2.1360 H     1 <1>   0.0800 
 37 H        5.1340     3.6580     1.5360 H     1 <1>   0.0800 
 38 H        4.0500     5.0160     1.2970 H     1 <1>   0.0800 
 39 H        5.7390     5.1640     0.8930 H     1 <1>   0.0800 
@<TRIPOS>BOND
  1   1   2  2   
  2   2   3  am  
  3   2   4  1   
  4   3   5  1   
  5   3  20  1   
  6   4   6  1   
  7   4   7  1   
  8   4  21  1   
  9   5   8  1   
 10   5   9  2   
 11   6  10  1   
 12   7  11  1   
 13   7  22  1   
 14   7  23  1   
 15   8  12  2   
 16   8  24  1   
 17   9  13  1   
 18   9  25  1   
 19  10  11  2   
 20  11  14  1   
 21  12  13  1   
 22  13  15  1   
 23  14  16  1   
 24  14  17  1   
 25  14  26  1   
 26  15  18  1   
 27  15  19  1   
 28  15  27  1   
 29  16  28  1   
 30  16  29  1   
 31  16  30  1   
 32  17  31  1   
 33  17  32  1   
 34  17  33  1   
 35  18  34  1   
 36  18  35  1   
 37  18  36  1   
 38  19  37  1   
 39  19  38  1   
 40  19  39  1   
@<TRIPOS>SUBSTRUCTURE
  1 ****   3 GROUP 4 **** **** 0

# MOE 2024.06 (io_trps.svl 2023.06)
