@<TRIPOS>MOLECULE
NONAME
41 43 1 0 0 
SMALL
USER_CHARGES


@<TRIPOS>ATOM
  1 S       -2.4730    -3.0220    -2.1950 S.3   1 <1>  -0.0900 
  2 C       -2.7690    -2.2110    -0.6800 C.2   1 <1>  -0.1490 
  3 C       -4.0040    -2.4150    -2.7820 C.2   1 <1>   0.2200 
  4 C       -3.9380    -1.5560    -0.7590 C.2   1 <1>   0.0360 
  5 C       -1.7580    -2.3890     0.4330 C.3   1 <1>   0.0100 
  6 N       -4.6370    -1.7030    -1.9380 N.2   1 <1>  -0.5710 
  7 C       -4.5970    -0.7000     0.3040 C.3   1 <1>  -0.0690 
  8 C       -2.2400    -3.4640     1.4190 C.3   1 <1>   0.1590 
  9 N       -2.3730    -4.8200     0.7970 N.pl3 1 <1>  -0.5970 
 10 C       -3.5580    -5.3110     0.3580 C.cat 1 <1>   1.0680 
 11 C       -1.0790    -5.5560     0.6990 C.3   1 <1>   0.0780 
 12 N       -4.5640    -4.5550    -0.0680 N.pl3 1 <1>  -0.7050 
 13 N       -3.9080    -6.6110     0.2690 N.pl3 1 <1>  -0.7680 
 14 C       -5.5930    -5.3610    -0.4980 C.ar  1 <1>   0.3010 
 15 C       -5.1840    -6.6610    -0.2870 C.ar  1 <1>   0.3010 
 16 C       -3.2360    -7.8190     0.8090 C.3   1 <1>   0.2660 
 17 C       -6.8250    -5.0720    -1.0570 C.ar  1 <1>  -0.1180 
 18 C       -6.0180    -7.7180    -0.6320 C.ar  1 <1>  -0.1180 
 19 C       -7.6840    -6.1110    -1.4090 C.ar  1 <1>  -0.1880 
 20 C       -7.2500    -7.4320    -1.1830 C.ar  1 <1>  -0.1590 
 21 C       -8.9890    -5.8350    -1.9900 C.2   1 <1>   0.9770 
 22 O       -9.3600    -4.6620    -2.1480 O.co2 1 <1>  -0.9030 
 23 O       -9.7370    -6.7660    -2.3300 O.co2 1 <1>  -0.9030 
 24 H       -4.2960    -2.6850    -3.7820 H     1 <1>   0.1410 
 25 H       -1.6590    -1.4570     0.9610 H     1 <1>   0.0700 
 26 H       -0.7900    -2.6340     0.0320 H     1 <1>   0.0700 
 27 H       -3.9930    -0.6450     1.1900 H     1 <1>   0.0700 
 28 H       -5.5580    -1.1090     0.5580 H     1 <1>   0.0700 
 29 H       -4.7400     0.2950    -0.0780 H     1 <1>   0.0700 
 30 H       -3.1920    -3.1620     1.8260 H     1 <1>   0.0700 
 31 H       -1.5480    -3.5210     2.2430 H     1 <1>   0.0700 
 32 H       -0.2970    -4.8910     0.3760 H     1 <1>   0.0700 
 33 H       -1.1470    -6.3520    -0.0210 H     1 <1>   0.0700 
 34 H       -0.8110    -5.9610     1.6600 H     1 <1>   0.0700 
 35 H       -4.4970    -3.5570    -0.2880 H     1 <1>   0.4430 
 36 H       -2.6090    -7.5610     1.6450 H     1 <1>   0.0700 
 37 H       -2.6410    -8.2810     0.0410 H     1 <1>   0.0700 
 38 H       -3.9710    -8.5270     1.1530 H     1 <1>   0.0700 
 39 H       -7.1230    -4.0490    -1.2210 H     1 <1>   0.1410 
 40 H       -5.7140    -8.7350    -0.4780 H     1 <1>   0.1410 
 41 H       -7.9180    -8.2340    -1.4590 H     1 <1>   0.1410 
@<TRIPOS>BOND
  1   1   2  1   
  2   1   3  1   
  3   2   4  2   
  4   2   5  1   
  5   3   6  2   
  6   3  24  1   
  7   4   6  1   
  8   4   7  1   
  9   5   8  1   
 10   5  25  1   
 11   5  26  1   
 12   7  27  1   
 13   7  28  1   
 14   7  29  1   
 15   8   9  1   
 16   8  30  1   
 17   8  31  1   
 18   9  10  ar  
 19   9  11  1   
 20  10  12  ar  
 21  10  13  ar  
 22  11  32  1   
 23  11  33  1   
 24  11  34  1   
 25  12  14  1   
 26  12  35  1   
 27  13  15  1   
 28  13  16  1   
 29  14  15  ar  
 30  14  17  ar  
 31  15  18  ar  
 32  16  36  1   
 33  16  37  1   
 34  16  38  1   
 35  17  19  ar  
 36  17  39  1   
 37  18  20  ar  
 38  18  40  1   
 39  19  20  ar  
 40  19  21  1   
 41  20  41  1   
 42  21  22  ar  
 43  21  23  ar  
@<TRIPOS>SUBSTRUCTURE
  1 ****  12 GROUP 4 **** **** 0

# MOE 2024.06 (io_trps.svl 2023.06)
