@<TRIPOS>MOLECULE
NONAME
50 54 1 0 0 
SMALL
USER_CHARGES


@<TRIPOS>ATOM
  1 O       -0.8380     0.4000     1.4740 O.2   1 <1>  -0.5700 
  2 C       -1.8270     1.0210     1.1360 C.2   1 <1>   0.5440 
  3 N       -3.0710     0.4800     1.3860 N.am  1 <1>  -0.6600 
  4 C       -1.6680     2.2950     0.4700 C.ar  1 <1>   0.0860 
  5 C       -4.2800     0.7680     0.5650 C.3   1 <1>   0.1400 
  6 C       -3.2560    -0.6460     2.3440 C.3   1 <1>   0.1400 
  7 C       -2.4150     3.4040     0.8590 C.ar  1 <1>   0.1600 
  8 C       -0.7700     2.4720    -0.5720 C.ar  1 <1>  -0.1500 
  9 C       -4.6430    -0.4840    -0.2350 C.3   1 <1>  -0.1600 
 10 C       -3.6130    -1.9130     1.5680 C.3   1 <1>  -0.1600 
 11 N       -2.3670     4.6050     0.3040 N.ar  1 <1>  -0.6200 
 12 C       -0.6900     3.7150    -1.1660 C.ar  1 <1>  -0.1430 
 13 C       -4.8410    -1.7020     0.6790 C.3   1 <1>   0.4600 
 14 C       -1.5050     4.7320    -0.6920 C.ar  1 <1>   0.1600 
 15 C        0.2800     3.9590    -2.3100 C.3   1 <1>  -0.0970 
 16 O       -5.9250    -1.4540     1.5490 O.3   1 <1>  -0.5600 
 17 C       -5.1260    -2.9580    -0.1350 C.2   1 <1>  -0.3320 
 18 C       -7.2300    -1.6650     1.0630 C.3   1 <1>   0.1200 
 19 N       -4.2540    -3.5960    -0.9740 N.pl3 1 <1>   0.0330 
 20 C       -6.3000    -3.6190    -0.1270 C.2   1 <1>  -0.1810 
 21 C       -7.4610    -3.1440     0.7100 C.3   1 <1>   0.0210 
 22 C       -4.8990    -4.6870    -1.5050 C.ar  1 <1>  -0.1520 
 23 C       -6.1910    -4.7310    -0.9880 C.ar  1 <1>   0.0000 
 24 C       -4.4550    -5.6580    -2.4060 C.ar  1 <1>  -0.1500 
 25 C       -7.0570    -5.7600    -1.3730 C.ar  1 <1>  -0.1500 
 26 C       -5.3180    -6.6640    -2.7780 C.ar  1 <1>  -0.1500 
 27 C       -6.6190    -6.7150    -2.2610 C.ar  1 <1>  -0.1500 
 28 H       -4.1050     1.5820    -0.1150 H     1 <1>   0.0800 
 29 H       -5.0950     1.0380     1.2170 H     1 <1>   0.0800 
 30 H       -4.0490    -0.4000     3.0300 H     1 <1>   0.0800 
 31 H       -2.3590    -0.8080     2.9180 H     1 <1>   0.0800 
 32 H       -3.0960     3.2820     1.6830 H     1 <1>   0.1500 
 33 H       -0.1540     1.6500    -0.8940 H     1 <1>   0.1500 
 34 H       -3.8470    -0.6880    -0.9260 H     1 <1>   0.0800 
 35 H       -5.5280    -0.3110    -0.8160 H     1 <1>   0.0800 
 36 H       -3.8060    -2.7200     2.2510 H     1 <1>   0.0800 
 37 H       -2.7670    -2.1890     0.9670 H     1 <1>   0.0800 
 38 H       -1.4450     5.7030    -1.1540 H     1 <1>   0.1500 
 39 H        0.4060     3.0640    -2.8930 H     1 <1>   0.0800 
 40 H        1.2370     4.2540    -1.9190 H     1 <1>   0.0800 
 41 H       -0.0850     4.7370    -2.9570 H     1 <1>   0.0800 
 42 H       -7.3770    -1.0480     0.1950 H     1 <1>   0.0800 
 43 H       -7.9190    -1.3550     1.8280 H     1 <1>   0.0800 
 44 H       -3.2840    -3.3310    -1.1690 H     1 <1>   0.2700 
 45 H       -8.3800    -3.2480     0.1620 H     1 <1>   0.0800 
 46 H       -7.5250    -3.7320     1.6080 H     1 <1>   0.0800 
 47 H       -3.4550    -5.6130    -2.7980 H     1 <1>   0.1500 
 48 H       -8.0510    -5.7860    -0.9680 H     1 <1>   0.1500 
 49 H       -5.0000    -7.4240    -3.4710 H     1 <1>   0.1500 
 50 H       -7.2730    -7.5120    -2.5680 H     1 <1>   0.1500 
@<TRIPOS>BOND
  1   1   2  2   
  2   2   3  am  
  3   2   4  1   
  4   3   5  1   
  5   3   6  1   
  6   4   7  ar  
  7   4   8  ar  
  8   5   9  1   
  9   5  28  1   
 10   5  29  1   
 11   6  10  1   
 12   6  30  1   
 13   6  31  1   
 14   7  11  ar  
 15   7  32  1   
 16   8  12  ar  
 17   8  33  1   
 18   9  13  1   
 19   9  34  1   
 20   9  35  1   
 21  10  13  1   
 22  10  36  1   
 23  10  37  1   
 24  11  14  ar  
 25  12  14  ar  
 26  12  15  1   
 27  13  16  1   
 28  13  17  1   
 29  14  38  1   
 30  15  39  1   
 31  15  40  1   
 32  15  41  1   
 33  16  18  1   
 34  17  19  1   
 35  17  20  2   
 36  18  21  1   
 37  18  42  1   
 38  18  43  1   
 39  19  22  1   
 40  19  44  1   
 41  20  21  1   
 42  20  23  1   
 43  21  45  1   
 44  21  46  1   
 45  22  23  ar  
 46  22  24  ar  
 47  23  25  ar  
 48  24  26  ar  
 49  24  47  1   
 50  25  27  ar  
 51  25  48  1   
 52  26  27  ar  
 53  26  49  1   
 54  27  50  1   
@<TRIPOS>SUBSTRUCTURE
  1 ****   9 GROUP 4 **** **** 0

# MOE 2024.06 (io_trps.svl 2023.06)
