@<TRIPOS>MOLECULE
NONAME
52 54 1 0 0 
SMALL
USER_CHARGES


@<TRIPOS>ATOM
  1 CL      -2.6600    -4.1090     4.1880 Cl    1 <1>  -0.1770 
  2 C       -2.4460    -3.7530     2.4910 C.ar  1 <1>   0.1770 
  3 C       -1.1940    -3.4030     2.0040 C.ar  1 <1>  -0.1440 
  4 C       -3.5490    -3.8340     1.6650 C.ar  1 <1>  -0.1500 
  5 C       -1.0720    -3.1230     0.6530 C.ar  1 <1>  -0.1500 
  6 C        0.0170    -3.3270     2.9210 C.3   1 <1>  -0.0960 
  7 C       -3.4310    -3.5750     0.3020 C.ar  1 <1>   0.0860 
  8 C       -2.1750    -3.2060    -0.1790 C.ar  1 <1>  -0.1500 
  9 C       -4.5640    -3.6950    -0.5960 C.2   1 <1>   0.5440 
 10 O       -4.9640    -2.6970    -1.1640 O.2   1 <1>  -0.5700 
 11 N       -5.2050    -4.8960    -0.8340 N.am  1 <1>  -0.6600 
 12 C       -4.6790    -6.2140    -0.3150 C.3   1 <1>   0.3640 
 13 C       -6.5160    -4.8960    -1.5520 C.3   1 <1>   0.1400 
 14 C       -3.2190    -6.3750    -0.7520 C.ar  1 <1>  -0.1430 
 15 C       -5.4690    -7.4920    -0.7490 C.3   1 <1>   0.2000 
 16 C       -6.8320    -6.2460    -2.1920 C.3   1 <1>   0.1200 
 17 C       -2.2430    -6.6920     0.1800 C.ar  1 <1>  -0.1500 
 18 C       -2.8430    -6.1900    -2.0750 C.ar  1 <1>  -0.1500 
 19 O       -6.7650    -7.2320    -1.2160 O.3   1 <1>  -0.5600 
 20 C       -5.6300    -8.5050     0.3960 C.3   1 <1>   0.1200 
 21 C       -0.9140    -6.8140    -0.1840 C.ar  1 <1>   0.0830 
 22 C       -1.5190    -6.3220    -2.4580 C.ar  1 <1>  -0.1500 
 23 O       -4.4140    -8.7950     1.0070 O.3   1 <1>  -0.6800 
 24 O       -0.0530    -7.1100     0.8270 O.3   1 <1>  -0.3630 
 25 C       -0.5370    -6.6400    -1.5230 C.ar  1 <1>   0.0830 
 26 C        1.1570    -6.3960     0.9340 C.3   1 <1>   0.0400 
 27 O        0.7710    -6.7980    -1.8820 O.3   1 <1>  -0.3630 
 28 C        1.1790    -6.8070    -3.2320 C.3   1 <1>   0.0400 
 29 H       -4.5030    -4.1010     2.0800 H     1 <1>   0.1500 
 30 H       -0.1190    -2.8430     0.2380 H     1 <1>   0.1500 
 31 H        0.8980    -3.0440     2.3750 H     1 <1>   0.0800 
 32 H        0.1900    -4.2850     3.3780 H     1 <1>   0.0800 
 33 H       -0.1540    -2.5990     3.6950 H     1 <1>   0.0800 
 34 H       -2.0700    -2.9910    -1.2290 H     1 <1>   0.1500 
 35 H       -4.7100    -6.1680     0.7600 H     1 <1>   0.0800 
 36 H       -7.2950    -4.6460    -0.8540 H     1 <1>   0.0800 
 37 H       -6.5120    -4.1440    -2.3220 H     1 <1>   0.0800 
 38 H       -4.9450    -7.9750    -1.5540 H     1 <1>   0.0800 
 39 H       -6.1410    -6.4750    -2.9850 H     1 <1>   0.0800 
 40 H       -7.8320    -6.2410    -2.5880 H     1 <1>   0.0800 
 41 H       -2.5020    -6.8400     1.2140 H     1 <1>   0.1500 
 42 H       -3.5820    -5.9320    -2.8130 H     1 <1>   0.1500 
 43 H       -6.0470    -9.4260     0.0260 H     1 <1>   0.0800 
 44 H       -6.2800    -8.1000     1.1530 H     1 <1>   0.0800 
 45 H       -1.2780    -6.1680    -3.4920 H     1 <1>   0.1500 
 46 H       -3.7920    -9.2250     0.3850 H     1 <1>   0.4000 
 47 H        1.4770    -6.4310     1.9590 H     1 <1>   0.0800 
 48 H        0.9930    -5.3770     0.6310 H     1 <1>   0.0800 
 49 H        1.8940    -6.8650     0.3070 H     1 <1>   0.0800 
 50 H        2.2330    -7.0180    -3.2600 H     1 <1>   0.0800 
 51 H        0.9890    -5.8400    -3.6610 H     1 <1>   0.0800 
 52 H        0.6400    -7.5770    -3.7550 H     1 <1>   0.0800 
@<TRIPOS>BOND
  1   1   2  1   
  2   2   3  ar  
  3   2   4  ar  
  4   3   5  ar  
  5   3   6  1   
  6   4   7  ar  
  7   4  29  1   
  8   5   8  ar  
  9   5  30  1   
 10   6  31  1   
 11   6  32  1   
 12   6  33  1   
 13   7   8  ar  
 14   7   9  1   
 15   8  34  1   
 16   9  10  2   
 17   9  11  am  
 18  11  12  1   
 19  11  13  1   
 20  12  14  1   
 21  12  15  1   
 22  12  35  1   
 23  13  16  1   
 24  13  36  1   
 25  13  37  1   
 26  14  17  ar  
 27  14  18  ar  
 28  15  19  1   
 29  15  20  1   
 30  15  38  1   
 31  16  19  1   
 32  16  39  1   
 33  16  40  1   
 34  17  21  ar  
 35  17  41  1   
 36  18  22  ar  
 37  18  42  1   
 38  20  23  1   
 39  20  43  1   
 40  20  44  1   
 41  21  24  1   
 42  21  25  ar  
 43  22  25  ar  
 44  22  45  1   
 45  23  46  1   
 46  24  26  1   
 47  25  27  1   
 48  26  47  1   
 49  26  48  1   
 50  26  49  1   
 51  27  28  1   
 52  28  50  1   
 53  28  51  1   
 54  28  52  1   
@<TRIPOS>SUBSTRUCTURE
  1 ****  14 GROUP 4 **** **** 0

# MOE 2024.06 (io_trps.svl 2023.06)
