@<TRIPOS>MOLECULE
NONAME
47 48 1 0 0 
SMALL
USER_CHARGES


@<TRIPOS>ATOM
  1 S       -0.7010    -0.4990    -0.9060 S.3   1 <1>  -0.0800 
  2 C       -0.9350    -1.8880     0.1430 C.2   1 <1>  -0.1400 
  3 C       -0.5630     0.5800     0.4730 C.2   1 <1>  -0.1400 
  4 C       -0.9030    -1.5130     1.4360 C.2   1 <1>  -0.1500 
  5 C       -1.1190    -3.2270    -0.5350 C.3   1 <1>   0.5230 
  6 C       -0.6960    -0.1090     1.6210 C.2   1 <1>  -0.1500 
  7 C       -0.3390     2.0600     0.2070 C.3   1 <1>   0.0200 
  8 N       -2.5470    -3.6350    -0.4720 N.4   1 <1>  -0.9590 
  9 C        1.1500     2.4560     0.2250 C.3   1 <1>  -0.0800 
 10 C       -2.7490    -5.0210    -0.9550 C.3   1 <1>   0.5230 
 11 C       -3.4790    -2.6310    -1.0830 C.3   1 <1>   0.3430 
 12 C        1.2950     3.9760     0.0790 C.3   1 <1>  -0.2400 
 13 C        1.9590     1.7580    -0.8780 C.3   1 <1>  -0.2400 
 14 C       -4.1970    -5.4000    -0.7840 C.2   1 <1>  -0.3320 
 15 C       -4.6280    -2.3080    -0.1030 C.3   1 <1>   0.1200 
 16 N       -4.7910    -5.7620     0.3760 N.pl3 1 <1>   0.0480 
 17 C       -5.1550    -5.4460    -1.7370 C.2   1 <1>   0.0770 
 18 O       -4.2180    -2.5130     1.2230 O.3   1 <1>  -0.6800 
 19 C       -6.0810    -5.9790     0.0400 C.2   1 <1>   0.0360 
 20 C       -4.2030    -5.9370     1.7190 C.3   1 <1>   0.0160 
 21 N       -6.3380    -5.7920    -1.2120 N.2   1 <1>  -0.5650 
 22 H       -1.0170    -2.1560     2.2920 H     1 <1>   0.1500 
 23 H       -0.5100    -3.9570    -0.0260 H     1 <1>   0.0800 
 24 H       -0.7890    -3.1620    -1.5590 H     1 <1>   0.0800 
 25 H       -0.6540     0.3180     2.6090 H     1 <1>   0.1500 
 26 H       -0.8490     2.6140     0.9750 H     1 <1>   0.0800 
 27 H       -0.7830     2.3290    -0.7350 H     1 <1>   0.0800 
 28 H       -2.8340    -3.5840     0.5210 H     1 <1>   0.4500 
 29 H        1.5640     2.1700     1.1780 H     1 <1>   0.0800 
 30 H       -2.1260    -5.7080    -0.4060 H     1 <1>   0.0800 
 31 H       -2.4870    -5.0830    -1.9990 H     1 <1>   0.0800 
 32 H       -3.8820    -2.9910    -2.0160 H     1 <1>   0.0800 
 33 H       -2.9550    -1.7140    -1.2890 H     1 <1>   0.0800 
 34 H        0.8980     4.3070    -0.8650 H     1 <1>   0.0800 
 35 H        2.3310     4.2600     0.1330 H     1 <1>   0.0800 
 36 H        0.7680     4.4820     0.8700 H     1 <1>   0.0800 
 37 H        1.5400     1.9670    -1.8470 H     1 <1>   0.0800 
 38 H        1.9660     0.6940    -0.7250 H     1 <1>   0.0800 
 39 H        2.9790     2.0990    -0.8650 H     1 <1>   0.0800 
 40 H       -5.4770    -2.9430    -0.2940 H     1 <1>   0.0800 
 41 H       -4.9330    -1.2820    -0.2180 H     1 <1>   0.0800 
 42 H       -5.0690    -5.2430    -2.7930 H     1 <1>   0.1500 
 43 H       -4.8810    -2.1330     1.8420 H     1 <1>   0.4000 
 44 H       -6.8190    -6.2850     0.7630 H     1 <1>   0.1500 
 45 H       -3.3840    -6.6310     1.6670 H     1 <1>   0.0800 
 46 H       -4.9480    -6.3270     2.3890 H     1 <1>   0.0800 
 47 H       -3.8580    -4.9910     2.0930 H     1 <1>   0.0800 
@<TRIPOS>BOND
  1   1   2  1   
  2   1   3  1   
  3   2   4  2   
  4   2   5  1   
  5   3   6  2   
  6   3   7  1   
  7   4   6  1   
  8   4  22  1   
  9   5   8  1   
 10   5  23  1   
 11   5  24  1   
 12   6  25  1   
 13   7   9  1   
 14   7  26  1   
 15   7  27  1   
 16   8  10  1   
 17   8  11  1   
 18   8  28  1   
 19   9  12  1   
 20   9  13  1   
 21   9  29  1   
 22  10  14  1   
 23  10  30  1   
 24  10  31  1   
 25  11  15  1   
 26  11  32  1   
 27  11  33  1   
 28  12  34  1   
 29  12  35  1   
 30  12  36  1   
 31  13  37  1   
 32  13  38  1   
 33  13  39  1   
 34  14  16  1   
 35  14  17  2   
 36  15  18  1   
 37  15  40  1   
 38  15  41  1   
 39  16  19  1   
 40  16  20  1   
 41  17  21  1   
 42  17  42  1   
 43  18  43  1   
 44  19  21  2   
 45  19  44  1   
 46  20  45  1   
 47  20  46  1   
 48  20  47  1   
@<TRIPOS>SUBSTRUCTURE
  1 ****   2 GROUP 4 **** **** 0

# MOE 2024.06 (io_trps.svl 2023.06)
