@<TRIPOS>MOLECULE
NONAME
38 40 1 0 0 
SMALL
USER_CHARGES


@<TRIPOS>ATOM
  1 O        0.4070     0.4660     0.7030 O.3   1 <1>  -0.0190 
  2 N        1.3080    -0.4680     0.6060 N.2   1 <1>  -0.4100 
  3 C        0.7600     1.5550     0.0750 C.2   1 <1>  -0.0400 
  4 C        2.2580     0.0260    -0.1040 C.2   1 <1>   0.1080 
  5 C        1.9640     1.3330    -0.4790 C.2   1 <1>  -0.1500 
  6 C       -0.1810     2.7480     0.0920 C.3   1 <1>   0.0200 
  7 C        3.5180    -0.7230    -0.4750 C.3   1 <1>  -0.0590 
  8 C        0.5020     4.0500    -0.3650 C.3   1 <1>  -0.0800 
  9 C       -0.4220     5.2660    -0.4740 C.3   1 <1>   0.2000 
 10 C        1.6230     4.5150     0.5730 C.3   1 <1>   0.2090 
 11 O       -1.2160     5.3410     0.6610 O.3   1 <1>  -0.6800 
 12 C        0.5530     6.4410    -0.4500 C.3   1 <1>   0.2090 
 13 N        1.6460     5.9970     0.4630 N.pl3 1 <1>  -0.8380 
 14 C        2.8160     6.7190     0.5800 C.ar  1 <1>   0.4100 
 15 N        2.9750     7.7700    -0.2000 N.ar  1 <1>  -0.6200 
 16 C        3.7960     6.3630     1.4880 C.ar  1 <1>  -0.1500 
 17 C        4.1080     8.4310    -0.0640 C.ar  1 <1>   0.4770 
 18 C        4.9320     7.1220     1.5390 C.ar  1 <1>   0.1600 
 19 N        5.1080     8.1690     0.7580 N.ar  1 <1>  -0.6200 
 20 C        4.2930     9.6320    -0.9590 C.3   1 <1>  -0.0970 
 21 H        2.5860     1.9720    -1.0770 H     1 <1>   0.1500 
 22 H       -1.0190     2.5350    -0.5480 H     1 <1>   0.0800 
 23 H       -0.5600     2.8670     1.0920 H     1 <1>   0.0800 
 24 H        4.3760    -0.2190    -0.0700 H     1 <1>   0.0800 
 25 H        3.6090    -0.7780    -1.5440 H     1 <1>   0.0800 
 26 H        3.4820    -1.7220    -0.0780 H     1 <1>   0.0800 
 27 H        0.9340     3.8880    -1.3370 H     1 <1>   0.0800 
 28 H       -1.0560     5.2530    -1.3430 H     1 <1>   0.0800 
 29 H        2.5710     4.0920     0.2860 H     1 <1>   0.0800 
 30 H        1.4030     4.2440     1.5910 H     1 <1>   0.0800 
 31 H       -0.6480     5.6450     1.4010 H     1 <1>   0.4000 
 32 H        0.0890     7.3470    -0.0990 H     1 <1>   0.0800 
 33 H        0.9560     6.6040    -1.4350 H     1 <1>   0.0800 
 34 H        3.6600     5.5210     2.1350 H     1 <1>   0.1500 
 35 H        5.7180     6.8770     2.2320 H     1 <1>   0.1500 
 36 H        4.6980    10.4480    -0.3910 H     1 <1>   0.0800 
 37 H        3.3530     9.9330    -1.3820 H     1 <1>   0.0800 
 38 H        4.9730     9.3810    -1.7510 H     1 <1>   0.0800 
@<TRIPOS>BOND
  1   1   2  1   
  2   1   3  1   
  3   2   4  2   
  4   3   5  2   
  5   3   6  1   
  6   4   5  1   
  7   4   7  1   
  8   5  21  1   
  9   6   8  1   
 10   6  22  1   
 11   6  23  1   
 12   7  24  1   
 13   7  25  1   
 14   7  26  1   
 15   8   9  1   
 16   8  10  1   
 17   8  27  1   
 18   9  11  1   
 19   9  12  1   
 20   9  28  1   
 21  10  13  1   
 22  10  29  1   
 23  10  30  1   
 24  11  31  1   
 25  12  13  1   
 26  12  32  1   
 27  12  33  1   
 28  13  14  1   
 29  14  15  ar  
 30  14  16  ar  
 31  15  17  ar  
 32  16  18  ar  
 33  16  34  1   
 34  17  19  ar  
 35  17  20  1   
 36  18  19  ar  
 37  18  35  1   
 38  20  36  1   
 39  20  37  1   
 40  20  38  1   
@<TRIPOS>SUBSTRUCTURE
  1 ****  10 GROUP 4 **** **** 0

# MOE 2024.06 (io_trps.svl 2023.06)
