@<TRIPOS>MOLECULE
NONAME
50 52 1 0 0 
SMALL
USER_CHARGES


@<TRIPOS>ATOM
  1 O       -0.7810    -1.8570     1.0550 O.2   1 <1>  -0.5700 
  2 C        0.4230    -2.0340     1.0030 C.2   1 <1>   0.6900 
  3 N        1.2150    -1.2860     0.1700 N.am  1 <1>  -0.6600 
  4 N        0.9840    -3.0100     1.7520 N.am  1 <1>  -0.7300 
  5 C        0.6190    -0.3430    -0.8170 C.3   1 <1>   0.0600 
  6 C        2.7000    -1.2410     0.2550 C.3   1 <1>   0.0600 
  7 C        0.2310    -3.9550     2.6320 C.3   1 <1>   0.2010 
  8 C        0.2050    -5.3910     2.1010 C.2   1 <1>   0.5690 
  9 O        0.9450    -6.1970     2.6160 O.2   1 <1>  -0.5700 
 10 N       -0.6300    -5.7510     1.0760 N.am  1 <1>  -0.6600 
 11 C       -1.5020    -4.8400     0.2900 C.3   1 <1>   0.1400 
 12 C       -0.7510    -7.1430     0.5920 C.3   1 <1>   0.1400 
 13 C       -2.2230    -5.7420    -0.7150 C.3   1 <1>   0.2000 
 14 C       -2.0600    -7.1700    -0.1960 C.3   1 <1>  -0.0800 
 15 O       -3.5710    -5.4320    -0.8080 O.3   1 <1>  -0.6800 
 16 C       -2.0780    -8.2180    -1.3210 C.3   1 <1>  -0.0160 
 17 C       -1.9370    -9.6300    -0.7630 C.ar  1 <1>  -0.1440 
 18 C       -3.0190   -10.3190    -0.1650 C.ar  1 <1>   0.0000 
 19 C       -0.7350   -10.2730    -0.8210 C.ar  1 <1>  -0.1500 
 20 C       -2.7710   -11.6180     0.3420 C.ar  1 <1>   0.3100 
 21 C       -4.3290    -9.7990    -0.0420 C.ar  1 <1>  -0.1500 
 22 C       -0.5990   -11.5620    -0.2940 C.ar  1 <1>   0.1600 
 23 N       -1.5590   -12.2240     0.2690 N.ar  1 <1>  -0.6200 
 24 C       -3.8220   -12.3220     0.9510 C.ar  1 <1>  -0.1500 
 25 C       -5.3320   -10.5130     0.5560 C.ar  1 <1>  -0.1500 
 26 C       -5.0780   -11.7900     1.0620 C.ar  1 <1>  -0.1500 
 27 H        1.9430    -3.2720     1.5380 H     1 <1>   0.3700 
 28 H        1.1140    -0.4460    -1.7660 H     1 <1>   0.0800 
 29 H        0.7310     0.6680    -0.4640 H     1 <1>   0.0800 
 30 H       -0.4290    -0.5460    -0.9550 H     1 <1>   0.0800 
 31 H        3.0470    -0.2370     0.0770 H     1 <1>   0.0800 
 32 H        3.1250    -1.8950    -0.4860 H     1 <1>   0.0800 
 33 H        3.0360    -1.5410     1.2320 H     1 <1>   0.0800 
 34 H        0.6940    -3.9620     3.6020 H     1 <1>   0.0800 
 35 H       -0.7800    -3.6130     2.7620 H     1 <1>   0.0800 
 36 H       -2.1960    -4.3410     0.9430 H     1 <1>   0.0800 
 37 H       -0.9030    -4.1150    -0.2320 H     1 <1>   0.0800 
 38 H        0.0900    -7.3620    -0.0440 H     1 <1>   0.0800 
 39 H       -0.7680    -7.8390     1.4140 H     1 <1>   0.0800 
 40 H       -1.7820    -5.6240    -1.6900 H     1 <1>   0.0800 
 41 H       -2.8430    -7.3830     0.5100 H     1 <1>   0.0800 
 42 H       -3.9800    -5.4330     0.0790 H     1 <1>   0.4000 
 43 H       -1.2710    -8.0180    -2.0050 H     1 <1>   0.0800 
 44 H       -2.9890    -8.1360    -1.8870 H     1 <1>   0.0800 
 45 H        0.1310    -9.8140    -1.2620 H     1 <1>   0.1500 
 46 H       -4.5480    -8.8210    -0.4270 H     1 <1>   0.1500 
 47 H        0.3680   -12.0330    -0.3590 H     1 <1>   0.1500 
 48 H       -3.6040   -13.3030     1.3310 H     1 <1>   0.1500 
 49 H       -6.3240   -10.1040     0.6440 H     1 <1>   0.1500 
 50 H       -5.8740   -12.3410     1.5310 H     1 <1>   0.1500 
@<TRIPOS>BOND
  1   1   2  2   
  2   2   3  am  
  3   2   4  am  
  4   3   5  1   
  5   3   6  1   
  6   4   7  1   
  7   4  27  1   
  8   5  28  1   
  9   5  29  1   
 10   5  30  1   
 11   6  31  1   
 12   6  32  1   
 13   6  33  1   
 14   7   8  1   
 15   7  34  1   
 16   7  35  1   
 17   8   9  2   
 18   8  10  am  
 19  10  11  1   
 20  10  12  1   
 21  11  13  1   
 22  11  36  1   
 23  11  37  1   
 24  12  14  1   
 25  12  38  1   
 26  12  39  1   
 27  13  14  1   
 28  13  15  1   
 29  13  40  1   
 30  14  16  1   
 31  14  41  1   
 32  15  42  1   
 33  16  17  1   
 34  16  43  1   
 35  16  44  1   
 36  17  18  ar  
 37  17  19  ar  
 38  18  20  ar  
 39  18  21  ar  
 40  19  22  ar  
 41  19  45  1   
 42  20  23  ar  
 43  20  24  ar  
 44  21  25  ar  
 45  21  46  1   
 46  22  23  ar  
 47  22  47  1   
 48  24  26  ar  
 49  24  48  1   
 50  25  26  ar  
 51  25  49  1   
 52  26  50  1   
@<TRIPOS>SUBSTRUCTURE
  1 ****  12 GROUP 4 **** **** 0

# MOE 2024.06 (io_trps.svl 2023.06)
