@<TRIPOS>MOLECULE
NONAME
40 42 1 0 0 
SMALL
USER_CHARGES


@<TRIPOS>ATOM
  1 F       -1.2550    -0.0240    -0.5700 F     1 <1>  -0.3400 
  2 C       -2.1080     0.9930    -0.5850 C.3   1 <1>   1.1640 
  3 F       -2.9590     0.7860     0.4120 F     1 <1>  -0.3400 
  4 F       -2.8090     0.8760    -1.7060 F     1 <1>  -0.3400 
  5 C       -1.4160     2.3580    -0.4760 C.ar  1 <1>  -0.1440 
  6 C       -0.0980     2.5060    -0.0880 C.ar  1 <1>  -0.1500 
  7 C       -2.0880     3.5380    -0.7570 C.ar  1 <1>  -0.1500 
  8 C        0.4800     3.7690    -0.0030 C.ar  1 <1>   0.4100 
  9 C       -1.4310     4.7490    -0.6430 C.ar  1 <1>   0.1600 
 10 N       -0.1670     4.8930    -0.2780 N.ar  1 <1>  -0.6200 
 11 N        1.7990     3.9050     0.3770 N.pl3 1 <1>  -0.8380 
 12 C        2.1670     4.8300     1.4990 C.3   1 <1>   0.2090 
 13 C        2.8880     3.2490    -0.3980 C.3   1 <1>   0.2090 
 14 C        3.1470     5.9940     1.1590 C.3   1 <1>   0.4230 
 15 C        3.7510     4.2890    -1.1400 C.3   1 <1>  -0.0800 
 16 N        3.0450     6.5930    -0.2330 N.4   1 <1>  -0.9590 
 17 C        4.6130     5.6370     1.4950 C.3   1 <1>   0.1200 
 18 C        5.1440     4.4730    -0.5160 C.3   1 <1>   0.1200 
 19 C        2.9870     5.6040    -1.3650 C.3   1 <1>   0.3430 
 20 C        1.8410     7.4730    -0.3190 C.3   1 <1>   0.2630 
 21 O        5.0670     4.4750     0.8730 O.3   1 <1>  -0.5600 
 22 H        0.5060     1.6540     0.1650 H     1 <1>   0.1500 
 23 H       -3.1210     3.5210    -1.0630 H     1 <1>   0.1500 
 24 H       -1.9810     5.6480    -0.8660 H     1 <1>   0.1500 
 25 H        1.2640     5.2650     1.8910 H     1 <1>   0.0800 
 26 H        2.5860     4.2420     2.2970 H     1 <1>   0.0800 
 27 H        3.4880     2.6420     0.2610 H     1 <1>   0.0800 
 28 H        2.4450     2.5880    -1.1240 H     1 <1>   0.0800 
 29 H        2.9030     6.7810     1.8520 H     1 <1>   0.0800 
 30 H        3.9230     3.8820    -2.1200 H     1 <1>   0.0800 
 31 H        3.8820     7.1700    -0.3750 H     1 <1>   0.4500 
 32 H        4.6950     5.4630     2.5540 H     1 <1>   0.0800 
 33 H        5.2770     6.4450     1.2450 H     1 <1>   0.0800 
 34 H        5.6340     5.3700    -0.8540 H     1 <1>   0.0800 
 35 H        5.7640     3.6330    -0.7820 H     1 <1>   0.0800 
 36 H        1.9570     5.3530    -1.5610 H     1 <1>   0.0800 
 37 H        3.3690     6.0770    -2.2540 H     1 <1>   0.0800 
 38 H        0.9480     6.9040    -0.1250 H     1 <1>   0.0800 
 39 H        1.7620     7.9070    -1.3030 H     1 <1>   0.0800 
 40 H        1.9030     8.2700     0.4040 H     1 <1>   0.0800 
@<TRIPOS>BOND
  1   1   2  1   
  2   2   3  1   
  3   2   4  1   
  4   2   5  1   
  5   5   6  ar  
  6   5   7  ar  
  7   6   8  ar  
  8   6  22  1   
  9   7   9  ar  
 10   7  23  1   
 11   8  10  ar  
 12   8  11  1   
 13   9  10  ar  
 14   9  24  1   
 15  11  12  1   
 16  11  13  1   
 17  12  14  1   
 18  12  25  1   
 19  12  26  1   
 20  13  15  1   
 21  13  27  1   
 22  13  28  1   
 23  14  16  1   
 24  14  17  1   
 25  14  29  1   
 26  15  18  1   
 27  15  19  1   
 28  15  30  1   
 29  16  19  1   
 30  16  20  1   
 31  16  31  1   
 32  17  21  1   
 33  17  32  1   
 34  17  33  1   
 35  18  21  1   
 36  18  34  1   
 37  18  35  1   
 38  19  36  1   
 39  19  37  1   
 40  20  38  1   
 41  20  39  1   
 42  20  40  1   
@<TRIPOS>SUBSTRUCTURE
  1 ****   8 GROUP 4 **** **** 0

# MOE 2024.06 (io_trps.svl 2023.06)
