@<TRIPOS>MOLECULE
NONAME
56 59 1 0 0 
SMALL
USER_CHARGES


@<TRIPOS>ATOM
  1 O        1.6230     0.6390    -2.2680 O.3   1 <1>  -0.5600 
  2 C        2.7770     0.1850    -1.5980 C.3   1 <1>   0.2000 
  3 C        1.4270     2.0190    -2.2990 C.3   1 <1>   0.1200 
  4 C        2.9130     0.7880    -0.1620 C.3   1 <1>   0.5660 
  5 C        2.6600    -1.3490    -1.5710 C.3   1 <1>   0.1200 
  6 C        1.2410     2.5350    -0.8670 C.3   1 <1>   0.3430 
  7 N        2.4370     2.2030    -0.0360 N.4   1 <1>  -0.9590 
  8 C        4.3670     0.8300     0.3020 C.ar  1 <1>  -0.1440 
  9 O        3.5270    -1.9090    -0.6430 O.3   1 <1>  -0.6800 
 10 C        2.2970     2.6340     1.3790 C.3   1 <1>   0.4870 
 11 C        5.3140     1.6000    -0.3660 C.ar  1 <1>  -0.1500 
 12 C        4.7530     0.1110     1.4250 C.ar  1 <1>  -0.1500 
 13 C        2.3840     4.1440     1.3640 C.ar  1 <1>  -0.1440 
 14 C        6.6170     1.6610     0.0930 C.ar  1 <1>  -0.1500 
 15 C        6.0570     0.1700     1.8810 C.ar  1 <1>  -0.1500 
 16 C        3.5480     4.7350     0.9010 C.ar  1 <1>  -0.1500 
 17 C        1.3200     4.9440     1.7480 C.ar  1 <1>  -0.1500 
 18 C        6.9890     0.9480     1.2180 C.ar  1 <1>  -0.1500 
 19 C        3.6380     6.1080     0.7380 C.ar  1 <1>  -0.1440 
 20 C        1.4160     6.3200     1.6420 C.ar  1 <1>  -0.1500 
 21 C        2.5700     6.9090     1.1300 C.ar  1 <1>   0.0820 
 22 C        4.8810     6.7540     0.1170 C.3   1 <1>   0.2390 
 23 O        2.7140     8.2520     0.9910 O.3   1 <1>  -0.3620 
 24 N        5.6360     5.8420    -0.7840 N.pl3 1 <1>   0.3140 
 25 C        1.7010     9.1560     1.3770 C.3   1 <1>   0.0400 
 26 N        5.1010     5.1320    -1.7830 N.2   1 <1>  -0.7070 
 27 C        6.9510     5.6050    -0.7620 C.2   1 <1>   0.0360 
 28 C        6.1380     4.5590    -2.3010 C.2   1 <1>   0.3660 
 29 N        7.3040     4.7960    -1.6940 N.2   1 <1>  -0.5650 
 30 H        3.6250     0.4610    -2.1990 H     1 <1>   0.0800 
 31 H        2.2670     2.4890    -2.7840 H     1 <1>   0.0800 
 32 H        0.5410     2.2110    -2.8800 H     1 <1>   0.0800 
 33 H        2.3480     0.1590     0.5060 H     1 <1>   0.0800 
 34 H        2.8720    -1.7700    -2.5390 H     1 <1>   0.0800 
 35 H        1.6630    -1.6300    -1.2770 H     1 <1>   0.0800 
 36 H        0.3580     2.0820    -0.4480 H     1 <1>   0.0800 
 37 H        1.0950     3.6030    -0.8880 H     1 <1>   0.0800 
 38 H        3.2090     2.7740    -0.3990 H     1 <1>   0.4500 
 39 H        4.4040    -2.1040    -1.0390 H     1 <1>   0.4000 
 40 H        1.3580     2.3040     1.7910 H     1 <1>   0.0800 
 41 H        3.1040     2.2410     1.9780 H     1 <1>   0.0800 
 42 H        5.0620     2.1640    -1.2470 H     1 <1>   0.1500 
 43 H        4.0470    -0.5100     1.9520 H     1 <1>   0.1500 
 44 H        7.3480     2.2630    -0.4240 H     1 <1>   0.1500 
 45 H        6.3520    -0.3910     2.7520 H     1 <1>   0.1500 
 46 H        4.3900     4.1130     0.6460 H     1 <1>   0.1500 
 47 H        0.4100     4.5110     2.1290 H     1 <1>   0.1500 
 48 H        8.0050     0.9940     1.5730 H     1 <1>   0.1500 
 49 H        0.5810     6.9180     1.9560 H     1 <1>   0.1500 
 50 H        5.5330     7.0920     0.9000 H     1 <1>   0.0800 
 51 H        4.5910     7.6060    -0.4690 H     1 <1>   0.0800 
 52 H        2.0480    10.1540     1.1770 H     1 <1>   0.0800 
 53 H        1.5100     9.0410     2.4290 H     1 <1>   0.0800 
 54 H        0.8150     8.9580     0.8000 H     1 <1>   0.0800 
 55 H        7.6180     6.0500    -0.0450 H     1 <1>   0.1500 
 56 H        6.0940     3.9180    -3.1680 H     1 <1>   0.1500 
@<TRIPOS>BOND
  1   1   2  1   
  2   1   3  1   
  3   2   4  1   
  4   2   5  1   
  5   2  30  1   
  6   3   6  1   
  7   3  31  1   
  8   3  32  1   
  9   4   7  1   
 10   4   8  1   
 11   4  33  1   
 12   5   9  1   
 13   5  34  1   
 14   5  35  1   
 15   6   7  1   
 16   6  36  1   
 17   6  37  1   
 18   7  10  1   
 19   7  38  1   
 20   8  11  ar  
 21   8  12  ar  
 22   9  39  1   
 23  10  13  1   
 24  10  40  1   
 25  10  41  1   
 26  11  14  ar  
 27  11  42  1   
 28  12  15  ar  
 29  12  43  1   
 30  13  16  ar  
 31  13  17  ar  
 32  14  18  ar  
 33  14  44  1   
 34  15  18  ar  
 35  15  45  1   
 36  16  19  ar  
 37  16  46  1   
 38  17  20  ar  
 39  17  47  1   
 40  18  48  1   
 41  19  21  ar  
 42  19  22  1   
 43  20  21  ar  
 44  20  49  1   
 45  21  23  1   
 46  22  24  1   
 47  22  50  1   
 48  22  51  1   
 49  23  25  1   
 50  24  26  1   
 51  24  27  1   
 52  25  52  1   
 53  25  53  1   
 54  25  54  1   
 55  26  28  2   
 56  27  29  2   
 57  27  55  1   
 58  28  29  1   
 59  28  56  1   
@<TRIPOS>SUBSTRUCTURE
  1 ****  16 GROUP 4 **** **** 0

# MOE 2024.06 (io_trps.svl 2023.06)
