@<TRIPOS>MOLECULE
NONAME
43 45 1 0 0 
SMALL
USER_CHARGES


@<TRIPOS>ATOM
  1 O       -0.3750     0.8890     1.6570 O.2   1 <1>  -0.5700 
  2 C        0.5640     0.1440     1.5280 C.2   1 <1>   0.5690 
  3 N        1.8010     0.5400     1.0980 N.am  1 <1>  -0.4940 
  4 C        0.3690    -1.3230     1.8640 C.3   1 <1>  -0.0990 
  5 C        2.2370     1.8260     0.6880 C.2   1 <1>  -0.0880 
  6 C       -0.1480    -2.1500     0.6710 C.3   1 <1>  -0.0800 
  7 N        3.4540     2.1060     0.1420 N.pl3 1 <1>   0.3140 
  8 C        1.5670     3.0010     0.7400 C.2   1 <1>  -0.1500 
  9 C       -0.4610    -3.5890     1.1200 C.3   1 <1>   0.1200 
 10 C        0.8450    -2.1660    -0.5070 C.3   1 <1>  -0.1600 
 11 N        3.5680     3.4270    -0.1490 N.2   1 <1>  -0.7070 
 12 C        4.5350     1.1100    -0.1260 C.3   1 <1>   0.1760 
 13 C        2.4360     3.9450     0.2130 C.2   1 <1>   0.1390 
 14 O       -0.9060    -4.3430     0.0350 O.3   1 <1>  -0.5600 
 15 C        0.3590    -3.1360    -1.5900 C.3   1 <1>  -0.1600 
 16 C        5.9040     1.7090    -0.4610 C.3   1 <1>  -0.1600 
 17 C        4.2250     0.2240    -1.3360 C.3   1 <1>  -0.1600 
 18 C        0.0230    -4.5050    -0.9900 C.3   1 <1>   0.1200 
 19 C        6.6540     0.5680    -1.1470 C.3   1 <1>  -0.1600 
 20 C        5.5820    -0.2800    -1.8420 C.3   1 <1>  -0.1600 
 21 H        2.4840    -0.2090     1.0250 H     1 <1>   0.3700 
 22 H       -0.3480    -1.3770     2.6640 H     1 <1>   0.0800 
 23 H        1.2910    -1.7350     2.2300 H     1 <1>   0.0800 
 24 H       -1.0730    -1.7090     0.3370 H     1 <1>   0.0800 
 25 H        0.5730     3.1870     1.1060 H     1 <1>   0.1500 
 26 H       -1.2460    -3.5900     1.8560 H     1 <1>   0.0800 
 27 H        0.4080    -4.0700     1.5350 H     1 <1>   0.0800 
 28 H        1.8130    -2.4860    -0.1630 H     1 <1>   0.0800 
 29 H        0.9380    -1.1830    -0.9350 H     1 <1>   0.0800 
 30 H        4.6450     0.4930     0.7460 H     1 <1>   0.0800 
 31 H        2.2050     4.9920     0.1120 H     1 <1>   0.1500 
 32 H        1.1130    -3.2500    -2.3480 H     1 <1>   0.0800 
 33 H       -0.5250    -2.7430    -2.0620 H     1 <1>   0.0800 
 34 H        6.4150     2.0600     0.4180 H     1 <1>   0.0800 
 35 H        5.7930     2.5190    -1.1620 H     1 <1>   0.0800 
 36 H        3.7670     0.8240    -2.1060 H     1 <1>   0.0800 
 37 H        3.5720    -0.5900    -1.0820 H     1 <1>   0.0800 
 38 H       -0.4180    -5.1460    -1.7340 H     1 <1>   0.0800 
 39 H        0.8990    -4.9850    -0.5890 H     1 <1>   0.0800 
 40 H        7.1590    -0.0280    -0.4050 H     1 <1>   0.0800 
 41 H        7.3830     0.9420    -1.8450 H     1 <1>   0.0800 
 42 H        5.6430    -0.1650    -2.9120 H     1 <1>   0.0800 
 43 H        5.7200    -1.3210    -1.6000 H     1 <1>   0.0800 
@<TRIPOS>BOND
  1   1   2  2   
  2   2   3  am  
  3   2   4  1   
  4   3   5  1   
  5   3  21  1   
  6   4   6  1   
  7   4  22  1   
  8   4  23  1   
  9   5   7  1   
 10   5   8  2   
 11   6   9  1   
 12   6  10  1   
 13   6  24  1   
 14   7  11  1   
 15   7  12  1   
 16   8  13  1   
 17   8  25  1   
 18   9  14  1   
 19   9  26  1   
 20   9  27  1   
 21  10  15  1   
 22  10  28  1   
 23  10  29  1   
 24  11  13  2   
 25  12  16  1   
 26  12  17  1   
 27  12  30  1   
 28  13  31  1   
 29  14  18  1   
 30  15  18  1   
 31  15  32  1   
 32  15  33  1   
 33  16  19  1   
 34  16  34  1   
 35  16  35  1   
 36  17  20  1   
 37  17  36  1   
 38  17  37  1   
 39  18  38  1   
 40  18  39  1   
 41  19  20  1   
 42  19  40  1   
 43  19  41  1   
 44  20  42  1   
 45  20  43  1   
@<TRIPOS>SUBSTRUCTURE
  1 ****   3 GROUP 4 **** **** 0

# MOE 2024.06 (io_trps.svl 2023.06)
