@<TRIPOS>MOLECULE
NONAME
51 52 1 0 0 
SMALL
USER_CHARGES


@<TRIPOS>ATOM
  1 S        0.2790     0.2920     0.8460 S.o2  1 <1>   1.3330 
  2 O        0.7120    -0.1430     2.1550 O.2   1 <1>  -0.6500 
  3 O       -0.6630     1.3820     0.7340 O.2   1 <1>  -0.6500 
  4 N       -0.3730    -1.0560     0.0460 N.am  1 <1>  -0.8490 
  5 C        1.7010     0.6960    -0.1710 C.3   1 <1>  -0.0550 
  6 C       -1.8230    -1.1640     0.2330 C.3   1 <1>   0.1160 
  7 C        0.2720    -2.3200     0.4170 C.3   1 <1>   0.1160 
  8 C        2.4780     1.9370     0.3120 C.3   1 <1>  -0.0800 
  9 C        3.5110     2.3660    -0.7150 C.3   1 <1>   0.2200 
 10 C        3.3660     1.6170     1.5150 C.3   1 <1>   0.1200 
 11 N        3.8330     3.7970    -0.5170 N.am  1 <1>  -0.7300 
 12 C        4.7180     1.5030    -0.3500 C.3   1 <1>   0.1200 
 13 O        4.5610     1.1270     0.9890 O.3   1 <1>  -0.5600 
 14 C        3.7110     4.7580    -1.4630 C.2   1 <1>   0.5690 
 15 O        3.3370     4.5160    -2.5840 O.2   1 <1>  -0.5700 
 16 C        4.0810     6.1720    -1.0990 C.3   1 <1>  -0.0990 
 17 C        5.5740     6.3870    -1.3320 C.3   1 <1>   0.1400 
 18 N        5.9950     7.6710    -0.7240 N.am  1 <1>  -0.7300 
 19 C        6.3130     7.8270     0.5980 C.2   1 <1>   0.5440 
 20 O        6.1780     6.8700     1.3360 O.2   1 <1>  -0.5700 
 21 C        6.8050     9.0970     1.1070 C.ar  1 <1>   0.0860 
 22 C        7.6470     9.1350     2.2240 C.ar  1 <1>  -0.1500 
 23 C        6.4610    10.3170     0.5100 C.ar  1 <1>  -0.1500 
 24 C        8.1390    10.3290     2.7220 C.ar  1 <1>  -0.1500 
 25 C        6.9450    11.5200     0.9950 C.ar  1 <1>  -0.1500 
 26 C        7.7790    11.5050     2.0950 C.ar  1 <1>   0.1900 
 27 F        8.2390    12.6340     2.5560 F     1 <1>  -0.1900 
 28 H        2.3630    -0.1470    -0.2130 H     1 <1>   0.0800 
 29 H        1.3460     0.8820    -1.1660 H     1 <1>   0.0800 
 30 H       -2.2060    -2.0190    -0.2980 H     1 <1>   0.0800 
 31 H       -2.3110    -0.2840    -0.1530 H     1 <1>   0.0800 
 32 H       -2.0600    -1.2590     1.2800 H     1 <1>   0.0800 
 33 H       -0.1150    -3.1240    -0.1860 H     1 <1>   0.0800 
 34 H        0.0930    -2.5440     1.4560 H     1 <1>   0.0800 
 35 H        1.3350    -2.2570     0.2570 H     1 <1>   0.0800 
 36 H        1.7820     2.7310     0.5270 H     1 <1>   0.0800 
 37 H        3.1920     2.1950    -1.7310 H     1 <1>   0.0800 
 38 H        2.9520     0.8840     2.1850 H     1 <1>   0.0800 
 39 H        3.5970     2.5110     2.0680 H     1 <1>   0.0800 
 40 H        4.2190     4.0350     0.4010 H     1 <1>   0.3700 
 41 H        5.6500     2.0280    -0.4680 H     1 <1>   0.0800 
 42 H        4.7320     0.6020    -0.9370 H     1 <1>   0.0800 
 43 H        3.5120     6.8540    -1.7020 H     1 <1>   0.0800 
 44 H        3.8390     6.3370    -0.0650 H     1 <1>   0.0800 
 45 H        5.7900     6.3900    -2.3880 H     1 <1>   0.0800 
 46 H        6.1320     5.5850    -0.8760 H     1 <1>   0.0800 
 47 H        6.1750     8.4340    -1.3780 H     1 <1>   0.3700 
 48 H        7.9160     8.2080     2.7030 H     1 <1>   0.1500 
 49 H        5.8000    10.3270    -0.3380 H     1 <1>   0.1500 
 50 H        8.7880    10.3520     3.5800 H     1 <1>   0.1500 
 51 H        6.6820    12.4570     0.5370 H     1 <1>   0.1500 
@<TRIPOS>BOND
  1   1   2  2   
  2   1   3  2   
  3   1   4  am  
  4   1   5  1   
  5   4   6  1   
  6   4   7  1   
  7   5   8  1   
  8   5  28  1   
  9   5  29  1   
 10   6  30  1   
 11   6  31  1   
 12   6  32  1   
 13   7  33  1   
 14   7  34  1   
 15   7  35  1   
 16   8   9  1   
 17   8  10  1   
 18   8  36  1   
 19   9  11  1   
 20   9  12  1   
 21   9  37  1   
 22  10  13  1   
 23  10  38  1   
 24  10  39  1   
 25  11  14  am  
 26  11  40  1   
 27  12  13  1   
 28  12  41  1   
 29  12  42  1   
 30  14  15  2   
 31  14  16  1   
 32  16  17  1   
 33  16  43  1   
 34  16  44  1   
 35  17  18  1   
 36  17  45  1   
 37  17  46  1   
 38  18  19  am  
 39  18  47  1   
 40  19  20  2   
 41  19  21  1   
 42  21  22  ar  
 43  21  23  ar  
 44  22  24  ar  
 45  22  48  1   
 46  23  25  ar  
 47  23  49  1   
 48  24  26  ar  
 49  24  50  1   
 50  25  26  ar  
 51  25  51  1   
 52  26  27  1   
@<TRIPOS>SUBSTRUCTURE
  1 ****  11 GROUP 4 **** **** 0

# MOE 2024.06 (io_trps.svl 2023.06)
