@<TRIPOS>MOLECULE
NONAME
52 53 1 0 0 
SMALL
USER_CHARGES


@<TRIPOS>ATOM
  1 O       -0.1780     1.1790     1.7300 O.2   1 <1>  -0.5700 
  2 C       -0.1650     2.3160     1.3230 C.2   1 <1>   0.5690 
  3 N       -1.1470     3.2180     1.6360 N.am  1 <1>  -0.6600 
  4 C        0.9870     2.7340     0.4030 C.3   1 <1>   0.1810 
  5 C       -1.1050     4.6190     1.1090 C.3   1 <1>   0.3640 
  6 C       -2.2100     2.9240     2.6410 C.3   1 <1>   0.0600 
  7 O        1.1690     4.1300     0.3250 O.3   1 <1>  -0.5600 
  8 C       -2.4680     5.0720     0.5620 C.ar  1 <1>  -0.1430 
  9 C       -0.0140     4.8460     0.0320 C.3   1 <1>   0.2610 
 10 C       -3.2440     4.3490    -0.3510 C.ar  1 <1>  -0.1430 
 11 C       -2.9340     6.3030     1.0090 C.ar  1 <1>  -0.1500 
 12 C        0.3050     6.3400    -0.1440 C.2   1 <1>   0.5690 
 13 C       -4.4500     4.8790    -0.7870 C.ar  1 <1>  -0.1500 
 14 C       -2.8630     2.9760    -0.8990 C.3   1 <1>  -0.0960 
 15 C       -4.1360     6.8200     0.5670 C.ar  1 <1>  -0.1500 
 16 O        0.2290     7.0830     0.8130 O.2   1 <1>  -0.5700 
 17 N        0.7220     6.8480    -1.3560 N.am  1 <1>  -0.6600 
 18 C       -4.8960     6.1070    -0.3360 C.ar  1 <1>  -0.1500 
 19 C        0.7470     8.3240    -1.6240 C.3   1 <1>   0.1400 
 20 C        1.0620     5.9900    -2.5310 C.3   1 <1>   0.0600 
 21 C        2.0880     8.9610    -1.2080 C.3   1 <1>   0.3430 
 22 N        2.3270     8.8140     0.2600 N.4   1 <1>  -0.9590 
 23 C        1.7760     9.9550     1.0480 C.3   1 <1>   0.2630 
 24 C        3.7550     8.5420     0.5870 C.3   1 <1>   0.2630 
 25 H        0.8060     2.3570    -0.5860 H     1 <1>   0.0800 
 26 H        1.9020     2.3070     0.7720 H     1 <1>   0.0800 
 27 H       -0.8590     5.2390     1.9530 H     1 <1>   0.0800 
 28 H       -3.1820     3.0060     2.1870 H     1 <1>   0.0800 
 29 H       -2.1450     3.6220     3.4570 H     1 <1>   0.0800 
 30 H       -2.1000     1.9280     3.0330 H     1 <1>   0.0800 
 31 H       -0.3850     4.4820    -0.9050 H     1 <1>   0.0800 
 32 H       -2.3590     6.8810     1.7140 H     1 <1>   0.1500 
 33 H       -5.0620     4.3350    -1.4850 H     1 <1>   0.1500 
 34 H       -3.4440     2.7370    -1.7710 H     1 <1>   0.0800 
 35 H       -3.0570     2.2220    -0.1570 H     1 <1>   0.0800 
 36 H       -1.8300     2.9260    -1.1760 H     1 <1>   0.0800 
 37 H       -4.4810     7.7750     0.9260 H     1 <1>   0.1500 
 38 H       -5.8340     6.5020    -0.6850 H     1 <1>   0.1500 
 39 H        0.5810     8.4980    -2.6730 H     1 <1>   0.0800 
 40 H       -0.0590     8.8010    -1.0920 H     1 <1>   0.0800 
 41 H        1.8310     6.4540    -3.1240 H     1 <1>   0.0800 
 42 H        0.1880     5.8480    -3.1440 H     1 <1>   0.0800 
 43 H        1.4280     5.0290    -2.2100 H     1 <1>   0.0800 
 44 H        2.0960    10.0040    -1.4780 H     1 <1>   0.0800 
 45 H        2.8740     8.4700    -1.7570 H     1 <1>   0.0800 
 46 H        1.7630     7.9780     0.5400 H     1 <1>   0.4500 
 47 H        2.2810    10.8710     0.7910 H     1 <1>   0.0800 
 48 H        1.9020     9.7720     2.1030 H     1 <1>   0.0800 
 49 H        0.7220    10.0680     0.8500 H     1 <1>   0.0800 
 50 H        4.3720     9.3810     0.3060 H     1 <1>   0.0800 
 51 H        4.0960     7.6660     0.0610 H     1 <1>   0.0800 
 52 H        3.8670     8.3690     1.6460 H     1 <1>   0.0800 
@<TRIPOS>BOND
  1   1   2  2   
  2   2   3  am  
  3   2   4  1   
  4   3   5  1   
  5   3   6  1   
  6   4   7  1   
  7   4  25  1   
  8   4  26  1   
  9   5   8  1   
 10   5   9  1   
 11   5  27  1   
 12   6  28  1   
 13   6  29  1   
 14   6  30  1   
 15   7   9  1   
 16   8  10  ar  
 17   8  11  ar  
 18   9  12  1   
 19   9  31  1   
 20  10  13  ar  
 21  10  14  1   
 22  11  15  ar  
 23  11  32  1   
 24  12  16  2   
 25  12  17  am  
 26  13  18  ar  
 27  13  33  1   
 28  14  34  1   
 29  14  35  1   
 30  14  36  1   
 31  15  18  ar  
 32  15  37  1   
 33  17  19  1   
 34  17  20  1   
 35  18  38  1   
 36  19  21  1   
 37  19  39  1   
 38  19  40  1   
 39  20  41  1   
 40  20  42  1   
 41  20  43  1   
 42  21  22  1   
 43  21  44  1   
 44  21  45  1   
 45  22  23  1   
 46  22  24  1   
 47  22  46  1   
 48  23  47  1   
 49  23  48  1   
 50  23  49  1   
 51  24  50  1   
 52  24  51  1   
 53  24  52  1   
@<TRIPOS>SUBSTRUCTURE
  1 ****   9 GROUP 4 **** **** 0

# MOE 2024.06 (io_trps.svl 2023.06)
