@<TRIPOS>MOLECULE
NONAME
43 45 1 0 0 
SMALL
USER_CHARGES


@<TRIPOS>ATOM
  1 O       -0.6370     0.1840     0.2280 O.2   1 <1>  -0.5700 
  2 C       -1.6750     0.8180     0.2870 C.2   1 <1>   0.5440 
  3 N       -2.8490     0.1630     0.5670 N.am  1 <1>  -0.6600 
  4 C       -1.6320     2.2550     0.0850 C.ar  1 <1>   0.0860 
  5 C       -4.1900     0.7410     0.6090 C.3   1 <1>   0.2350 
  6 C       -2.9970    -1.2850     0.7090 C.3   1 <1>   0.2350 
  7 C       -1.0840     2.7920    -1.0780 C.ar  1 <1>  -0.1500 
  8 C       -2.1150     3.1500     1.0390 C.ar  1 <1>  -0.1500 
  9 C       -5.1590    -0.2830     0.0250 C.3   1 <1>  -0.2420 
 10 C       -4.3440    -1.6750     0.0930 C.3   1 <1>  -0.2420 
 11 C       -1.0290     4.1580    -1.2870 C.ar  1 <1>  -0.1500 
 12 C       -2.0640     4.5170     0.8360 C.ar  1 <1>  -0.1500 
 13 C       -6.3230     0.6580    -0.2930 C.2   1 <1>   0.9470 
 14 C       -5.7320    -1.5710    -0.3640 C.3   1 <1>  -0.2000 
 15 C       -4.0990    -3.1740    -0.1030 C.2   1 <1>   0.9470 
 16 C       -1.5220     5.0310    -0.3310 C.ar  1 <1>  -0.1430 
 17 O       -6.4610     1.1110    -1.4360 O.co2 1 <1>  -0.9000 
 18 O       -7.0500     1.0290     0.6390 O.co2 1 <1>  -0.9000 
 19 O       -3.7640    -3.6130    -1.2110 O.co2 1 <1>  -0.9000 
 20 O       -4.1830    -3.9170     0.8850 O.co2 1 <1>  -0.9000 
 21 C       -1.4700     6.5330    -0.5600 C.3   1 <1>  -0.0170 
 22 C       -0.1580     7.1150    -0.0200 C.3   1 <1>  -0.1600 
 23 C       -0.0810     8.6310    -0.2400 C.3   1 <1>  -0.1600 
 24 C        1.2330     9.1990     0.3030 C.3   1 <1>  -0.2400 
 25 H       -4.4520     0.9070     1.6400 H     1 <1>   0.0800 
 26 H       -4.2340     1.6790     0.0800 H     1 <1>   0.0800 
 27 H       -2.1730    -1.8090     0.2500 H     1 <1>   0.0800 
 28 H       -3.0140    -1.5200     1.7590 H     1 <1>   0.0800 
 29 H       -0.7010     2.1140    -1.8220 H     1 <1>   0.1500 
 30 H       -2.5360     2.7600     1.9480 H     1 <1>   0.1500 
 31 H       -0.6020     4.5380    -2.1980 H     1 <1>   0.1500 
 32 H       -2.4500     5.1810     1.5900 H     1 <1>   0.1500 
 33 H       -5.9370    -1.7430    -1.4070 H     1 <1>   0.1000 
 34 H       -6.5010    -1.9910     0.2600 H     1 <1>   0.1000 
 35 H       -1.5550     6.7380    -1.6130 H     1 <1>   0.0800 
 36 H       -2.3060     7.0000    -0.0690 H     1 <1>   0.0800 
 37 H       -0.0840     6.8990     1.0320 H     1 <1>   0.0800 
 38 H        0.6690     6.6360    -0.5150 H     1 <1>   0.0800 
 39 H       -0.1520     8.8490    -1.2930 H     1 <1>   0.0800 
 40 H       -0.9060     9.1130     0.2570 H     1 <1>   0.0800 
 41 H        2.0730     8.7470    -0.1960 H     1 <1>   0.0800 
 42 H        1.3160     9.0120     1.3590 H     1 <1>   0.0800 
 43 H        1.2700    10.2610     0.1400 H     1 <1>   0.0800 
@<TRIPOS>BOND
  1   1   2  2   
  2   2   3  am  
  3   2   4  1   
  4   3   5  1   
  5   3   6  1   
  6   4   7  ar  
  7   4   8  ar  
  8   5   9  1   
  9   5  25  1   
 10   5  26  1   
 11   6  10  1   
 12   6  27  1   
 13   6  28  1   
 14   7  11  ar  
 15   7  29  1   
 16   8  12  ar  
 17   8  30  1   
 18   9  10  1   
 19   9  13  1   
 20   9  14  1   
 21  10  14  1   
 22  10  15  1   
 23  11  16  ar  
 24  11  31  1   
 25  12  16  ar  
 26  12  32  1   
 27  13  17  ar  
 28  13  18  ar  
 29  14  33  1   
 30  14  34  1   
 31  15  19  ar  
 32  15  20  ar  
 33  16  21  1   
 34  21  22  1   
 35  21  35  1   
 36  21  36  1   
 37  22  23  1   
 38  22  37  1   
 39  22  38  1   
 40  23  24  1   
 41  23  39  1   
 42  23  40  1   
 43  24  41  1   
 44  24  42  1   
 45  24  43  1   
@<TRIPOS>SUBSTRUCTURE
  1 ****   4 GROUP 4 **** **** 0

# MOE 2024.06 (io_trps.svl 2023.06)
