@<TRIPOS>MOLECULE
NONAME
59 62 1 0 0 
SMALL
USER_CHARGES


@<TRIPOS>ATOM
  1 O       -1.8370     0.7070    -2.6260 O.2   1 <1>  -0.5700 
  2 C       -1.8380     1.0430    -1.4600 C.2   1 <1>   0.7160 
  3 N       -2.1260     0.0850    -0.5080 N.am  1 <1>  -0.6600 
  4 C       -1.6620     2.4240    -1.0940 C.2   1 <1>  -0.0860 
  5 C       -2.7880     0.4180     0.7890 C.3   1 <1>   0.1400 
  6 C       -2.1980    -1.3610    -0.8630 C.3   1 <1>   0.1400 
  7 C       -0.6960     3.1210    -0.4180 C.2   1 <1>  -0.3320 
  8 C       -2.6080     3.4000    -1.4110 C.2   1 <1>   0.1390 
  9 C       -4.2640    -0.0460     0.7870 C.3   1 <1>   0.4230 
 10 C       -3.6680    -1.8150    -0.9030 C.3   1 <1>   0.3430 
 11 N       -1.1170     4.3970    -0.3510 N.pl3 1 <1>   0.3000 
 12 C        0.6600     2.7250     0.1650 C.3   1 <1>   0.1000 
 13 N       -2.3080     4.5680    -0.9480 N.2   1 <1>  -0.7070 
 14 N       -4.4040    -1.5080     0.3870 N.4   1 <1>  -0.9590 
 15 C       -5.1190     0.8610    -0.1280 C.3   1 <1>   0.1200 
 16 C        1.7770     3.2260    -0.7650 C.3   1 <1>  -0.1600 
 17 C        0.8140     1.2150     0.4060 C.3   1 <1>  -0.1600 
 18 C       -5.8670    -1.8670     0.3370 C.3   1 <1>   0.4230 
 19 O       -6.4520     0.4390    -0.1200 O.3   1 <1>  -0.5600 
 20 C        3.1710     2.8830    -0.2200 C.3   1 <1>  -0.1600 
 21 C        2.1990     0.8720     0.9720 C.3   1 <1>  -0.1600 
 22 C       -6.6610    -0.8770    -0.5500 C.3   1 <1>   0.1200 
 23 C       -6.0520    -3.3330    -0.0890 C.3   1 <1>  -0.1600 
 24 C        3.3110     1.3790     0.0450 C.3   1 <1>  -0.1600 
 25 C       -7.4670    -3.8540     0.2070 C.3   1 <1>  -0.1600 
 26 C       -7.5880    -5.3370    -0.1520 C.3   1 <1>  -0.2400 
 27 H       -2.2590    -0.0710     1.5890 H     1 <1>   0.0800 
 28 H       -2.7450     1.4770     0.9830 H     1 <1>   0.0800 
 29 H       -1.7420    -1.5410    -1.8230 H     1 <1>   0.0800 
 30 H       -1.6520    -1.9370    -0.1370 H     1 <1>   0.0800 
 31 H       -3.5020     3.2080    -1.9810 H     1 <1>   0.1500 
 32 H       -4.6440     0.0810     1.7880 H     1 <1>   0.0800 
 33 H       -3.6970    -2.8730    -1.1020 H     1 <1>   0.0800 
 34 H       -4.1500    -1.3130    -1.7270 H     1 <1>   0.0800 
 35 H       -0.6110     5.1830     0.0780 H     1 <1>   0.2700 
 36 H        0.7700     3.2160     1.1180 H     1 <1>   0.0800 
 37 H       -3.9770    -2.0730     1.1300 H     1 <1>   0.4500 
 38 H       -4.7600     0.8530    -1.1430 H     1 <1>   0.0800 
 39 H       -5.1000     1.8760     0.2300 H     1 <1>   0.0800 
 40 H        1.6540     2.7750    -1.7350 H     1 <1>   0.0800 
 41 H        1.7010     4.2920    -0.8900 H     1 <1>   0.0800 
 42 H        0.0620     0.8830     1.0960 H     1 <1>   0.0800 
 43 H        0.6870     0.6880    -0.5230 H     1 <1>   0.0800 
 44 H       -6.2670    -1.7740     1.3330 H     1 <1>   0.0800 
 45 H        3.9200     3.1930    -0.9280 H     1 <1>   0.0800 
 46 H        3.3420     3.4230     0.6960 H     1 <1>   0.0800 
 47 H        2.3140     1.3210     1.9440 H     1 <1>   0.0800 
 48 H        2.2890    -0.1940     1.0880 H     1 <1>   0.0800 
 49 H       -7.7170    -1.0700    -0.4740 H     1 <1>   0.0800 
 50 H       -6.3770    -0.9540    -1.5850 H     1 <1>   0.0800 
 51 H       -5.8630    -3.4430    -1.1420 H     1 <1>   0.0800 
 52 H       -5.3550    -3.9470     0.4530 H     1 <1>   0.0800 
 53 H        4.2710     1.1780     0.4880 H     1 <1>   0.0800 
 54 H        3.2640     0.8480    -0.8910 H     1 <1>   0.0800 
 55 H       -7.6960    -3.7320     1.2540 H     1 <1>   0.0800 
 56 H       -8.2010    -3.3060    -0.3600 H     1 <1>   0.0800 
 57 H       -6.8960    -5.9290     0.4220 H     1 <1>   0.0800 
 58 H       -7.3920    -5.4940    -1.1990 H     1 <1>   0.0800 
 59 H       -8.5840    -5.6860     0.0590 H     1 <1>   0.0800 
@<TRIPOS>BOND
  1   1   2  2   
  2   2   3  am  
  3   2   4  1   
  4   3   5  1   
  5   3   6  1   
  6   4   7  2   
  7   4   8  1   
  8   5   9  1   
  9   5  27  1   
 10   5  28  1   
 11   6  10  1   
 12   6  29  1   
 13   6  30  1   
 14   7  11  1   
 15   7  12  1   
 16   8  13  2   
 17   8  31  1   
 18   9  14  1   
 19   9  15  1   
 20   9  32  1   
 21  10  14  1   
 22  10  33  1   
 23  10  34  1   
 24  11  13  1   
 25  11  35  1   
 26  12  16  1   
 27  12  17  1   
 28  12  36  1   
 29  14  18  1   
 30  14  37  1   
 31  15  19  1   
 32  15  38  1   
 33  15  39  1   
 34  16  20  1   
 35  16  40  1   
 36  16  41  1   
 37  17  21  1   
 38  17  42  1   
 39  17  43  1   
 40  18  22  1   
 41  18  23  1   
 42  18  44  1   
 43  19  22  1   
 44  20  24  1   
 45  20  45  1   
 46  20  46  1   
 47  21  24  1   
 48  21  47  1   
 49  21  48  1   
 50  22  49  1   
 51  22  50  1   
 52  23  25  1   
 53  23  51  1   
 54  23  52  1   
 55  24  53  1   
 56  24  54  1   
 57  25  26  1   
 58  25  55  1   
 59  25  56  1   
 60  26  57  1   
 61  26  58  1   
 62  26  59  1   
@<TRIPOS>SUBSTRUCTURE
  1 ****   3 GROUP 4 **** **** 0

# MOE 2024.06 (io_trps.svl 2023.06)
