@<TRIPOS>MOLECULE
NONAME
52 54 1 0 0 
SMALL
USER_CHARGES


@<TRIPOS>ATOM
  1 O        1.8730    -0.4370    -2.3710 O.2   1 <1>  -0.5700 
  2 C        2.2670    -0.7660    -1.2690 C.2   1 <1>   0.7160 
  3 N        2.9660     0.1500    -0.5090 N.am  1 <1>  -0.6600 
  4 C        2.0170    -2.0890    -0.7590 C.2   1 <1>  -0.0860 
  5 C        3.1180    -0.0310     0.9810 C.3   1 <1>   0.2200 
  6 C        3.6010     1.3130    -1.2050 C.3   1 <1>   0.1400 
  7 C        2.9320    -3.1450    -0.7560 C.2   1 <1>   0.1080 
  8 C        0.9180    -2.6150    -0.1440 C.2   1 <1>  -0.3320 
  9 C        2.6510     1.2030     1.7680 C.3   1 <1>   0.1200 
 10 C        4.5500    -0.4560     1.3810 C.3   1 <1>   0.3430 
 11 C        4.5750     2.1500    -0.3540 C.3   1 <1>  -0.0800 
 12 N        2.4740    -4.1980    -0.1620 N.2   1 <1>  -0.7070 
 13 C        4.3140    -3.1210    -1.3780 C.3   1 <1>  -0.0590 
 14 N        1.2130    -3.8860     0.1940 N.pl3 1 <1>   0.3140 
 15 C       -0.4190    -1.9350     0.1110 C.3   1 <1>  -0.0600 
 16 O        3.6640     2.1550     1.8800 O.3   1 <1>  -0.5600 
 17 N        5.5810    -0.0660     0.3750 N.4   1 <1>  -0.9590 
 18 C        3.8690     2.9420     0.7540 C.3   1 <1>   0.1200 
 19 C        5.8080     1.3910     0.1680 C.3   1 <1>   0.3430 
 20 C        0.3430    -4.8840     0.8640 C.3   1 <1>   0.2340 
 21 C        6.9000    -0.8000     0.5020 C.3   1 <1>   0.2370 
 22 C       -0.8190    -5.3040    -0.0280 C.2   1 <1>  -0.2880 
 23 C        7.5360    -0.9980    -0.8760 C.2   1 <1>   0.9060 
 24 C       -2.1150    -5.2380     0.2960 C.2   1 <1>  -0.3000 
 25 O        8.7510    -1.1490    -0.9770 O.co2 1 <1>  -0.9000 
 26 O        6.7550    -0.9290    -1.8380 O.co2 1 <1>  -0.9000 
 27 H        2.4620    -0.8200     1.3020 H     1 <1>   0.0800 
 28 H        4.1330     0.9390    -2.0660 H     1 <1>   0.0800 
 29 H        2.8170     1.9520    -1.5760 H     1 <1>   0.0800 
 30 H        2.4040     0.9060     2.7720 H     1 <1>   0.0800 
 31 H        1.7740     1.6450     1.3250 H     1 <1>   0.0800 
 32 H        4.5550    -1.5290     1.4810 H     1 <1>   0.0800 
 33 H        4.7940    -0.0360     2.3420 H     1 <1>   0.0800 
 34 H        4.9600     2.8990    -1.0220 H     1 <1>   0.0800 
 35 H        4.4240    -2.2960    -2.0570 H     1 <1>   0.0800 
 36 H        4.4720    -4.0300    -1.9290 H     1 <1>   0.0800 
 37 H        5.0640    -3.0540    -0.6140 H     1 <1>   0.0800 
 38 H       -0.3950    -0.9150    -0.2290 H     1 <1>   0.0800 
 39 H       -0.6560    -1.9450     1.1590 H     1 <1>   0.0800 
 40 H       -1.1980    -2.4460    -0.4270 H     1 <1>   0.0800 
 41 H        5.2590    -0.3990    -0.5610 H     1 <1>   0.4500 
 42 H        2.9260     3.3450     0.4210 H     1 <1>   0.0800 
 43 H        4.4920     3.7640     1.0630 H     1 <1>   0.0800 
 44 H        6.1470     1.8430     1.0860 H     1 <1>   0.0800 
 45 H        6.5950     1.5030    -0.5620 H     1 <1>   0.0800 
 46 H        0.9420    -5.7440     1.1010 H     1 <1>   0.0800 
 47 H       -0.0200    -4.4600     1.7810 H     1 <1>   0.0800 
 48 H        7.5880    -0.2570     1.1240 H     1 <1>   0.0800 
 49 H        6.7460    -1.7760     0.9200 H     1 <1>   0.0800 
 50 H       -0.4770    -5.6730    -0.9820 H     1 <1>   0.1500 
 51 H       -2.9100    -5.5430    -0.3630 H     1 <1>   0.1500 
 52 H       -2.4950    -4.8780     1.2370 H     1 <1>   0.1500 
@<TRIPOS>BOND
  1   1   2  2   
  2   2   3  am  
  3   2   4  1   
  4   3   5  1   
  5   3   6  1   
  6   4   7  1   
  7   4   8  2   
  8   5   9  1   
  9   5  10  1   
 10   5  27  1   
 11   6  11  1   
 12   6  28  1   
 13   6  29  1   
 14   7  12  2   
 15   7  13  1   
 16   8  14  1   
 17   8  15  1   
 18   9  16  1   
 19   9  30  1   
 20   9  31  1   
 21  10  17  1   
 22  10  32  1   
 23  10  33  1   
 24  11  18  1   
 25  11  19  1   
 26  11  34  1   
 27  12  14  1   
 28  13  35  1   
 29  13  36  1   
 30  13  37  1   
 31  14  20  1   
 32  15  38  1   
 33  15  39  1   
 34  15  40  1   
 35  16  18  1   
 36  17  19  1   
 37  17  21  1   
 38  17  41  1   
 39  18  42  1   
 40  18  43  1   
 41  19  44  1   
 42  19  45  1   
 43  20  22  1   
 44  20  46  1   
 45  20  47  1   
 46  21  23  1   
 47  21  48  1   
 48  21  49  1   
 49  22  24  2   
 50  22  50  1   
 51  23  25  ar  
 52  23  26  ar  
 53  24  51  1   
 54  24  52  1   
@<TRIPOS>SUBSTRUCTURE
  1 ****   3 GROUP 4 **** **** 0

# MOE 2024.06 (io_trps.svl 2023.06)
