@<TRIPOS>MOLECULE
NONAME
48 50 1 0 0 
SMALL
USER_CHARGES


@<TRIPOS>ATOM
  1 CL       0.6660     3.1930     2.4610 Cl    1 <1>  -0.1770 
  2 C        0.8840     3.6770     0.7960 C.ar  1 <1>   0.1770 
  3 C        1.7110     2.9610    -0.0630 C.ar  1 <1>  -0.1440 
  4 C        0.1850     4.7900     0.3660 C.ar  1 <1>  -0.1500 
  5 C        1.7960     3.3810    -1.3870 C.ar  1 <1>  -0.1500 
  6 C        2.5090     1.7460     0.4130 C.3   1 <1>   0.3640 
  7 C        0.2940     5.2030    -0.9500 C.ar  1 <1>  -0.1500 
  8 C        1.0970     4.4930    -1.8250 C.ar  1 <1>  -0.1500 
  9 N        2.0680     0.5770    -0.3850 N.am  1 <1>  -0.7300 
 10 C        4.0380     1.9770     0.2660 C.3   1 <1>   0.2610 
 11 C        2.9110    -0.3630    -0.8620 C.2   1 <1>   0.5690 
 12 O        4.7520     0.7520     0.3360 O.3   1 <1>  -0.5600 
 13 C        4.5650     2.9880     1.2980 C.2   1 <1>   0.5690 
 14 O        2.4890    -1.3180    -1.4630 O.2   1 <1>  -0.5700 
 15 C        4.4210    -0.1880    -0.6660 C.3   1 <1>   0.1810 
 16 O        3.9410     3.1450     2.3230 O.2   1 <1>  -0.5700 
 17 N        5.7050     3.7210     1.0470 N.am  1 <1>  -0.6600 
 18 C        6.6660     3.4640    -0.0580 C.3   1 <1>   0.1400 
 19 C        6.0950     4.8670     1.9130 C.3   1 <1>   0.1400 
 20 C        6.7410     4.7050    -0.9520 C.3   1 <1>  -0.1600 
 21 C        6.1830     6.1340     1.0570 C.3   1 <1>  -0.1600 
 22 C        7.1340     5.9560    -0.1440 C.3   1 <1>  -0.0800 
 23 C        7.1450     7.1980    -1.0460 C.3   1 <1>   0.1200 
 24 O        7.5850     8.2910    -0.3050 O.3   1 <1>  -0.5600 
 25 C        7.6150     9.4830    -1.0190 C.3   1 <1>   0.0400 
 26 H       -0.4390     5.3250     1.0590 H     1 <1>   0.1500 
 27 H        2.4040     2.8410    -2.0920 H     1 <1>   0.1500 
 28 H        2.2970     1.5320     1.4460 H     1 <1>   0.0800 
 29 H       -0.2470     6.0690    -1.2910 H     1 <1>   0.1500 
 30 H        1.1750     4.8070    -2.8520 H     1 <1>   0.1500 
 31 H        1.0620     0.4360    -0.4910 H     1 <1>   0.3700 
 32 H        4.2190     2.3920    -0.7060 H     1 <1>   0.0800 
 33 H        4.8640     0.1330    -1.5900 H     1 <1>   0.0800 
 34 H        4.8530    -1.1300    -0.3840 H     1 <1>   0.0800 
 35 H        7.6350     3.2640     0.3670 H     1 <1>   0.0800 
 36 H        6.3830     2.6040    -0.6370 H     1 <1>   0.0800 
 37 H        5.3780     5.0160     2.7020 H     1 <1>   0.0800 
 38 H        7.0500     4.6600     2.3650 H     1 <1>   0.0800 
 39 H        7.4660     4.5340    -1.7280 H     1 <1>   0.0800 
 40 H        5.7830     4.8550    -1.4200 H     1 <1>   0.0800 
 41 H        5.1960     6.3870     0.7120 H     1 <1>   0.0800 
 42 H        6.5280     6.9460     1.6740 H     1 <1>   0.0800 
 43 H        8.1340     5.8130     0.2290 H     1 <1>   0.0800 
 44 H        6.1540     7.4070    -1.4130 H     1 <1>   0.0800 
 45 H        7.8180     7.0560    -1.8740 H     1 <1>   0.0800 
 46 H        7.9680    10.2570    -0.3610 H     1 <1>   0.0800 
 47 H        6.6210     9.7210    -1.3580 H     1 <1>   0.0800 
 48 H        8.2880     9.3820    -1.8530 H     1 <1>   0.0800 
@<TRIPOS>BOND
  1   1   2  1   
  2   2   3  ar  
  3   2   4  ar  
  4   3   5  ar  
  5   3   6  1   
  6   4   7  ar  
  7   4  26  1   
  8   5   8  ar  
  9   5  27  1   
 10   6   9  1   
 11   6  10  1   
 12   6  28  1   
 13   7   8  ar  
 14   7  29  1   
 15   8  30  1   
 16   9  11  am  
 17   9  31  1   
 18  10  12  1   
 19  10  13  1   
 20  10  32  1   
 21  11  14  2   
 22  11  15  1   
 23  12  15  1   
 24  13  16  2   
 25  13  17  am  
 26  15  33  1   
 27  15  34  1   
 28  17  18  1   
 29  17  19  1   
 30  18  20  1   
 31  18  35  1   
 32  18  36  1   
 33  19  21  1   
 34  19  37  1   
 35  19  38  1   
 36  20  22  1   
 37  20  39  1   
 38  20  40  1   
 39  21  22  1   
 40  21  41  1   
 41  21  42  1   
 42  22  23  1   
 43  22  43  1   
 44  23  24  1   
 45  23  44  1   
 46  23  45  1   
 47  24  25  1   
 48  25  46  1   
 49  25  47  1   
 50  25  48  1   
@<TRIPOS>SUBSTRUCTURE
  1 ****  13 GROUP 4 **** **** 0

# MOE 2024.06 (io_trps.svl 2023.06)
