@<TRIPOS>MOLECULE
NONAME
64 69 1 0 0 
SMALL
USER_CHARGES


@<TRIPOS>ATOM
  1 O       -0.9080     0.1120    -0.5830 O.2   1 <1>  -0.5700 
  2 C       -1.9060    -0.5520    -0.7340 C.2   1 <1>   0.6900 
  3 N       -1.8590    -1.7410    -1.3810 N.am  1 <1>  -0.4900 
  4 N       -3.1050    -0.1320    -0.2630 N.am  1 <1>  -0.5470 
  5 C       -2.9550    -2.5260    -1.5770 C.2   1 <1>   0.5440 
  6 C       -4.2670    -0.8480    -0.4080 C.ar  1 <1>   0.4270 
  7 O       -2.8050    -3.5730    -2.1700 O.2   1 <1>  -0.5700 
  8 C       -4.2290    -2.0770    -1.0760 C.ar  1 <1>   0.0860 
  9 N       -5.3520    -0.2990     0.1120 N.ar  1 <1>  -0.6200 
 10 C       -5.4200    -2.7730    -1.2090 C.ar  1 <1>  -0.1500 
 11 C       -6.4740    -0.9830    -0.0260 C.ar  1 <1>   0.1670 
 12 C       -6.5610    -2.2130    -0.6750 C.ar  1 <1>  -0.1430 
 13 C       -7.7010    -0.3450     0.6110 C.3   1 <1>  -0.0170 
 14 C       -7.8900    -2.9430    -0.8290 C.3   1 <1>  -0.0170 
 15 C       -9.0390    -1.0480     0.2960 C.3   1 <1>  -0.0800 
 16 C       -8.9270    -2.5940     0.2670 C.3   1 <1>   0.0000 
 17 C      -10.1190    -0.5600     1.2720 C.3   1 <1>  -0.1600 
 18 C      -10.3170    -3.2850     0.0100 C.3   1 <1>  -0.0800 
 19 C       -8.3850    -3.1390     1.6180 C.3   1 <1>  -0.2400 
 20 C      -11.4740    -1.1360     0.8790 C.3   1 <1>  -0.1600 
 21 C      -11.4900    -2.6810     0.8390 C.3   1 <1>  -0.0800 
 22 C      -10.7880    -3.4710    -1.4450 C.3   1 <1>  -0.1600 
 23 C      -12.9040    -3.2240     0.4450 C.3   1 <1>  -0.0800 
 24 C      -11.9720    -4.4620    -1.5560 C.3   1 <1>  -0.1600 
 25 C      -12.9340    -4.5600    -0.3270 C.3   1 <1>   0.0000 
 26 C      -13.8170    -2.3020    -0.3990 C.3   1 <1>  -0.1600 
 27 C      -14.4330    -4.6440    -0.7720 C.3   1 <1>   0.2800 
 28 C      -12.5470    -5.7720     0.5640 C.3   1 <1>  -0.2400 
 29 C      -14.8110    -3.2080    -1.1400 C.3   1 <1>  -0.1600 
 30 O      -15.2260    -4.9830     0.3110 O.3   1 <1>  -0.6800 
 31 C      -14.7850    -5.6660    -1.8600 C.3   1 <1>  -0.2400 
 32 H       -0.9620    -2.0580    -1.7340 H     1 <1>   0.3700 
 33 H       -3.1450     0.7590     0.2240 H     1 <1>   0.3700 
 34 H       -5.4370    -3.7200    -1.7220 H     1 <1>   0.1500 
 35 H       -7.5400    -0.3360     1.6740 H     1 <1>   0.0800 
 36 H       -7.7610     0.6800     0.2910 H     1 <1>   0.0800 
 37 H       -8.2660    -2.6500    -1.7920 H     1 <1>   0.0800 
 38 H       -7.7270    -4.0060    -0.8470 H     1 <1>   0.0800 
 39 H       -9.3310    -0.7320    -0.6920 H     1 <1>   0.0800 
 40 H       -9.8830    -0.8390     2.2830 H     1 <1>   0.0800 
 41 H      -10.1780     0.5150     1.2370 H     1 <1>   0.0800 
 42 H      -10.1700    -4.2870     0.3540 H     1 <1>   0.0800 
 43 H       -7.4350    -2.7120     1.8800 H     1 <1>   0.0800 
 44 H       -8.2460    -4.2050     1.5630 H     1 <1>   0.0800 
 45 H       -9.0660    -2.9440     2.4240 H     1 <1>   0.0800 
 46 H      -11.7100    -0.7320    -0.0880 H     1 <1>   0.0800 
 47 H      -12.2200    -0.7890     1.5730 H     1 <1>   0.0800 
 48 H      -11.3250    -3.0070     1.8520 H     1 <1>   0.0800 
 49 H      -11.0720    -2.5140    -1.8440 H     1 <1>   0.0800 
 50 H      -10.0090    -3.8650    -2.0680 H     1 <1>   0.0800 
 51 H      -13.4330    -3.3810     1.3710 H     1 <1>   0.0800 
 52 H      -11.5830    -5.4440    -1.7630 H     1 <1>   0.0800 
 53 H      -12.5150    -4.1650    -2.4330 H     1 <1>   0.0800 
 54 H      -14.3290    -1.5920     0.2270 H     1 <1>   0.0800 
 55 H      -13.2520    -1.7720    -1.1430 H     1 <1>   0.0800 
 56 H      -11.5210    -5.7650     0.8610 H     1 <1>   0.0800 
 57 H      -12.7290    -6.6910     0.0390 H     1 <1>   0.0800 
 58 H      -13.1370    -5.7850     1.4640 H     1 <1>   0.0800 
 59 H      -14.6900    -3.0580    -2.1980 H     1 <1>   0.0800 
 60 H      -15.8290    -2.9760    -0.8810 H     1 <1>   0.0800 
 61 H      -16.1610    -4.9660     0.0430 H     1 <1>   0.4000 
 62 H      -14.2740    -5.4510    -2.7790 H     1 <1>   0.0800 
 63 H      -15.8400    -5.6470    -2.0650 H     1 <1>   0.0800 
 64 H      -14.5060    -6.6540    -1.5450 H     1 <1>   0.0800 
@<TRIPOS>BOND
  1   1   2  2   
  2   2   3  am  
  3   2   4  am  
  4   3   5  am  
  5   3  32  1   
  6   4   6  1   
  7   4  33  1   
  8   5   7  2   
  9   5   8  1   
 10   6   8  ar  
 11   6   9  ar  
 12   8  10  ar  
 13   9  11  ar  
 14  10  12  ar  
 15  10  34  1   
 16  11  12  ar  
 17  11  13  1   
 18  12  14  1   
 19  13  15  1   
 20  13  35  1   
 21  13  36  1   
 22  14  16  1   
 23  14  37  1   
 24  14  38  1   
 25  15  16  1   
 26  15  17  1   
 27  15  39  1   
 28  16  18  1   
 29  16  19  1   
 30  17  20  1   
 31  17  40  1   
 32  17  41  1   
 33  18  21  1   
 34  18  22  1   
 35  18  42  1   
 36  19  43  1   
 37  19  44  1   
 38  19  45  1   
 39  20  21  1   
 40  20  46  1   
 41  20  47  1   
 42  21  23  1   
 43  21  48  1   
 44  22  24  1   
 45  22  49  1   
 46  22  50  1   
 47  23  25  1   
 48  23  26  1   
 49  23  51  1   
 50  24  25  1   
 51  24  52  1   
 52  24  53  1   
 53  25  27  1   
 54  25  28  1   
 55  26  29  1   
 56  26  54  1   
 57  26  55  1   
 58  27  29  1   
 59  27  30  1   
 60  27  31  1   
 61  28  56  1   
 62  28  57  1   
 63  28  58  1   
 64  29  59  1   
 65  29  60  1   
 66  30  61  1   
 67  31  62  1   
 68  31  63  1   
 69  31  64  1   
@<TRIPOS>SUBSTRUCTURE
  1 ****  16 GROUP 4 **** **** 0

# MOE 2024.06 (io_trps.svl 2023.06)
