@<TRIPOS>MOLECULE
NONAME
55 58 1 0 0 
SMALL
USER_CHARGES


@<TRIPOS>ATOM
  1 O        0.8550     2.0150    -2.7880 O.2   1 <1>  -0.5700 
  2 C        0.3980     2.9790    -2.2310 C.2   1 <1>   0.5690 
  3 N       -0.1300     2.8770    -0.9930 N.am  1 <1>  -0.7300 
  4 C        0.3700     4.3350    -2.9350 C.3   1 <1>   0.1810 
  5 C       -0.8000     3.9930    -0.2790 C.3   1 <1>   0.3640 
  6 O        0.2490     5.4070    -2.0270 O.3   1 <1>  -0.5600 
  7 C       -2.2060     3.5280     0.0910 C.ar  1 <1>  -0.1440 
  8 C       -0.8430     5.3060    -1.1170 C.3   1 <1>   0.2610 
  9 C       -2.7010     3.7550     1.3690 C.ar  1 <1>   0.1600 
 10 C       -3.0180     2.8760    -0.8210 C.ar  1 <1>  -0.1500 
 11 C       -0.8670     6.5340    -0.1960 C.2   1 <1>   0.5690 
 12 N       -3.8970     3.3860     1.7980 N.ar  1 <1>  -0.6200 
 13 C       -4.2700     2.4900    -0.3910 C.ar  1 <1>  -0.1500 
 14 O       -1.4440     6.4830     0.8650 O.2   1 <1>  -0.5700 
 15 N       -0.2290     7.6660    -0.5930 N.am  1 <1>  -0.7300 
 16 C       -4.6530     2.7650     0.9100 C.ar  1 <1>   0.1600 
 17 C       -0.1640     8.9320     0.1530 C.3   1 <1>   0.2200 
 18 C       -0.7900    10.0420    -0.6910 C.3   1 <1>  -0.1600 
 19 C        1.2950     9.2430     0.4870 C.3   1 <1>  -0.1600 
 20 C       -0.6560    11.3890     0.0180 C.3   1 <1>   0.2090 
 21 C        1.4050    10.6000     1.1800 C.3   1 <1>   0.2090 
 22 N        0.7750    11.6330     0.3220 N.pl3 1 <1>  -0.8380 
 23 C        1.1300    12.9500     0.5870 C.ar  1 <1>   0.1000 
 24 C        1.9230    13.6430    -0.3160 C.ar  1 <1>  -0.1500 
 25 C        0.7100    13.5980     1.7430 C.ar  1 <1>  -0.1500 
 26 C        2.2950    14.9570    -0.0820 C.ar  1 <1>  -0.1430 
 27 C        1.0760    14.9080     1.9870 C.ar  1 <1>  -0.1500 
 28 C        1.8670    15.5870     1.0760 C.ar  1 <1>  -0.1500 
 29 C        3.1620    15.7080    -1.0750 C.3   1 <1>  -0.0970 
 30 H       -0.1410     1.9590    -0.5440 H     1 <1>   0.3700 
 31 H       -0.4570     4.3710    -3.6210 H     1 <1>   0.0800 
 32 H        1.2840     4.4700    -3.4830 H     1 <1>   0.0800 
 33 H       -0.2420     4.1830     0.6230 H     1 <1>   0.0800 
 34 H       -1.7450     5.3210    -1.7000 H     1 <1>   0.0800 
 35 H       -2.0820     4.2730     2.0840 H     1 <1>   0.1500 
 36 H       -2.6970     2.6670    -1.8270 H     1 <1>   0.1500 
 37 H       -4.9440     1.9790    -1.0540 H     1 <1>   0.1500 
 38 H        0.3150     7.6260    -1.4600 H     1 <1>   0.3700 
 39 H       -5.6320     2.4580     1.2360 H     1 <1>   0.1500 
 40 H       -0.7200     8.8380     1.0730 H     1 <1>   0.0800 
 41 H       -0.2970    10.1080    -1.6440 H     1 <1>   0.0800 
 42 H       -1.8310     9.8310    -0.8530 H     1 <1>   0.0800 
 43 H        1.6880     8.4830     1.1360 H     1 <1>   0.0800 
 44 H        1.8850     9.2710    -0.4120 H     1 <1>   0.0800 
 45 H       -1.2240    11.3870     0.9330 H     1 <1>   0.0800 
 46 H       -1.0270    12.1780    -0.6150 H     1 <1>   0.0800 
 47 H        2.4410    10.8510     1.3400 H     1 <1>   0.0800 
 48 H        0.9080    10.5730     2.1350 H     1 <1>   0.0800 
 49 H        2.2400    13.1300    -1.2050 H     1 <1>   0.1500 
 50 H        0.0970    13.0680     2.4470 H     1 <1>   0.1500 
 51 H        0.7460    15.4020     2.8840 H     1 <1>   0.1500 
 52 H        2.1490    16.6070     1.2700 H     1 <1>   0.1500 
 53 H        4.0760    16.0180    -0.6010 H     1 <1>   0.0800 
 54 H        2.6400    16.5770    -1.4320 H     1 <1>   0.0800 
 55 H        3.4060    15.0850    -1.9170 H     1 <1>   0.0800 
@<TRIPOS>BOND
  1   1   2  2   
  2   2   3  am  
  3   2   4  1   
  4   3   5  1   
  5   3  30  1   
  6   4   6  1   
  7   4  31  1   
  8   4  32  1   
  9   5   7  1   
 10   5   8  1   
 11   5  33  1   
 12   6   8  1   
 13   7   9  ar  
 14   7  10  ar  
 15   8  11  1   
 16   8  34  1   
 17   9  12  ar  
 18   9  35  1   
 19  10  13  ar  
 20  10  36  1   
 21  11  14  2   
 22  11  15  am  
 23  12  16  ar  
 24  13  16  ar  
 25  13  37  1   
 26  15  17  1   
 27  15  38  1   
 28  16  39  1   
 29  17  18  1   
 30  17  19  1   
 31  17  40  1   
 32  18  20  1   
 33  18  41  1   
 34  18  42  1   
 35  19  21  1   
 36  19  43  1   
 37  19  44  1   
 38  20  22  1   
 39  20  45  1   
 40  20  46  1   
 41  21  22  1   
 42  21  47  1   
 43  21  48  1   
 44  22  23  1   
 45  23  24  ar  
 46  23  25  ar  
 47  24  26  ar  
 48  24  49  1   
 49  25  27  ar  
 50  25  50  1   
 51  26  28  ar  
 52  26  29  1   
 53  27  28  ar  
 54  27  51  1   
 55  28  52  1   
 56  29  53  1   
 57  29  54  1   
 58  29  55  1   
@<TRIPOS>SUBSTRUCTURE
  1 ****  15 GROUP 4 **** **** 0

# MOE 2024.06 (io_trps.svl 2023.06)
