@<TRIPOS>MOLECULE
NONAME
48 50 1 0 0 
SMALL
USER_CHARGES


@<TRIPOS>ATOM
  1 CL      -2.0880    -0.0190     2.5280 Cl    1 <1>  -0.1230 
  2 C       -2.2610     0.1670     0.7920 C.2   1 <1>   0.1230 
  3 C       -3.4370    -0.0360     0.0900 C.2   1 <1>   0.1080 
  4 C       -1.3250     0.5150    -0.1100 C.2   1 <1>  -0.3320 
  5 N       -3.2640     0.1530    -1.1900 N.2   1 <1>  -0.7070 
  6 C       -4.7580    -0.4280     0.7350 C.3   1 <1>   0.5240 
  7 N       -1.9560     0.5120    -1.3080 N.pl3 1 <1>   0.3000 
  8 C        0.1420     0.8650     0.0850 C.3   1 <1>  -0.0600 
  9 N       -5.6680    -1.0120    -0.3070 N.4   1 <1>  -0.9590 
 10 C       -5.1520    -2.2890    -0.9240 C.3   1 <1>   0.3430 
 11 C       -7.0880    -1.1190     0.1310 C.3   1 <1>   0.3430 
 12 C       -5.3520    -3.5510    -0.0300 C.3   1 <1>   0.4230 
 13 C       -7.2590    -2.3050     1.0930 C.3   1 <1>  -0.1600 
 14 N       -4.8020    -4.8550    -0.6070 N.4   1 <1>  -0.9590 
 15 C       -6.8100    -3.6750     0.5070 C.3   1 <1>   0.0000 
 16 C       -5.3100    -6.0870     0.0880 C.3   1 <1>   0.3430 
 17 C       -4.9910    -5.0160    -2.0900 C.3   1 <1>   0.2630 
 18 C       -6.8170    -4.7250     1.6540 C.3   1 <1>  -0.1600 
 19 C       -7.8390    -4.1300    -0.5690 C.3   1 <1>   0.1200 
 20 C       -5.7010    -5.7860     1.5360 C.3   1 <1>  -0.1600 
 21 O       -7.7280    -3.3810    -1.7300 O.3   1 <1>  -0.6800 
 22 H       -5.2050     0.4580     1.1560 H     1 <1>   0.0800 
 23 H       -4.5820    -1.1320     1.5300 H     1 <1>   0.0800 
 24 H       -1.5230     0.7560    -2.2110 H     1 <1>   0.2700 
 25 H        0.4080     0.8000     1.1260 H     1 <1>   0.0800 
 26 H        0.3350     1.8690    -0.2510 H     1 <1>   0.0800 
 27 H        0.7680     0.1860    -0.4670 H     1 <1>   0.0800 
 28 H       -5.6010    -0.3060    -1.0650 H     1 <1>   0.4500 
 29 H       -5.6680    -2.4420    -1.8550 H     1 <1>   0.0800 
 30 H       -4.1040    -2.1760    -1.1490 H     1 <1>   0.0800 
 31 H       -7.3990    -0.2050     0.6140 H     1 <1>   0.0800 
 32 H       -7.7210    -1.2640    -0.7310 H     1 <1>   0.0800 
 33 H       -4.7580    -3.3550     0.8470 H     1 <1>   0.0800 
 34 H       -6.7160    -2.0850     1.9950 H     1 <1>   0.0800 
 35 H       -8.2980    -2.3610     1.3740 H     1 <1>   0.0800 
 36 H       -3.7840    -4.8470    -0.4390 H     1 <1>   0.4500 
 37 H       -6.1770    -6.4670    -0.4270 H     1 <1>   0.0800 
 38 H       -4.5550    -6.8580     0.0670 H     1 <1>   0.0800 
 39 H       -6.0390    -5.0210    -2.3410 H     1 <1>   0.0800 
 40 H       -4.5580    -5.9460    -2.4230 H     1 <1>   0.0800 
 41 H       -4.5130    -4.2130    -2.6270 H     1 <1>   0.0800 
 42 H       -6.7000    -4.2500     2.6150 H     1 <1>   0.0800 
 43 H       -7.7730    -5.2210     1.6880 H     1 <1>   0.0800 
 44 H       -8.8450    -4.0180    -0.1970 H     1 <1>   0.0800 
 45 H       -7.7030    -5.1630    -0.8360 H     1 <1>   0.0800 
 46 H       -6.0320    -6.6960     2.0070 H     1 <1>   0.0800 
 47 H       -4.8240    -5.4630     2.0730 H     1 <1>   0.0800 
 48 H       -8.4890    -3.5610    -2.3300 H     1 <1>   0.4000 
@<TRIPOS>BOND
  1   1   2  1   
  2   2   3  1   
  3   2   4  2   
  4   3   5  2   
  5   3   6  1   
  6   4   7  1   
  7   4   8  1   
  8   5   7  1   
  9   6   9  1   
 10   6  22  1   
 11   6  23  1   
 12   7  24  1   
 13   8  25  1   
 14   8  26  1   
 15   8  27  1   
 16   9  10  1   
 17   9  11  1   
 18   9  28  1   
 19  10  12  1   
 20  10  29  1   
 21  10  30  1   
 22  11  13  1   
 23  11  31  1   
 24  11  32  1   
 25  12  14  1   
 26  12  15  1   
 27  12  33  1   
 28  13  15  1   
 29  13  34  1   
 30  13  35  1   
 31  14  16  1   
 32  14  17  1   
 33  14  36  1   
 34  15  18  1   
 35  15  19  1   
 36  16  20  1   
 37  16  37  1   
 38  16  38  1   
 39  17  39  1   
 40  17  40  1   
 41  17  41  1   
 42  18  20  1   
 43  18  42  1   
 44  18  43  1   
 45  19  21  1   
 46  19  44  1   
 47  19  45  1   
 48  20  46  1   
 49  20  47  1   
 50  21  48  1   
@<TRIPOS>SUBSTRUCTURE
  1 ****  10 GROUP 4 **** **** 0

# MOE 2024.06 (io_trps.svl 2023.06)
