@<TRIPOS>MOLECULE
NONAME
52 54 1 0 0 
SMALL
USER_CHARGES


@<TRIPOS>ATOM
  1 O       -0.8850    -3.8850    -0.8360 O.co2 1 <1>  -0.9000 
  2 C       -1.4270    -3.3210     0.1280 C.2   1 <1>   1.0330 
  3 O       -2.6560    -3.4940     0.2480 O.co2 1 <1>  -0.9000 
  4 C       -0.6460    -2.8300     1.2200 C.2   1 <1>  -0.2330 
  5 C       -0.9830    -3.0880     2.5470 C.2   1 <1>   0.3720 
  6 C        0.5320    -2.1560     1.3230 C.2   1 <1>   0.0870 
  7 N       -0.0760    -2.6890     3.3580 N.2   1 <1>  -0.4100 
  8 N       -2.1700    -3.6850     2.9440 N.pl3 1 <1>  -0.8520 
  9 O        0.8270    -2.1170     2.6040 O.3   1 <1>  -0.0190 
 10 C        1.4290    -1.5210     0.3870 C.ar  1 <1>   0.0530 
 11 C       -2.1070    -5.1010     3.3850 C.3   1 <1>   0.2090 
 12 C        1.7050    -2.0390    -0.8790 C.ar  1 <1>  -0.1500 
 13 C        2.0720    -0.3330     0.7380 C.ar  1 <1>  -0.1500 
 14 C       -2.5790    -6.0280     2.2500 C.3   1 <1>   0.2000 
 15 C        2.5670    -1.4050    -1.7540 C.ar  1 <1>  -0.1500 
 16 C        2.9380     0.3070    -0.1280 C.ar  1 <1>  -0.1500 
 17 O       -3.0010    -7.2610     2.7530 O.3   1 <1>  -0.6800 
 18 C       -1.4590    -6.2800     1.2230 C.3   1 <1>   0.3430 
 19 C        3.1940    -0.2190    -1.3830 C.ar  1 <1>   0.0830 
 20 N       -1.9100    -7.0190     0.0010 N.4   1 <1>  -0.9590 
 21 O        4.0500     0.4660    -2.1760 O.3   1 <1>  -0.3620 
 22 C       -0.7380    -7.2340    -0.8850 C.3   1 <1>   0.3430 
 23 C       -2.9470    -6.2460    -0.7540 C.3   1 <1>   0.3430 
 24 C        4.3490     0.0280    -3.4830 C.3   1 <1>   0.0400 
 25 C       -1.1470    -8.1070    -2.0750 C.3   1 <1>  -0.1600 
 26 C       -3.4500    -7.0860    -1.9290 C.3   1 <1>  -0.1600 
 27 C       -2.2980    -7.4720    -2.8670 C.3   1 <1>  -0.1600 
 28 H       -2.8180    -3.5800     2.1350 H     1 <1>   0.4000 
 29 H       -2.7570    -5.2060     4.2360 H     1 <1>   0.0800 
 30 H       -1.1030    -5.3480     3.6900 H     1 <1>   0.0800 
 31 H        1.2440    -2.9570    -1.1870 H     1 <1>   0.1500 
 32 H        1.8850     0.0960     1.7070 H     1 <1>   0.1500 
 33 H       -3.4290    -5.5660     1.7790 H     1 <1>   0.0800 
 34 H        2.7370    -1.8480    -2.7170 H     1 <1>   0.1500 
 35 H        3.4220     1.2220     0.1620 H     1 <1>   0.1500 
 36 H       -3.7600    -7.1410     3.3610 H     1 <1>   0.4000 
 37 H       -0.6830    -6.8410     1.7150 H     1 <1>   0.0800 
 38 H       -1.0230    -5.3490     0.9320 H     1 <1>   0.0800 
 39 H       -2.3160    -7.9110     0.3060 H     1 <1>   0.4500 
 40 H        0.0580    -7.7130    -0.3390 H     1 <1>   0.0800 
 41 H       -0.3830    -6.2770    -1.2410 H     1 <1>   0.0800 
 42 H       -2.5220    -5.3310    -1.1330 H     1 <1>   0.0800 
 43 H       -3.7730    -5.9850    -0.1150 H     1 <1>   0.0800 
 44 H        5.0350     0.7310    -3.9220 H     1 <1>   0.0800 
 45 H        3.4400    -0.0030    -4.0560 H     1 <1>   0.0800 
 46 H        4.8060    -0.9440    -3.4290 H     1 <1>   0.0800 
 47 H       -1.4360    -9.0810    -1.7200 H     1 <1>   0.0800 
 48 H       -0.2980    -8.2340    -2.7230 H     1 <1>   0.0800 
 49 H       -4.1770    -6.5120    -2.4770 H     1 <1>   0.0800 
 50 H       -3.9410    -7.9670    -1.5560 H     1 <1>   0.0800 
 51 H       -2.6480    -8.1500    -3.6260 H     1 <1>   0.0800 
 52 H       -1.9370    -6.5820    -3.3580 H     1 <1>   0.0800 
@<TRIPOS>BOND
  1   1   2  ar  
  2   2   3  ar  
  3   2   4  1   
  4   4   5  1   
  5   4   6  2   
  6   5   7  2   
  7   5   8  1   
  8   6   9  1   
  9   6  10  1   
 10   7   9  1   
 11   8  11  1   
 12   8  28  1   
 13  10  12  ar  
 14  10  13  ar  
 15  11  14  1   
 16  11  29  1   
 17  11  30  1   
 18  12  15  ar  
 19  12  31  1   
 20  13  16  ar  
 21  13  32  1   
 22  14  17  1   
 23  14  18  1   
 24  14  33  1   
 25  15  19  ar  
 26  15  34  1   
 27  16  19  ar  
 28  16  35  1   
 29  17  36  1   
 30  18  20  1   
 31  18  37  1   
 32  18  38  1   
 33  19  21  1   
 34  20  22  1   
 35  20  23  1   
 36  20  39  1   
 37  21  24  1   
 38  22  25  1   
 39  22  40  1   
 40  22  41  1   
 41  23  26  1   
 42  23  42  1   
 43  23  43  1   
 44  24  44  1   
 45  24  45  1   
 46  24  46  1   
 47  25  27  1   
 48  25  47  1   
 49  25  48  1   
 50  26  27  1   
 51  26  49  1   
 52  26  50  1   
 53  27  51  1   
 54  27  52  1   
@<TRIPOS>SUBSTRUCTURE
  1 ****   2 GROUP 4 **** **** 0

# MOE 2024.06 (io_trps.svl 2023.06)
