@<TRIPOS>MOLECULE
NONAME
51 53 1 0 0 
SMALL
USER_CHARGES


@<TRIPOS>ATOM
  1 O       -0.4110     0.9270    -1.3520 O.2   1 <1>  -0.5700 
  2 C       -0.8770     1.6840    -0.5380 C.2   1 <1>   0.5690 
  3 N       -1.8450     1.3930     0.3540 N.am  1 <1>  -0.6600 
  4 C       -0.4520     3.1190    -0.4160 C.3   1 <1>  -0.0990 
  5 C       -2.2490     2.5680     1.1440 C.3   1 <1>   0.1400 
  6 C       -2.6350     0.1440     0.3630 C.3   1 <1>   0.2840 
  7 C       -1.1040     3.5680     0.9090 C.3   1 <1>  -0.0190 
  8 C       -3.9650     0.3900    -0.3290 C.ar  1 <1>  -0.1440 
  9 C       -1.5600     5.0210     0.9530 C.2   1 <1>   0.5690 
 10 C       -4.0520     0.4590    -1.7040 C.ar  1 <1>  -0.1500 
 11 C       -5.1440     0.5640     0.3680 C.ar  1 <1>  -0.1500 
 12 O       -2.5700     5.2860     1.5590 O.2   1 <1>  -0.5700 
 13 N       -0.7860     5.9640     0.3290 N.am  1 <1>  -0.4940 
 14 C       -5.2790     0.6880    -2.3020 C.ar  1 <1>   0.1600 
 15 C       -6.3210     0.7890    -0.3280 C.ar  1 <1>   0.1600 
 16 C       -0.9800     7.3670     0.2440 C.2   1 <1>  -0.0880 
 17 N       -6.4170     0.8530    -1.6460 N.ar  1 <1>  -0.6200 
 18 N       -0.1740     8.2300    -0.4350 N.pl3 1 <1>   0.3140 
 19 C       -1.9560     8.1270     0.7920 C.2   1 <1>  -0.1500 
 20 N       -0.6090     9.5050    -0.3310 N.2   1 <1>  -0.7070 
 21 C        1.0280     7.9060    -1.2280 C.3   1 <1>   0.0960 
 22 C       -1.6720     9.4290     0.4040 C.2   1 <1>   0.1080 
 23 C        2.2450     7.6800    -0.3200 C.3   1 <1>  -0.1600 
 24 C       -2.4860    10.6460     0.7750 C.3   1 <1>  -0.0590 
 25 C        3.4880     7.3120    -1.1390 C.3   1 <1>  -0.1600 
 26 C        4.6990     7.0930    -0.2280 C.3   1 <1>  -0.2400 
 27 H       -0.8510     3.6540    -1.2590 H     1 <1>   0.0800 
 28 H        0.6190     3.1970    -0.3920 H     1 <1>   0.0800 
 29 H       -2.3520     2.3250     2.1880 H     1 <1>   0.0800 
 30 H       -3.1840     2.9460     0.7630 H     1 <1>   0.0800 
 31 H       -2.7880    -0.1780     1.3780 H     1 <1>   0.0800 
 32 H       -2.0940    -0.6290    -0.1580 H     1 <1>   0.0800 
 33 H       -0.3940     3.4280     1.7040 H     1 <1>   0.0800 
 34 H       -3.1710     0.3390    -2.3120 H     1 <1>   0.1500 
 35 H       -5.1610     0.5290     1.4420 H     1 <1>   0.1500 
 36 H        0.0540     5.6070    -0.1220 H     1 <1>   0.3700 
 37 H       -5.3270     0.7390    -3.3760 H     1 <1>   0.1500 
 38 H       -7.2320     0.9230     0.2300 H     1 <1>   0.1500 
 39 H       -2.7830     7.8110     1.4020 H     1 <1>   0.1500 
 40 H        1.2170     8.7280    -1.8950 H     1 <1>   0.0800 
 41 H        0.8230     7.0320    -1.8180 H     1 <1>   0.0800 
 42 H        2.0340     6.8930     0.3840 H     1 <1>   0.0800 
 43 H        2.4370     8.5850     0.2320 H     1 <1>   0.0800 
 44 H       -3.3260    10.3650     1.3830 H     1 <1>   0.0800 
 45 H       -2.8400    11.1260    -0.1180 H     1 <1>   0.0800 
 46 H       -1.8690    11.3360     1.3220 H     1 <1>   0.0800 
 47 H        3.7110     8.1050    -1.8340 H     1 <1>   0.0800 
 48 H        3.3050     6.4140    -1.7040 H     1 <1>   0.0800 
 49 H        4.9190     7.9890     0.3280 H     1 <1>   0.0800 
 50 H        5.5630     6.8400    -0.8180 H     1 <1>   0.0800 
 51 H        4.5130     6.2920     0.4660 H     1 <1>   0.0800 
@<TRIPOS>BOND
  1   1   2  2   
  2   2   3  am  
  3   2   4  1   
  4   3   5  1   
  5   3   6  1   
  6   4   7  1   
  7   4  27  1   
  8   4  28  1   
  9   5   7  1   
 10   5  29  1   
 11   5  30  1   
 12   6   8  1   
 13   6  31  1   
 14   6  32  1   
 15   7   9  1   
 16   7  33  1   
 17   8  10  ar  
 18   8  11  ar  
 19   9  12  2   
 20   9  13  am  
 21  10  14  ar  
 22  10  34  1   
 23  11  15  ar  
 24  11  35  1   
 25  13  16  1   
 26  13  36  1   
 27  14  17  ar  
 28  14  37  1   
 29  15  17  ar  
 30  15  38  1   
 31  16  18  1   
 32  16  19  2   
 33  18  20  1   
 34  18  21  1   
 35  19  22  1   
 36  19  39  1   
 37  20  22  2   
 38  21  23  1   
 39  21  40  1   
 40  21  41  1   
 41  22  24  1   
 42  23  25  1   
 43  23  42  1   
 44  23  43  1   
 45  24  44  1   
 46  24  45  1   
 47  24  46  1   
 48  25  26  1   
 49  25  47  1   
 50  25  48  1   
 51  26  49  1   
 52  26  50  1   
 53  26  51  1   
@<TRIPOS>SUBSTRUCTURE
  1 ****   9 GROUP 4 **** **** 0

# MOE 2024.06 (io_trps.svl 2023.06)
