@<TRIPOS>MOLECULE
NONAME
50 52 1 0 0 
SMALL
USER_CHARGES


@<TRIPOS>ATOM
  1 CL      -0.8890    -0.3750    -0.8060 Cl    1 <1>  -0.1770 
  2 C        0.5520    -1.3400    -0.5650 C.ar  1 <1>   0.1770 
  3 C        0.6520    -2.6180    -1.1100 C.ar  1 <1>  -0.1440 
  4 C        1.5680    -0.7920     0.1970 C.ar  1 <1>  -0.1500 
  5 C        1.8110    -3.3460    -0.8760 C.ar  1 <1>  -0.1500 
  6 C       -0.4560    -3.2490    -1.9550 C.3   1 <1>   0.0450 
  7 C        2.7110    -1.5310     0.4320 C.ar  1 <1>   0.0830 
  8 C        2.8350    -2.8110    -0.1130 C.ar  1 <1>   0.0830 
  9 C       -0.9460    -4.5880    -1.4110 C.2   1 <1>   0.5690 
 10 O        3.6930    -0.9950     1.1990 O.3   1 <1>  -0.3630 
 11 O        3.9520    -3.5520     0.0880 O.3   1 <1>  -0.3630 
 12 O       -1.0400    -5.5000    -2.1980 O.2   1 <1>  -0.5700 
 13 N       -1.3050    -4.7730    -0.0960 N.am  1 <1>  -0.6600 
 14 C        4.7070    -1.8700     1.6590 C.3   1 <1>   0.1200 
 15 C        5.0980    -2.8640     0.5560 C.3   1 <1>   0.1200 
 16 C       -1.2260    -6.1490     0.4740 C.3   1 <1>   0.3200 
 17 C       -1.6390    -3.6700     0.8710 C.3   1 <1>   0.1400 
 18 C       -2.5770    -6.7970     0.2840 C.2   1 <1>  -0.3320 
 19 C       -3.0710    -3.7670     1.4470 C.3   1 <1>   0.3430 
 20 N       -3.0580    -7.1020    -0.9360 N.pl3 1 <1>   0.0330 
 21 C       -3.5200    -7.1730     1.1760 C.2   1 <1>   0.0770 
 22 N       -4.0910    -4.1340     0.4110 N.4   1 <1>  -0.9590 
 23 C       -4.2900    -7.6000    -0.7110 C.2   1 <1>   0.0360 
 24 N       -4.6130    -7.6350     0.5430 N.2   1 <1>  -0.5650 
 25 C       -4.2650    -3.0970    -0.6490 C.3   1 <1>   0.2630 
 26 C       -5.4050    -4.5000     1.0260 C.3   1 <1>   0.2630 
 27 H        1.4750     0.1970     0.6070 H     1 <1>   0.1500 
 28 H        1.9400    -4.3330    -1.2860 H     1 <1>   0.1500 
 29 H       -0.0610    -3.4140    -2.9420 H     1 <1>   0.0800 
 30 H       -1.3000    -2.6010    -2.0680 H     1 <1>   0.0800 
 31 H        4.3310    -2.3950     2.5190 H     1 <1>   0.0800 
 32 H        5.5520    -1.2730     1.9520 H     1 <1>   0.0800 
 33 H        5.5410    -2.3460    -0.2760 H     1 <1>   0.0800 
 34 H        5.7940    -3.5940     0.9280 H     1 <1>   0.0800 
 35 H       -0.9650    -6.1080     1.5180 H     1 <1>   0.0800 
 36 H       -0.4680    -6.7210    -0.0360 H     1 <1>   0.0800 
 37 H       -1.5560    -2.7180     0.3870 H     1 <1>   0.0800 
 38 H       -0.9260    -3.6750     1.6780 H     1 <1>   0.0800 
 39 H       -3.3350    -2.8310     1.9120 H     1 <1>   0.0800 
 40 H       -3.0700    -4.5210     2.2170 H     1 <1>   0.0800 
 41 H       -2.5660    -6.9660    -1.8330 H     1 <1>   0.2700 
 42 H       -3.4810    -7.1250     2.2530 H     1 <1>   0.1500 
 43 H       -3.7190    -5.0020    -0.0280 H     1 <1>   0.4500 
 44 H       -4.9280    -7.9340    -1.5130 H     1 <1>   0.1500 
 45 H       -4.6260    -2.1770    -0.2180 H     1 <1>   0.0800 
 46 H       -4.9750    -3.4350    -1.3860 H     1 <1>   0.0800 
 47 H       -3.3270    -2.9040    -1.1420 H     1 <1>   0.0800 
 48 H       -5.8440    -3.6490     1.5210 H     1 <1>   0.0800 
 49 H       -5.2740    -5.2930     1.7450 H     1 <1>   0.0800 
 50 H       -6.0850    -4.8510     0.2670 H     1 <1>   0.0800 
@<TRIPOS>BOND
  1   1   2  1   
  2   2   3  ar  
  3   2   4  ar  
  4   3   5  ar  
  5   3   6  1   
  6   4   7  ar  
  7   4  27  1   
  8   5   8  ar  
  9   5  28  1   
 10   6   9  1   
 11   6  29  1   
 12   6  30  1   
 13   7   8  ar  
 14   7  10  1   
 15   8  11  1   
 16   9  12  2   
 17   9  13  am  
 18  10  14  1   
 19  11  15  1   
 20  13  16  1   
 21  13  17  1   
 22  14  15  1   
 23  14  31  1   
 24  14  32  1   
 25  15  33  1   
 26  15  34  1   
 27  16  18  1   
 28  16  35  1   
 29  16  36  1   
 30  17  19  1   
 31  17  37  1   
 32  17  38  1   
 33  18  20  1   
 34  18  21  2   
 35  19  22  1   
 36  19  39  1   
 37  19  40  1   
 38  20  23  1   
 39  20  41  1   
 40  21  24  1   
 41  21  42  1   
 42  22  25  1   
 43  22  26  1   
 44  22  43  1   
 45  23  24  2   
 46  23  44  1   
 47  25  45  1   
 48  25  46  1   
 49  25  47  1   
 50  26  48  1   
 51  26  49  1   
 52  26  50  1   
@<TRIPOS>SUBSTRUCTURE
  1 ****  13 GROUP 4 **** **** 0

# MOE 2024.06 (io_trps.svl 2023.06)
