@<TRIPOS>MOLECULE
NONAME
42 44 1 0 0 
SMALL
USER_CHARGES


@<TRIPOS>ATOM
  1 O        0.5350    -3.0340     2.5270 O.3   1 <1>  -0.6800 
  2 C        0.6510    -2.4820     1.2710 C.3   1 <1>   0.2000 
  3 C        1.3130    -3.4830     0.3360 C.3   1 <1>  -0.1600 
  4 C        1.6070    -1.3020     1.3350 C.3   1 <1>  -0.1600 
  5 C        2.1070    -2.6390    -0.6730 C.3   1 <1>  -0.0800 
  6 C        2.2860    -1.2490    -0.0410 C.3   1 <1>  -0.0800 
  7 C        3.5210    -3.1780    -0.9240 C.3   1 <1>  -0.1600 
  8 C        3.7970    -1.0100     0.0520 C.3   1 <1>  -0.1600 
  9 C        4.4050    -2.4110     0.0560 C.3   1 <1>   0.4230 
 10 N        5.8300    -2.4030    -0.3640 N.4   1 <1>  -0.9590 
 11 C        6.6750    -1.5910     0.5460 C.3   1 <1>   0.5230 
 12 C        6.3940    -3.7860    -0.5030 C.3   1 <1>   0.2630 
 13 C        8.0210    -1.3970    -0.1080 C.2   1 <1>  -0.3320 
 14 N        9.1770    -1.3360     0.5930 N.pl3 1 <1>   0.3140 
 15 C        8.3510    -1.2420    -1.4140 C.2   1 <1>  -0.1500 
 16 N       10.2250    -1.1700    -0.2200 N.2   1 <1>  -0.7070 
 17 C        9.3820    -1.4230     2.0490 C.3   1 <1>   0.0160 
 18 C        9.7320    -1.1080    -1.4160 C.2   1 <1>   0.1390 
 19 H       -0.1380    -3.7420     2.5260 H     1 <1>   0.4000 
 20 H       -0.3200    -2.1780     0.9130 H     1 <1>   0.0800 
 21 H        1.9740    -4.1150     0.9030 H     1 <1>   0.0800 
 22 H        0.5780    -4.0910    -0.1620 H     1 <1>   0.0800 
 23 H        1.0760    -0.3900     1.5450 H     1 <1>   0.0800 
 24 H        2.3310    -1.4760     2.1130 H     1 <1>   0.0800 
 25 H        1.5550    -2.5620    -1.5950 H     1 <1>   0.0800 
 26 H        1.8120    -0.4950    -0.6490 H     1 <1>   0.0800 
 27 H        3.8000    -2.9400    -1.9360 H     1 <1>   0.0800 
 28 H        3.5720    -4.2420    -0.7790 H     1 <1>   0.0800 
 29 H        4.0520    -0.4430     0.9300 H     1 <1>   0.0800 
 30 H        4.1100    -0.4730    -0.8270 H     1 <1>   0.0800 
 31 H        4.2960    -2.8420     1.0390 H     1 <1>   0.0800 
 32 H        5.8860    -1.9400    -1.2790 H     1 <1>   0.4500 
 33 H        6.2280    -0.6260     0.7230 H     1 <1>   0.0800 
 34 H        6.7850    -2.0990     1.4910 H     1 <1>   0.0800 
 35 H        6.3430    -4.3090     0.4380 H     1 <1>   0.0800 
 36 H        7.4260    -3.7420    -0.8160 H     1 <1>   0.0800 
 37 H        5.8420    -4.3460    -1.2390 H     1 <1>   0.0800 
 38 H        7.7400    -1.2150    -2.2980 H     1 <1>   0.1500 
 39 H        8.8120    -0.6570     2.5400 H     1 <1>   0.0800 
 40 H       10.4260    -1.2760     2.2630 H     1 <1>   0.0800 
 41 H        9.0860    -2.3940     2.3980 H     1 <1>   0.0800 
 42 H       10.3370    -0.9670    -2.2980 H     1 <1>   0.1500 
@<TRIPOS>BOND
  1   1   2  1   
  2   1  19  1   
  3   2   3  1   
  4   2   4  1   
  5   2  20  1   
  6   3   5  1   
  7   3  21  1   
  8   3  22  1   
  9   4   6  1   
 10   4  23  1   
 11   4  24  1   
 12   5   6  1   
 13   5   7  1   
 14   5  25  1   
 15   6   8  1   
 16   6  26  1   
 17   7   9  1   
 18   7  27  1   
 19   7  28  1   
 20   8   9  1   
 21   8  29  1   
 22   8  30  1   
 23   9  10  1   
 24   9  31  1   
 25  10  11  1   
 26  10  12  1   
 27  10  32  1   
 28  11  13  1   
 29  11  33  1   
 30  11  34  1   
 31  12  35  1   
 32  12  36  1   
 33  12  37  1   
 34  13  14  1   
 35  13  15  2   
 36  14  16  1   
 37  14  17  1   
 38  15  18  1   
 39  15  38  1   
 40  16  18  2   
 41  17  39  1   
 42  17  40  1   
 43  17  41  1   
 44  18  42  1   
@<TRIPOS>SUBSTRUCTURE
  1 ****  10 GROUP 4 **** **** 0

# MOE 2024.06 (io_trps.svl 2023.06)
