@<TRIPOS>MOLECULE
NONAME
39 41 1 0 0 
SMALL
USER_CHARGES


@<TRIPOS>ATOM
  1 O        0.8680    -0.4120     0.0780 O.3   1 <1>  -0.5600 
  2 C        0.5700    -1.7200    -0.3080 C.3   1 <1>   0.2000 
  3 C        0.3110     0.5890    -0.7340 C.3   1 <1>   0.2630 
  4 C       -0.8380    -2.1250     0.1700 C.3   1 <1>   0.2090 
  5 C        1.6420    -2.6260     0.3110 C.3   1 <1>  -0.1600 
  6 C        0.7180     1.9930    -0.2900 C.ar  1 <1>   0.1660 
  7 N       -1.0840    -3.5730    -0.1090 N.pl3 1 <1>  -0.8380 
  8 C        1.3130    -4.1090     0.0650 C.3   1 <1>  -0.1600 
  9 N        0.2220     2.9820    -1.0240 N.ar  1 <1>  -0.6200 
 10 C        1.5500     2.1970     0.8050 C.ar  1 <1>  -0.1500 
 11 C       -2.3940    -4.0120    -0.1480 C.ar  1 <1>   0.4100 
 12 C       -0.0980    -4.4670     0.5460 C.3   1 <1>   0.2090 
 13 C        0.5640     4.2060    -0.6560 C.ar  1 <1>   0.1600 
 14 C        1.8980     3.4780     1.1770 C.ar  1 <1>  -0.1500 
 15 N       -3.2680    -3.3990     0.6420 N.ar  1 <1>  -0.6200 
 16 C       -2.7380    -5.0660    -0.9910 C.ar  1 <1>  -0.1500 
 17 C        1.3850     4.5060     0.4170 C.ar  1 <1>  -0.1500 
 18 C       -4.5100    -3.8500     0.5900 C.ar  1 <1>   0.1600 
 19 C       -4.0330    -5.5260    -1.0350 C.ar  1 <1>  -0.1500 
 20 C       -4.9410    -4.8900    -0.2130 C.ar  1 <1>  -0.1500 
 21 H        0.6200    -1.7900    -1.3820 H     1 <1>   0.0800 
 22 H       -0.7610     0.5110    -0.6960 H     1 <1>   0.0800 
 23 H        0.6430     0.4340    -1.7450 H     1 <1>   0.0800 
 24 H       -1.5820    -1.5400    -0.3420 H     1 <1>   0.0800 
 25 H       -0.9260    -1.9510     1.2280 H     1 <1>   0.0800 
 26 H        1.6830    -2.4460     1.3710 H     1 <1>   0.0800 
 27 H        2.6000    -2.3910    -0.1160 H     1 <1>   0.0800 
 28 H        2.0280    -4.7270     0.5770 H     1 <1>   0.0800 
 29 H        1.3830    -4.3280    -0.9870 H     1 <1>   0.0800 
 30 H        1.9250     1.3610     1.3670 H     1 <1>   0.1500 
 31 H       -0.3170    -5.4940     0.3080 H     1 <1>   0.0800 
 32 H       -0.1680    -4.3450     1.6140 H     1 <1>   0.0800 
 33 H        0.1680     5.0170    -1.2420 H     1 <1>   0.1500 
 34 H        2.5400     3.6630     2.0200 H     1 <1>   0.1500 
 35 H       -1.9750    -5.5030    -1.6060 H     1 <1>   0.1500 
 36 H        1.6170     5.5290     0.6520 H     1 <1>   0.1500 
 37 H       -5.2260    -3.3600     1.2260 H     1 <1>   0.1500 
 38 H       -4.3250    -6.3380    -1.6780 H     1 <1>   0.1500 
 39 H       -5.9710    -5.1980    -0.1960 H     1 <1>   0.1500 
@<TRIPOS>BOND
  1   1   2  1   
  2   1   3  1   
  3   2   4  1   
  4   2   5  1   
  5   2  21  1   
  6   3   6  1   
  7   3  22  1   
  8   3  23  1   
  9   4   7  1   
 10   4  24  1   
 11   4  25  1   
 12   5   8  1   
 13   5  26  1   
 14   5  27  1   
 15   6   9  ar  
 16   6  10  ar  
 17   7  11  1   
 18   7  12  1   
 19   8  12  1   
 20   8  28  1   
 21   8  29  1   
 22   9  13  ar  
 23  10  14  ar  
 24  10  30  1   
 25  11  15  ar  
 26  11  16  ar  
 27  12  31  1   
 28  12  32  1   
 29  13  17  ar  
 30  13  33  1   
 31  14  17  ar  
 32  14  34  1   
 33  15  18  ar  
 34  16  19  ar  
 35  16  35  1   
 36  17  36  1   
 37  18  20  ar  
 38  18  37  1   
 39  19  20  ar  
 40  19  38  1   
 41  20  39  1   
@<TRIPOS>SUBSTRUCTURE
  1 ****   4 GROUP 4 **** **** 0

# MOE 2024.06 (io_trps.svl 2023.06)
