@<TRIPOS>MOLECULE
NONAME
49 50 1 0 0 
SMALL
USER_CHARGES


@<TRIPOS>ATOM
  1 O        0.3840     0.3290    -1.0110 O.2   1 <1>  -0.5700 
  2 C        0.3860     1.5050    -0.7380 C.2   1 <1>   0.5690 
  3 N       -0.7650     2.1990    -0.4560 N.am  1 <1>  -0.6600 
  4 C        1.7340     2.2100    -0.7440 C.3   1 <1>  -0.0990 
  5 C       -0.7810     3.6330    -0.0420 C.3   1 <1>   0.1400 
  6 C       -2.0930     1.5170    -0.4440 C.3   1 <1>   0.1400 
  7 C        1.7290     3.5920    -0.0720 C.3   1 <1>  -0.1600 
  8 C        0.4810     4.3780    -0.4990 C.3   1 <1>  -0.0190 
  9 C       -2.6480     1.3430     0.9840 C.3   1 <1>  -0.0800 
 10 C        0.5030     5.7980     0.0550 C.2   1 <1>   0.5690 
 11 C       -1.7000     0.5260     1.8770 C.3   1 <1>  -0.2400 
 12 C       -4.0170     0.6540     0.9300 C.3   1 <1>  -0.2400 
 13 O        0.0550     6.0080     1.1570 O.2   1 <1>  -0.5700 
 14 N        1.0440     6.7780    -0.7240 N.am  1 <1>  -0.4930 
 15 C        1.1920     8.1560    -0.4330 C.2   1 <1>   0.0630 
 16 C        0.8280     8.8670     0.7130 C.2   1 <1>   0.1390 
 17 C        1.7420     9.0830    -1.2440 C.2   1 <1>  -0.3020 
 18 N        1.1280    10.1300     0.6260 N.2   1 <1>  -0.7070 
 19 N        1.6930    10.2650    -0.5900 N.pl3 1 <1>   0.3140 
 20 C        2.1830    11.5640    -1.0740 C.3   1 <1>   0.1570 
 21 C        3.5390    11.8610    -0.4750 C.2   1 <1>   0.5690 
 22 O        4.4090    12.2730    -1.2050 O.2   1 <1>  -0.5700 
 23 N        3.7410    11.6730     0.8570 N.am  1 <1>  -0.7300 
 24 C        5.0040    11.9160     1.5940 C.3   1 <1>   0.0600 
 25 H        2.0320     2.3130    -1.7710 H     1 <1>   0.0800 
 26 H        2.4540     1.5770    -0.2590 H     1 <1>   0.0800 
 27 H       -0.8550     3.6720     1.0330 H     1 <1>   0.0800 
 28 H       -1.6500     4.1180    -0.4530 H     1 <1>   0.0800 
 29 H       -2.0090     0.5480    -0.9070 H     1 <1>   0.0800 
 30 H       -2.7850     2.0930    -1.0330 H     1 <1>   0.0800 
 31 H        2.6250     4.1260    -0.3360 H     1 <1>   0.0800 
 32 H        1.7190     3.4670     0.9980 H     1 <1>   0.0800 
 33 H        0.4520     4.4400    -1.5720 H     1 <1>   0.0800 
 34 H       -2.7880     2.3150     1.4250 H     1 <1>   0.0800 
 35 H       -1.5030    -0.4350     1.4340 H     1 <1>   0.0800 
 36 H       -2.1320     0.3780     2.8500 H     1 <1>   0.0800 
 37 H       -0.7630     1.0390     2.0010 H     1 <1>   0.0800 
 38 H       -3.9290    -0.3300     0.5050 H     1 <1>   0.0800 
 39 H       -4.7030     1.2280     0.3320 H     1 <1>   0.0800 
 40 H       -4.4290     0.5640     1.9200 H     1 <1>   0.0800 
 41 H        1.4110     6.4970    -1.6320 H     1 <1>   0.3700 
 42 H        0.3540     8.4250     1.5730 H     1 <1>   0.1500 
 43 H        2.1610     8.9750    -2.2270 H     1 <1>   0.1500 
 44 H        1.4890    12.3270    -0.7820 H     1 <1>   0.0800 
 45 H        2.2560    11.5400    -2.1440 H     1 <1>   0.0800 
 46 H        2.9740    11.2340     1.3920 H     1 <1>   0.3700 
 47 H        5.7430    12.3430     0.9370 H     1 <1>   0.0800 
 48 H        5.3810    10.9860     1.9840 H     1 <1>   0.0800 
 49 H        4.8260    12.5960     2.4070 H     1 <1>   0.0800 
@<TRIPOS>BOND
  1   1   2  2   
  2   2   3  am  
  3   2   4  1   
  4   3   5  1   
  5   3   6  1   
  6   4   7  1   
  7   4  25  1   
  8   4  26  1   
  9   5   8  1   
 10   5  27  1   
 11   5  28  1   
 12   6   9  1   
 13   6  29  1   
 14   6  30  1   
 15   7   8  1   
 16   7  31  1   
 17   7  32  1   
 18   8  10  1   
 19   8  33  1   
 20   9  11  1   
 21   9  12  1   
 22   9  34  1   
 23  10  13  2   
 24  10  14  am  
 25  11  35  1   
 26  11  36  1   
 27  11  37  1   
 28  12  38  1   
 29  12  39  1   
 30  12  40  1   
 31  14  15  1   
 32  14  41  1   
 33  15  16  1   
 34  15  17  2   
 35  16  18  2   
 36  16  42  1   
 37  17  19  1   
 38  17  43  1   
 39  18  19  1   
 40  19  20  1   
 41  20  21  1   
 42  20  44  1   
 43  20  45  1   
 44  21  22  2   
 45  21  23  am  
 46  23  24  1   
 47  23  46  1   
 48  24  47  1   
 49  24  48  1   
 50  24  49  1   
@<TRIPOS>SUBSTRUCTURE
  1 ****  10 GROUP 4 **** **** 0

# MOE 2024.06 (io_trps.svl 2023.06)
