@<TRIPOS>MOLECULE
NONAME
41 42 1 0 0 
SMALL
USER_CHARGES


@<TRIPOS>ATOM
  1 F       -0.3070    -1.0110    -2.0950 F     1 <1>  -0.3400 
  2 C       -0.0170    -1.5760    -0.9310 C.3   1 <1>   1.1640 
  3 F        1.1810    -2.1320    -1.0740 F     1 <1>  -0.3400 
  4 F        0.1350    -0.5830    -0.0640 F     1 <1>  -0.3400 
  5 C       -1.0910    -2.5640    -0.4910 C.ar  1 <1>  -0.1440 
  6 C       -2.3490    -2.0780    -0.1750 C.ar  1 <1>   0.1600 
  7 C       -0.8740    -3.9300    -0.3900 C.ar  1 <1>  -0.1500 
  8 N       -3.3740    -2.8120     0.2200 N.ar  1 <1>  -0.6200 
  9 C       -1.9340    -4.7030     0.0210 C.ar  1 <1>  -0.1500 
 10 C       -3.1650    -4.1210     0.3130 C.ar  1 <1>   0.4100 
 11 N       -4.2200    -4.9180     0.7190 N.pl3 1 <1>  -0.8380 
 12 C       -4.6720    -6.0600    -0.1360 C.3   1 <1>   0.2090 
 13 C       -5.3010    -4.3870     1.5980 C.3   1 <1>   0.2090 
 14 C       -5.8930    -5.6530    -0.9770 C.3   1 <1>   0.2000 
 15 C       -6.5310    -3.9950     0.7660 C.3   1 <1>  -0.1600 
 16 O       -6.2780    -6.7350    -1.7560 O.3   1 <1>  -0.6800 
 17 C       -7.0780    -5.1670    -0.1000 C.3   1 <1>  -0.1060 
 18 C       -7.5780    -6.3340     0.7860 C.2   1 <1>   0.9060 
 19 C       -8.2210    -4.6540    -1.0250 C.3   1 <1>  -0.1600 
 20 O       -7.6480    -7.4740     0.2970 O.co2 1 <1>  -0.9000 
 21 O       -7.9000    -6.1280     1.9630 O.co2 1 <1>  -0.9000 
 22 C       -9.4500    -4.0910    -0.2890 C.3   1 <1>  -0.1600 
 23 C      -10.5520    -3.7050    -1.2780 C.3   1 <1>  -0.2400 
 24 H       -2.5340    -1.0190    -0.2500 H     1 <1>   0.1500 
 25 H        0.0790    -4.3800    -0.6170 H     1 <1>   0.1500 
 26 H       -1.8300    -5.7650     0.1320 H     1 <1>   0.1500 
 27 H       -3.8830    -6.3620    -0.7990 H     1 <1>   0.0800 
 28 H       -4.9280    -6.8910     0.4980 H     1 <1>   0.0800 
 29 H       -5.5720    -5.1430     2.3170 H     1 <1>   0.0800 
 30 H       -4.9440    -3.5320     2.1450 H     1 <1>   0.0800 
 31 H       -5.5900    -4.8720    -1.6520 H     1 <1>   0.0800 
 32 H       -7.2880    -3.6610     1.4510 H     1 <1>   0.0800 
 33 H       -6.2650    -3.1640     0.1390 H     1 <1>   0.0800 
 34 H       -6.8570    -7.2930    -1.1500 H     1 <1>   0.4000 
 35 H       -7.8300    -3.8980    -1.6830 H     1 <1>   0.0800 
 36 H       -8.5510    -5.4750    -1.6390 H     1 <1>   0.0800 
 37 H       -9.8320    -4.8320     0.3950 H     1 <1>   0.0800 
 38 H       -9.1760    -3.2230     0.2830 H     1 <1>   0.0800 
 39 H      -10.8660    -4.5670    -1.8390 H     1 <1>   0.0800 
 40 H      -10.1970    -2.9540    -1.9610 H     1 <1>   0.0800 
 41 H      -11.4010    -3.3150    -0.7460 H     1 <1>   0.0800 
@<TRIPOS>BOND
  1   1   2  1   
  2   2   3  1   
  3   2   4  1   
  4   2   5  1   
  5   5   6  ar  
  6   5   7  ar  
  7   6   8  ar  
  8   6  24  1   
  9   7   9  ar  
 10   7  25  1   
 11   8  10  ar  
 12   9  10  ar  
 13   9  26  1   
 14  10  11  1   
 15  11  12  1   
 16  11  13  1   
 17  12  14  1   
 18  12  27  1   
 19  12  28  1   
 20  13  15  1   
 21  13  29  1   
 22  13  30  1   
 23  14  16  1   
 24  14  17  1   
 25  14  31  1   
 26  15  17  1   
 27  15  32  1   
 28  15  33  1   
 29  16  34  1   
 30  17  18  1   
 31  17  19  1   
 32  18  20  ar  
 33  18  21  ar  
 34  19  22  1   
 35  19  35  1   
 36  19  36  1   
 37  22  23  1   
 38  22  37  1   
 39  22  38  1   
 40  23  39  1   
 41  23  40  1   
 42  23  41  1   
@<TRIPOS>SUBSTRUCTURE
  1 ****  11 GROUP 4 **** **** 0

# MOE 2024.06 (io_trps.svl 2023.06)
