@<TRIPOS>MOLECULE
NONAME
39 40 1 0 0 
SMALL
USER_CHARGES


@<TRIPOS>ATOM
  1 S        0.9460     0.1800     1.0190 S.3   1 <1>  -0.4600 
  2 C        0.4420     1.8450     0.5120 C.3   1 <1>   0.0700 
  3 C       -0.3890    -0.8670     0.3810 C.3   1 <1>  -0.0100 
  4 C        1.4450     2.8330     1.1070 C.3   1 <1>  -0.0990 
  5 C        1.1670     4.2460     0.6390 C.2   1 <1>   0.5690 
  6 O        0.0260     4.6390     0.6460 O.2   1 <1>  -0.5700 
  7 N        2.2320     5.0030     0.2310 N.am  1 <1>  -0.4940 
  8 C        2.2510     6.3500    -0.2160 C.2   1 <1>  -0.0880 
  9 N        3.3300     6.9940    -0.7490 N.pl3 1 <1>   0.3140 
 10 C        1.2450     7.2550    -0.2000 C.2   1 <1>  -0.1500 
 11 N        3.0260     8.2830    -1.0590 N.2   1 <1>  -0.7070 
 12 C        4.6770     6.3930    -0.9970 C.3   1 <1>   0.2710 
 13 C        1.7840     8.4200    -0.7280 C.2   1 <1>   0.1080 
 14 C        5.5010     6.4110     0.3130 C.3   1 <1>  -0.1950 
 15 C        5.3800     7.0510    -2.2010 C.3   1 <1>  -0.2400 
 16 C        1.0370     9.7200    -0.9100 C.3   1 <1>  -0.0590 
 17 C        6.2160     7.6280     0.8120 C.3   1 <1>  -0.2000 
 18 C        7.0000     6.4230     0.3700 C.3   1 <1>  -0.2000 
 19 H       -0.5520     2.0180     0.8860 H     1 <1>   0.0800 
 20 H        0.4440     1.8720    -0.5640 H     1 <1>   0.0800 
 21 H       -0.1610    -1.8840     0.6450 H     1 <1>   0.0800 
 22 H       -0.4250    -0.7480    -0.6870 H     1 <1>   0.0800 
 23 H       -1.3090    -0.5490     0.8380 H     1 <1>   0.0800 
 24 H        2.4390     2.5410     0.8220 H     1 <1>   0.0800 
 25 H        1.3740     2.8080     2.1780 H     1 <1>   0.0800 
 26 H        3.1350     4.5370     0.2980 H     1 <1>   0.3700 
 27 H        0.2360     7.1210     0.1460 H     1 <1>   0.1500 
 28 H        4.5140     5.3650    -1.2640 H     1 <1>   0.0800 
 29 H        5.0160     5.8200     1.0700 H     1 <1>   0.1000 
 30 H        5.6090     8.0810    -1.9940 H     1 <1>   0.0800 
 31 H        4.7380     7.0100    -3.0620 H     1 <1>   0.0800 
 32 H        6.2900     6.5330    -2.4360 H     1 <1>   0.0800 
 33 H        0.0200     9.6190    -0.5810 H     1 <1>   0.0800 
 34 H        1.0470     9.9960    -1.9490 H     1 <1>   0.0800 
 35 H        1.5190    10.4920    -0.3390 H     1 <1>   0.0800 
 36 H        6.1600     7.8600     1.8620 H     1 <1>   0.1000 
 37 H        6.2290     8.5160     0.2040 H     1 <1>   0.1000 
 38 H        7.5950     6.5220    -0.5210 H     1 <1>   0.1000 
 39 H        7.4960     5.8340     1.1220 H     1 <1>   0.1000 
@<TRIPOS>BOND
  1   1   2  1   
  2   1   3  1   
  3   2   4  1   
  4   2  19  1   
  5   2  20  1   
  6   3  21  1   
  7   3  22  1   
  8   3  23  1   
  9   4   5  1   
 10   4  24  1   
 11   4  25  1   
 12   5   6  2   
 13   5   7  am  
 14   7   8  1   
 15   7  26  1   
 16   8   9  1   
 17   8  10  2   
 18   9  11  1   
 19   9  12  1   
 20  10  13  1   
 21  10  27  1   
 22  11  13  2   
 23  12  14  1   
 24  12  15  1   
 25  12  28  1   
 26  13  16  1   
 27  14  17  1   
 28  14  18  1   
 29  14  29  1   
 30  15  30  1   
 31  15  31  1   
 32  15  32  1   
 33  16  33  1   
 34  16  34  1   
 35  16  35  1   
 36  17  18  1   
 37  17  36  1   
 38  17  37  1   
 39  18  38  1   
 40  18  39  1   
@<TRIPOS>SUBSTRUCTURE
  1 ****   7 GROUP 4 **** **** 0

# MOE 2024.06 (io_trps.svl 2023.06)
