@<TRIPOS>MOLECULE
NONAME
40 42 1 0 0 
SMALL
USER_CHARGES


@<TRIPOS>ATOM
  1 O        1.2330     0.7280     1.4080 O.2   1 <1>  -0.5700 
  2 C        1.5670     1.5990     0.6490 C.2   1 <1>   0.5690 
  3 N        0.8340     2.6720     0.3340 N.am  1 <1>  -0.7300 
  4 C        2.8940     1.6530    -0.0520 C.3   1 <1>  -0.0990 
  5 C        1.5250     3.6490    -0.5330 C.3   1 <1>   0.2810 
  6 C        2.9760     3.1170    -0.5280 C.3   1 <1>  -0.1600 
  7 C        1.3710     5.1200    -0.0890 C.2   1 <1>   0.5690 
  8 O        0.4480     5.4160     0.6340 O.2   1 <1>  -0.5700 
  9 N        2.2800     6.0410    -0.5480 N.am  1 <1>  -0.4940 
 10 C        2.4240     7.4270    -0.2860 C.2   1 <1>  -0.0880 
 11 N        1.4440     8.3500    -0.0670 N.pl3 1 <1>   0.3140 
 12 C        3.5930     8.1060    -0.2350 C.2   1 <1>  -0.1810 
 13 N        1.9550     9.5810     0.1110 N.2   1 <1>  -0.7070 
 14 C       -0.0150     8.1780    -0.0980 C.3   1 <1>   0.0160 
 15 C        3.2510     9.4390     0.0260 C.2   1 <1>   0.2350 
 16 C        5.0060     7.5780    -0.4280 C.3   1 <1>  -0.0590 
 17 C        4.1810    10.5390     0.1690 C.ar  1 <1>   0.0540 
 18 C        5.2200    10.5050     1.0960 C.ar  1 <1>  -0.1500 
 19 C        4.0590    11.6760    -0.6260 C.ar  1 <1>  -0.1500 
 20 C        6.1170    11.5530     1.2100 C.ar  1 <1>  -0.1500 
 21 C        4.9510    12.7280    -0.5190 C.ar  1 <1>  -0.1500 
 22 C        5.9840    12.6660     0.3990 C.ar  1 <1>  -0.1500 
 23 H       -0.0060     2.9430     0.8550 H     1 <1>   0.3700 
 24 H        2.8750     0.9690    -0.8810 H     1 <1>   0.0800 
 25 H        3.6920     1.3980     0.6210 H     1 <1>   0.0800 
 26 H        1.1100     3.5550    -1.5210 H     1 <1>   0.0800 
 27 H        3.4360     3.2000    -1.4970 H     1 <1>   0.0800 
 28 H        3.5600     3.6750     0.1850 H     1 <1>   0.0800 
 29 H        3.0530     5.6560    -1.0870 H     1 <1>   0.3700 
 30 H       -0.2770     7.4630    -0.8540 H     1 <1>   0.0800 
 31 H       -0.4770     9.1220    -0.3180 H     1 <1>   0.0800 
 32 H       -0.3460     7.8340     0.8640 H     1 <1>   0.0800 
 33 H        4.9950     6.5970    -0.8650 H     1 <1>   0.0800 
 34 H        5.5090     7.5260     0.5200 H     1 <1>   0.0800 
 35 H        5.5560     8.2350    -1.0780 H     1 <1>   0.0800 
 36 H        5.3180     9.6490     1.7380 H     1 <1>   0.1500 
 37 H        3.2490    11.7240    -1.3330 H     1 <1>   0.1500 
 38 H        6.9140    11.5050     1.9310 H     1 <1>   0.1500 
 39 H        4.8380    13.5950    -1.1460 H     1 <1>   0.1500 
 40 H        6.6800    13.4830     0.4850 H     1 <1>   0.1500 
@<TRIPOS>BOND
  1   1   2  2   
  2   2   3  am  
  3   2   4  1   
  4   3   5  1   
  5   3  23  1   
  6   4   6  1   
  7   4  24  1   
  8   4  25  1   
  9   5   6  1   
 10   5   7  1   
 11   5  26  1   
 12   6  27  1   
 13   6  28  1   
 14   7   8  2   
 15   7   9  am  
 16   9  10  1   
 17   9  29  1   
 18  10  11  1   
 19  10  12  2   
 20  11  13  1   
 21  11  14  1   
 22  12  15  1   
 23  12  16  1   
 24  13  15  2   
 25  14  30  1   
 26  14  31  1   
 27  14  32  1   
 28  15  17  1   
 29  16  33  1   
 30  16  34  1   
 31  16  35  1   
 32  17  18  ar  
 33  17  19  ar  
 34  18  20  ar  
 35  18  36  1   
 36  19  21  ar  
 37  19  37  1   
 38  20  22  ar  
 39  20  38  1   
 40  21  22  ar  
 41  21  39  1   
 42  22  40  1   
@<TRIPOS>SUBSTRUCTURE
  1 ****  10 GROUP 4 **** **** 0

# MOE 2024.06 (io_trps.svl 2023.06)
