@<TRIPOS>MOLECULE
NONAME
56 59 1 0 0 
SMALL
USER_CHARGES


@<TRIPOS>ATOM
  1 O        0.4810    -0.3730    -0.9910 O.2   1 <1>  -0.5700 
  2 C        0.1240    -1.4770    -0.6280 C.2   1 <1>   0.5440 
  3 N       -1.1820    -1.8270    -0.4210 N.am  1 <1>  -0.6600 
  4 C        0.9740    -2.6090    -0.4070 C.ar  1 <1>   0.0860 
  5 C       -1.2770    -3.2870    -0.1410 C.3   1 <1>   0.2840 
  6 C       -2.3530    -1.0350    -0.9010 C.3   1 <1>   0.1400 
  7 C        0.1830    -3.7050    -0.1190 C.ar  1 <1>  -0.1440 
  8 C        2.3560    -2.7480    -0.4450 C.ar  1 <1>  -0.1500 
  9 C       -3.1600    -0.3100     0.2170 C.3   1 <1>   0.0000 
 10 C        0.7390    -4.9450     0.1360 C.ar  1 <1>  -0.1500 
 11 C        2.9240    -3.9860    -0.1920 C.ar  1 <1>  -0.1500 
 12 C       -4.4090     0.3210    -0.4510 C.3   1 <1>  -0.1600 
 13 C       -2.2990     0.8110     0.8770 C.3   1 <1>  -0.1600 
 14 C       -3.5960    -1.3530     1.2840 C.3   1 <1>  -0.0990 
 15 C        2.1190    -5.0800     0.0970 C.ar  1 <1>  -0.1500 
 16 C       -4.0780     1.4000    -1.5010 C.3   1 <1>  -0.1600 
 17 C       -2.6040     2.2420     0.3940 C.3   1 <1>  -0.1600 
 18 C       -4.6150    -0.8850     2.3180 C.2   1 <1>   0.5690 
 19 C       -2.8790     2.2820    -1.1120 C.3   1 <1>  -0.1600 
 20 O       -4.2280    -0.3320     3.3150 O.2   1 <1>  -0.5700 
 21 N       -5.9500    -1.0880     2.1560 N.am  1 <1>  -0.5470 
 22 C       -6.6730    -1.7070     1.1180 C.ar  1 <1>   0.1170 
 23 C       -7.5840    -0.9930     0.3200 C.ar  1 <1>   0.3930 
 24 C       -6.5120    -3.0560     0.8690 C.ar  1 <1>  -0.1500 
 25 O       -7.7490     0.3260     0.5970 O.3   1 <1>  -0.3630 
 26 N       -8.2830    -1.5150    -0.6830 N.ar  1 <1>  -0.6200 
 27 C       -7.2400    -3.6090    -0.1640 C.ar  1 <1>  -0.1500 
 28 C       -8.6020     1.1340    -0.1910 C.3   1 <1>   0.0400 
 29 C       -8.0950    -2.8080    -0.8980 C.ar  1 <1>   0.1600 
 30 H       -1.8110    -3.7900    -0.9290 H     1 <1>   0.0800 
 31 H       -1.7410    -3.4670     0.8110 H     1 <1>   0.0800 
 32 H       -3.0090    -1.6930    -1.4420 H     1 <1>   0.0800 
 33 H       -1.9920    -0.3090    -1.6060 H     1 <1>   0.0800 
 34 H        2.9640    -1.8900    -0.6720 H     1 <1>   0.1500 
 35 H        0.1180    -5.7950     0.3600 H     1 <1>   0.1500 
 36 H        3.9940    -4.1000    -0.2200 H     1 <1>   0.1500 
 37 H       -5.0100     0.7940     0.3060 H     1 <1>   0.0800 
 38 H       -5.0160    -0.4390    -0.9110 H     1 <1>   0.0800 
 39 H       -1.2570     0.6150     0.7040 H     1 <1>   0.0800 
 40 H       -2.4210     0.8070     1.9450 H     1 <1>   0.0800 
 41 H       -2.7250    -1.6640     1.8320 H     1 <1>   0.0800 
 42 H       -3.9810    -2.2210     0.7880 H     1 <1>   0.0800 
 43 H        2.5700    -6.0380     0.2920 H     1 <1>   0.1500 
 44 H       -4.9480     2.0220    -1.6280 H     1 <1>   0.0800 
 45 H       -3.8770     0.9390    -2.4530 H     1 <1>   0.0800 
 46 H       -1.7720     2.8820     0.6300 H     1 <1>   0.0800 
 47 H       -3.4640     2.6200     0.9190 H     1 <1>   0.0800 
 48 H       -3.0600     3.2960    -1.4230 H     1 <1>   0.0800 
 49 H       -1.9960     1.9420    -1.6270 H     1 <1>   0.0800 
 50 H       -6.5050    -0.5290     2.8070 H     1 <1>   0.3700 
 51 H       -5.8470    -3.6540     1.4670 H     1 <1>   0.1500 
 52 H       -7.1500    -4.6550    -0.3980 H     1 <1>   0.1500 
 53 H       -8.5730     2.1350     0.1960 H     1 <1>   0.0800 
 54 H       -9.6030     0.7430    -0.1340 H     1 <1>   0.0800 
 55 H       -8.2520     1.1200    -1.2080 H     1 <1>   0.0800 
 56 H       -8.6570    -3.2510    -1.7030 H     1 <1>   0.1500 
@<TRIPOS>BOND
  1   1   2  2   
  2   2   3  am  
  3   2   4  1   
  4   3   5  1   
  5   3   6  1   
  6   4   7  ar  
  7   4   8  ar  
  8   5   7  1   
  9   5  30  1   
 10   5  31  1   
 11   6   9  1   
 12   6  32  1   
 13   6  33  1   
 14   7  10  ar  
 15   8  11  ar  
 16   8  34  1   
 17   9  12  1   
 18   9  13  1   
 19   9  14  1   
 20  10  15  ar  
 21  10  35  1   
 22  11  15  ar  
 23  11  36  1   
 24  12  16  1   
 25  12  37  1   
 26  12  38  1   
 27  13  17  1   
 28  13  39  1   
 29  13  40  1   
 30  14  18  1   
 31  14  41  1   
 32  14  42  1   
 33  15  43  1   
 34  16  19  1   
 35  16  44  1   
 36  16  45  1   
 37  17  19  1   
 38  17  46  1   
 39  17  47  1   
 40  18  20  2   
 41  18  21  am  
 42  19  48  1   
 43  19  49  1   
 44  21  22  1   
 45  21  50  1   
 46  22  23  ar  
 47  22  24  ar  
 48  23  25  1   
 49  23  26  ar  
 50  24  27  ar  
 51  24  51  1   
 52  25  28  1   
 53  26  29  ar  
 54  27  29  ar  
 55  27  52  1   
 56  28  53  1   
 57  28  54  1   
 58  28  55  1   
 59  29  56  1   
@<TRIPOS>SUBSTRUCTURE
  1 ****   9 GROUP 4 **** **** 0

# MOE 2024.06 (io_trps.svl 2023.06)
