@<TRIPOS>MOLECULE
NONAME
58 61 1 0 0 
SMALL
USER_CHARGES


@<TRIPOS>ATOM
  1 O       -2.0050     0.1350    -1.9270 O.2   1 <1>  -0.5700 
  2 C       -2.6210     0.8680    -1.1740 C.2   1 <1>   0.5440 
  3 N       -2.0190     2.0300    -0.7310 N.am  1 <1>  -0.6600 
  4 C       -3.9520     0.4770    -0.7720 C.ar  1 <1>   0.0860 
  5 C       -0.7930     2.5690    -1.3870 C.3   1 <1>   0.1400 
  6 C       -2.3900     2.7250     0.5350 C.3   1 <1>   0.1400 
  7 C       -4.2150    -0.8420    -0.4120 C.ar  1 <1>   0.1600 
  8 C       -5.0270     1.3590    -0.7390 C.ar  1 <1>  -0.1500 
  9 C        0.3890     2.5040    -0.4140 C.3   1 <1>  -0.1600 
 10 C       -1.2160     2.6710     1.5200 C.3   1 <1>  -0.1600 
 11 N       -5.3820    -1.3310    -0.0250 N.ar  1 <1>  -0.6200 
 12 C       -6.2490     0.8730    -0.3440 C.ar  1 <1>  -0.1500 
 13 C        0.0750     3.2260     0.9030 C.3   1 <1>  -0.1600 
 14 C       -6.3970    -0.4690     0.0010 C.ar  1 <1>   0.4100 
 15 N       -7.6310    -0.9580     0.3740 N.pl3 1 <1>  -0.8380 
 16 C       -7.7180    -2.1830     1.2240 C.3   1 <1>   0.2090 
 17 C       -8.7820    -0.8350    -0.5690 C.3   1 <1>   0.2090 
 18 C       -7.7040    -3.4310     0.3060 C.3   1 <1>   0.4230 
 19 C       -8.8440    -2.0840    -1.4640 C.3   1 <1>  -0.1600 
 20 N       -7.6420    -4.7590     1.0120 N.4   1 <1>  -0.9590 
 21 C       -8.9210    -3.4070    -0.6480 C.3   1 <1>  -0.1060 
 22 C       -7.5180    -5.9260     0.0890 C.3   1 <1>   0.3430 
 23 C       -6.6970    -4.8250     2.1560 C.3   1 <1>   0.2630 
 24 C      -10.1970    -3.4560     0.2130 C.2   1 <1>   0.9060 
 25 C       -8.9010    -4.6260    -1.6160 C.3   1 <1>  -0.1600 
 26 C       -7.6880    -5.5430    -1.3880 C.3   1 <1>  -0.1600 
 27 O      -10.2070    -4.2000     1.2080 O.co2 1 <1>  -0.9000 
 28 O      -11.1710    -2.7680    -0.0880 O.co2 1 <1>  -0.9000 
 29 H       -0.5600     2.0100    -2.2780 H     1 <1>   0.0800 
 30 H       -0.9720     3.5900    -1.6750 H     1 <1>   0.0800 
 31 H       -2.6340     3.7490     0.3130 H     1 <1>   0.0800 
 32 H       -3.2470     2.2640     0.9920 H     1 <1>   0.0800 
 33 H       -3.3880    -1.5320    -0.4530 H     1 <1>   0.1500 
 34 H       -4.8960     2.3890    -1.0200 H     1 <1>   0.1500 
 35 H        0.6170     1.4700    -0.2200 H     1 <1>   0.0800 
 36 H        1.2530     2.9480    -0.8750 H     1 <1>   0.0800 
 37 H       -1.4660     3.2350     2.4020 H     1 <1>   0.0800 
 38 H       -1.0620     1.6490     1.8190 H     1 <1>   0.0800 
 39 H       -7.1070     1.5160    -0.2900 H     1 <1>   0.1500 
 40 H       -0.0410     4.2800     0.7150 H     1 <1>   0.0800 
 41 H        0.8930     3.0980     1.5920 H     1 <1>   0.0800 
 42 H       -6.8760    -2.1960     1.8910 H     1 <1>   0.0800 
 43 H       -8.6180    -2.1460     1.8140 H     1 <1>   0.0800 
 44 H       -9.6960    -0.7290    -0.0070 H     1 <1>   0.0800 
 45 H       -8.6730     0.0410    -1.1850 H     1 <1>   0.0800 
 46 H       -6.8150    -3.3410    -0.2940 H     1 <1>   0.0800 
 47 H       -9.7110    -2.0020    -2.0970 H     1 <1>   0.0800 
 48 H       -7.9770    -2.0900    -2.1000 H     1 <1>   0.0800 
 49 H       -8.6300    -4.8090     1.3820 H     1 <1>   0.4500 
 50 H       -6.5560    -6.3940     0.2170 H     1 <1>   0.0800 
 51 H       -8.2770    -6.6470     0.3500 H     1 <1>   0.0800 
 52 H       -5.6890    -4.6540     1.8150 H     1 <1>   0.0800 
 53 H       -6.7520    -5.7930     2.6260 H     1 <1>   0.0800 
 54 H       -6.9500    -4.0780     2.8900 H     1 <1>   0.0800 
 55 H       -9.7990    -5.2050    -1.4730 H     1 <1>   0.0800 
 56 H       -8.9100    -4.3000    -2.6420 H     1 <1>   0.0800 
 57 H       -6.7930    -5.0530    -1.7310 H     1 <1>   0.0800 
 58 H       -7.8020    -6.4390    -1.9720 H     1 <1>   0.0800 
@<TRIPOS>BOND
  1   1   2  2   
  2   2   3  am  
  3   2   4  1   
  4   3   5  1   
  5   3   6  1   
  6   4   7  ar  
  7   4   8  ar  
  8   5   9  1   
  9   5  29  1   
 10   5  30  1   
 11   6  10  1   
 12   6  31  1   
 13   6  32  1   
 14   7  11  ar  
 15   7  33  1   
 16   8  12  ar  
 17   8  34  1   
 18   9  13  1   
 19   9  35  1   
 20   9  36  1   
 21  10  13  1   
 22  10  37  1   
 23  10  38  1   
 24  11  14  ar  
 25  12  14  ar  
 26  12  39  1   
 27  13  40  1   
 28  13  41  1   
 29  14  15  1   
 30  15  16  1   
 31  15  17  1   
 32  16  18  1   
 33  16  42  1   
 34  16  43  1   
 35  17  19  1   
 36  17  44  1   
 37  17  45  1   
 38  18  20  1   
 39  18  21  1   
 40  18  46  1   
 41  19  21  1   
 42  19  47  1   
 43  19  48  1   
 44  20  22  1   
 45  20  23  1   
 46  20  49  1   
 47  21  24  1   
 48  21  25  1   
 49  22  26  1   
 50  22  50  1   
 51  22  51  1   
 52  23  52  1   
 53  23  53  1   
 54  23  54  1   
 55  24  27  ar  
 56  24  28  ar  
 57  25  26  1   
 58  25  55  1   
 59  25  56  1   
 60  26  57  1   
 61  26  58  1   
@<TRIPOS>SUBSTRUCTURE
  1 ****  11 GROUP 4 **** **** 0

# MOE 2024.06 (io_trps.svl 2023.06)
