@<TRIPOS>MOLECULE
NONAME
56 59 1 0 0 
SMALL
USER_CHARGES


@<TRIPOS>ATOM
  1 O       -0.9510    -0.4340     0.3960 O.3   1 <1>  -0.6800 
  2 C       -1.7730    -1.5060     0.7050 C.3   1 <1>   0.2000 
  3 C       -2.1750    -2.2440    -0.5860 C.3   1 <1>   0.2090 
  4 C       -3.0030    -0.9550     1.4320 C.3   1 <1>  -0.1600 
  5 N       -3.1700    -3.3270    -0.2870 N.pl3 1 <1>  -0.8380 
  6 C       -4.0380    -2.0700     1.6640 C.3   1 <1>  -0.1600 
  7 C       -3.0600    -4.6170    -0.7010 C.ar  1 <1>   0.4100 
  8 C       -4.4090    -2.7960     0.3650 C.3   1 <1>   0.2090 
  9 N       -4.1720    -5.2760    -0.9660 N.ar  1 <1>  -0.6200 
 10 C       -1.8020    -5.2350    -0.8410 C.ar  1 <1>  -0.1500 
 11 C       -4.0940    -6.5280    -1.3910 C.ar  1 <1>   0.7710 
 12 C       -1.7400    -6.5120    -1.2830 C.ar  1 <1>   0.2110 
 13 N       -2.9080    -7.1390    -1.5600 N.ar  1 <1>  -0.1790 
 14 N       -5.2320    -7.2140    -1.6700 N.pl3 1 <1>  -0.8380 
 15 C       -5.3860    -8.6980    -1.8840 C.3   1 <1>   0.2090 
 16 C       -6.5790    -6.5340    -1.7300 C.3   1 <1>   0.2090 
 17 C       -6.3930    -9.3010    -0.8870 C.3   1 <1>   0.1100 
 18 C       -7.5750    -7.1760    -0.7470 C.3   1 <1>   0.1100 
 19 N       -7.6990    -8.6260    -0.9780 N.3   1 <1>  -0.8100 
 20 C       -8.7460    -9.2320    -0.1130 C.3   1 <1>   0.2530 
 21 C       -8.8810   -10.7570    -0.2560 C.ar  1 <1>   0.1670 
 22 N       -9.4120   -11.1740    -1.4000 N.ar  1 <1>  -0.6200 
 23 C       -8.4700   -11.6200     0.7640 C.ar  1 <1>  -0.1430 
 24 C       -9.5380   -12.4790    -1.5490 C.ar  1 <1>   0.1600 
 25 C       -8.6130   -12.9820     0.5830 C.ar  1 <1>  -0.1500 
 26 C       -7.8750   -11.1310     2.0800 C.3   1 <1>  -0.0970 
 27 C       -9.1590   -13.4130    -0.6050 C.ar  1 <1>  -0.1500 
 28 H       -0.0570    -0.7340     0.1480 H     1 <1>   0.4000 
 29 H       -1.2270    -2.1690     1.3530 H     1 <1>   0.0800 
 30 H       -1.3020    -2.6400    -1.0680 H     1 <1>   0.0800 
 31 H       -2.6340    -1.5380    -1.2570 H     1 <1>   0.0800 
 32 H       -3.4510    -0.1790     0.8360 H     1 <1>   0.0800 
 33 H       -2.7060    -0.5350     2.3770 H     1 <1>   0.0800 
 34 H       -4.9270    -1.6470     2.0970 H     1 <1>   0.0800 
 35 H       -3.6470    -2.7890     2.3620 H     1 <1>   0.0800 
 36 H       -5.0960    -3.5920     0.5950 H     1 <1>   0.0800 
 37 H       -4.9000    -2.1150    -0.3100 H     1 <1>   0.0800 
 38 H       -0.9150    -4.6890    -0.5840 H     1 <1>   0.1500 
 39 H       -0.8100    -7.0420    -1.4180 H     1 <1>   0.1500 
 40 H       -2.9540    -8.0790    -1.9310 H     1 <1>   0.4570 
 41 H       -4.4530    -9.2170    -1.7750 H     1 <1>   0.0800 
 42 H       -5.7530    -8.8770    -2.8820 H     1 <1>   0.0800 
 43 H       -6.9770    -6.6290    -2.7260 H     1 <1>   0.0800 
 44 H       -6.5110    -5.4820    -1.5150 H     1 <1>   0.0800 
 45 H       -6.0070    -9.2210     0.1140 H     1 <1>   0.0800 
 46 H       -6.5120   -10.3450    -1.1230 H     1 <1>   0.0800 
 47 H       -8.5370    -6.7120    -0.8810 H     1 <1>   0.0800 
 48 H       -7.2480    -6.9870     0.2620 H     1 <1>   0.0800 
 49 H       -9.6940    -8.8000    -0.3800 H     1 <1>   0.0800 
 50 H       -8.5560    -8.9660     0.9100 H     1 <1>   0.0800 
 51 H       -9.9680   -12.8230    -2.4740 H     1 <1>   0.1500 
 52 H       -8.3150   -13.6910     1.3350 H     1 <1>   0.1500 
 53 H       -7.0360   -10.4860     1.8980 H     1 <1>   0.0800 
 54 H       -7.5350   -11.9570     2.6790 H     1 <1>   0.0800 
 55 H       -8.6180   -10.5950     2.6420 H     1 <1>   0.0800 
 56 H       -9.2920   -14.4620    -0.7990 H     1 <1>   0.1500 
@<TRIPOS>BOND
  1   1   2  1   
  2   1  28  1   
  3   2   3  1   
  4   2   4  1   
  5   2  29  1   
  6   3   5  1   
  7   3  30  1   
  8   3  31  1   
  9   4   6  1   
 10   4  32  1   
 11   4  33  1   
 12   5   7  1   
 13   5   8  1   
 14   6   8  1   
 15   6  34  1   
 16   6  35  1   
 17   7   9  ar  
 18   7  10  ar  
 19   8  36  1   
 20   8  37  1   
 21   9  11  ar  
 22  10  12  ar  
 23  10  38  1   
 24  11  13  ar  
 25  11  14  1   
 26  12  13  ar  
 27  12  39  1   
 28  13  40  1   
 29  14  15  1   
 30  14  16  1   
 31  15  17  1   
 32  15  41  1   
 33  15  42  1   
 34  16  18  1   
 35  16  43  1   
 36  16  44  1   
 37  17  19  1   
 38  17  45  1   
 39  17  46  1   
 40  18  19  1   
 41  18  47  1   
 42  18  48  1   
 43  19  20  1   
 44  20  21  1   
 45  20  49  1   
 46  20  50  1   
 47  21  22  ar  
 48  21  23  ar  
 49  22  24  ar  
 50  23  25  ar  
 51  23  26  1   
 52  24  27  ar  
 53  24  51  1   
 54  25  27  ar  
 55  25  52  1   
 56  26  53  1   
 57  26  54  1   
 58  26  55  1   
 59  27  56  1   
@<TRIPOS>SUBSTRUCTURE
  1 ****  14 GROUP 4 **** **** 0

# MOE 2024.06 (io_trps.svl 2023.06)
