@<TRIPOS>MOLECULE
NONAME
51 53 1 0 0 
SMALL
USER_CHARGES


@<TRIPOS>ATOM
  1 F       -1.2120     3.1840    -2.1310 F     1 <1>  -0.3400 
  2 C       -1.4490     2.1570    -1.3190 C.3   1 <1>   1.1640 
  3 F       -0.5800     2.2670    -0.3170 F     1 <1>  -0.3400 
  4 F       -1.0740     1.0740    -1.9980 F     1 <1>  -0.3400 
  5 C       -2.9220     2.0930    -0.8380 C.ar  1 <1>   0.1660 
  6 N       -3.4360     3.1150    -0.1620 N.ar  1 <1>  -0.6200 
  7 C       -3.6930     0.9870    -1.1120 C.ar  1 <1>  -0.1500 
  8 C       -4.7040     3.0040     0.2280 C.ar  1 <1>   0.7200 
  9 C       -4.9940     0.9720    -0.6640 C.ar  1 <1>   0.4100 
 10 N       -5.4910     1.9690     0.0070 N.ar  1 <1>  -0.6200 
 11 N       -5.2640     4.0610     0.9220 N.pl3 1 <1>  -0.8380 
 12 N       -5.8370    -0.0840    -0.9280 N.pl3 1 <1>  -0.8380 
 13 C       -4.5930     5.3840     1.0250 C.3   1 <1>   0.1290 
 14 C       -6.7380     4.0620     1.2130 C.3   1 <1>   0.1290 
 15 C       -6.5900    -0.6380     0.2560 C.3   1 <1>   0.2090 
 16 C       -6.6430     0.0770    -2.1730 C.3   1 <1>   0.2090 
 17 C       -8.0690    -0.9610    -0.0660 C.3   1 <1>   0.4230 
 18 C       -7.9550     0.8220    -1.8800 C.3   1 <1>  -0.1600 
 19 N       -8.8660    -1.5140     1.0850 N.4   1 <1>  -0.9590 
 20 C       -8.7820     0.2650    -0.6750 C.3   1 <1>  -0.1060 
 21 C      -10.2110    -1.9800     0.6600 C.3   1 <1>   0.3430 
 22 C       -8.1640    -2.4880     1.9610 C.3   1 <1>   0.2630 
 23 C       -8.9680     1.3580     0.4010 C.2   1 <1>   0.9060 
 24 C      -10.1720    -0.2010    -1.1760 C.3   1 <1>  -0.1600 
 25 C      -10.9800    -0.8580    -0.0430 C.3   1 <1>  -0.1600 
 26 O       -9.3690     2.4730     0.0660 O.co2 1 <1>  -0.9000 
 27 O       -8.8420     1.0600     1.6020 O.co2 1 <1>  -0.9000 
 28 H       -3.3310     0.1370    -1.6570 H     1 <1>   0.1500 
 29 H       -4.9650     5.9170     1.8810 H     1 <1>   0.0800 
 30 H       -4.7900     5.9560     0.1350 H     1 <1>   0.0800 
 31 H       -3.5300     5.2610     1.1390 H     1 <1>   0.0800 
 32 H       -7.0080     4.8970     1.8330 H     1 <1>   0.0800 
 33 H       -7.0190     3.1570     1.7250 H     1 <1>   0.0800 
 34 H       -7.2950     4.1130     0.2930 H     1 <1>   0.0800 
 35 H       -6.0870    -1.5370     0.5600 H     1 <1>   0.0800 
 36 H       -6.5580     0.0540     1.0810 H     1 <1>   0.0800 
 37 H       -6.0770     0.6340    -2.9020 H     1 <1>   0.0800 
 38 H       -6.8500    -0.8930    -2.5900 H     1 <1>   0.0800 
 39 H       -8.0410    -1.7220    -0.8260 H     1 <1>   0.0800 
 40 H       -7.6980     1.8510    -1.6930 H     1 <1>   0.0800 
 41 H       -8.5490     0.8330    -2.7760 H     1 <1>   0.0800 
 42 H       -9.0200    -0.6280     1.6420 H     1 <1>   0.4500 
 43 H      -10.1050    -2.8150    -0.0120 H     1 <1>   0.0800 
 44 H      -10.7720    -2.3040     1.5220 H     1 <1>   0.0800 
 45 H       -7.8990    -3.3700     1.4030 H     1 <1>   0.0800 
 46 H       -8.8010    -2.7690     2.7830 H     1 <1>   0.0800 
 47 H       -7.2690    -2.0430     2.3660 H     1 <1>   0.0800 
 48 H      -10.7180     0.6500    -1.5500 H     1 <1>   0.0800 
 49 H      -10.0560    -0.9020    -1.9850 H     1 <1>   0.0800 
 50 H      -11.8970    -1.2540    -0.4420 H     1 <1>   0.0800 
 51 H      -11.2500    -0.1120     0.6860 H     1 <1>   0.0800 
@<TRIPOS>BOND
  1   1   2  1   
  2   2   3  1   
  3   2   4  1   
  4   2   5  1   
  5   5   6  ar  
  6   5   7  ar  
  7   6   8  ar  
  8   7   9  ar  
  9   7  28  1   
 10   8  10  ar  
 11   8  11  1   
 12   9  10  ar  
 13   9  12  1   
 14  11  13  1   
 15  11  14  1   
 16  12  15  1   
 17  12  16  1   
 18  13  29  1   
 19  13  30  1   
 20  13  31  1   
 21  14  32  1   
 22  14  33  1   
 23  14  34  1   
 24  15  17  1   
 25  15  35  1   
 26  15  36  1   
 27  16  18  1   
 28  16  37  1   
 29  16  38  1   
 30  17  19  1   
 31  17  20  1   
 32  17  39  1   
 33  18  20  1   
 34  18  40  1   
 35  18  41  1   
 36  19  21  1   
 37  19  22  1   
 38  19  42  1   
 39  20  23  1   
 40  20  24  1   
 41  21  25  1   
 42  21  43  1   
 43  21  44  1   
 44  22  45  1   
 45  22  46  1   
 46  22  47  1   
 47  23  26  ar  
 48  23  27  ar  
 49  24  25  1   
 50  24  48  1   
 51  24  49  1   
 52  25  50  1   
 53  25  51  1   
@<TRIPOS>SUBSTRUCTURE
  1 ****  10 GROUP 4 **** **** 0

# MOE 2024.06 (io_trps.svl 2023.06)
