@<TRIPOS>MOLECULE
NONAME
45 48 1 0 0 
SMALL
USER_CHARGES


@<TRIPOS>ATOM
  1 O        2.3920     4.5750    -0.0940 O.co2 1 <1>  -0.9000 
  2 C        1.8770     3.4660     0.0990 C.2   1 <1>   0.9470 
  3 O        0.7170     3.3530     0.5150 O.co2 1 <1>  -0.9000 
  4 C        2.7460     2.2170    -0.0240 C.3   1 <1>  -0.2420 
  5 C        3.4470     0.9410    -0.7240 C.3   1 <1>  -0.2420 
  6 C        3.3380     2.2020     1.3800 C.3   1 <1>   0.2350 
  7 C        2.4270     1.7670    -1.3770 C.3   1 <1>  -0.2000 
  8 C        3.7750    -0.0510    -1.8410 C.2   1 <1>   0.9470 
  9 C        4.3500     0.3870     0.3840 C.3   1 <1>   0.2350 
 10 N        4.6220     1.5220     1.2590 N.am  1 <1>  -0.6600 
 11 O        4.5810     0.2610    -2.7270 O.co2 1 <1>  -0.9000 
 12 O        3.2760    -1.1830    -1.7870 O.co2 1 <1>  -0.9000 
 13 C        5.8500     2.1080     1.2970 C.2   1 <1>   0.5690 
 14 O        6.8640     1.4510     1.3780 O.2   1 <1>  -0.5700 
 15 C        5.9640     3.6240     1.2530 C.3   1 <1>  -0.0990 
 16 C        7.3610     4.0960     0.8200 C.3   1 <1>   0.0200 
 17 C        7.4740     5.6080     0.8010 C.2   1 <1>   0.2980 
 18 O        7.2290     6.2720     1.9010 O.3   1 <1>  -0.0190 
 19 N        7.8080     6.3150    -0.1980 N.2   1 <1>  -0.5650 
 20 N        7.4070     7.5120     1.5700 N.2   1 <1>  -0.4100 
 21 C        7.7430     7.5400     0.3290 C.2   1 <1>   0.4620 
 22 C        8.0010     8.7450    -0.4370 C.ar  1 <1>   0.0540 
 23 C        9.1800     8.9650    -1.1620 C.ar  1 <1>  -0.1440 
 24 C        7.0310     9.7470    -0.4540 C.ar  1 <1>  -0.1500 
 25 C        9.3550    10.1420    -1.8730 C.ar  1 <1>  -0.1500 
 26 C       10.2970     7.9280    -1.1850 C.3   1 <1>  -0.0970 
 27 C        7.2090    10.9190    -1.1630 C.ar  1 <1>  -0.1500 
 28 C        8.3750    11.1180    -1.8760 C.ar  1 <1>  -0.1500 
 29 H        2.7020     1.6100     2.0150 H     1 <1>   0.0800 
 30 H        3.4330     3.1810     1.8210 H     1 <1>   0.0800 
 31 H        2.7310     2.3860    -2.2060 H     1 <1>   0.1000 
 32 H        1.4580     1.3330    -1.5500 H     1 <1>   0.1000 
 33 H        5.2610    -0.0470     0.0010 H     1 <1>   0.0800 
 34 H        3.8140    -0.3620     0.9410 H     1 <1>   0.0800 
 35 H        5.2430     4.0080     0.5520 H     1 <1>   0.0800 
 36 H        5.7300     4.0090     2.2270 H     1 <1>   0.0800 
 37 H        7.5730     3.7140    -0.1630 H     1 <1>   0.0800 
 38 H        8.1030     3.7100     1.4950 H     1 <1>   0.0800 
 39 H        6.1190     9.5950     0.0990 H     1 <1>   0.1500 
 40 H       10.2580    10.3090    -2.4330 H     1 <1>   0.1500 
 41 H       11.1980     8.3360    -1.6030 H     1 <1>   0.0800 
 42 H        9.9960     7.0830    -1.7790 H     1 <1>   0.0800 
 43 H       10.5110     7.5900    -0.1870 H     1 <1>   0.0800 
 44 H        6.4420    11.6740    -1.1590 H     1 <1>   0.1500 
 45 H        8.5210    12.0280    -2.4310 H     1 <1>   0.1500 
@<TRIPOS>BOND
  1   1   2  ar  
  2   2   3  ar  
  3   2   4  1   
  4   4   5  1   
  5   4   6  1   
  6   4   7  1   
  7   5   7  1   
  8   5   8  1   
  9   5   9  1   
 10   6  10  1   
 11   6  29  1   
 12   6  30  1   
 13   7  31  1   
 14   7  32  1   
 15   8  11  ar  
 16   8  12  ar  
 17   9  10  1   
 18   9  33  1   
 19   9  34  1   
 20  10  13  am  
 21  13  14  2   
 22  13  15  1   
 23  15  16  1   
 24  15  35  1   
 25  15  36  1   
 26  16  17  1   
 27  16  37  1   
 28  16  38  1   
 29  17  18  1   
 30  17  19  2   
 31  18  20  1   
 32  19  21  1   
 33  20  21  2   
 34  21  22  1   
 35  22  23  ar  
 36  22  24  ar  
 37  23  25  ar  
 38  23  26  1   
 39  24  27  ar  
 40  24  39  1   
 41  25  28  ar  
 42  25  40  1   
 43  26  41  1   
 44  26  42  1   
 45  26  43  1   
 46  27  28  ar  
 47  27  44  1   
 48  28  45  1   
@<TRIPOS>SUBSTRUCTURE
  1 ****  15 GROUP 4 **** **** 0

# MOE 2024.06 (io_trps.svl 2023.06)
