@<TRIPOS>MOLECULE
NONAME
44 45 1 0 0 
SMALL
USER_CHARGES


@<TRIPOS>ATOM
  1 CL       2.2140    -0.9500     1.6550 Cl    1 <1>  -0.1770 
  2 C        1.2160    -2.1000     0.8000 C.ar  1 <1>   0.1770 
  3 C        1.2040    -3.4360     1.1760 C.ar  1 <1>  -0.1440 
  4 C        0.4450    -1.6470    -0.2540 C.ar  1 <1>  -0.1500 
  5 C        0.3970    -4.3130     0.4700 C.ar  1 <1>  -0.1500 
  6 C        2.0520    -3.9380     2.3350 C.3   1 <1>  -0.0960 
  7 C       -0.3570    -2.5390    -0.9430 C.ar  1 <1>  -0.1500 
  8 C       -0.4060    -3.8880    -0.5920 C.ar  1 <1>   0.0860 
  9 C       -1.2600    -4.8110    -1.3190 C.2   1 <1>   0.5440 
 10 O       -1.2390    -4.8050    -2.5370 O.2   1 <1>  -0.5700 
 11 N       -2.1000    -5.6900    -0.6720 N.am  1 <1>  -0.6600 
 12 C       -2.7200    -6.8450    -1.4110 C.3   1 <1>   0.1400 
 13 C       -2.4840    -5.5410     0.7710 C.3   1 <1>   0.1400 
 14 C       -3.0480    -7.9760    -0.4290 C.3   1 <1>   0.2000 
 15 C       -3.9140    -6.0420     0.9850 C.3   1 <1>  -0.1600 
 16 O       -3.4770    -9.1180    -1.0860 O.3   1 <1>  -0.6800 
 17 C       -4.0550    -7.5670     0.6800 C.3   1 <1>  -0.1060 
 18 C       -3.6090    -8.4280     1.8750 C.2   1 <1>   0.9060 
 19 C       -5.5590    -7.8770     0.3750 C.3   1 <1>  -0.1600 
 20 O       -3.1240    -7.8980     2.8820 O.co2 1 <1>  -0.9000 
 21 O       -3.6870    -9.6600     1.7640 O.co2 1 <1>  -0.9000 
 22 C       -6.1440    -7.3090    -0.9340 C.3   1 <1>  -0.1600 
 23 C       -7.6220    -7.6830    -1.0740 C.3   1 <1>  -0.2400 
 24 H        0.4770    -0.6080    -0.5290 H     1 <1>   0.1500 
 25 H        0.3790    -5.3570     0.7350 H     1 <1>   0.1500 
 26 H        1.9190    -4.9950     2.4820 H     1 <1>   0.0800 
 27 H        1.7730    -3.4310     3.2410 H     1 <1>   0.0800 
 28 H        3.0930    -3.7490     2.1380 H     1 <1>   0.0800 
 29 H       -0.9570    -2.1980    -1.7700 H     1 <1>   0.1500 
 30 H       -3.6130    -6.5070    -1.9010 H     1 <1>   0.0800 
 31 H       -2.0290    -7.2070    -2.1520 H     1 <1>   0.0800 
 32 H       -1.8110    -6.1130     1.3890 H     1 <1>   0.0800 
 33 H       -2.4230    -4.5080     1.0650 H     1 <1>   0.0800 
 34 H       -2.1120    -8.2470     0.0330 H     1 <1>   0.0800 
 35 H       -4.2120    -5.8460     2.0000 H     1 <1>   0.0800 
 36 H       -4.5520    -5.4510     0.3590 H     1 <1>   0.0800 
 37 H       -3.6790    -9.7680    -0.3660 H     1 <1>   0.4000 
 38 H       -5.6910    -8.9450     0.3540 H     1 <1>   0.0800 
 39 H       -6.1440    -7.5200     1.2050 H     1 <1>   0.0800 
 40 H       -6.0580    -6.2390    -0.9640 H     1 <1>   0.0800 
 41 H       -5.6070    -7.7110    -1.7740 H     1 <1>   0.0800 
 42 H       -8.1910    -7.2800    -0.2550 H     1 <1>   0.0800 
 43 H       -7.7350    -8.7540    -1.0810 H     1 <1>   0.0800 
 44 H       -8.0150    -7.2910    -1.9950 H     1 <1>   0.0800 
@<TRIPOS>BOND
  1   1   2  1   
  2   2   3  ar  
  3   2   4  ar  
  4   3   5  ar  
  5   3   6  1   
  6   4   7  ar  
  7   4  24  1   
  8   5   8  ar  
  9   5  25  1   
 10   6  26  1   
 11   6  27  1   
 12   6  28  1   
 13   7   8  ar  
 14   7  29  1   
 15   8   9  1   
 16   9  10  2   
 17   9  11  am  
 18  11  12  1   
 19  11  13  1   
 20  12  14  1   
 21  12  30  1   
 22  12  31  1   
 23  13  15  1   
 24  13  32  1   
 25  13  33  1   
 26  14  16  1   
 27  14  17  1   
 28  14  34  1   
 29  15  17  1   
 30  15  35  1   
 31  15  36  1   
 32  16  37  1   
 33  17  18  1   
 34  17  19  1   
 35  18  20  ar  
 36  18  21  ar  
 37  19  22  1   
 38  19  38  1   
 39  19  39  1   
 40  22  23  1   
 41  22  40  1   
 42  22  41  1   
 43  23  42  1   
 44  23  43  1   
 45  23  44  1   
@<TRIPOS>SUBSTRUCTURE
  1 ****  13 GROUP 4 **** **** 0

# MOE 2024.06 (io_trps.svl 2023.06)
