@<TRIPOS>MOLECULE
NONAME
56 59 1 0 0 
SMALL
USER_CHARGES


@<TRIPOS>ATOM
  1 O       -0.6040     0.0170    -0.0730 O.2   1 <1>  -0.5700 
  2 C       -1.5860     0.6640     0.2510 C.2   1 <1>   0.5440 
  3 N       -2.7810    -0.0240     0.3840 N.am  1 <1>  -0.6600 
  4 C       -1.4470     2.1120     0.4500 C.ar  1 <1>   0.3960 
  5 C       -2.8400    -1.5160     0.5100 C.3   1 <1>   0.1400 
  6 C       -4.1360     0.6110     0.3480 C.3   1 <1>   0.1400 
  7 N       -2.2120     2.7680     1.3200 N.ar  1 <1>  -0.6200 
  8 C       -0.4940     2.8070    -0.2760 C.ar  1 <1>  -0.1500 
  9 C       -3.8450    -2.1260    -0.4840 C.3   1 <1>   0.3440 
 10 C       -5.0780    -0.1230    -0.6350 C.3   1 <1>   0.2950 
 11 C       -2.0080     4.0630     1.4040 C.ar  1 <1>   0.7200 
 12 C       -0.3670     4.1600    -0.0880 C.ar  1 <1>   0.1660 
 13 O       -5.0920    -1.4930    -0.3610 O.3   1 <1>  -0.5600 
 14 C       -4.0080    -3.6220    -0.2330 C.ar  1 <1>  -0.1440 
 15 C       -6.5410     0.3550    -0.5990 C.3   1 <1>  -0.1950 
 16 N       -1.1320     4.8030     0.7580 N.ar  1 <1>  -0.6200 
 17 N       -2.7790     4.7140     2.2740 N.pl3 1 <1>  -0.9000 
 18 C        0.6710     4.9630    -0.8580 C.3   1 <1>  -0.0170 
 19 C       -4.9220    -4.1030     0.6960 C.ar  1 <1>  -0.1500 
 20 C       -3.2210    -4.5270    -0.9320 C.ar  1 <1>  -0.1500 
 21 C       -6.9470     1.7600    -0.2690 C.3   1 <1>  -0.2000 
 22 C       -7.2970     0.6330     0.6630 C.3   1 <1>  -0.2000 
 23 C        1.8890     5.3430     0.0050 C.3   1 <1>  -0.0800 
 24 C       -5.0460    -5.4630     0.9220 C.ar  1 <1>  -0.1500 
 25 C       -3.3440    -5.8870    -0.7070 C.ar  1 <1>  -0.1500 
 26 C        2.8450     6.2420    -0.7900 C.3   1 <1>  -0.2400 
 27 C        2.6440     4.1040     0.5070 C.3   1 <1>  -0.2400 
 28 C       -4.2560    -6.3560     0.2210 C.ar  1 <1>  -0.1500 
 29 H       -1.8730    -1.9550     0.3410 H     1 <1>   0.0800 
 30 H       -3.1420    -1.7720     1.5100 H     1 <1>   0.0800 
 31 H       -4.5540     0.5930     1.3380 H     1 <1>   0.0800 
 32 H       -4.0610     1.6350     0.0350 H     1 <1>   0.0800 
 33 H        0.1380     2.2840    -0.9690 H     1 <1>   0.1500 
 34 H       -3.4940    -1.9720    -1.4900 H     1 <1>   0.0800 
 35 H       -4.7040     0.0120    -1.6360 H     1 <1>   0.0800 
 36 H       -7.1000    -0.1210    -1.3870 H     1 <1>   0.1000 
 37 H       -3.1760     4.1500     3.0200 H     1 <1>   0.4000 
 38 H       -2.4390     5.6360     2.5370 H     1 <1>   0.4000 
 39 H        0.9980     4.4050    -1.7170 H     1 <1>   0.0800 
 40 H        0.1980     5.8600    -1.2190 H     1 <1>   0.0800 
 41 H       -5.5430    -3.4150     1.2430 H     1 <1>   0.1500 
 42 H       -2.5050    -4.1780    -1.6560 H     1 <1>   0.1500 
 43 H       -6.2260     2.4840     0.0680 H     1 <1>   0.1000 
 44 H       -7.7380     2.2140    -0.8430 H     1 <1>   0.1000 
 45 H       -8.3190     0.3030     0.7240 H     1 <1>   0.1000 
 46 H       -6.7920     0.5610     1.6110 H     1 <1>   0.1000 
 47 H        1.5370     5.8980     0.8600 H     1 <1>   0.0800 
 48 H       -5.7590    -5.8240     1.6420 H     1 <1>   0.1500 
 49 H       -2.7290    -6.5810    -1.2540 H     1 <1>   0.1500 
 50 H        3.2250     5.7250    -1.6540 H     1 <1>   0.0800 
 51 H        3.6760     6.5380    -0.1740 H     1 <1>   0.0800 
 52 H        2.3370     7.1320    -1.1160 H     1 <1>   0.0800 
 53 H        2.9840     3.5020    -0.3180 H     1 <1>   0.0800 
 54 H        2.0120     3.5030     1.1370 H     1 <1>   0.0800 
 55 H        3.4990     4.4010     1.0880 H     1 <1>   0.0800 
 56 H       -4.3530    -7.4130     0.3960 H     1 <1>   0.1500 
@<TRIPOS>BOND
  1   1   2  2   
  2   2   3  am  
  3   2   4  1   
  4   3   5  1   
  5   3   6  1   
  6   4   7  ar  
  7   4   8  ar  
  8   5   9  1   
  9   5  29  1   
 10   5  30  1   
 11   6  10  1   
 12   6  31  1   
 13   6  32  1   
 14   7  11  ar  
 15   8  12  ar  
 16   8  33  1   
 17   9  13  1   
 18   9  14  1   
 19   9  34  1   
 20  10  13  1   
 21  10  15  1   
 22  10  35  1   
 23  11  16  ar  
 24  11  17  1   
 25  12  16  ar  
 26  12  18  1   
 27  14  19  ar  
 28  14  20  ar  
 29  15  21  1   
 30  15  22  1   
 31  15  36  1   
 32  17  37  1   
 33  17  38  1   
 34  18  23  1   
 35  18  39  1   
 36  18  40  1   
 37  19  24  ar  
 38  19  41  1   
 39  20  25  ar  
 40  20  42  1   
 41  21  22  1   
 42  21  43  1   
 43  21  44  1   
 44  22  45  1   
 45  22  46  1   
 46  23  26  1   
 47  23  27  1   
 48  23  47  1   
 49  24  28  ar  
 50  24  48  1   
 51  25  28  ar  
 52  25  49  1   
 53  26  50  1   
 54  26  51  1   
 55  26  52  1   
 56  27  53  1   
 57  27  54  1   
 58  27  55  1   
 59  28  56  1   
@<TRIPOS>SUBSTRUCTURE
  1 ****   3 GROUP 4 **** **** 0

# MOE 2024.06 (io_trps.svl 2023.06)
