@<TRIPOS>MOLECULE
NONAME
47 48 1 0 0 
SMALL
USER_CHARGES


@<TRIPOS>ATOM
  1 F        1.3190    -0.9230     0.7530 F     1 <1>  -0.1900 
  2 C        0.6120    -1.9840     1.0250 C.ar  1 <1>   0.1900 
  3 C        0.9210    -3.1890     0.4130 C.ar  1 <1>  -0.1440 
  4 C       -0.4280    -1.8610     1.9260 C.ar  1 <1>  -0.1500 
  5 C        0.1420    -4.2920     0.7230 C.ar  1 <1>  -0.1500 
  6 C        2.0840    -3.3010    -0.5630 C.3   1 <1>  -0.0960 
  7 C       -1.1910    -2.9770     2.2180 C.ar  1 <1>  -0.1500 
  8 C       -0.9330    -4.2100     1.6140 C.ar  1 <1>   0.0860 
  9 C       -1.7600    -5.3670     1.9090 C.2   1 <1>   0.5440 
 10 O       -2.1430    -5.5710     3.0430 O.2   1 <1>  -0.5700 
 11 N       -2.1890    -6.2300     0.9290 N.am  1 <1>  -0.6600 
 12 C       -2.4530    -7.6610     1.3200 C.3   1 <1>   0.3210 
 13 C       -2.6060    -5.7250    -0.4230 C.3   1 <1>   0.1400 
 14 C       -2.9320    -8.5660     0.1830 C.2   1 <1>   0.0460 
 15 C       -3.9780    -5.0120    -0.4080 C.3   1 <1>   0.3430 
 16 N       -4.2120    -8.5290    -0.2560 N.2   1 <1>  -0.5650 
 17 C       -2.2170    -9.4890    -0.5040 C.2   1 <1>  -0.3320 
 18 N       -5.0630    -5.8160     0.2430 N.4   1 <1>  -0.9590 
 19 C       -4.2480    -9.4360    -1.1790 C.2   1 <1>   0.0360 
 20 N       -3.0670   -10.0540    -1.3800 N.pl3 1 <1>   0.0330 
 21 C       -0.7600    -9.9100    -0.4010 C.3   1 <1>  -0.0600 
 22 C       -6.3670    -5.6780    -0.4620 C.3   1 <1>   0.2630 
 23 C       -5.2030    -5.5200     1.7020 C.3   1 <1>   0.2630 
 24 H       -0.6260    -0.9100     2.3890 H     1 <1>   0.1500 
 25 H        0.3690    -5.2440     0.2750 H     1 <1>   0.1500 
 26 H        1.9240    -2.6470    -1.4020 H     1 <1>   0.0800 
 27 H        2.1920    -4.3070    -0.9280 H     1 <1>   0.0800 
 28 H        2.9990    -3.0150    -0.0750 H     1 <1>   0.0800 
 29 H       -1.9960    -2.8990     2.9290 H     1 <1>   0.1500 
 30 H       -3.1910    -7.6870     2.1030 H     1 <1>   0.0800 
 31 H       -1.5480    -8.0690     1.7330 H     1 <1>   0.0800 
 32 H       -2.6250    -6.5230    -1.1430 H     1 <1>   0.0800 
 33 H       -1.8760    -5.0240    -0.7840 H     1 <1>   0.0800 
 34 H       -4.2500    -4.8070    -1.4300 H     1 <1>   0.0800 
 35 H       -3.8780    -4.0650     0.0950 H     1 <1>   0.0800 
 36 H       -4.7670    -6.8160     0.1570 H     1 <1>   0.4500 
 37 H       -5.1250    -9.6960    -1.7480 H     1 <1>   0.1500 
 38 H       -2.8680   -10.8050    -2.0490 H     1 <1>   0.2700 
 39 H       -0.2370    -9.3160     0.3260 H     1 <1>   0.0800 
 40 H       -0.2700    -9.7900    -1.3510 H     1 <1>   0.0800 
 41 H       -0.6930   -10.9430    -0.1050 H     1 <1>   0.0800 
 42 H       -6.7160    -4.6600    -0.4140 H     1 <1>   0.0800 
 43 H       -7.1030    -6.3200    -0.0050 H     1 <1>   0.0800 
 44 H       -6.2630    -5.9640    -1.4960 H     1 <1>   0.0800 
 45 H       -5.4750    -4.4880     1.8530 H     1 <1>   0.0800 
 46 H       -4.2790    -5.7110     2.2170 H     1 <1>   0.0800 
 47 H       -5.9650    -6.1470     2.1360 H     1 <1>   0.0800 
@<TRIPOS>BOND
  1   1   2  1   
  2   2   3  ar  
  3   2   4  ar  
  4   3   5  ar  
  5   3   6  1   
  6   4   7  ar  
  7   4  24  1   
  8   5   8  ar  
  9   5  25  1   
 10   6  26  1   
 11   6  27  1   
 12   6  28  1   
 13   7   8  ar  
 14   7  29  1   
 15   8   9  1   
 16   9  10  2   
 17   9  11  am  
 18  11  12  1   
 19  11  13  1   
 20  12  14  1   
 21  12  30  1   
 22  12  31  1   
 23  13  15  1   
 24  13  32  1   
 25  13  33  1   
 26  14  16  1   
 27  14  17  2   
 28  15  18  1   
 29  15  34  1   
 30  15  35  1   
 31  16  19  2   
 32  17  20  1   
 33  17  21  1   
 34  18  22  1   
 35  18  23  1   
 36  18  36  1   
 37  19  20  1   
 38  19  37  1   
 39  20  38  1   
 40  21  39  1   
 41  21  40  1   
 42  21  41  1   
 43  22  42  1   
 44  22  43  1   
 45  22  44  1   
 46  23  45  1   
 47  23  46  1   
 48  23  47  1   
@<TRIPOS>SUBSTRUCTURE
  1 ****  11 GROUP 4 **** **** 0

# MOE 2024.06 (io_trps.svl 2023.06)
