@<TRIPOS>MOLECULE
NONAME
42 44 1 0 0 
SMALL
USER_CHARGES


@<TRIPOS>ATOM
  1 O       -0.3500     0.0690     0.8230 O.2   1 <1>  -0.5700 
  2 C       -1.3850     0.7100     0.8090 C.2   1 <1>   0.7150 
  3 N       -2.5650     0.0380     0.5980 N.am  1 <1>  -0.6600 
  4 C       -1.3600     2.1340     0.9960 C.2   1 <1>  -0.2370 
  5 C       -3.8090     0.6650     0.0840 C.3   1 <1>   0.1400 
  6 C       -2.6110    -1.4340     0.4190 C.3   1 <1>   0.1400 
  7 N       -0.3680     2.9530     0.5480 N.pl3 1 <1>   0.3140 
  8 C       -2.2440     2.9530     1.6330 C.2   1 <1>  -0.1500 
  9 C       -4.5450    -0.4600    -0.6410 C.3   1 <1>   0.2000 
 10 C       -4.0490    -1.7520     0.0060 C.3   1 <1>  -0.0800 
 11 N       -0.6030     4.2410     0.8690 N.2   1 <1>  -0.7070 
 12 C        0.8560     2.5330    -0.1940 C.3   1 <1>   0.0960 
 13 C       -1.7260     4.2280     1.5180 C.2   1 <1>   0.1390 
 14 O       -5.9180    -0.3490    -0.4970 O.3   1 <1>  -0.6800 
 15 C       -4.1700    -2.9700    -0.9230 C.3   1 <1>  -0.0170 
 16 C        1.5110     3.6690    -0.9960 C.3   1 <1>  -0.2400 
 17 C       -3.6640    -4.2310    -0.2400 C.ar  1 <1>  -0.1430 
 18 C       -2.3870    -4.7150    -0.4400 C.ar  1 <1>  -0.1500 
 19 C       -4.4630    -4.9560     0.6210 C.ar  1 <1>  -0.1500 
 20 C       -1.9820    -5.8670     0.2150 C.ar  1 <1>   0.1600 
 21 C       -3.9600    -6.0970     1.2250 C.ar  1 <1>   0.1600 
 22 N       -2.7370    -6.5690     1.0440 N.ar  1 <1>  -0.6200 
 23 H       -4.3900     1.0260     0.9140 H     1 <1>   0.0800 
 24 H       -3.5800     1.4720    -0.5920 H     1 <1>   0.0800 
 25 H       -1.9170    -1.7130    -0.3560 H     1 <1>   0.0800 
 26 H       -2.3420    -1.9370     1.3330 H     1 <1>   0.0800 
 27 H       -3.1550     2.6900     2.1370 H     1 <1>   0.1500 
 28 H       -4.3100    -0.4310    -1.6920 H     1 <1>   0.0800 
 29 H       -4.6050    -1.9350     0.9090 H     1 <1>   0.0800 
 30 H        1.5560     2.1410     0.5210 H     1 <1>   0.0800 
 31 H        0.5870     1.7430    -0.8700 H     1 <1>   0.0800 
 32 H       -2.1840     5.1180     1.9170 H     1 <1>   0.1500 
 33 H       -6.1720    -0.4190     0.4440 H     1 <1>   0.4000 
 34 H       -3.6140    -2.8000    -1.8280 H     1 <1>   0.0800 
 35 H       -5.2020    -3.1060    -1.1990 H     1 <1>   0.0800 
 36 H        1.8450     4.4480    -0.3330 H     1 <1>   0.0800 
 37 H        0.8100     4.0810    -1.6990 H     1 <1>   0.0800 
 38 H        2.3620     3.2930    -1.5350 H     1 <1>   0.0800 
 39 H       -1.7020    -4.2120    -1.0970 H     1 <1>   0.1500 
 40 H       -5.4710    -4.6470     0.8270 H     1 <1>   0.1500 
 41 H       -0.9820    -6.2290     0.0480 H     1 <1>   0.1500 
 42 H       -4.5980    -6.6500     1.8930 H     1 <1>   0.1500 
@<TRIPOS>BOND
  1   1   2  2   
  2   2   3  am  
  3   2   4  1   
  4   3   5  1   
  5   3   6  1   
  6   4   7  1   
  7   4   8  2   
  8   5   9  1   
  9   5  23  1   
 10   5  24  1   
 11   6  10  1   
 12   6  25  1   
 13   6  26  1   
 14   7  11  1   
 15   7  12  1   
 16   8  13  1   
 17   8  27  1   
 18   9  10  1   
 19   9  14  1   
 20   9  28  1   
 21  10  15  1   
 22  10  29  1   
 23  11  13  2   
 24  12  16  1   
 25  12  30  1   
 26  12  31  1   
 27  13  32  1   
 28  14  33  1   
 29  15  17  1   
 30  15  34  1   
 31  15  35  1   
 32  16  36  1   
 33  16  37  1   
 34  16  38  1   
 35  17  18  ar  
 36  17  19  ar  
 37  18  20  ar  
 38  18  39  1   
 39  19  21  ar  
 40  19  40  1   
 41  20  22  ar  
 42  20  41  1   
 43  21  22  ar  
 44  21  42  1   
@<TRIPOS>SUBSTRUCTURE
  1 ****   6 GROUP 4 **** **** 0

# MOE 2024.06 (io_trps.svl 2023.06)
