@<TRIPOS>MOLECULE
NONAME
50 52 1 0 0 
SMALL
USER_CHARGES


@<TRIPOS>ATOM
  1 F       -0.7210    -0.8680     0.1190 F     1 <1>  -0.1900 
  2 C       -0.9460    -2.1520     0.1130 C.ar  1 <1>   0.1900 
  3 C       -1.9030    -2.6690     0.9640 C.ar  1 <1>  -0.1500 
  4 C       -0.2220    -2.9550    -0.7460 C.ar  1 <1>  -0.1500 
  5 C       -2.1320    -4.0340     0.9510 C.ar  1 <1>  -0.1500 
  6 C       -0.4650    -4.3180    -0.7470 C.ar  1 <1>  -0.1500 
  7 C       -1.4190    -4.8910     0.1050 C.ar  1 <1>   0.0860 
  8 C       -1.6720    -6.3220     0.1200 C.2   1 <1>   0.5440 
  9 O       -2.7650    -6.7570     0.4270 O.2   1 <1>  -0.5700 
 10 N       -0.6870    -7.2160    -0.2020 N.am  1 <1>  -0.7300 
 11 C       -0.8360    -8.6880    -0.1280 C.3   1 <1>   0.1400 
 12 C       -1.5110    -9.2020    -1.3960 C.3   1 <1>  -0.0990 
 13 C       -1.8950   -10.6520    -1.2150 C.2   1 <1>   0.5690 
 14 O       -1.0930   -11.4930    -1.5440 O.2   1 <1>  -0.5700 
 15 N       -3.1050   -10.9850    -0.6780 N.am  1 <1>  -0.6600 
 16 C       -4.1200   -10.0610    -0.0990 C.3   1 <1>   0.1400 
 17 C       -3.5580   -12.3920    -0.5320 C.3   1 <1>   0.1400 
 18 C       -4.9290   -10.9440     0.8490 C.3   1 <1>   0.2000 
 19 C       -4.9300   -12.3050     0.1470 C.3   1 <1>  -0.0800 
 20 O       -4.2310   -11.0430     2.0440 O.3   1 <1>  -0.6800 
 21 C       -5.2560   -13.5150     1.0400 C.3   1 <1>   0.0210 
 22 C       -5.2020   -14.8020     0.2410 C.2   1 <1>   0.1080 
 23 N       -6.0040   -15.0520    -0.7470 N.2   1 <1>  -0.7070 
 24 C       -4.2980   -15.8360     0.4590 C.2   1 <1>  -0.1500 
 25 N       -5.6300   -16.2670    -1.1900 N.pl3 1 <1>   0.3000 
 26 C       -4.5960   -16.7620    -0.4760 C.2   1 <1>  -0.3320 
 27 C       -3.9470   -18.1080    -0.7360 C.3   1 <1>  -0.0600 
 28 H       -2.4530    -2.0160     1.6180 H     1 <1>   0.1500 
 29 H        0.5110    -2.5140    -1.3990 H     1 <1>   0.1500 
 30 H       -2.8770    -4.4540     1.6070 H     1 <1>   0.1500 
 31 H        0.0880    -4.9440    -1.4240 H     1 <1>   0.1500 
 32 H        0.2570    -6.8760    -0.3880 H     1 <1>   0.3700 
 33 H        0.1290    -9.1510    -0.0090 H     1 <1>   0.0800 
 34 H       -1.4350    -8.9370     0.7330 H     1 <1>   0.0800 
 35 H       -0.8330    -9.1220    -2.2250 H     1 <1>   0.0800 
 36 H       -2.3880    -8.6240    -1.6180 H     1 <1>   0.0800 
 37 H       -3.6780    -9.2270     0.4180 H     1 <1>   0.0800 
 38 H       -4.7530    -9.6970    -0.8900 H     1 <1>   0.0800 
 39 H       -3.6270   -12.8730    -1.4930 H     1 <1>   0.0800 
 40 H       -2.8530   -12.9270     0.0820 H     1 <1>   0.0800 
 41 H       -5.9150   -10.5620     1.0520 H     1 <1>   0.0800 
 42 H       -5.6670   -12.2670    -0.6370 H     1 <1>   0.0800 
 43 H       -3.2920   -11.2190     1.8370 H     1 <1>   0.4000 
 44 H       -6.2440   -13.4030     1.4500 H     1 <1>   0.0800 
 45 H       -4.5630   -13.5820     1.8590 H     1 <1>   0.0800 
 46 H       -3.5350   -15.8630     1.2160 H     1 <1>   0.1500 
 47 H       -6.0970   -16.7290    -1.9790 H     1 <1>   0.2700 
 48 H       -3.1470   -18.2740    -0.0370 H     1 <1>   0.0800 
 49 H       -3.5420   -18.1400    -1.7320 H     1 <1>   0.0800 
 50 H       -4.6690   -18.8980    -0.6250 H     1 <1>   0.0800 
@<TRIPOS>BOND
  1   1   2  1   
  2   2   3  ar  
  3   2   4  ar  
  4   3   5  ar  
  5   3  28  1   
  6   4   6  ar  
  7   4  29  1   
  8   5   7  ar  
  9   5  30  1   
 10   6   7  ar  
 11   6  31  1   
 12   7   8  1   
 13   8   9  2   
 14   8  10  am  
 15  10  11  1   
 16  10  32  1   
 17  11  12  1   
 18  11  33  1   
 19  11  34  1   
 20  12  13  1   
 21  12  35  1   
 22  12  36  1   
 23  13  14  2   
 24  13  15  am  
 25  15  16  1   
 26  15  17  1   
 27  16  18  1   
 28  16  37  1   
 29  16  38  1   
 30  17  19  1   
 31  17  39  1   
 32  17  40  1   
 33  18  19  1   
 34  18  20  1   
 35  18  41  1   
 36  19  21  1   
 37  19  42  1   
 38  20  43  1   
 39  21  22  1   
 40  21  44  1   
 41  21  45  1   
 42  22  23  2   
 43  22  24  1   
 44  23  25  1   
 45  24  26  2   
 46  24  46  1   
 47  25  26  1   
 48  25  47  1   
 49  26  27  1   
 50  27  48  1   
 51  27  49  1   
 52  27  50  1   
@<TRIPOS>SUBSTRUCTURE
  1 ****  16 GROUP 4 **** **** 0

# MOE 2024.06 (io_trps.svl 2023.06)
