@<TRIPOS>MOLECULE
NONAME
49 52 1 0 0 
SMALL
USER_CHARGES


@<TRIPOS>ATOM
  1 O       -0.5010     0.1720    -0.8350 O.2   1 <1>  -0.5700 
  2 C       -1.5510     0.7610    -0.7250 C.2   1 <1>   0.5690 
  3 N       -2.7540     0.1320    -0.9080 N.am  1 <1>  -0.6600 
  4 C       -1.5090     2.2370    -0.3770 C.3   1 <1>  -0.0990 
  5 C       -4.1050     0.7660    -0.7850 C.3   1 <1>   0.1400 
  6 C       -2.8360    -1.3350    -1.1860 C.3   1 <1>   0.1400 
  7 C       -0.0860     2.7410    -0.0950 C.3   1 <1>   0.0960 
  8 C       -4.9620     0.0230     0.2570 C.3   1 <1>   0.1900 
  9 C       -3.7380    -2.0390    -0.1580 C.3   1 <1>   0.1100 
 10 N       -0.0930     4.1890     0.1850 N.pl3 1 <1>   0.3140 
 11 N       -5.0800    -1.4150    -0.0920 N.3   1 <1>  -0.8100 
 12 C       -6.3570     0.6680     0.3680 C.3   1 <1>   0.1200 
 13 N       -0.8540     4.7310     1.1560 N.2   1 <1>  -0.7070 
 14 C        0.6170     5.1370    -0.4610 C.2   1 <1>  -0.3020 
 15 C       -5.9600    -2.1000     0.8860 C.3   1 <1>   0.3330 
 16 O       -7.1360    -0.0080     1.3120 O.3   1 <1>  -0.5600 
 17 C       -0.6060     6.0040     1.1050 C.2   1 <1>   0.1390 
 18 C        0.3090     6.3200     0.1090 C.2   1 <1>  -0.1500 
 19 C       -6.2080    -3.5530     0.4820 C.ar  1 <1>  -0.1440 
 20 C       -7.3130    -1.3670     1.0100 C.3   1 <1>   0.1200 
 21 C       -6.5650    -3.8790    -0.8200 C.ar  1 <1>  -0.1500 
 22 C       -6.0820    -4.5670     1.4200 C.ar  1 <1>  -0.1500 
 23 C       -6.7950    -5.1960    -1.1770 C.ar  1 <1>  -0.1500 
 24 C       -6.3110    -5.8850     1.0640 C.ar  1 <1>  -0.1500 
 25 C       -6.6680    -6.2010    -0.2350 C.ar  1 <1>  -0.1500 
 26 H       -1.9260     2.7930    -1.1960 H     1 <1>   0.0800 
 27 H       -2.1060     2.3960     0.5020 H     1 <1>   0.0800 
 28 H       -4.0270     1.8000    -0.5050 H     1 <1>   0.0800 
 29 H       -4.5990     0.7200    -1.7410 H     1 <1>   0.0800 
 30 H       -3.2410    -1.4860    -2.1710 H     1 <1>   0.0800 
 31 H       -1.8580    -1.7820    -1.1600 H     1 <1>   0.0800 
 32 H        0.5480     2.5550    -0.9430 H     1 <1>   0.0800 
 33 H        0.3230     2.2330     0.7590 H     1 <1>   0.0800 
 34 H       -4.4780     0.1220     1.2140 H     1 <1>   0.0800 
 35 H       -3.2650    -2.0010     0.8080 H     1 <1>   0.0800 
 36 H       -3.8300    -3.0730    -0.4430 H     1 <1>   0.0800 
 37 H       -6.8660     0.6420    -0.5800 H     1 <1>   0.0800 
 38 H       -6.2730     1.6910     0.6910 H     1 <1>   0.0800 
 39 H        1.2880     4.9210    -1.2720 H     1 <1>   0.1500 
 40 H       -5.4870    -2.0830     1.8530 H     1 <1>   0.0800 
 41 H       -1.0620     6.7230     1.7640 H     1 <1>   0.1500 
 42 H        0.6730     7.3040    -0.1300 H     1 <1>   0.1500 
 43 H       -7.8960    -1.8070     1.7990 H     1 <1>   0.0800 
 44 H       -7.8650    -1.4450     0.0900 H     1 <1>   0.0800 
 45 H       -6.6590    -3.1010    -1.5580 H     1 <1>   0.1500 
 46 H       -5.8050    -4.3380     2.4340 H     1 <1>   0.1500 
 47 H       -7.0710    -5.4380    -2.1890 H     1 <1>   0.1500 
 48 H       -6.2120    -6.6660     1.7980 H     1 <1>   0.1500 
 49 H       -6.8460    -7.2250    -0.5120 H     1 <1>   0.1500 
@<TRIPOS>BOND
  1   1   2  2   
  2   2   3  am  
  3   2   4  1   
  4   3   5  1   
  5   3   6  1   
  6   4   7  1   
  7   4  26  1   
  8   4  27  1   
  9   5   8  1   
 10   5  28  1   
 11   5  29  1   
 12   6   9  1   
 13   6  30  1   
 14   6  31  1   
 15   7  10  1   
 16   7  32  1   
 17   7  33  1   
 18   8  11  1   
 19   8  12  1   
 20   8  34  1   
 21   9  11  1   
 22   9  35  1   
 23   9  36  1   
 24  10  13  1   
 25  10  14  1   
 26  11  15  1   
 27  12  16  1   
 28  12  37  1   
 29  12  38  1   
 30  13  17  2   
 31  14  18  2   
 32  14  39  1   
 33  15  19  1   
 34  15  20  1   
 35  15  40  1   
 36  16  20  1   
 37  17  18  1   
 38  17  41  1   
 39  18  42  1   
 40  19  21  ar  
 41  19  22  ar  
 42  20  43  1   
 43  20  44  1   
 44  21  23  ar  
 45  21  45  1   
 46  22  24  ar  
 47  22  46  1   
 48  23  25  ar  
 49  23  47  1   
 50  24  25  ar  
 51  24  48  1   
 52  25  49  1   
@<TRIPOS>SUBSTRUCTURE
  1 ****   8 GROUP 4 **** **** 0

# MOE 2024.06 (io_trps.svl 2023.06)
