@<TRIPOS>MOLECULE
NONAME
44 46 1 0 0 
SMALL
USER_CHARGES


@<TRIPOS>ATOM
  1 O        1.6360    -0.0580     1.8180 O.3   1 <1>  -0.6800 
  2 C        1.6590    -0.2730     0.4410 C.3   1 <1>   0.2000 
  3 C        2.5420    -1.4790     0.1090 C.3   1 <1>  -0.0800 
  4 C        2.4190     0.8830    -0.2150 C.3   1 <1>   0.3430 
  5 C        3.9730    -0.9230     0.0880 C.3   1 <1>   0.3430 
  6 C        2.3940    -2.7030     1.0340 C.3   1 <1>   0.0210 
  7 N        3.8610     0.5600    -0.0210 N.4   1 <1>  -0.9590 
  8 C        3.2930    -3.8390     0.5850 C.2   1 <1>   0.1080 
  9 C        4.4000     1.2440     1.1930 C.3   1 <1>   0.4860 
 10 N        4.5860    -3.7350     0.5290 N.2   1 <1>  -0.7070 
 11 C        2.8490    -5.0970     0.1940 C.2   1 <1>  -0.1500 
 12 C        4.5760     2.7300     0.8950 C.ar  1 <1>   0.1670 
 13 N        5.0060    -4.9460     0.1050 N.pl3 1 <1>   0.3000 
 14 C        3.9700    -5.7830    -0.1090 C.2   1 <1>  -0.3320 
 15 N        5.0630     3.0350    -0.3040 N.ar  1 <1>  -0.6200 
 16 C        4.2190     3.6690     1.8510 C.ar  1 <1>  -0.1500 
 17 C        4.1190    -7.2150    -0.5910 C.3   1 <1>  -0.0600 
 18 C        5.2130     4.3250    -0.5580 C.ar  1 <1>   0.1670 
 19 C        4.3740     5.0090     1.5730 C.ar  1 <1>  -0.1500 
 20 C        4.8860     5.3330     0.3350 C.ar  1 <1>  -0.1500 
 21 C        5.7810     4.6740    -1.9180 C.3   1 <1>  -0.0970 
 22 H        0.9910    -0.6520     2.2580 H     1 <1>   0.4000 
 23 H        0.6470    -0.3590     0.0810 H     1 <1>   0.0800 
 24 H        2.3140    -1.7940    -0.8940 H     1 <1>   0.0800 
 25 H        2.1490     1.8330     0.2170 H     1 <1>   0.0800 
 26 H        2.1970     0.8990    -1.2690 H     1 <1>   0.0800 
 27 H        4.5210    -1.3390    -0.7420 H     1 <1>   0.0800 
 28 H        4.4800    -1.1950     1.0000 H     1 <1>   0.0800 
 29 H        1.3730    -3.0400     1.0330 H     1 <1>   0.0800 
 30 H        2.6630    -2.4500     2.0440 H     1 <1>   0.0800 
 31 H        4.4190     0.9620    -0.7950 H     1 <1>   0.4500 
 32 H        3.7380     1.1030     2.0310 H     1 <1>   0.0800 
 33 H        5.3640     0.8330     1.4410 H     1 <1>   0.0800 
 34 H        1.8280    -5.4330     0.1520 H     1 <1>   0.1500 
 35 H        6.0000    -5.1740    -0.0240 H     1 <1>   0.2700 
 36 H        3.8240     3.3670     2.8050 H     1 <1>   0.1500 
 37 H        3.1520    -7.6770    -0.6820 H     1 <1>   0.0800 
 38 H        4.7050    -7.7840     0.1080 H     1 <1>   0.0800 
 39 H        4.6000    -7.2370    -1.5530 H     1 <1>   0.0800 
 40 H        4.1110     5.7710     2.2880 H     1 <1>   0.1500 
 41 H        5.0310     6.3660     0.0700 H     1 <1>   0.1500 
 42 H        5.8790     5.7370    -2.0370 H     1 <1>   0.0800 
 43 H        5.1340     4.2970    -2.6880 H     1 <1>   0.0800 
 44 H        6.7510     4.2240    -2.0290 H     1 <1>   0.0800 
@<TRIPOS>BOND
  1   1   2  1   
  2   1  22  1   
  3   2   3  1   
  4   2   4  1   
  5   2  23  1   
  6   3   5  1   
  7   3   6  1   
  8   3  24  1   
  9   4   7  1   
 10   4  25  1   
 11   4  26  1   
 12   5   7  1   
 13   5  27  1   
 14   5  28  1   
 15   6   8  1   
 16   6  29  1   
 17   6  30  1   
 18   7   9  1   
 19   7  31  1   
 20   8  10  2   
 21   8  11  1   
 22   9  12  1   
 23   9  32  1   
 24   9  33  1   
 25  10  13  1   
 26  11  14  2   
 27  11  34  1   
 28  12  15  ar  
 29  12  16  ar  
 30  13  14  1   
 31  13  35  1   
 32  14  17  1   
 33  15  18  ar  
 34  16  19  ar  
 35  16  36  1   
 36  17  37  1   
 37  17  38  1   
 38  17  39  1   
 39  18  20  ar  
 40  18  21  1   
 41  19  20  ar  
 42  19  40  1   
 43  20  41  1   
 44  21  42  1   
 45  21  43  1   
 46  21  44  1   
@<TRIPOS>SUBSTRUCTURE
  1 ****   5 GROUP 4 **** **** 0

# MOE 2024.06 (io_trps.svl 2023.06)
