@<TRIPOS>MOLECULE
NONAME
46 48 1 0 0 
SMALL
USER_CHARGES


@<TRIPOS>ATOM
  1 F       -1.1610    -0.7590     0.2530 F     1 <1>  -0.1900 
  2 C       -2.3010    -1.3530     0.5320 C.ar  1 <1>   0.1900 
  3 C       -3.5430    -0.8370     0.1760 C.ar  1 <1>   0.3920 
  4 C       -2.2580    -2.5470     1.2030 C.ar  1 <1>   0.1600 
  5 O       -3.7570     0.3230    -0.4880 O.3   1 <1>  -0.3630 
  6 N       -4.6470    -1.4850     0.4820 N.ar  1 <1>  -0.6200 
  7 N       -3.3560    -3.2030     1.5120 N.ar  1 <1>  -0.6200 
  8 C       -2.7500     1.2540    -0.8220 C.3   1 <1>   0.0400 
  9 C       -4.4930    -2.6240     1.1360 C.ar  1 <1>   0.7200 
 10 N       -5.6540    -3.2510     1.4250 N.pl3 1 <1>  -0.8690 
 11 C       -5.8140    -4.7290     1.4570 C.3   1 <1>   0.2090 
 12 C       -6.4060    -5.2900     0.1380 C.3   1 <1>   0.1440 
 13 C       -7.7660    -4.6180    -0.1370 C.ar  1 <1>  -0.1430 
 14 C       -5.4160    -5.1490    -1.0330 C.3   1 <1>  -0.1600 
 15 C       -6.5130    -6.8220     0.2380 C.3   1 <1>  -0.1600 
 16 C       -8.9410    -5.1320     0.4040 C.ar  1 <1>  -0.1500 
 17 C       -7.8510    -3.4650    -0.9100 C.ar  1 <1>  -0.1500 
 18 C       -4.4010    -6.2830    -0.8740 C.3   1 <1>  -0.1600 
 19 C       -5.1250    -7.3810    -0.0920 C.3   1 <1>  -0.1600 
 20 C      -10.1640    -4.5290     0.1650 C.ar  1 <1>  -0.1500 
 21 C       -9.0710    -2.8580    -1.1510 C.ar  1 <1>  -0.1500 
 22 C      -10.2360    -3.3850    -0.6210 C.ar  1 <1>   0.0830 
 23 O      -11.3920    -2.7350    -0.9090 O.3   1 <1>  -0.3630 
 24 C      -12.6310    -3.1930    -0.4170 C.3   1 <1>   0.0400 
 25 H       -1.3110    -2.9690     1.4890 H     1 <1>   0.1500 
 26 H       -3.2220     2.1020    -1.2850 H     1 <1>   0.0800 
 27 H       -2.0650     0.7980    -1.5140 H     1 <1>   0.0800 
 28 H       -2.2460     1.5640     0.0760 H     1 <1>   0.0800 
 29 H       -6.4580    -2.7640     1.0240 H     1 <1>   0.4000 
 30 H       -6.4790    -4.9720     2.2670 H     1 <1>   0.0800 
 31 H       -4.8700    -5.1990     1.6680 H     1 <1>   0.0800 
 32 H       -4.9330    -4.1900    -1.0670 H     1 <1>   0.0800 
 33 H       -5.9490    -5.2950    -1.9580 H     1 <1>   0.0800 
 34 H       -7.2050    -7.1710    -0.5100 H     1 <1>   0.0800 
 35 H       -6.8530    -7.1530     1.2030 H     1 <1>   0.0800 
 36 H       -8.9200    -6.0090     1.0240 H     1 <1>   0.1500 
 37 H       -6.9680    -3.0180    -1.3320 H     1 <1>   0.1500 
 38 H       -3.5530    -5.9330    -0.3100 H     1 <1>   0.0800 
 39 H       -4.0610    -6.6350    -1.8330 H     1 <1>   0.0800 
 40 H       -5.2060    -8.2850    -0.6710 H     1 <1>   0.0800 
 41 H       -4.5840    -7.5970     0.8140 H     1 <1>   0.0800 
 42 H      -11.0440    -4.9620     0.5990 H     1 <1>   0.1500 
 43 H       -9.1250    -1.9690    -1.7520 H     1 <1>   0.1500 
 44 H      -13.3970    -2.5270    -0.7720 H     1 <1>   0.0800 
 45 H      -12.6050    -3.1810     0.6580 H     1 <1>   0.0800 
 46 H      -12.8080    -4.1860    -0.7900 H     1 <1>   0.0800 
@<TRIPOS>BOND
  1   1   2  1   
  2   2   3  ar  
  3   2   4  ar  
  4   3   5  1   
  5   3   6  ar  
  6   4   7  ar  
  7   4  25  1   
  8   5   8  1   
  9   6   9  ar  
 10   7   9  ar  
 11   8  26  1   
 12   8  27  1   
 13   8  28  1   
 14   9  10  1   
 15  10  11  1   
 16  10  29  1   
 17  11  12  1   
 18  11  30  1   
 19  11  31  1   
 20  12  13  1   
 21  12  14  1   
 22  12  15  1   
 23  13  16  ar  
 24  13  17  ar  
 25  14  18  1   
 26  14  32  1   
 27  14  33  1   
 28  15  19  1   
 29  15  34  1   
 30  15  35  1   
 31  16  20  ar  
 32  16  36  1   
 33  17  21  ar  
 34  17  37  1   
 35  18  19  1   
 36  18  38  1   
 37  18  39  1   
 38  19  40  1   
 39  19  41  1   
 40  20  22  ar  
 41  20  42  1   
 42  21  22  ar  
 43  21  43  1   
 44  22  23  1   
 45  23  24  1   
 46  24  44  1   
 47  24  45  1   
 48  24  46  1   
@<TRIPOS>SUBSTRUCTURE
  1 ****  10 GROUP 4 **** **** 0

# MOE 2024.06 (io_trps.svl 2023.06)
