@<TRIPOS>MOLECULE
NONAME
53 56 1 0 0 
SMALL
USER_CHARGES


@<TRIPOS>ATOM
  1 O        0.3020    -0.5090    -1.0130 O.2   1 <1>  -0.5700 
  2 C        1.3070    -0.8570    -0.4350 C.2   1 <1>   0.5690 
  3 N        2.3470    -0.0030    -0.1020 N.am  1 <1>  -0.4770 
  4 C        1.3700    -2.3580    -0.0860 C.3   1 <1>   0.4040 
  5 C        2.3480     1.4040    -0.3610 C.ar  1 <1>   0.1170 
  6 C        3.6720    -0.5970     0.2900 C.3   1 <1>   0.1400 
  7 N        0.0260    -3.0520    -0.1650 N.4   1 <1>  -0.9590 
  8 C        3.5590     2.0730    -0.5930 C.ar  1 <1>   0.0820 
  9 C        1.1850     2.1730    -0.3990 C.ar  1 <1>  -0.1500 
 10 C        4.7630     0.4500     0.5520 C.3   1 <1>   0.1200 
 11 C       -0.8810    -2.6270     0.9390 C.3   1 <1>   0.3430 
 12 C        0.1350    -4.5300    -0.2840 C.3   1 <1>   0.3430 
 13 O        4.7400     1.4240    -0.4620 O.3   1 <1>  -0.3630 
 14 C        3.5970     3.4150    -0.9250 C.ar  1 <1>  -0.1500 
 15 C        1.2200     3.5210    -0.7140 C.ar  1 <1>  -0.1500 
 16 C       -2.2790    -3.1940     0.6930 C.3   1 <1>  -0.1600 
 17 C       -1.2490    -5.1310    -0.5380 C.3   1 <1>  -0.1600 
 18 C        2.4240     4.1430    -0.9890 C.ar  1 <1>  -0.1500 
 19 C       -2.2720    -4.7240     0.5400 C.3   1 <1>  -0.0800 
 20 C       -3.6930    -5.2130     0.1970 C.3   1 <1>  -0.1600 
 21 C       -3.8390    -6.7450     0.1970 C.3   1 <1>   0.0960 
 22 N       -5.1990    -7.1300    -0.2190 N.pl3 1 <1>   0.3140 
 23 N       -5.5370    -7.2160    -1.5170 N.2   1 <1>  -0.7070 
 24 C       -6.2440    -7.4240     0.5800 C.2   1 <1>  -0.3020 
 25 C       -6.7880    -7.5650    -1.5130 C.2   1 <1>   0.1390 
 26 C       -7.2880    -7.7100    -0.2250 C.2   1 <1>  -0.1500 
 27 H        1.7760    -2.4710     0.9030 H     1 <1>   0.0800 
 28 H        2.0460    -2.8190    -0.7840 H     1 <1>   0.0800 
 29 H        4.0170    -1.2350    -0.5060 H     1 <1>   0.0800 
 30 H        3.5590    -1.1910     1.1790 H     1 <1>   0.0800 
 31 H       -0.4110    -2.6800    -1.0270 H     1 <1>   0.4500 
 32 H        0.2300     1.7320    -0.1860 H     1 <1>   0.1500 
 33 H        5.7390    -0.0010     0.5600 H     1 <1>   0.0800 
 34 H        4.5990     0.9460     1.4930 H     1 <1>   0.0800 
 35 H       -0.9380    -1.5500     0.9770 H     1 <1>   0.0800 
 36 H       -0.5070    -2.9840     1.8840 H     1 <1>   0.0800 
 37 H        0.5430    -4.9420     0.6250 H     1 <1>   0.0800 
 38 H        0.7900    -4.7900    -1.1010 H     1 <1>   0.0800 
 39 H        4.5430     3.8860    -1.1200 H     1 <1>   0.1500 
 40 H        0.3050     4.0880    -0.7500 H     1 <1>   0.1500 
 41 H       -2.6910    -2.7330    -0.1890 H     1 <1>   0.0800 
 42 H       -2.9100    -2.9180     1.5200 H     1 <1>   0.0800 
 43 H       -1.1460    -6.2020    -0.5620 H     1 <1>   0.0800 
 44 H       -1.5930    -4.8220    -1.5100 H     1 <1>   0.0800 
 45 H        2.4490     5.1890    -1.2440 H     1 <1>   0.1500 
 46 H       -1.9780    -5.1580     1.4820 H     1 <1>   0.0800 
 47 H       -3.9770    -4.8400    -0.7730 H     1 <1>   0.0800 
 48 H       -4.3880    -4.8140     0.9170 H     1 <1>   0.0800 
 49 H       -3.6520    -7.1460     1.1760 H     1 <1>   0.0800 
 50 H       -3.1560    -7.1940    -0.4990 H     1 <1>   0.0800 
 51 H       -6.1900    -7.4130     1.6530 H     1 <1>   0.1500 
 52 H       -7.3630    -7.7200    -2.4110 H     1 <1>   0.1500 
 53 H       -8.2920    -7.9910     0.0380 H     1 <1>   0.1500 
@<TRIPOS>BOND
  1   1   2  2   
  2   2   3  am  
  3   2   4  1   
  4   3   5  1   
  5   3   6  1   
  6   4   7  1   
  7   4  27  1   
  8   4  28  1   
  9   5   8  ar  
 10   5   9  ar  
 11   6  10  1   
 12   6  29  1   
 13   6  30  1   
 14   7  11  1   
 15   7  12  1   
 16   7  31  1   
 17   8  13  1   
 18   8  14  ar  
 19   9  15  ar  
 20   9  32  1   
 21  10  13  1   
 22  10  33  1   
 23  10  34  1   
 24  11  16  1   
 25  11  35  1   
 26  11  36  1   
 27  12  17  1   
 28  12  37  1   
 29  12  38  1   
 30  14  18  ar  
 31  14  39  1   
 32  15  18  ar  
 33  15  40  1   
 34  16  19  1   
 35  16  41  1   
 36  16  42  1   
 37  17  19  1   
 38  17  43  1   
 39  17  44  1   
 40  18  45  1   
 41  19  20  1   
 42  19  46  1   
 43  20  21  1   
 44  20  47  1   
 45  20  48  1   
 46  21  22  1   
 47  21  49  1   
 48  21  50  1   
 49  22  23  1   
 50  22  24  1   
 51  23  25  2   
 52  24  26  2   
 53  24  51  1   
 54  25  26  1   
 55  25  52  1   
 56  26  53  1   
@<TRIPOS>SUBSTRUCTURE
  1 ****   7 GROUP 4 **** **** 0

# MOE 2024.06 (io_trps.svl 2023.06)
