@<TRIPOS>MOLECULE
NONAME
51 53 1 0 0 
SMALL
USER_CHARGES


@<TRIPOS>ATOM
  1 S        0.6530    -0.1380     1.7590 S.3   1 <1>  -0.0800 
  2 C        1.1800    -0.9510     0.2980 C.2   1 <1>  -0.0450 
  3 C        1.2420     1.3750     1.1260 C.2   1 <1>   0.1980 
  4 C        1.7460    -0.0090    -0.4930 C.2   1 <1>   0.0460 
  5 C        0.9820    -2.3730     0.1660 C.2   1 <1>   0.7150 
  6 N        1.7670     1.2880    -0.0270 N.2   1 <1>  -0.5650 
  7 C        1.0750     2.6070     1.9840 C.3   1 <1>  -0.0600 
  8 C        2.3670    -0.2290    -1.8580 C.3   1 <1>  -0.0590 
  9 O        1.8420    -3.0550    -0.3610 O.2   1 <1>  -0.5700 
 10 N       -0.1730    -2.9930     0.5890 N.am  1 <1>  -0.6600 
 11 C       -0.2640    -4.4800     0.7390 C.3   1 <1>   0.1400 
 12 C       -1.5150    -2.3380     0.5310 C.3   1 <1>   0.1400 
 13 C       -1.2310    -5.0780    -0.2970 C.3   1 <1>   0.3440 
 14 C       -2.4300    -3.0460    -0.4970 C.3   1 <1>   0.2000 
 15 O       -2.4700    -4.4240    -0.2220 O.3   1 <1>  -0.5600 
 16 C       -1.4240    -6.5720    -0.0510 C.ar  1 <1>  -0.1440 
 17 C       -3.8850    -2.4920    -0.5610 C.3   1 <1>   0.0000 
 18 C       -0.5880    -7.4820    -0.6840 C.ar  1 <1>  -0.1500 
 19 C       -2.4110    -7.0460     0.8030 C.ar  1 <1>  -0.1500 
 20 C       -3.8880    -0.9900    -0.9030 C.3   1 <1>  -0.2400 
 21 C       -4.6420    -2.6910     0.7660 C.3   1 <1>  -0.2400 
 22 C       -4.6630    -3.2220    -1.6720 C.3   1 <1>  -0.2400 
 23 C       -0.7350    -8.8410    -0.4660 C.ar  1 <1>  -0.1500 
 24 C       -2.5590    -8.4040     1.0220 C.ar  1 <1>  -0.1500 
 25 C       -1.7210    -9.3030     0.3880 C.ar  1 <1>  -0.1500 
 26 H        1.4820     3.4600     1.4740 H     1 <1>   0.0800 
 27 H        1.5950     2.4740     2.9150 H     1 <1>   0.0800 
 28 H        0.0330     2.7780     2.1780 H     1 <1>   0.0800 
 29 H        2.2790    -1.2530    -2.1680 H     1 <1>   0.0800 
 30 H        3.4090     0.0330    -1.8220 H     1 <1>   0.0800 
 31 H        1.8780     0.3970    -2.5820 H     1 <1>   0.0800 
 32 H        0.7040    -4.9360     0.6250 H     1 <1>   0.0800 
 33 H       -0.6190    -4.7150     1.7260 H     1 <1>   0.0800 
 34 H       -1.9620    -2.3750     1.5080 H     1 <1>   0.0800 
 35 H       -1.4100    -1.3070     0.2500 H     1 <1>   0.0800 
 36 H       -0.8360    -4.9300    -1.2870 H     1 <1>   0.0800 
 37 H       -1.9900    -2.9270    -1.4730 H     1 <1>   0.0800 
 38 H        0.1840    -7.1370    -1.3500 H     1 <1>   0.1500 
 39 H       -3.0700    -6.3540     1.2990 H     1 <1>   0.1500 
 40 H       -4.8950    -0.6400    -1.0450 H     1 <1>   0.0800 
 41 H       -3.3390    -0.8080    -1.8100 H     1 <1>   0.0800 
 42 H       -3.4500    -0.4070    -0.1120 H     1 <1>   0.0800 
 43 H       -5.6610    -2.3600     0.6720 H     1 <1>   0.0800 
 44 H       -4.1860    -2.1350     1.5650 H     1 <1>   0.0800 
 45 H       -4.6530    -3.7320     1.0390 H     1 <1>   0.0800 
 46 H       -5.6630    -2.8360    -1.7580 H     1 <1>   0.0800 
 47 H       -4.7300    -4.2750    -1.4580 H     1 <1>   0.0800 
 48 H       -4.1700    -3.1040    -2.6210 H     1 <1>   0.0800 
 49 H       -0.0830    -9.5390    -0.9610 H     1 <1>   0.1500 
 50 H       -3.3290    -8.7600     1.6850 H     1 <1>   0.1500 
 51 H       -1.8360   -10.3600     0.5570 H     1 <1>   0.1500 
@<TRIPOS>BOND
  1   1   2  1   
  2   1   3  1   
  3   2   4  2   
  4   2   5  1   
  5   3   6  2   
  6   3   7  1   
  7   4   6  1   
  8   4   8  1   
  9   5   9  2   
 10   5  10  am  
 11   7  26  1   
 12   7  27  1   
 13   7  28  1   
 14   8  29  1   
 15   8  30  1   
 16   8  31  1   
 17  10  11  1   
 18  10  12  1   
 19  11  13  1   
 20  11  32  1   
 21  11  33  1   
 22  12  14  1   
 23  12  34  1   
 24  12  35  1   
 25  13  15  1   
 26  13  16  1   
 27  13  36  1   
 28  14  15  1   
 29  14  17  1   
 30  14  37  1   
 31  16  18  ar  
 32  16  19  ar  
 33  17  20  1   
 34  17  21  1   
 35  17  22  1   
 36  18  23  ar  
 37  18  38  1   
 38  19  24  ar  
 39  19  39  1   
 40  20  40  1   
 41  20  41  1   
 42  20  42  1   
 43  21  43  1   
 44  21  44  1   
 45  21  45  1   
 46  22  46  1   
 47  22  47  1   
 48  22  48  1   
 49  23  25  ar  
 50  23  49  1   
 51  24  25  ar  
 52  24  50  1   
 53  25  51  1   
@<TRIPOS>SUBSTRUCTURE
  1 ****  10 GROUP 4 **** **** 0

# MOE 2024.06 (io_trps.svl 2023.06)
