@<TRIPOS>MOLECULE
NONAME
42 43 1 0 0 
SMALL
USER_CHARGES


@<TRIPOS>ATOM
  1 S        0.0230     0.4100     0.2830 S.o2  1 <1>   1.3330 
  2 O       -0.0020    -0.1260     1.6260 O.2   1 <1>  -0.6500 
  3 O       -0.5430     1.7150     0.0240 O.2   1 <1>  -0.6500 
  4 N       -0.8110    -0.7030    -0.6950 N.am  1 <1>  -0.8490 
  5 C        1.6750     0.3490    -0.4140 C.3   1 <1>  -0.0550 
  6 C       -2.2430    -0.4020    -0.7750 C.3   1 <1>   0.1160 
  7 C       -0.6190    -2.0970    -0.2800 C.3   1 <1>   0.1160 
  8 C        2.7190     1.2390     0.2880 C.3   1 <1>  -0.0800 
  9 C        4.0350     1.2060    -0.4810 C.3   1 <1>   0.2200 
 10 C        3.1610     0.6600     1.6280 C.3   1 <1>   0.1200 
 11 N        4.7450     2.4720    -0.2640 N.am  1 <1>  -0.7300 
 12 C        4.8030     0.0560     0.1820 C.3   1 <1>   0.1200 
 13 O        4.0450    -0.3590     1.2820 O.3   1 <1>  -0.5600 
 14 C        4.5240     3.5950    -0.9980 C.2   1 <1>   0.5440 
 15 O        4.3150     3.4460    -2.2020 O.2   1 <1>  -0.5700 
 16 C        4.5250     4.8830    -0.3480 C.ar  1 <1>   0.0860 
 17 C        4.5060     5.0130     1.0750 C.ar  1 <1>  -0.1710 
 18 C        4.5430     6.0800    -1.0900 C.ar  1 <1>   0.0820 
 19 O        4.4620     4.0300     1.8600 O.3   1 <1>  -0.8290 
 20 C        4.5250     6.2890     1.6570 C.ar  1 <1>  -0.1500 
 21 O        4.5390     6.0380    -2.4360 O.3   1 <1>  -0.5330 
 22 C        4.5590     7.3240    -0.4940 C.ar  1 <1>  -0.1500 
 23 C        4.5520     7.4270     0.8930 C.ar  1 <1>  -0.1500 
 24 H        2.0250    -0.6650    -0.4070 H     1 <1>   0.0800 
 25 H        1.6070     0.6590    -1.4390 H     1 <1>   0.0800 
 26 H       -2.7420    -1.1200    -1.4030 H     1 <1>   0.0800 
 27 H       -2.3910     0.5760    -1.2010 H     1 <1>   0.0800 
 28 H       -2.6840    -0.4210     0.2080 H     1 <1>   0.0800 
 29 H       -1.0880    -2.7610    -0.9850 H     1 <1>   0.0800 
 30 H       -1.0470    -2.2620     0.6960 H     1 <1>   0.0800 
 31 H        0.4310    -2.3330    -0.2380 H     1 <1>   0.0800 
 32 H        2.3370     2.2420     0.3970 H     1 <1>   0.0800 
 33 H        3.9060     1.0420    -1.5370 H     1 <1>   0.0800 
 34 H        2.3620     0.2580     2.2240 H     1 <1>   0.0800 
 35 H        3.7010     1.3990     2.2000 H     1 <1>   0.0800 
 36 H        4.7840     2.7640     0.7410 H     1 <1>   0.3700 
 37 H        5.7700     0.3760     0.5300 H     1 <1>   0.0800 
 38 H        4.9060    -0.7810    -0.4840 H     1 <1>   0.0800 
 39 H        4.5150     6.3330     2.7300 H     1 <1>   0.1500 
 40 H        4.4620     5.0910    -2.7220 H     1 <1>   0.4500 
 41 H        4.5760     8.2080    -1.1020 H     1 <1>   0.1500 
 42 H        4.5650     8.3950     1.3580 H     1 <1>   0.1500 
@<TRIPOS>BOND
  1   1   2  2   
  2   1   3  2   
  3   1   4  am  
  4   1   5  1   
  5   4   6  1   
  6   4   7  1   
  7   5   8  1   
  8   5  24  1   
  9   5  25  1   
 10   6  26  1   
 11   6  27  1   
 12   6  28  1   
 13   7  29  1   
 14   7  30  1   
 15   7  31  1   
 16   8   9  1   
 17   8  10  1   
 18   8  32  1   
 19   9  11  1   
 20   9  12  1   
 21   9  33  1   
 22  10  13  1   
 23  10  34  1   
 24  10  35  1   
 25  11  14  am  
 26  11  36  1   
 27  12  13  1   
 28  12  37  1   
 29  12  38  1   
 30  14  15  2   
 31  14  16  1   
 32  16  17  ar  
 33  16  18  ar  
 34  17  19  1   
 35  17  20  ar  
 36  18  21  1   
 37  18  22  ar  
 38  20  23  ar  
 39  20  39  1   
 40  21  40  1   
 41  22  23  ar  
 42  22  41  1   
 43  23  42  1   
@<TRIPOS>SUBSTRUCTURE
  1 ****   8 GROUP 4 **** **** 0

# MOE 2024.06 (io_trps.svl 2023.06)
