@<TRIPOS>MOLECULE
NONAME
54 57 1 0 0 
SMALL
USER_CHARGES


@<TRIPOS>ATOM
  1 O        0.2440    -0.3090     1.4170 O.3   1 <1>  -0.5600 
  2 C        0.2380    -1.5840     0.8290 C.3   1 <1>   0.1200 
  3 C        1.2510     0.5230     0.9330 C.3   1 <1>   0.1200 
  4 C        1.5880    -2.3020     1.0470 C.3   1 <1>   0.3340 
  5 C        2.6280    -0.1020     1.2310 C.3   1 <1>   0.1900 
  6 N        2.7290    -1.4460     0.6190 N.3   1 <1>  -0.8100 
  7 C        1.6040    -3.6250     0.2850 C.ar  1 <1>  -0.1440 
  8 C        3.7600     0.8050     0.7030 C.3   1 <1>   0.3430 
  9 C        4.0320    -2.0750     0.9020 C.3   1 <1>   0.1100 
 10 C        1.6670    -3.6470    -1.1020 C.ar  1 <1>  -0.1500 
 11 C        1.5620    -4.8270     0.9780 C.ar  1 <1>  -0.1500 
 12 N        5.1390     0.2080     0.9170 N.4   1 <1>  -0.9590 
 13 C        5.1830    -1.2040     0.3670 C.3   1 <1>   0.3430 
 14 C        1.6900    -4.8500    -1.7860 C.ar  1 <1>  -0.1500 
 15 C        1.5860    -6.0310     0.2950 C.ar  1 <1>  -0.1500 
 16 C        6.2270     1.1190     0.4430 C.3   1 <1>   0.4230 
 17 C        1.6500    -6.0430    -1.0870 C.ar  1 <1>  -0.1500 
 18 C        6.2860     1.2270    -1.0880 C.3   1 <1>  -0.1600 
 19 C        7.5810     0.6650     0.9930 C.3   1 <1>  -0.1600 
 20 C        7.4070     2.1740    -1.5180 C.3   1 <1>   0.3430 
 21 C        8.6930     1.6170     0.5470 C.3   1 <1>   0.3430 
 22 N        8.7080     1.7230    -0.9420 N.4   1 <1>  -0.9590 
 23 C        9.8110     2.6420    -1.3810 C.3   1 <1>   0.2630 
 24 H       -0.5570    -2.1520     1.2780 H     1 <1>   0.0800 
 25 H        0.0300    -1.4770    -0.2210 H     1 <1>   0.0800 
 26 H        1.1040     0.6600    -0.1250 H     1 <1>   0.0800 
 27 H        1.1460     1.4730     1.4270 H     1 <1>   0.0800 
 28 H        1.6770    -2.5070     2.1010 H     1 <1>   0.0800 
 29 H        2.7200    -0.1840     2.3020 H     1 <1>   0.0800 
 30 H        3.6940     1.7620     1.1950 H     1 <1>   0.0800 
 31 H        3.5910     0.9610    -0.3490 H     1 <1>   0.0800 
 32 H        4.1470    -2.2370     1.9610 H     1 <1>   0.0800 
 33 H        4.0860    -3.0350     0.4160 H     1 <1>   0.0800 
 34 H        1.7000    -2.7240    -1.6530 H     1 <1>   0.1500 
 35 H        1.5080    -4.8380     2.0520 H     1 <1>   0.1500 
 36 H        5.2330     0.1070     1.9370 H     1 <1>   0.4500 
 37 H        5.1010    -1.1820    -0.7070 H     1 <1>   0.0800 
 38 H        6.1180    -1.6740     0.6210 H     1 <1>   0.0800 
 39 H        1.7360    -4.8590    -2.8610 H     1 <1>   0.1500 
 40 H        1.5520    -6.9590     0.8380 H     1 <1>   0.1500 
 41 H        6.0310     2.1050     0.8370 H     1 <1>   0.0800 
 42 H        1.6680    -6.9790    -1.6180 H     1 <1>   0.1500 
 43 H        6.4590     0.2690    -1.5430 H     1 <1>   0.0800 
 44 H        5.3590     1.6170    -1.4680 H     1 <1>   0.0800 
 45 H        7.5540     0.6630     2.0690 H     1 <1>   0.0800 
 46 H        7.8270    -0.3270     0.6600 H     1 <1>   0.0800 
 47 H        7.1880     3.1760    -1.1810 H     1 <1>   0.0800 
 48 H        7.4700     2.1930    -2.5960 H     1 <1>   0.0800 
 49 H        9.6460     1.2510     0.8990 H     1 <1>   0.0800 
 50 H        8.5330     2.5930     0.9790 H     1 <1>   0.0800 
 51 H        8.9330     0.7930    -1.3330 H     1 <1>   0.4500 
 52 H        9.6440     3.6400    -1.0080 H     1 <1>   0.0800 
 53 H        9.8610     2.6830    -2.4580 H     1 <1>   0.0800 
 54 H       10.7620     2.2930    -1.0120 H     1 <1>   0.0800 
@<TRIPOS>BOND
  1   1   2  1   
  2   1   3  1   
  3   2   4  1   
  4   2  24  1   
  5   2  25  1   
  6   3   5  1   
  7   3  26  1   
  8   3  27  1   
  9   4   6  1   
 10   4   7  1   
 11   4  28  1   
 12   5   6  1   
 13   5   8  1   
 14   5  29  1   
 15   6   9  1   
 16   7  10  ar  
 17   7  11  ar  
 18   8  12  1   
 19   8  30  1   
 20   8  31  1   
 21   9  13  1   
 22   9  32  1   
 23   9  33  1   
 24  10  14  ar  
 25  10  34  1   
 26  11  15  ar  
 27  11  35  1   
 28  12  13  1   
 29  12  16  1   
 30  12  36  1   
 31  13  37  1   
 32  13  38  1   
 33  14  17  ar  
 34  14  39  1   
 35  15  17  ar  
 36  15  40  1   
 37  16  18  1   
 38  16  19  1   
 39  16  41  1   
 40  17  42  1   
 41  18  20  1   
 42  18  43  1   
 43  18  44  1   
 44  19  21  1   
 45  19  45  1   
 46  19  46  1   
 47  20  22  1   
 48  20  47  1   
 49  20  48  1   
 50  21  22  1   
 51  21  49  1   
 52  21  50  1   
 53  22  23  1   
 54  22  51  1   
 55  23  52  1   
 56  23  53  1   
 57  23  54  1   
@<TRIPOS>SUBSTRUCTURE
  1 ****   9 GROUP 4 **** **** 0

# MOE 2024.06 (io_trps.svl 2023.06)
