@<TRIPOS>MOLECULE
NONAME
51 55 1 0 0 
SMALL
USER_CHARGES


@<TRIPOS>ATOM
  1 F       -2.0770     1.8360    -1.0400 F     1 <1>  -0.1900 
  2 C       -3.3750     1.7830    -0.9150 C.ar  1 <1>   0.1900 
  3 C       -3.9710     2.4890     0.1110 C.ar  1 <1>  -0.1500 
  4 C       -4.0980     1.0240    -1.8130 C.ar  1 <1>  -0.1500 
  5 C       -5.3570     2.4580     0.2630 C.ar  1 <1>   0.0530 
  6 C       -5.4720     0.9750    -1.6660 C.ar  1 <1>  -0.1500 
  7 C       -6.0040     3.2060     1.3150 C.2   1 <1>  -0.2050 
  8 C       -6.0850     1.6810    -0.6430 C.ar  1 <1>  -0.1500 
  9 N       -5.5170     4.3600     1.8220 N.pl3 1 <1>   0.3000 
 10 C       -7.1660     2.9650     2.0070 C.2   1 <1>  -0.0860 
 11 N       -6.2870     4.8730     2.7950 N.2   1 <1>  -0.7070 
 12 C       -8.1190     1.8950     1.8960 C.2   1 <1>   0.7160 
 13 C       -7.2570     4.0240     2.9090 C.2   1 <1>   0.1390 
 14 O       -7.7720     0.7570     2.1500 O.2   1 <1>  -0.5700 
 15 N       -9.4130     2.1190     1.4680 N.am  1 <1>  -0.6600 
 16 C       -9.9620     3.4630     1.0980 C.3   1 <1>   0.1400 
 17 C      -10.3380     0.9740     1.1990 C.3   1 <1>   0.1400 
 18 C      -10.2570     3.5520    -0.4160 C.3   1 <1>   0.1440 
 19 C      -11.3640     1.3070     0.1000 C.3   1 <1>  -0.1600 
 20 C      -11.2680     4.6700    -0.6160 C.ar  1 <1>   0.1670 
 21 C      -10.7470     2.1970    -0.9920 C.3   1 <1>  -0.1600 
 22 C       -9.0280     4.0840    -1.2000 C.3   1 <1>  -0.1600 
 23 N      -12.5510     4.6010    -0.3360 N.ar  1 <1>  -0.6200 
 24 C      -10.6810     5.7940    -1.1170 C.ar  1 <1>  -0.1430 
 25 C       -9.2010     5.6070    -1.3310 C.3   1 <1>  -0.0170 
 26 C      -13.2290     5.7110    -0.5920 C.ar  1 <1>   0.4770 
 27 C      -11.4780     6.8880    -1.3420 C.ar  1 <1>   0.1600 
 28 N      -12.7680     6.8560    -1.0800 N.ar  1 <1>  -0.6200 
 29 C      -14.7080     5.6670    -0.2950 C.3   1 <1>  -0.0970 
 30 H       -3.3480     3.0450     0.7850 H     1 <1>   0.1500 
 31 H       -3.5960     0.4860    -2.5980 H     1 <1>   0.1500 
 32 H       -6.0650     0.3850    -2.3450 H     1 <1>   0.1500 
 33 H       -7.1530     1.6190    -0.5510 H     1 <1>   0.1500 
 34 H       -4.6530     4.8230     1.5160 H     1 <1>   0.2700 
 35 H       -8.0540     4.1310     3.6270 H     1 <1>   0.1500 
 36 H       -9.3060     4.2620     1.3850 H     1 <1>   0.0800 
 37 H      -10.8810     3.6010     1.6430 H     1 <1>   0.0800 
 38 H      -10.8470     0.7050     2.1090 H     1 <1>   0.0800 
 39 H       -9.7590     0.1230     0.8810 H     1 <1>   0.0800 
 40 H      -12.2080     1.8100     0.5390 H     1 <1>   0.0800 
 41 H      -11.7290     0.3920    -0.3310 H     1 <1>   0.0800 
 42 H       -9.9160     1.6620    -1.4170 H     1 <1>   0.0800 
 43 H      -11.4630     2.3690    -1.7770 H     1 <1>   0.0800 
 44 H       -9.0270     3.6680    -2.1920 H     1 <1>   0.0800 
 45 H       -8.0980     3.8330    -0.7250 H     1 <1>   0.0800 
 46 H       -8.8880     5.9610    -2.2980 H     1 <1>   0.0800 
 47 H       -8.6550     6.1210    -0.5580 H     1 <1>   0.0800 
 48 H      -11.0600     7.7980    -1.7370 H     1 <1>   0.1500 
 49 H      -14.9050     4.9800     0.5060 H     1 <1>   0.0800 
 50 H      -15.2350     5.3470    -1.1740 H     1 <1>   0.0800 
 51 H      -15.0570     6.6430    -0.0110 H     1 <1>   0.0800 
@<TRIPOS>BOND
  1   1   2  1   
  2   2   3  ar  
  3   2   4  ar  
  4   3   5  ar  
  5   3  30  1   
  6   4   6  ar  
  7   4  31  1   
  8   5   7  1   
  9   5   8  ar  
 10   6   8  ar  
 11   6  32  1   
 12   7   9  1   
 13   7  10  2   
 14   8  33  1   
 15   9  11  1   
 16   9  34  1   
 17  10  12  1   
 18  10  13  1   
 19  11  13  2   
 20  12  14  2   
 21  12  15  am  
 22  13  35  1   
 23  15  16  1   
 24  15  17  1   
 25  16  18  1   
 26  16  36  1   
 27  16  37  1   
 28  17  19  1   
 29  17  38  1   
 30  17  39  1   
 31  18  20  1   
 32  18  21  1   
 33  18  22  1   
 34  19  21  1   
 35  19  40  1   
 36  19  41  1   
 37  20  23  ar  
 38  20  24  ar  
 39  21  42  1   
 40  21  43  1   
 41  22  25  1   
 42  22  44  1   
 43  22  45  1   
 44  23  26  ar  
 45  24  25  1   
 46  24  27  ar  
 47  25  46  1   
 48  25  47  1   
 49  26  28  ar  
 50  26  29  1   
 51  27  28  ar  
 52  27  48  1   
 53  29  49  1   
 54  29  50  1   
 55  29  51  1   
@<TRIPOS>SUBSTRUCTURE
  1 ****  22 GROUP 4 **** **** 0

# MOE 2024.06 (io_trps.svl 2023.06)
