@<TRIPOS>MOLECULE
NONAME
46 49 1 0 0 
SMALL
USER_CHARGES


@<TRIPOS>ATOM
  1 O        0.1040     1.0010     1.0600 O.2   1 <1>  -0.5700 
  2 C       -0.6300     1.6030     0.3190 C.2   1 <1>   0.4230 
  3 C       -2.0290     1.8190     0.5300 C.ar  1 <1>   0.0860 
  4 C       -0.0690     2.2210    -0.9470 C.3   1 <1>  -0.0990 
  5 C       -2.6620     2.6750    -0.3670 C.ar  1 <1>   0.0830 
  6 C       -2.7950     1.2290     1.5340 C.ar  1 <1>  -0.1500 
  7 C       -0.5690     3.7210    -1.0230 C.3   1 <1>   0.2800 
  8 O       -1.9110     3.2820    -1.3200 O.3   1 <1>  -0.3630 
  9 C       -4.0250     2.9080    -0.2990 C.ar  1 <1>  -0.1500 
 10 C       -4.1540     1.4710     1.6180 C.ar  1 <1>  -0.1500 
 11 C        0.9130     4.2430    -0.7910 C.3   1 <1>   0.1100 
 12 C       -1.1160     5.1920    -1.0090 C.3   1 <1>  -0.1600 
 13 C       -4.7720     2.3060     0.6980 C.ar  1 <1>  -0.1500 
 14 N        1.0680     5.6910    -0.8160 N.3   1 <1>  -0.8100 
 15 C       -0.1780     6.1600    -0.3360 C.3   1 <1>   0.1100 
 16 C        2.2280     6.1800    -0.0500 C.3   1 <1>   0.2900 
 17 C        2.3150     7.6970    -0.0720 C.2   1 <1>  -0.0400 
 18 O        2.5580     8.3270    -1.1900 O.3   1 <1>  -0.0190 
 19 C        2.1860     8.6140     0.8990 C.2   1 <1>  -0.1500 
 20 N        2.6010     9.6170    -1.0180 N.2   1 <1>  -0.4100 
 21 C        2.3780     9.8230     0.2330 C.2   1 <1>   0.1080 
 22 C        2.3260    11.1940     0.9000 C.3   1 <1>   0.1010 
 23 C        1.1690    12.0270     0.3350 C.3   1 <1>  -0.2400 
 24 C        3.6560    11.9370     0.7250 C.3   1 <1>  -0.2400 
 25 H       -0.4330     1.6640    -1.7950 H     1 <1>   0.0800 
 26 H        0.9880     2.0050    -0.9440 H     1 <1>   0.0800 
 27 H       -2.3120     0.5750     2.2410 H     1 <1>   0.1500 
 28 H       -4.4890     3.5600    -1.0180 H     1 <1>   0.1500 
 29 H       -4.7370     1.0080     2.3960 H     1 <1>   0.1500 
 30 H        1.5750     3.8700    -1.5570 H     1 <1>   0.0800 
 31 H        1.2580     3.8880     0.1680 H     1 <1>   0.0800 
 32 H       -2.0600     5.3080    -0.4990 H     1 <1>   0.0800 
 33 H       -1.2460     5.5210    -2.0260 H     1 <1>   0.0800 
 34 H       -5.8320     2.4860     0.7620 H     1 <1>   0.1500 
 35 H       -0.2400     6.0700     0.7360 H     1 <1>   0.0800 
 36 H       -0.3570     7.1780    -0.6410 H     1 <1>   0.0800 
 37 H        3.1290     5.7770    -0.4790 H     1 <1>   0.0800 
 38 H        2.1600     5.8460     0.9710 H     1 <1>   0.0800 
 39 H        1.9840     8.4850     1.9450 H     1 <1>   0.1500 
 40 H        2.1560    11.0510     1.9520 H     1 <1>   0.0800 
 41 H        1.3130    12.1970    -0.7180 H     1 <1>   0.0800 
 42 H        1.1070    12.9760     0.8350 H     1 <1>   0.0800 
 43 H        0.2390    11.5030     0.4690 H     1 <1>   0.0800 
 44 H        3.8520    12.1080    -0.3190 H     1 <1>   0.0800 
 45 H        4.4600    11.3500     1.1310 H     1 <1>   0.0800 
 46 H        3.6280    12.8840     1.2330 H     1 <1>   0.0800 
@<TRIPOS>BOND
  1   1   2  2   
  2   2   3  1   
  3   2   4  1   
  4   3   5  ar  
  5   3   6  ar  
  6   4   7  1   
  7   4  25  1   
  8   4  26  1   
  9   5   8  1   
 10   5   9  ar  
 11   6  10  ar  
 12   6  27  1   
 13   7   8  1   
 14   7  11  1   
 15   7  12  1   
 16   9  13  ar  
 17   9  28  1   
 18  10  13  ar  
 19  10  29  1   
 20  11  14  1   
 21  11  30  1   
 22  11  31  1   
 23  12  15  1   
 24  12  32  1   
 25  12  33  1   
 26  13  34  1   
 27  14  15  1   
 28  14  16  1   
 29  15  35  1   
 30  15  36  1   
 31  16  17  1   
 32  16  37  1   
 33  16  38  1   
 34  17  18  1   
 35  17  19  2   
 36  18  20  1   
 37  19  21  1   
 38  19  39  1   
 39  20  21  2   
 40  21  22  1   
 41  22  23  1   
 42  22  24  1   
 43  22  40  1   
 44  23  41  1   
 45  23  42  1   
 46  23  43  1   
 47  24  44  1   
 48  24  45  1   
 49  24  46  1   
@<TRIPOS>SUBSTRUCTURE
  1 ****  15 GROUP 4 **** **** 0

# MOE 2024.06 (io_trps.svl 2023.06)
