@<TRIPOS>MOLECULE
NONAME
54 57 1 0 0 
SMALL
USER_CHARGES


@<TRIPOS>ATOM
  1 O       -1.6960     1.2190    -0.5890 O.3   1 <1>  -0.3630 
  2 C       -1.4880     1.9770     0.5310 C.ar  1 <1>   0.0830 
  3 C       -0.6060     0.8880    -1.4290 C.3   1 <1>   0.0400 
  4 C       -0.6580     3.1090     0.5600 C.ar  1 <1>   0.0830 
  5 C       -2.1690     1.5860     1.6810 C.ar  1 <1>  -0.1440 
  6 O       -0.0580     3.5280    -0.5900 O.3   1 <1>  -0.3620 
  7 C       -0.4920     3.7940     1.7610 C.ar  1 <1>  -0.1500 
  8 C       -1.9920     2.2860     2.8650 C.ar  1 <1>  -0.1500 
  9 C       -3.1220     0.4050     1.6470 C.3   1 <1>   0.4860 
 10 C        0.8070     4.6450    -0.6250 C.3   1 <1>   0.0400 
 11 C       -1.1520     3.3820     2.9040 C.ar  1 <1>  -0.1500 
 12 N       -4.1520     0.6840     0.6180 N.4   1 <1>  -0.9590 
 13 C       -4.9850     1.8840     0.9600 C.3   1 <1>   0.3430 
 14 C       -4.9830    -0.4970     0.2730 C.3   1 <1>   0.3430 
 15 C       -5.8680     2.3010    -0.2260 C.3   1 <1>   0.1430 
 16 C       -5.8610    -0.1600    -0.9370 C.3   1 <1>  -0.1600 
 17 C       -6.7630     3.4320     0.2170 C.ar  1 <1>   0.1670 
 18 C       -6.7150     1.1020    -0.7080 C.3   1 <1>  -0.1600 
 19 C       -5.0510     2.9470    -1.3800 C.3   1 <1>  -0.1600 
 20 N       -7.4680     3.4330     1.3250 N.ar  1 <1>  -0.6200 
 21 C       -6.7460     4.4690    -0.6640 C.ar  1 <1>  -0.1430 
 22 C       -5.8360     4.1930    -1.8350 C.3   1 <1>  -0.0170 
 23 C       -8.1830     4.5360     1.5090 C.ar  1 <1>   0.4770 
 24 C       -7.5210     5.5640    -0.3710 C.ar  1 <1>   0.1600 
 25 N       -8.2500     5.6040     0.7260 N.ar  1 <1>  -0.6200 
 26 C       -9.0240     4.5920     2.7610 C.3   1 <1>  -0.0970 
 27 H       -0.8360    -0.0280    -1.9420 H     1 <1>   0.0800 
 28 H        0.2800     0.7620    -0.8300 H     1 <1>   0.0800 
 29 H       -0.4640     1.6760    -2.1460 H     1 <1>   0.0800 
 30 H        0.1430     4.6570     1.8330 H     1 <1>   0.1500 
 31 H       -2.5030     1.9910     3.7670 H     1 <1>   0.1500 
 32 H       -3.5810     0.2620     2.6110 H     1 <1>   0.0800 
 33 H       -2.5690    -0.4830     1.3860 H     1 <1>   0.0800 
 34 H        1.1630     4.7610    -1.6330 H     1 <1>   0.0800 
 35 H        1.6370     4.4670     0.0350 H     1 <1>   0.0800 
 36 H        0.2590     5.5220    -0.3300 H     1 <1>   0.0800 
 37 H       -1.0120     3.9210     3.8260 H     1 <1>   0.1500 
 38 H       -3.5850     0.9400    -0.2110 H     1 <1>   0.4500 
 39 H       -4.3550     2.7160     1.2310 H     1 <1>   0.0800 
 40 H       -5.6200     1.6600     1.8010 H     1 <1>   0.0800 
 41 H       -5.6080    -0.7610     1.1110 H     1 <1>   0.0800 
 42 H       -4.3520    -1.3400     0.0360 H     1 <1>   0.0800 
 43 H       -6.5130    -0.9930    -1.1360 H     1 <1>   0.0800 
 44 H       -5.2360    -0.0360    -1.8030 H     1 <1>   0.0800 
 45 H       -7.2420     1.3620    -1.6100 H     1 <1>   0.0800 
 46 H       -7.4590     0.8840     0.0410 H     1 <1>   0.0800 
 47 H       -4.8810     2.2770    -2.2030 H     1 <1>   0.0800 
 48 H       -4.0950     3.2750    -1.0090 H     1 <1>   0.0800 
 49 H       -6.4280     3.9760    -2.7080 H     1 <1>   0.0800 
 50 H       -5.1810     5.0240    -2.0360 H     1 <1>   0.0800 
 51 H       -7.5470     6.4130    -1.0330 H     1 <1>   0.1500 
 52 H       -9.0190     3.6450     3.2670 H     1 <1>   0.0800 
 53 H      -10.0360     4.8440     2.5020 H     1 <1>   0.0800 
 54 H       -8.6330     5.3460     3.4180 H     1 <1>   0.0800 
@<TRIPOS>BOND
  1   1   2  1   
  2   1   3  1   
  3   2   4  ar  
  4   2   5  ar  
  5   3  27  1   
  6   3  28  1   
  7   3  29  1   
  8   4   6  1   
  9   4   7  ar  
 10   5   8  ar  
 11   5   9  1   
 12   6  10  1   
 13   7  11  ar  
 14   7  30  1   
 15   8  11  ar  
 16   8  31  1   
 17   9  12  1   
 18   9  32  1   
 19   9  33  1   
 20  10  34  1   
 21  10  35  1   
 22  10  36  1   
 23  11  37  1   
 24  12  13  1   
 25  12  14  1   
 26  12  38  1   
 27  13  15  1   
 28  13  39  1   
 29  13  40  1   
 30  14  16  1   
 31  14  41  1   
 32  14  42  1   
 33  15  17  1   
 34  15  18  1   
 35  15  19  1   
 36  16  18  1   
 37  16  43  1   
 38  16  44  1   
 39  17  20  ar  
 40  17  21  ar  
 41  18  45  1   
 42  18  46  1   
 43  19  22  1   
 44  19  47  1   
 45  19  48  1   
 46  20  23  ar  
 47  21  22  1   
 48  21  24  ar  
 49  22  49  1   
 50  22  50  1   
 51  23  25  ar  
 52  23  26  1   
 53  24  25  ar  
 54  24  51  1   
 55  26  52  1   
 56  26  53  1   
 57  26  54  1   
@<TRIPOS>SUBSTRUCTURE
  1 ****  13 GROUP 4 **** **** 0

# MOE 2024.06 (io_trps.svl 2023.06)
