@<TRIPOS>MOLECULE
NONAME
38 41 1 0 0 
SMALL
USER_CHARGES


@<TRIPOS>ATOM
  1 S       -0.2710     0.2970    -2.0220 S.3   1 <1>  -0.0800 
  2 C       -1.2240     1.0070    -0.7280 C.2   1 <1>  -0.1400 
  3 C       -1.4910    -0.9430    -2.2840 C.2   1 <1>  -0.1100 
  4 C       -2.3690     0.3320    -0.5580 C.2   1 <1>  -0.1810 
  5 C       -0.7660     2.2270     0.0610 C.3   1 <1>   0.4600 
  6 C       -2.5260    -0.7860    -1.4370 C.2   1 <1>  -0.1500 
  7 C       -3.3510     0.7850     0.4980 C.3   1 <1>   0.0210 
  8 O       -1.6790     2.4480     1.1210 O.3   1 <1>  -0.5600 
  9 C        0.5980     1.9790     0.7110 C.3   1 <1>  -0.1600 
 10 C       -0.7120     3.4830    -0.8200 C.3   1 <1>  -0.1600 
 11 C       -3.0510     2.2510     0.8680 C.3   1 <1>   0.1200 
 12 C        1.0830     3.2060     1.4850 C.3   1 <1>   0.1400 
 13 C       -0.2180     4.7020    -0.0390 C.3   1 <1>   0.1400 
 14 N        1.0990     4.3920     0.5820 N.am  1 <1>  -0.6600 
 15 C        2.2760     5.0290     0.2460 C.2   1 <1>   0.7160 
 16 O        3.3300     4.4460     0.4170 O.2   1 <1>  -0.5700 
 17 C        2.2920     6.3680    -0.3110 C.2   1 <1>  -0.0860 
 18 C        1.4970     7.4090     0.0400 C.2   1 <1>  -0.1100 
 19 C        3.2280     6.7450    -1.3400 C.2   1 <1>  -0.1500 
 20 S        1.8520     8.8490    -0.8860 S.3   1 <1>  -0.0800 
 21 C        3.1250     8.0200    -1.7560 C.2   1 <1>  -0.1100 
 22 H       -1.2990    -1.6680    -3.0540 H     1 <1>   0.1500 
 23 H       -3.4000    -1.4140    -1.3920 H     1 <1>   0.1500 
 24 H       -3.2630     0.1610     1.3690 H     1 <1>   0.0800 
 25 H       -4.3570     0.7100     0.1250 H     1 <1>   0.0800 
 26 H        1.3260     1.7440    -0.0440 H     1 <1>   0.0800 
 27 H        0.5280     1.1330     1.3700 H     1 <1>   0.0800 
 28 H       -1.6790     3.6790    -1.2430 H     1 <1>   0.0800 
 29 H       -0.0390     3.3070    -1.6390 H     1 <1>   0.0800 
 30 H       -3.5900     2.5260     1.7570 H     1 <1>   0.0800 
 31 H       -3.3480     2.9060     0.0690 H     1 <1>   0.0800 
 32 H        2.0650     3.0170     1.8860 H     1 <1>   0.0800 
 33 H        0.4220     3.4020     2.3110 H     1 <1>   0.0800 
 34 H       -0.9230     4.9550     0.7360 H     1 <1>   0.0800 
 35 H       -0.1410     5.5360    -0.7140 H     1 <1>   0.0800 
 36 H        0.7170     7.4760     0.7770 H     1 <1>   0.1500 
 37 H        3.9380     6.0240    -1.7100 H     1 <1>   0.1500 
 38 H        3.6710     8.5830    -2.4920 H     1 <1>   0.1500 
@<TRIPOS>BOND
  1   1   2  1   
  2   1   3  1   
  3   2   4  2   
  4   2   5  1   
  5   3   6  2   
  6   3  22  1   
  7   4   6  1   
  8   4   7  1   
  9   5   8  1   
 10   5   9  1   
 11   5  10  1   
 12   6  23  1   
 13   7  11  1   
 14   7  24  1   
 15   7  25  1   
 16   8  11  1   
 17   9  12  1   
 18   9  26  1   
 19   9  27  1   
 20  10  13  1   
 21  10  28  1   
 22  10  29  1   
 23  11  30  1   
 24  11  31  1   
 25  12  14  1   
 26  12  32  1   
 27  12  33  1   
 28  13  14  1   
 29  13  34  1   
 30  13  35  1   
 31  14  15  am  
 32  15  16  2   
 33  15  17  1   
 34  17  18  2   
 35  17  19  1   
 36  18  20  1   
 37  18  36  1   
 38  19  21  2   
 39  19  37  1   
 40  20  21  1   
 41  21  38  1   
@<TRIPOS>SUBSTRUCTURE
  1 ****  10 GROUP 4 **** **** 0

# MOE 2024.06 (io_trps.svl 2023.06)
