@<TRIPOS>MOLECULE
NONAME
44 46 1 0 0 
SMALL
USER_CHARGES


@<TRIPOS>ATOM
  1 O       -0.5180     1.2280    -1.1910 O.2   1 <1>  -0.5700 
  2 C       -0.7510     2.4050    -1.0480 C.2   1 <1>   0.5690 
  3 N       -1.4960     2.9170    -0.0150 N.am  1 <1>  -0.6600 
  4 C       -0.1860     3.3680    -2.0860 C.3   1 <1>   0.1810 
  5 C       -1.7570     4.3940     0.0770 C.3   1 <1>   0.3640 
  6 C       -2.0410     2.1170     1.1170 C.3   1 <1>   0.2200 
  7 O        0.1560     4.6010    -1.5110 O.3   1 <1>  -0.5600 
  8 C       -3.2510     4.6560    -0.1250 C.ar  1 <1>  -0.1440 
  9 C       -0.9370     5.2810    -0.9050 C.3   1 <1>   0.2610 
 10 C       -0.8970     1.5280     1.9410 C.3   1 <1>  -0.2400 
 11 C       -3.0080     1.0380     0.6280 C.3   1 <1>  -0.2400 
 12 C       -3.9620     4.0440    -1.1510 C.ar  1 <1>  -0.1500 
 13 C       -3.9180     5.5310     0.7210 C.ar  1 <1>  -0.1500 
 14 C       -0.4350     6.5290    -0.1720 C.2   1 <1>   0.5690 
 15 C       -5.3110     4.2970    -1.3230 C.ar  1 <1>  -0.1500 
 16 C       -5.2680     5.7850     0.5510 C.ar  1 <1>  -0.1500 
 17 O       -1.2210     7.2190     0.4370 O.2   1 <1>  -0.5700 
 18 N        0.8940     6.8180    -0.2170 N.am  1 <1>  -0.5790 
 19 C       -5.9660     5.1680    -0.4710 C.ar  1 <1>  -0.1500 
 20 C        1.5690     7.9530     0.4240 C.3   1 <1>   0.0490 
 21 C        2.7480     8.5490    -0.2700 C.3   1 <1>  -0.2000 
 22 C        2.9380     7.7330     0.9740 C.3   1 <1>  -0.2000 
 23 H       -0.9060     3.5330    -2.8670 H     1 <1>   0.0800 
 24 H        0.7050     2.9470    -2.5140 H     1 <1>   0.0800 
 25 H       -1.4980     4.6940     1.0780 H     1 <1>   0.0800 
 26 H       -2.6010     2.7730     1.7630 H     1 <1>   0.0800 
 27 H       -1.5800     5.6130    -1.7000 H     1 <1>   0.0800 
 28 H       -0.3420     0.8090     1.3660 H     1 <1>   0.0800 
 29 H       -1.2910     1.0310     2.8090 H     1 <1>   0.0800 
 30 H       -0.2340     2.3080     2.2680 H     1 <1>   0.0800 
 31 H       -2.5000     0.2940     0.0430 H     1 <1>   0.0800 
 32 H       -3.7920     1.4790     0.0410 H     1 <1>   0.0800 
 33 H       -3.4570     0.5470     1.4720 H     1 <1>   0.0800 
 34 H       -3.4710     3.3590    -1.8200 H     1 <1>   0.1500 
 35 H       -3.3900     6.0290     1.5170 H     1 <1>   0.1500 
 36 H       -5.8530     3.8150    -2.1180 H     1 <1>   0.1500 
 37 H       -5.7720     6.4670     1.2130 H     1 <1>   0.1500 
 38 H        1.4880     6.1740    -0.7470 H     1 <1>   0.3700 
 39 H       -7.0150     5.3660    -0.6030 H     1 <1>   0.1500 
 40 H        0.8950     8.6070     0.9550 H     1 <1>   0.1000 
 41 H        3.0550     8.1420    -1.2170 H     1 <1>   0.1000 
 42 H        2.8990     9.6130    -0.2080 H     1 <1>   0.1000 
 43 H        3.2190     8.2430     1.8780 H     1 <1>   0.1000 
 44 H        3.3790     6.7540     0.8960 H     1 <1>   0.1000 
@<TRIPOS>BOND
  1   1   2  2   
  2   2   3  am  
  3   2   4  1   
  4   3   5  1   
  5   3   6  1   
  6   4   7  1   
  7   4  23  1   
  8   4  24  1   
  9   5   8  1   
 10   5   9  1   
 11   5  25  1   
 12   6  10  1   
 13   6  11  1   
 14   6  26  1   
 15   7   9  1   
 16   8  12  ar  
 17   8  13  ar  
 18   9  14  1   
 19   9  27  1   
 20  10  28  1   
 21  10  29  1   
 22  10  30  1   
 23  11  31  1   
 24  11  32  1   
 25  11  33  1   
 26  12  15  ar  
 27  12  34  1   
 28  13  16  ar  
 29  13  35  1   
 30  14  17  2   
 31  14  18  am  
 32  15  19  ar  
 33  15  36  1   
 34  16  19  ar  
 35  16  37  1   
 36  18  20  1   
 37  18  38  1   
 38  19  39  1   
 39  20  21  1   
 40  20  22  1   
 41  20  40  1   
 42  21  22  1   
 43  21  41  1   
 44  21  42  1   
 45  22  43  1   
 46  22  44  1   
@<TRIPOS>SUBSTRUCTURE
  1 ****   5 GROUP 4 **** **** 0

# MOE 2024.06 (io_trps.svl 2023.06)
