@<TRIPOS>MOLECULE
NONAME
51 54 1 0 0 
SMALL
USER_CHARGES


@<TRIPOS>ATOM
  1 O        3.6740     2.1970     1.5230 O.co2 1 <1>  -0.9000 
  2 C        3.0480     1.1470     1.3670 C.2   1 <1>   0.9060 
  3 O        3.1850     0.2070     2.1550 O.co2 1 <1>  -0.9000 
  4 C        2.4180     0.8580    -0.0120 C.3   1 <1>  -0.1060 
  5 C        3.2160    -0.3430    -0.5580 C.3   1 <1>   0.4230 
  6 C        2.6180     2.0480    -1.0100 C.3   1 <1>  -0.1600 
  7 C        0.9020     0.5450     0.0790 C.3   1 <1>  -0.1600 
  8 N        2.8920    -1.5840     0.2380 N.4   1 <1>  -0.9590 
  9 C        4.7440     0.0250    -0.5850 C.3   1 <1>   0.3430 
 10 C        4.0510     2.2420    -1.5480 C.3   1 <1>   0.3430 
 11 C        0.6140    -0.7970     0.7670 C.3   1 <1>  -0.1600 
 12 C        1.4470    -1.9380     0.1850 C.3   1 <1>   0.3430 
 13 C        3.7540    -2.7800     0.0120 C.3   1 <1>   0.2630 
 14 N        5.0190     1.5070    -0.6910 N.4   1 <1>  -0.9590 
 15 C        6.4460     1.8700    -0.8880 C.3   1 <1>   0.4860 
 16 C        6.6050     3.3790    -0.8090 C.ar  1 <1>  -0.1440 
 17 C        6.2030     4.0820     0.3010 C.ar  1 <1>  -0.1500 
 18 C        7.1610     4.0700    -1.8940 C.ar  1 <1>  -0.1500 
 19 C        6.3230     5.4830     0.3650 C.ar  1 <1>   0.0000 
 20 C        7.2930     5.4330    -1.8470 C.ar  1 <1>  -0.1500 
 21 C        6.8800     6.1770    -0.7310 C.ar  1 <1>   0.3100 
 22 C        5.9030     6.2340     1.4750 C.ar  1 <1>  -0.1500 
 23 N        7.0280     7.5250    -0.7490 N.ar  1 <1>  -0.6200 
 24 C        6.0610     7.5850     1.4340 C.ar  1 <1>  -0.1500 
 25 C        6.6290     8.1810     0.2980 C.ar  1 <1>   0.1600 
 26 H        2.9040    -0.5100    -1.5750 H     1 <1>   0.0800 
 27 H        2.3160     2.9610    -0.5240 H     1 <1>   0.0800 
 28 H        1.9720     1.9400    -1.8630 H     1 <1>   0.0800 
 29 H        0.4040     1.3350     0.6180 H     1 <1>   0.0800 
 30 H        0.4730     0.5090    -0.9080 H     1 <1>   0.0800 
 31 H        3.0320    -1.2460     1.2320 H     1 <1>   0.4500 
 32 H        5.2080    -0.4880    -1.4100 H     1 <1>   0.0800 
 33 H        5.1860    -0.3280     0.3330 H     1 <1>   0.0800 
 34 H        4.2790     3.2970    -1.5510 H     1 <1>   0.0800 
 35 H        4.1160     1.8820    -2.5610 H     1 <1>   0.0800 
 36 H       -0.4300    -1.0340     0.6630 H     1 <1>   0.0800 
 37 H        0.8110    -0.7190     1.8240 H     1 <1>   0.0800 
 38 H        1.1500    -2.1240    -0.8340 H     1 <1>   0.0800 
 39 H        1.2660    -2.8310     0.7620 H     1 <1>   0.0800 
 40 H        3.6580    -3.1290    -1.0030 H     1 <1>   0.0800 
 41 H        3.4610    -3.5750     0.6790 H     1 <1>   0.0800 
 42 H        4.7870    -2.5440     0.2090 H     1 <1>   0.0800 
 43 H        4.7880     1.9020     0.2630 H     1 <1>   0.4500 
 44 H        7.0500     1.4140    -0.1190 H     1 <1>   0.0800 
 45 H        6.7890     1.5190    -1.8470 H     1 <1>   0.0800 
 46 H        5.7750     3.5870     1.1590 H     1 <1>   0.1500 
 47 H        7.4900     3.5350    -2.7700 H     1 <1>   0.1500 
 48 H        7.7190     5.9800    -2.6680 H     1 <1>   0.1500 
 49 H        5.4680     5.7340     2.3240 H     1 <1>   0.1500 
 50 H        5.7580     8.2100     2.2540 H     1 <1>   0.1500 
 51 H        6.7410     9.2520     0.2970 H     1 <1>   0.1500 
@<TRIPOS>BOND
  1   1   2  ar  
  2   2   3  ar  
  3   2   4  1   
  4   4   5  1   
  5   4   6  1   
  6   4   7  1   
  7   5   8  1   
  8   5   9  1   
  9   5  26  1   
 10   6  10  1   
 11   6  27  1   
 12   6  28  1   
 13   7  11  1   
 14   7  29  1   
 15   7  30  1   
 16   8  12  1   
 17   8  13  1   
 18   8  31  1   
 19   9  14  1   
 20   9  32  1   
 21   9  33  1   
 22  10  14  1   
 23  10  34  1   
 24  10  35  1   
 25  11  12  1   
 26  11  36  1   
 27  11  37  1   
 28  12  38  1   
 29  12  39  1   
 30  13  40  1   
 31  13  41  1   
 32  13  42  1   
 33  14  15  1   
 34  14  43  1   
 35  15  16  1   
 36  15  44  1   
 37  15  45  1   
 38  16  17  ar  
 39  16  18  ar  
 40  17  19  ar  
 41  17  46  1   
 42  18  20  ar  
 43  18  47  1   
 44  19  21  ar  
 45  19  22  ar  
 46  20  21  ar  
 47  20  48  1   
 48  21  23  ar  
 49  22  24  ar  
 50  22  49  1   
 51  23  25  ar  
 52  24  25  ar  
 53  24  50  1   
 54  25  51  1   
@<TRIPOS>SUBSTRUCTURE
  1 ****  14 GROUP 4 **** **** 0

# MOE 2024.06 (io_trps.svl 2023.06)
