@<TRIPOS>MOLECULE
NONAME
54 57 1 0 0 
SMALL
USER_CHARGES


@<TRIPOS>ATOM
  1 S        0.1530    -0.0900    -0.6690 S.3   1 <1>  -0.0800 
  2 C       -1.2460    -0.9680    -0.1530 C.2   1 <1>   0.4420 
  3 C       -0.7140     1.3650    -0.3080 C.2   1 <1>   0.1980 
  4 N       -2.1990    -0.1960     0.2150 N.2   1 <1>  -0.3380 
  5 N       -1.1700    -2.3460    -0.2060 N.am  1 <1>  -0.4940 
  6 N       -1.8900     1.1320     0.1250 N.2   1 <1>  -0.3380 
  7 C        0.0100     2.6920    -0.5470 C.3   1 <1>   0.3800 
  8 C       -2.1270    -3.2520     0.1720 C.2   1 <1>   0.5690 
  9 O        1.1770     2.7250     0.2170 O.3   1 <1>  -0.5600 
 10 C       -0.7590     3.9240    -0.0800 C.3   1 <1>  -0.1600 
 11 O       -3.1830    -2.9470     0.6710 O.2   1 <1>  -0.5700 
 12 C       -1.9030    -4.7580    -0.0430 C.3   1 <1>   0.4040 
 13 C        0.9050     3.2040     1.4980 C.3   1 <1>   0.1200 
 14 C       -0.3540     4.0610     1.3800 C.3   1 <1>  -0.1600 
 15 N       -3.2040    -5.5230     0.0730 N.4   1 <1>  -0.9590 
 16 C       -3.1570    -6.5830     1.1420 C.3   1 <1>   0.4230 
 17 C       -3.7520    -5.9820    -1.2450 C.3   1 <1>   0.3430 
 18 C       -2.3580    -7.8240     0.6850 C.3   1 <1>  -0.0170 
 19 C       -4.5750    -7.1090     1.4460 C.3   1 <1>  -0.0170 
 20 C       -4.1020    -4.7890    -2.1370 C.3   1 <1>  -0.1600 
 21 C       -3.4290    -8.7500     0.1640 C.ar  1 <1>  -0.1430 
 22 C       -4.6720    -8.3510     0.5920 C.ar  1 <1>  -0.1430 
 23 C       -4.8030    -5.2580    -3.4170 C.3   1 <1>  -0.2400 
 24 C       -3.2820    -9.8630    -0.6420 C.ar  1 <1>  -0.1500 
 25 C       -5.8060    -9.0510     0.2260 C.ar  1 <1>  -0.1500 
 26 C       -4.4130   -10.5700    -1.0160 C.ar  1 <1>  -0.1500 
 27 C       -5.6690   -10.1660    -0.5840 C.ar  1 <1>  -0.1500 
 28 H       -0.2830    -2.6840    -0.5750 H     1 <1>   0.3700 
 29 H        0.2820     2.7740    -1.5840 H     1 <1>   0.0800 
 30 H       -1.8220     3.8250    -0.2110 H     1 <1>   0.0800 
 31 H       -0.4170     4.7770    -0.6390 H     1 <1>   0.0800 
 32 H       -1.2090    -5.1020     0.7030 H     1 <1>   0.0800 
 33 H       -1.4690    -4.9190    -1.0140 H     1 <1>   0.0800 
 34 H        1.7540     3.7720     1.8380 H     1 <1>   0.0800 
 35 H        0.7420     2.3600     2.1470 H     1 <1>   0.0800 
 36 H       -1.1170     3.6690     2.0290 H     1 <1>   0.0800 
 37 H       -0.1580     5.0850     1.6460 H     1 <1>   0.0800 
 38 H       -3.8630    -4.7960     0.4180 H     1 <1>   0.4500 
 39 H       -2.7270    -6.1670     2.0390 H     1 <1>   0.0800 
 40 H       -4.6510    -6.5550    -1.0830 H     1 <1>   0.0800 
 41 H       -3.0430    -6.6230    -1.7440 H     1 <1>   0.0800 
 42 H       -1.8910    -8.2900     1.5350 H     1 <1>   0.0800 
 43 H       -1.6130    -7.6040    -0.0570 H     1 <1>   0.0800 
 44 H       -5.3460    -6.3940     1.2230 H     1 <1>   0.0800 
 45 H       -4.6450    -7.3990     2.4790 H     1 <1>   0.0800 
 46 H       -3.2170    -4.2480    -2.4180 H     1 <1>   0.0800 
 47 H       -4.7640    -4.1220    -1.6110 H     1 <1>   0.0800 
 48 H       -4.1660    -5.9130    -3.9870 H     1 <1>   0.0800 
 49 H       -5.0520    -4.4100    -4.0320 H     1 <1>   0.0800 
 50 H       -5.7150    -5.7810    -3.1830 H     1 <1>   0.0800 
 51 H       -2.3090   -10.1840    -0.9750 H     1 <1>   0.1500 
 52 H       -6.7810    -8.7420     0.5630 H     1 <1>   0.1500 
 53 H       -4.3190   -11.4420    -1.6420 H     1 <1>   0.1500 
 54 H       -6.5400   -10.7260    -0.8780 H     1 <1>   0.1500 
@<TRIPOS>BOND
  1   1   2  1   
  2   1   3  1   
  3   2   4  2   
  4   2   5  1   
  5   3   6  2   
  6   3   7  1   
  7   4   6  1   
  8   5   8  am  
  9   5  28  1   
 10   7   9  1   
 11   7  10  1   
 12   7  29  1   
 13   8  11  2   
 14   8  12  1   
 15   9  13  1   
 16  10  14  1   
 17  10  30  1   
 18  10  31  1   
 19  12  15  1   
 20  12  32  1   
 21  12  33  1   
 22  13  14  1   
 23  13  34  1   
 24  13  35  1   
 25  14  36  1   
 26  14  37  1   
 27  15  16  1   
 28  15  17  1   
 29  15  38  1   
 30  16  18  1   
 31  16  19  1   
 32  16  39  1   
 33  17  20  1   
 34  17  40  1   
 35  17  41  1   
 36  18  21  1   
 37  18  42  1   
 38  18  43  1   
 39  19  22  1   
 40  19  44  1   
 41  19  45  1   
 42  20  23  1   
 43  20  46  1   
 44  20  47  1   
 45  21  22  ar  
 46  21  24  ar  
 47  22  25  ar  
 48  23  48  1   
 49  23  49  1   
 50  23  50  1   
 51  24  26  ar  
 52  24  51  1   
 53  25  27  ar  
 54  25  52  1   
 55  26  27  ar  
 56  26  53  1   
 57  27  54  1   
@<TRIPOS>SUBSTRUCTURE
  1 ****   8 GROUP 4 **** **** 0

# MOE 2024.06 (io_trps.svl 2023.06)
