@<TRIPOS>MOLECULE
NONAME
35 36 1 0 0 
SMALL
USER_CHARGES


@<TRIPOS>ATOM
  1 S       -0.1680     0.5700     1.1890 S.3   1 <1>  -0.0800 
  2 C        1.3200     1.4740     0.8790 C.2   1 <1>  -0.0450 
  3 C        0.6960    -0.7440     1.9520 C.2   1 <1>  -0.1100 
  4 C        1.2320     2.7510     0.2150 C.2   1 <1>   0.7150 
  5 C        2.3680     0.7500     1.3590 C.2   1 <1>  -0.1500 
  6 C        2.0170    -0.4940     1.9600 C.2   1 <1>  -0.1500 
  7 O        0.1630     3.2150    -0.1350 O.2   1 <1>  -0.5700 
  8 N        2.3960     3.4450    -0.0200 N.am  1 <1>  -0.4940 
  9 C        2.6130     4.7070    -0.6280 C.2   1 <1>  -0.0880 
 10 N        3.8320     5.2870    -0.8360 N.pl3 1 <1>   0.3140 
 11 C        1.6970     5.5780    -1.1140 C.2   1 <1>  -0.1500 
 12 N        3.7040     6.4930    -1.4400 N.2   1 <1>  -0.7070 
 13 C        5.1930     4.7580    -0.5200 C.3   1 <1>   0.1760 
 14 C        2.4270     6.6530    -1.5970 C.2   1 <1>   0.1390 
 15 C        5.5020     3.5370    -1.4150 C.3   1 <1>  -0.1600 
 16 C        5.3810     4.4680     0.9890 C.3   1 <1>  -0.1600 
 17 C        6.9610     3.0640    -1.3270 C.3   1 <1>  -0.2400 
 18 C        4.9890     5.6480     1.8900 C.3   1 <1>  -0.2400 
 19 H        0.1180    -1.5750     2.3180 H     1 <1>   0.1500 
 20 H        3.4010     1.0440     1.3150 H     1 <1>   0.1500 
 21 H        2.7680    -1.1470     2.3730 H     1 <1>   0.1500 
 22 H        3.2270     2.9660     0.3150 H     1 <1>   0.3700 
 23 H        0.6260     5.4820    -1.1330 H     1 <1>   0.1500 
 24 H        5.8840     5.5380    -0.7860 H     1 <1>   0.0800 
 25 H        1.9910     7.5260    -2.0540 H     1 <1>   0.1500 
 26 H        5.3040     3.8140    -2.4370 H     1 <1>   0.0800 
 27 H        4.8540     2.7170    -1.1650 H     1 <1>   0.0800 
 28 H        6.4200     4.2540     1.1680 H     1 <1>   0.0800 
 29 H        4.8250     3.5960     1.2780 H     1 <1>   0.0800 
 30 H        7.6340     3.8760    -1.5400 H     1 <1>   0.0800 
 31 H        7.1340     2.2850    -2.0490 H     1 <1>   0.0800 
 32 H        7.1860     2.6690    -0.3520 H     1 <1>   0.0800 
 33 H        5.5240     6.5360     1.6010 H     1 <1>   0.0800 
 34 H        5.2270     5.4250     2.9160 H     1 <1>   0.0800 
 35 H        3.9340     5.8500     1.8270 H     1 <1>   0.0800 
@<TRIPOS>BOND
  1   1   2  1   
  2   1   3  1   
  3   2   4  1   
  4   2   5  2   
  5   3   6  2   
  6   3  19  1   
  7   4   7  2   
  8   4   8  am  
  9   5   6  1   
 10   5  20  1   
 11   6  21  1   
 12   8   9  1   
 13   8  22  1   
 14   9  10  1   
 15   9  11  2   
 16  10  12  1   
 17  10  13  1   
 18  11  14  1   
 19  11  23  1   
 20  12  14  2   
 21  13  15  1   
 22  13  16  1   
 23  13  24  1   
 24  14  25  1   
 25  15  17  1   
 26  15  26  1   
 27  15  27  1   
 28  16  18  1   
 29  16  28  1   
 30  16  29  1   
 31  17  30  1   
 32  17  31  1   
 33  17  32  1   
 34  18  33  1   
 35  18  34  1   
 36  18  35  1   
@<TRIPOS>SUBSTRUCTURE
  1 ****   8 GROUP 4 **** **** 0

# MOE 2024.06 (io_trps.svl 2023.06)
