@<TRIPOS>MOLECULE
NONAME
46 48 1 0 0 
SMALL
USER_CHARGES


@<TRIPOS>ATOM
  1 F       -3.8320    -0.2050     1.6910 F     1 <1>  -0.1900 
  2 C       -3.3220     0.6100     0.8090 C.ar  1 <1>   0.1900 
  3 C       -2.8210     0.0960    -0.3890 C.ar  1 <1>   0.0860 
  4 C       -3.3120     1.9560     1.1200 C.ar  1 <1>  -0.1500 
  5 C       -2.8380    -1.3170    -0.6940 C.2   1 <1>   0.5440 
  6 C       -2.2760     1.0130    -1.2930 C.ar  1 <1>  -0.1500 
  7 C       -2.7710     2.8180     0.1880 C.ar  1 <1>   0.1900 
  8 O       -1.7780    -1.8950    -0.8290 O.2   1 <1>  -0.5700 
  9 N       -4.0090    -2.0240    -0.8710 N.am  1 <1>  -0.6600 
 10 C       -2.2500     2.3700    -1.0140 C.ar  1 <1>  -0.1500 
 11 F       -2.7490     4.0940     0.4480 F     1 <1>  -0.1900 
 12 C       -5.3820    -1.4320    -0.8670 C.3   1 <1>   0.1400 
 13 C       -4.0290    -3.5150    -0.9890 C.3   1 <1>   0.1400 
 14 C       -6.2770    -2.1530     0.1570 C.3   1 <1>   0.2950 
 15 C       -5.0200    -4.1360     0.0210 C.3   1 <1>   0.2000 
 16 O       -6.2760    -3.5290    -0.0930 O.3   1 <1>  -0.5600 
 17 C       -7.7270    -1.6670     0.0780 C.3   1 <1>  -0.1950 
 18 C       -5.2370    -5.6400    -0.1930 C.3   1 <1>  -0.1600 
 19 C       -8.1740    -0.4520     0.8310 C.3   1 <1>  -0.2000 
 20 C       -8.6580    -1.8150     1.2400 C.3   1 <1>  -0.2000 
 21 C       -3.9680    -6.4730     0.0490 C.3   1 <1>  -0.1600 
 22 C       -4.2610    -7.9720    -0.0850 C.3   1 <1>  -0.1600 
 23 C       -2.9980    -8.8040     0.1530 C.3   1 <1>  -0.2400 
 24 H       -3.7070     2.3210     2.0500 H     1 <1>   0.1500 
 25 H       -1.8660     0.6460    -2.2200 H     1 <1>   0.1500 
 26 H       -1.8320     3.0740    -1.7120 H     1 <1>   0.1500 
 27 H       -5.3560    -0.3840    -0.6390 H     1 <1>   0.0800 
 28 H       -5.8140    -1.5440    -1.8460 H     1 <1>   0.0800 
 29 H       -4.3190    -3.7860    -1.9890 H     1 <1>   0.0800 
 30 H       -3.0460    -3.9150    -0.8120 H     1 <1>   0.0800 
 31 H       -5.8960    -1.9920     1.1520 H     1 <1>   0.0800 
 32 H       -4.6610    -3.9710     1.0230 H     1 <1>   0.0800 
 33 H       -8.1460    -1.8160    -0.9020 H     1 <1>   0.1000 
 34 H       -6.0010    -5.9670     0.4900 H     1 <1>   0.0800 
 35 H       -5.5900    -5.8050    -1.1960 H     1 <1>   0.0800 
 36 H       -7.4850     0.0570     1.4830 H     1 <1>   0.1000 
 37 H       -8.8730     0.2210     0.3650 H     1 <1>   0.1000 
 38 H       -9.6790    -2.0920     1.0420 H     1 <1>   0.1000 
 39 H       -8.2810    -2.2570     2.1470 H     1 <1>   0.1000 
 40 H       -3.2060    -6.2020    -0.6610 H     1 <1>   0.0800 
 41 H       -3.5910    -6.2720     1.0380 H     1 <1>   0.0800 
 42 H       -5.0140    -8.2590     0.6290 H     1 <1>   0.0800 
 43 H       -4.6410    -8.1790    -1.0720 H     1 <1>   0.0800 
 44 H       -2.6130    -8.6280     1.1420 H     1 <1>   0.0800 
 45 H       -2.2390    -8.5500    -0.5650 H     1 <1>   0.0800 
 46 H       -3.2240    -9.8510     0.0550 H     1 <1>   0.0800 
@<TRIPOS>BOND
  1   1   2  1   
  2   2   3  ar  
  3   2   4  ar  
  4   3   5  1   
  5   3   6  ar  
  6   4   7  ar  
  7   4  24  1   
  8   5   8  2   
  9   5   9  am  
 10   6  10  ar  
 11   6  25  1   
 12   7  10  ar  
 13   7  11  1   
 14   9  12  1   
 15   9  13  1   
 16  10  26  1   
 17  12  14  1   
 18  12  27  1   
 19  12  28  1   
 20  13  15  1   
 21  13  29  1   
 22  13  30  1   
 23  14  16  1   
 24  14  17  1   
 25  14  31  1   
 26  15  16  1   
 27  15  18  1   
 28  15  32  1   
 29  17  19  1   
 30  17  20  1   
 31  17  33  1   
 32  18  21  1   
 33  18  34  1   
 34  18  35  1   
 35  19  20  1   
 36  19  36  1   
 37  19  37  1   
 38  20  38  1   
 39  20  39  1   
 40  21  22  1   
 41  21  40  1   
 42  21  41  1   
 43  22  23  1   
 44  22  42  1   
 45  22  43  1   
 46  23  44  1   
 47  23  45  1   
 48  23  46  1   
@<TRIPOS>SUBSTRUCTURE
  1 ****   9 GROUP 4 **** **** 0

# MOE 2024.06 (io_trps.svl 2023.06)
