@<TRIPOS>MOLECULE
NONAME
49 51 1 0 0 
SMALL
USER_CHARGES


@<TRIPOS>ATOM
  1 S        2.2210    -0.3250    -1.3540 S.3   1 <1>  -0.3320 
  2 C        1.2550    -1.7740    -0.9470 C.ar  1 <1>   0.4120 
  3 C        2.2890     0.6710     0.2210 C.3   1 <1>   0.2110 
  4 N        0.7790    -1.8650     0.2530 N.ar  1 <1>  -0.6200 
  5 C        1.0830    -2.7170    -1.9670 C.ar  1 <1>  -0.1500 
  6 C        2.4910     2.1580    -0.0950 C.2   1 <1>   0.5690 
  7 C        3.4250     0.0910     1.0750 C.3   1 <1>  -0.2400 
  8 C        0.0530    -2.9790     0.5230 C.ar  1 <1>   0.3100 
  9 C        0.3590    -3.8460    -1.7230 C.ar  1 <1>  -0.1440 
 10 O        2.1940     2.9820     0.7400 O.2   1 <1>  -0.5700 
 11 N        3.0210     2.5370    -1.2910 N.am  1 <1>  -0.7300 
 12 C       -0.1870    -4.0030    -0.4280 C.ar  1 <1>   0.0000 
 13 C       -0.4820    -3.1170     1.8140 C.ar  1 <1>  -0.1500 
 14 C        0.1540    -4.8890    -2.8130 C.3   1 <1>  -0.0970 
 15 C        3.2130     3.9420    -1.7190 C.3   1 <1>   0.1400 
 16 C       -0.9570    -5.1170    -0.0270 C.ar  1 <1>  -0.1500 
 17 C       -1.2240    -4.2090     2.1740 C.ar  1 <1>  -0.1500 
 18 C        4.5010     4.5060    -1.1190 C.3   1 <1>   0.0200 
 19 C       -1.4630    -5.2200     1.2410 C.ar  1 <1>  -0.1500 
 20 C        4.4800     6.0200    -1.1830 C.2   1 <1>   0.0060 
 21 N        5.0300     6.7080    -2.1230 N.2   1 <1>  -0.3380 
 22 N        3.8820     6.8070    -0.2800 N.pl3 1 <1>   0.0480 
 23 N        4.8020     7.9940    -1.8510 N.2   1 <1>  -0.3380 
 24 C        4.1220     8.0290    -0.7580 C.2   1 <1>   0.0360 
 25 C        3.1280     6.4500     0.9430 C.3   1 <1>   0.0960 
 26 C        4.0630     6.3790     2.1540 C.3   1 <1>  -0.2400 
 27 H        1.3420     0.5540     0.7140 H     1 <1>   0.0800 
 28 H        1.5320    -2.5190    -2.9210 H     1 <1>   0.1500 
 29 H        4.3630     0.1790     0.5590 H     1 <1>   0.0800 
 30 H        3.2350    -0.9460     1.2900 H     1 <1>   0.0800 
 31 H        3.4880     0.6270     2.0050 H     1 <1>   0.0800 
 32 H        3.2220     1.8090    -1.9840 H     1 <1>   0.3700 
 33 H       -0.2870    -2.3290     2.5180 H     1 <1>   0.1500 
 34 H        0.6430    -4.5930    -3.7240 H     1 <1>   0.0800 
 35 H       -0.8950    -5.0090    -3.0160 H     1 <1>   0.0800 
 36 H        0.5640    -5.8330    -2.5010 H     1 <1>   0.0800 
 37 H        2.3710     4.5220    -1.3790 H     1 <1>   0.0800 
 38 H        3.2480     4.0030    -2.7930 H     1 <1>   0.0800 
 39 H       -1.1510    -5.9040    -0.7330 H     1 <1>   0.1500 
 40 H       -1.6280    -4.3010     3.1680 H     1 <1>   0.1500 
 41 H        5.3460     4.1360    -1.6720 H     1 <1>   0.0800 
 42 H        4.6040     4.1970    -0.0940 H     1 <1>   0.0800 
 43 H       -2.0490    -6.0750     1.5340 H     1 <1>   0.1500 
 44 H        3.7830     8.9270    -0.2760 H     1 <1>   0.1500 
 45 H        2.6440     5.5020     0.7960 H     1 <1>   0.0800 
 46 H        2.3680     7.1920     1.1090 H     1 <1>   0.0800 
 47 H        4.8180     5.6280     2.0020 H     1 <1>   0.0800 
 48 H        3.4990     6.1170     3.0310 H     1 <1>   0.0800 
 49 H        4.5360     7.3300     2.3220 H     1 <1>   0.0800 
@<TRIPOS>BOND
  1   1   2  1   
  2   1   3  1   
  3   2   4  ar  
  4   2   5  ar  
  5   3   6  1   
  6   3   7  1   
  7   3  27  1   
  8   4   8  ar  
  9   5   9  ar  
 10   5  28  1   
 11   6  10  2   
 12   6  11  am  
 13   7  29  1   
 14   7  30  1   
 15   7  31  1   
 16   8  12  ar  
 17   8  13  ar  
 18   9  12  ar  
 19   9  14  1   
 20  11  15  1   
 21  11  32  1   
 22  12  16  ar  
 23  13  17  ar  
 24  13  33  1   
 25  14  34  1   
 26  14  35  1   
 27  14  36  1   
 28  15  18  1   
 29  15  37  1   
 30  15  38  1   
 31  16  19  ar  
 32  16  39  1   
 33  17  19  ar  
 34  17  40  1   
 35  18  20  1   
 36  18  41  1   
 37  18  42  1   
 38  19  43  1   
 39  20  21  2   
 40  20  22  1   
 41  21  23  1   
 42  22  24  1   
 43  22  25  1   
 44  23  24  2   
 45  24  44  1   
 46  25  26  1   
 47  25  45  1   
 48  25  46  1   
 49  26  47  1   
 50  26  48  1   
 51  26  49  1   
@<TRIPOS>SUBSTRUCTURE
  1 ****   3 GROUP 4 **** **** 0

# MOE 2024.06 (io_trps.svl 2023.06)
