@<TRIPOS>MOLECULE
NONAME
46 47 1 0 0 
SMALL
USER_CHARGES


@<TRIPOS>ATOM
  1 F       -3.1620    -0.8440     2.4830 F     1 <1>  -0.1900 
  2 C       -2.7870    -1.2610     1.3040 C.ar  1 <1>   0.1900 
  3 C       -2.2470    -0.3610     0.4000 C.ar  1 <1>  -0.1440 
  4 C       -2.9530    -2.6030     1.0190 C.ar  1 <1>  -0.1500 
  5 C       -1.8640    -0.8590    -0.8440 C.ar  1 <1>  -0.1500 
  6 C       -2.0950     1.1110     0.7880 C.3   1 <1>   1.1640 
  7 C       -2.5650    -3.0840    -0.2240 C.ar  1 <1>  -0.1440 
  8 C       -2.0210    -2.2020    -1.1490 C.ar  1 <1>  -0.1500 
  9 F       -3.2580     1.6900     1.0570 F     1 <1>  -0.3400 
 10 F       -1.5450     1.8350    -0.1810 F     1 <1>  -0.3400 
 11 F       -1.3220     1.2830     1.8520 F     1 <1>  -0.3400 
 12 C       -2.7340    -4.5540    -0.5760 C.3   1 <1>   0.4870 
 13 N       -4.1530    -4.9330    -0.4640 N.4   1 <1>  -0.9590 
 14 C       -4.4090    -6.4130    -0.6010 C.3   1 <1>   0.3430 
 15 C       -5.1190    -4.1180    -1.2420 C.3   1 <1>   0.3430 
 16 C       -5.9210    -6.7480    -0.7150 C.3   1 <1>   0.2000 
 17 C       -6.5340    -4.3070    -0.6630 C.3   1 <1>  -0.1600 
 18 O       -6.2770    -6.7680    -2.0650 O.3   1 <1>  -0.6800 
 19 C       -6.7620    -5.6900     0.0360 C.3   1 <1>  -0.1060 
 20 C       -6.1770    -5.7220     1.4620 C.2   1 <1>   0.9060 
 21 C       -8.2700    -6.0650     0.0440 C.3   1 <1>  -0.1600 
 22 O       -5.5000    -4.7610     1.8570 O.co2 1 <1>  -0.9000 
 23 O       -6.1720    -6.7930     2.0650 O.co2 1 <1>  -0.9000 
 24 C       -9.1410    -5.0940     0.8580 C.3   1 <1>  -0.1600 
 25 C      -10.6070    -5.5360     0.8480 C.3   1 <1>  -0.2400 
 26 H       -3.3870    -3.2460     1.7700 H     1 <1>   0.1500 
 27 H       -1.4360    -0.2040    -1.5870 H     1 <1>   0.1500 
 28 H       -1.7110    -2.5520    -2.1200 H     1 <1>   0.1500 
 29 H       -2.1480    -5.1490     0.1060 H     1 <1>   0.0800 
 30 H       -2.3860    -4.7360    -1.5780 H     1 <1>   0.0800 
 31 H       -4.4320    -4.7200     0.5310 H     1 <1>   0.4500 
 32 H       -3.9020    -6.8130    -1.4620 H     1 <1>   0.0800 
 33 H       -4.0290    -6.9050     0.2800 H     1 <1>   0.0800 
 34 H       -4.8560    -3.0730    -1.2040 H     1 <1>   0.0800 
 35 H       -5.1070    -4.4420    -2.2700 H     1 <1>   0.0800 
 36 H       -6.0980    -7.7340    -0.3170 H     1 <1>   0.0800 
 37 H       -6.7330    -3.5120     0.0360 H     1 <1>   0.0800 
 38 H       -7.2300    -4.1850    -1.4730 H     1 <1>   0.0800 
 39 H       -7.2230    -7.0060    -2.1410 H     1 <1>   0.4000 
 40 H       -8.6450    -6.1030    -0.9630 H     1 <1>   0.0800 
 41 H       -8.3740    -7.0490     0.4700 H     1 <1>   0.0800 
 42 H       -8.7940    -5.0620     1.8780 H     1 <1>   0.0800 
 43 H       -9.0740    -4.1000     0.4530 H     1 <1>   0.0800 
 44 H      -10.7040    -6.5170     1.2800 H     1 <1>   0.0800 
 45 H      -10.9900    -5.5570    -0.1570 H     1 <1>   0.0800 
 46 H      -11.2000    -4.8500     1.4270 H     1 <1>   0.0800 
@<TRIPOS>BOND
  1   1   2  1   
  2   2   3  ar  
  3   2   4  ar  
  4   3   5  ar  
  5   3   6  1   
  6   4   7  ar  
  7   4  26  1   
  8   5   8  ar  
  9   5  27  1   
 10   6   9  1   
 11   6  10  1   
 12   6  11  1   
 13   7   8  ar  
 14   7  12  1   
 15   8  28  1   
 16  12  13  1   
 17  12  29  1   
 18  12  30  1   
 19  13  14  1   
 20  13  15  1   
 21  13  31  1   
 22  14  16  1   
 23  14  32  1   
 24  14  33  1   
 25  15  17  1   
 26  15  34  1   
 27  15  35  1   
 28  16  18  1   
 29  16  19  1   
 30  16  36  1   
 31  17  19  1   
 32  17  37  1   
 33  17  38  1   
 34  18  39  1   
 35  19  20  1   
 36  19  21  1   
 37  20  22  ar  
 38  20  23  ar  
 39  21  24  1   
 40  21  40  1   
 41  21  41  1   
 42  24  25  1   
 43  24  42  1   
 44  24  43  1   
 45  25  44  1   
 46  25  45  1   
 47  25  46  1   
@<TRIPOS>SUBSTRUCTURE
  1 ****  15 GROUP 4 **** **** 0

# MOE 2024.06 (io_trps.svl 2023.06)
