@<TRIPOS>MOLECULE
NONAME
49 51 1 0 0 
SMALL
USER_CHARGES


@<TRIPOS>ATOM
  1 S       -0.4520     0.3490    -1.6430 S.3   1 <1>  -0.0800 
  2 C        0.2870    -1.1640    -1.1420 C.2   1 <1>  -0.1400 
  3 C        0.9010     1.2670    -1.0140 C.2   1 <1>  -0.1100 
  4 C        1.4750    -0.9290    -0.5520 C.2   1 <1>  -0.1500 
  5 C       -0.4590    -2.4490    -1.4240 C.3   1 <1>   0.5230 
  6 C        1.8320     0.4580    -0.4700 C.2   1 <1>   0.0190 
  7 N       -1.5220    -2.5870    -0.3990 N.4   1 <1>  -0.9590 
  8 C        3.0590     0.8720     0.1380 C.1   1 <1>  -0.0190 
  9 C       -1.7440    -4.0330    -0.0400 C.3   1 <1>   0.3430 
 10 C       -2.7880    -1.9330    -0.8500 C.3   1 <1>   0.3430 
 11 C        4.0800     1.2160     0.6420 C.1   1 <1>  -0.2000 
 12 C       -2.5900    -4.2380     1.2350 C.3   1 <1>   0.1400 
 13 C       -3.4700    -1.1920     0.3040 C.3   1 <1>  -0.1600 
 14 C        5.3600     1.6510     1.2620 C.3   1 <1>   0.3200 
 15 N       -3.8720    -3.4750     1.1780 N.am  1 <1>  -0.6600 
 16 C       -3.7540    -2.0410     1.5500 C.3   1 <1>   0.1400 
 17 O        6.2190     1.9800     0.2370 O.3   1 <1>  -0.6800 
 18 C       -5.0490    -3.9680     0.6500 C.2   1 <1>   0.5690 
 19 O       -6.0070    -3.2370     0.5330 O.2   1 <1>  -0.5700 
 20 C       -5.1710    -5.4350     0.1710 C.3   1 <1>   0.2610 
 21 O       -4.1350    -5.8100    -0.7100 O.3   1 <1>  -0.5600 
 22 C       -6.4410    -5.7750    -0.6030 C.3   1 <1>  -0.1600 
 23 C       -4.5200    -6.9080    -1.4840 C.3   1 <1>   0.1200 
 24 C       -6.0400    -7.0150    -1.3800 C.3   1 <1>  -0.1600 
 25 H        0.8700     2.3390    -1.1140 H     1 <1>   0.1500 
 26 H        2.1480    -1.6700    -0.1550 H     1 <1>   0.1500 
 27 H        0.2340    -3.2710    -1.3470 H     1 <1>   0.0800 
 28 H       -0.8740    -2.4410    -2.4190 H     1 <1>   0.0800 
 29 H       -1.1890    -2.0740     0.4260 H     1 <1>   0.4500 
 30 H       -0.7940    -4.5180     0.1120 H     1 <1>   0.0800 
 31 H       -2.2330    -4.5340    -0.8590 H     1 <1>   0.0800 
 32 H       -3.4630    -2.6770    -1.2430 H     1 <1>   0.0800 
 33 H       -2.5860    -1.2250    -1.6370 H     1 <1>   0.0800 
 34 H       -2.0250    -3.9300     2.0980 H     1 <1>   0.0800 
 35 H       -2.7930    -5.2880     1.3590 H     1 <1>   0.0800 
 36 H       -4.4140    -0.8310    -0.0620 H     1 <1>   0.0800 
 37 H       -2.8980    -0.3240     0.5800 H     1 <1>   0.0800 
 38 H        5.8010     0.8540     1.8350 H     1 <1>   0.0800 
 39 H        5.2230     2.5190     1.8840 H     1 <1>   0.0800 
 40 H       -4.6690    -1.7080     2.0150 H     1 <1>   0.0800 
 41 H       -2.9660    -1.9170     2.2730 H     1 <1>   0.0800 
 42 H        6.0860     1.3520    -0.4980 H     1 <1>   0.4000 
 43 H       -5.1040    -6.0790     1.0300 H     1 <1>   0.0800 
 44 H       -6.6790    -4.9740    -1.2820 H     1 <1>   0.0800 
 45 H       -7.2780    -5.9420     0.0510 H     1 <1>   0.0800 
 46 H       -4.0390    -7.7900    -1.0960 H     1 <1>   0.0800 
 47 H       -4.2060    -6.7340    -2.4980 H     1 <1>   0.0800 
 48 H       -6.5040    -7.0510    -2.3510 H     1 <1>   0.0800 
 49 H       -6.3010    -7.9060    -0.8360 H     1 <1>   0.0800 
@<TRIPOS>BOND
  1   1   2  1   
  2   1   3  1   
  3   2   4  2   
  4   2   5  1   
  5   3   6  2   
  6   3  25  1   
  7   4   6  1   
  8   4  26  1   
  9   5   7  1   
 10   5  27  1   
 11   5  28  1   
 12   6   8  1   
 13   7   9  1   
 14   7  10  1   
 15   7  29  1   
 16   8  11  3   
 17   9  12  1   
 18   9  30  1   
 19   9  31  1   
 20  10  13  1   
 21  10  32  1   
 22  10  33  1   
 23  11  14  1   
 24  12  15  1   
 25  12  34  1   
 26  12  35  1   
 27  13  16  1   
 28  13  36  1   
 29  13  37  1   
 30  14  17  1   
 31  14  38  1   
 32  14  39  1   
 33  15  16  1   
 34  15  18  am  
 35  16  40  1   
 36  16  41  1   
 37  17  42  1   
 38  18  19  2   
 39  18  20  1   
 40  20  21  1   
 41  20  22  1   
 42  20  43  1   
 43  21  23  1   
 44  22  24  1   
 45  22  44  1   
 46  22  45  1   
 47  23  24  1   
 48  23  46  1   
 49  23  47  1   
 50  24  48  1   
 51  24  49  1   
@<TRIPOS>SUBSTRUCTURE
  1 ****   7 GROUP 4 **** **** 0

# MOE 2024.06 (io_trps.svl 2023.06)
