@<TRIPOS>MOLECULE
NONAME
52 56 1 0 0 
SMALL
USER_CHARGES


@<TRIPOS>ATOM
  1 O        0.4820     1.1440     1.5040 O.2   1 <1>  -0.5700 
  2 C       -0.0070     2.0200     0.8170 C.2   1 <1>   0.5440 
  3 N       -1.3160     1.8910     0.4000 N.am  1 <1>  -0.6600 
  4 C        0.8030     3.1740     0.4740 C.ar  1 <1>   0.0860 
  5 C       -2.1170     3.0100    -0.1890 C.3   1 <1>   0.1400 
  6 C       -2.0720     0.6250     0.6540 C.3   1 <1>   0.1400 
  7 C        1.0440     3.5330    -0.8520 C.ar  1 <1>  -0.1500 
  8 C        1.3770     3.9630     1.4680 C.ar  1 <1>  -0.1500 
  9 C       -3.3220     3.3680     0.7080 C.3   1 <1>   0.1440 
 10 C       -3.5930     0.8210     0.5480 C.3   1 <1>  -0.1600 
 11 C        1.8110     4.6380    -1.1710 C.ar  1 <1>  -0.1500 
 12 C        2.1450     5.0700     1.1570 C.ar  1 <1>  -0.1500 
 13 C       -4.2470     4.2440    -0.1210 C.ar  1 <1>   0.1670 
 14 C       -4.0320     2.1050     1.2700 C.3   1 <1>  -0.1600 
 15 C       -2.9020     4.3320     1.8490 C.3   1 <1>  -0.1600 
 16 C        2.3670     5.4160    -0.1670 C.ar  1 <1>  -0.1430 
 17 N       -5.0380     3.8240    -1.0840 N.ar  1 <1>  -0.6200 
 18 C       -4.1490     5.5560     0.2340 C.ar  1 <1>  -0.1430 
 19 C       -3.1530     5.7650     1.3470 C.3   1 <1>  -0.0170 
 20 C        3.2230     6.6280    -0.5170 C.3   1 <1>   0.2390 
 21 C       -5.7440     4.7800    -1.6700 C.ar  1 <1>   0.4770 
 22 C       -4.9260     6.4630    -0.4420 C.ar  1 <1>   0.1600 
 23 N        4.6230     6.2520    -0.7940 N.pl3 1 <1>   0.3140 
 24 N       -5.7370     6.0800    -1.4060 N.ar  1 <1>  -0.6200 
 25 C       -6.6760     4.3390    -2.7730 C.3   1 <1>  -0.0970 
 26 N        5.4910     7.0960    -1.3080 N.2   1 <1>  -0.4180 
 27 C        5.2550     5.1080    -0.6000 C.2   1 <1>   0.0360 
 28 N        6.6020     6.4580    -1.4120 N.2   1 <1>   0.0000 
 29 N        6.4720     5.2110    -0.9720 N.2   1 <1>  -0.3380 
 30 H       -2.4750     2.6940    -1.1540 H     1 <1>   0.0800 
 31 H       -1.5180     3.8880    -0.3430 H     1 <1>   0.0800 
 32 H       -1.8360     0.2750     1.6460 H     1 <1>   0.0800 
 33 H       -1.7490    -0.1270    -0.0460 H     1 <1>   0.0800 
 34 H        0.6230     2.9270    -1.6370 H     1 <1>   0.1500 
 35 H        1.2150     3.6900     2.4970 H     1 <1>   0.1500 
 36 H       -4.0900    -0.0290     0.9800 H     1 <1>   0.0800 
 37 H       -3.8810     0.8690    -0.4880 H     1 <1>   0.0800 
 38 H        1.9750     4.8830    -2.2080 H     1 <1>   0.1500 
 39 H        2.5710     5.6530     1.9560 H     1 <1>   0.1500 
 40 H       -5.1000     2.2180     1.2000 H     1 <1>   0.0800 
 41 H       -3.7890     1.9830     2.3110 H     1 <1>   0.0800 
 42 H       -1.8810     4.1830     2.1540 H     1 <1>   0.0800 
 43 H       -3.5350     4.1760     2.7050 H     1 <1>   0.0800 
 44 H       -2.2500     6.1950     0.9510 H     1 <1>   0.0800 
 45 H       -3.5500     6.3930     2.1250 H     1 <1>   0.0800 
 46 H        3.2200     7.3340     0.2930 H     1 <1>   0.0800 
 47 H        2.8280     7.1170    -1.3890 H     1 <1>   0.0800 
 48 H       -4.8860     7.5100    -0.1950 H     1 <1>   0.1500 
 49 H       -6.3780     3.3780    -3.1520 H     1 <1>   0.0800 
 50 H       -6.6550     5.0520    -3.5750 H     1 <1>   0.0800 
 51 H       -7.6750     4.2720    -2.3860 H     1 <1>   0.0800 
 52 H        4.7970     4.2280    -0.1880 H     1 <1>   0.1500 
@<TRIPOS>BOND
  1   1   2  2   
  2   2   3  am  
  3   2   4  1   
  4   3   5  1   
  5   3   6  1   
  6   4   7  ar  
  7   4   8  ar  
  8   5   9  1   
  9   5  30  1   
 10   5  31  1   
 11   6  10  1   
 12   6  32  1   
 13   6  33  1   
 14   7  11  ar  
 15   7  34  1   
 16   8  12  ar  
 17   8  35  1   
 18   9  13  1   
 19   9  14  1   
 20   9  15  1   
 21  10  14  1   
 22  10  36  1   
 23  10  37  1   
 24  11  16  ar  
 25  11  38  1   
 26  12  16  ar  
 27  12  39  1   
 28  13  17  ar  
 29  13  18  ar  
 30  14  40  1   
 31  14  41  1   
 32  15  19  1   
 33  15  42  1   
 34  15  43  1   
 35  16  20  1   
 36  17  21  ar  
 37  18  19  1   
 38  18  22  ar  
 39  19  44  1   
 40  19  45  1   
 41  20  23  1   
 42  20  46  1   
 43  20  47  1   
 44  21  24  ar  
 45  21  25  1   
 46  22  24  ar  
 47  22  48  1   
 48  23  26  1   
 49  23  27  1   
 50  25  49  1   
 51  25  50  1   
 52  25  51  1   
 53  26  28  2   
 54  27  29  2   
 55  27  52  1   
 56  28  29  1   
@<TRIPOS>SUBSTRUCTURE
  1 ****   4 GROUP 4 **** **** 0

# MOE 2024.06 (io_trps.svl 2023.06)
