@<TRIPOS>MOLECULE
NONAME
59 62 1 0 0 
SMALL
USER_CHARGES


@<TRIPOS>ATOM
  1 O       -3.0750     3.4040     0.1420 O.2   1 <1>  -0.5700 
  2 C       -2.7800     2.3840     0.7420 C.2   1 <1>   0.5440 
  3 N       -3.6710     1.3300     0.7400 N.am  1 <1>  -0.6600 
  4 C       -1.5270     2.3020     1.4550 C.ar  1 <1>   0.0860 
  5 C       -3.3900     0.0330     1.4220 C.3   1 <1>   0.1400 
  6 C       -4.6960     1.1770    -0.3330 C.3   1 <1>   0.1400 
  7 C       -0.3760     1.7300     0.8770 C.ar  1 <1>   0.1000 
  8 C       -1.4610     2.7620     2.7700 C.ar  1 <1>  -0.1500 
  9 C       -3.0040    -1.0270     0.3790 C.3   1 <1>   0.3440 
 10 C       -4.2790     0.0410    -1.2980 C.3   1 <1>   0.2000 
 11 N       -0.3630     1.2930    -0.4500 N.pl3 1 <1>  -0.8380 
 12 C        0.7790     1.6230     1.6510 C.ar  1 <1>  -0.1500 
 13 C       -0.3070     2.6480     3.5180 C.ar  1 <1>  -0.1500 
 14 O       -4.0210    -1.1420    -0.5840 O.3   1 <1>  -0.5600 
 15 C       -2.7320    -2.3740     1.0440 C.ar  1 <1>  -0.1430 
 16 C       -5.3160    -0.2810    -2.3970 C.3   1 <1>  -0.0800 
 17 C       -0.3620     2.3460    -1.5130 C.3   1 <1>   0.2090 
 18 C        0.4060     0.0860    -0.8810 C.3   1 <1>   0.2090 
 19 C        0.8180     2.0710     2.9550 C.ar  1 <1>  -0.1500 
 20 C       -1.5280    -2.5630     1.7100 C.ar  1 <1>  -0.1500 
 21 C       -3.6520    -3.4140     1.0120 C.ar  1 <1>  -0.1500 
 22 C       -5.5350     0.9110    -3.3430 C.3   1 <1>  -0.2400 
 23 C       -6.6700    -0.7590    -1.8440 C.3   1 <1>  -0.2400 
 24 C       -0.7920     1.7590    -2.8690 C.3   1 <1>   0.1200 
 25 C       -0.0840    -0.3990    -2.2590 C.3   1 <1>   0.1200 
 26 C       -1.2470    -3.7680     2.3300 C.ar  1 <1>  -0.1500 
 27 C       -3.3720    -4.6200     1.6310 C.ar  1 <1>  -0.1500 
 28 O       -0.0220     0.6350    -3.2040 O.3   1 <1>  -0.5600 
 29 C       -2.1690    -4.7980     2.2900 C.ar  1 <1>  -0.1500 
 30 H       -2.5990     0.1350     2.1410 H     1 <1>   0.0800 
 31 H       -4.2690    -0.2950     1.9480 H     1 <1>   0.0800 
 32 H       -5.6430     0.9490     0.1190 H     1 <1>   0.0800 
 33 H       -4.8040     2.0960    -0.8800 H     1 <1>   0.0800 
 34 H       -2.3380     3.2110     3.2030 H     1 <1>   0.1500 
 35 H       -2.1120    -0.7100    -0.1270 H     1 <1>   0.0800 
 36 H       -3.3610     0.3280    -1.7790 H     1 <1>   0.0800 
 37 H        1.6650     1.1960     1.2220 H     1 <1>   0.1500 
 38 H       -0.2780     3.0070     4.5330 H     1 <1>   0.1500 
 39 H       -4.9000    -1.0810    -2.9860 H     1 <1>   0.0800 
 40 H       -1.0240     3.1500    -1.2450 H     1 <1>   0.0800 
 41 H        0.6280     2.7560    -1.6050 H     1 <1>   0.0800 
 42 H        1.4530     0.3280    -0.9500 H     1 <1>   0.0800 
 43 H        0.2870    -0.7000    -0.1570 H     1 <1>   0.0800 
 44 H        1.7210     1.9810     3.5340 H     1 <1>   0.1500 
 45 H       -0.8030    -1.7690     1.7540 H     1 <1>   0.1500 
 46 H       -4.5910    -3.2900     0.5010 H     1 <1>   0.1500 
 47 H       -6.0100     1.7300    -2.8330 H     1 <1>   0.0800 
 48 H       -6.1610     0.6180    -4.1670 H     1 <1>   0.0800 
 49 H       -4.5940     1.2500    -3.7410 H     1 <1>   0.0800 
 50 H       -7.1700     0.0240    -1.3040 H     1 <1>   0.0800 
 51 H       -6.5280    -1.5970    -1.1850 H     1 <1>   0.0800 
 52 H       -7.3080    -1.0740    -2.6510 H     1 <1>   0.0800 
 53 H       -0.6590     2.4910    -3.6450 H     1 <1>   0.0800 
 54 H       -1.8270     1.4740    -2.8410 H     1 <1>   0.0800 
 55 H       -1.0990    -0.7490    -2.1990 H     1 <1>   0.0800 
 56 H        0.5380    -1.2020    -2.6110 H     1 <1>   0.0800 
 57 H       -0.3110    -3.9040     2.8440 H     1 <1>   0.1500 
 58 H       -4.0910    -5.4190     1.5970 H     1 <1>   0.1500 
 59 H       -1.9520    -5.7360     2.7710 H     1 <1>   0.1500 
@<TRIPOS>BOND
  1   1   2  2   
  2   2   3  am  
  3   2   4  1   
  4   3   5  1   
  5   3   6  1   
  6   4   7  ar  
  7   4   8  ar  
  8   5   9  1   
  9   5  30  1   
 10   5  31  1   
 11   6  10  1   
 12   6  32  1   
 13   6  33  1   
 14   7  11  1   
 15   7  12  ar  
 16   8  13  ar  
 17   8  34  1   
 18   9  14  1   
 19   9  15  1   
 20   9  35  1   
 21  10  14  1   
 22  10  16  1   
 23  10  36  1   
 24  11  17  1   
 25  11  18  1   
 26  12  19  ar  
 27  12  37  1   
 28  13  19  ar  
 29  13  38  1   
 30  15  20  ar  
 31  15  21  ar  
 32  16  22  1   
 33  16  23  1   
 34  16  39  1   
 35  17  24  1   
 36  17  40  1   
 37  17  41  1   
 38  18  25  1   
 39  18  42  1   
 40  18  43  1   
 41  19  44  1   
 42  20  26  ar  
 43  20  45  1   
 44  21  27  ar  
 45  21  46  1   
 46  22  47  1   
 47  22  48  1   
 48  22  49  1   
 49  23  50  1   
 50  23  51  1   
 51  23  52  1   
 52  24  28  1   
 53  24  53  1   
 54  24  54  1   
 55  25  28  1   
 56  25  55  1   
 57  25  56  1   
 58  26  29  ar  
 59  26  57  1   
 60  27  29  ar  
 61  27  58  1   
 62  29  59  1   
@<TRIPOS>SUBSTRUCTURE
  1 ****   9 GROUP 4 **** **** 0

# MOE 2024.06 (io_trps.svl 2023.06)
