@<TRIPOS>MOLECULE
NONAME
47 50 1 0 0 
SMALL
USER_CHARGES


@<TRIPOS>ATOM
  1 CL      -0.9500    -0.8780     0.4550 Cl    1 <1>  -0.1770 
  2 C        0.7050    -1.4470     0.4770 C.ar  1 <1>   0.1770 
  3 C        1.0900    -2.4960     1.3080 C.ar  1 <1>  -0.1440 
  4 C        1.6020    -0.8210    -0.3680 C.ar  1 <1>  -0.1500 
  5 C        2.4170    -2.9060     1.2810 C.ar  1 <1>  -0.1500 
  6 C        0.1200    -3.2120     2.2490 C.3   1 <1>   0.0450 
  7 C        2.9180    -1.2430    -0.3910 C.ar  1 <1>   0.0830 
  8 C        3.3290    -2.2840     0.4450 C.ar  1 <1>   0.0830 
  9 C        0.0040    -4.7020     1.9580 C.2   1 <1>   0.5690 
 10 O        3.7860    -0.6350    -1.2380 O.3   1 <1>  -0.3630 
 11 O        4.6210    -2.7000     0.4590 O.3   1 <1>  -0.3630 
 12 O        0.4230    -5.4710     2.7910 O.2   1 <1>  -0.5700 
 13 N       -0.5710    -5.1510     0.7990 N.am  1 <1>  -0.6600 
 14 C        5.0250    -1.2820    -1.4610 C.3   1 <1>   0.1200 
 15 C        5.5760    -1.8480    -0.1440 C.3   1 <1>   0.1200 
 16 C       -1.1050    -4.3210    -0.3090 C.3   1 <1>   0.1400 
 17 C       -0.7450    -6.5910     0.5000 C.3   1 <1>   0.1400 
 18 C       -1.6850    -5.3190    -1.3150 C.3   1 <1>   0.2000 
 19 C       -1.8480    -6.6360    -0.5580 C.3   1 <1>  -0.0800 
 20 O       -2.9150    -4.9010    -1.7970 O.3   1 <1>  -0.6800 
 21 C       -1.7870    -7.8620    -1.4850 C.3   1 <1>  -0.0170 
 22 C       -1.9980    -9.1580    -0.7200 C.ar  1 <1>   0.1670 
 23 N       -0.9350    -9.6720    -0.1230 N.ar  1 <1>  -0.6200 
 24 C       -3.2640    -9.7410    -0.6720 C.ar  1 <1>   0.1600 
 25 C       -1.2190   -10.7910     0.5220 C.ar  1 <1>   0.1600 
 26 N       -3.5510   -10.8600    -0.0280 N.ar  1 <1>  -0.6200 
 27 C       -2.4840   -11.3660     0.5680 C.ar  1 <1>   0.1600 
 28 H        1.2840    -0.0150    -1.0030 H     1 <1>   0.1500 
 29 H        2.7570    -3.7120     1.9090 H     1 <1>   0.1500 
 30 H       -0.8640    -2.7890     2.2160 H     1 <1>   0.0800 
 31 H        0.4760    -3.0920     3.2560 H     1 <1>   0.0800 
 32 H        4.8660    -2.0740    -2.1700 H     1 <1>   0.0800 
 33 H        5.7040    -0.5620    -1.8810 H     1 <1>   0.0800 
 34 H        5.7950    -1.0500     0.5430 H     1 <1>   0.0800 
 35 H        6.4690    -2.4210    -0.3170 H     1 <1>   0.0800 
 36 H       -1.8660    -3.6600     0.0660 H     1 <1>   0.0800 
 37 H       -0.3110    -3.7570    -0.7660 H     1 <1>   0.0800 
 38 H        0.1800    -6.9840     0.1110 H     1 <1>   0.0800 
 39 H       -1.0180    -7.1440     1.3840 H     1 <1>   0.0800 
 40 H       -1.0120    -5.4260    -2.1490 H     1 <1>   0.0800 
 41 H       -2.7870    -6.6320    -0.0320 H     1 <1>   0.0800 
 42 H       -3.5370    -4.7550    -1.0580 H     1 <1>   0.4000 
 43 H       -0.8340    -7.9000    -1.9830 H     1 <1>   0.0800 
 44 H       -2.5430    -7.7670    -2.2440 H     1 <1>   0.0800 
 45 H       -4.0760    -9.2590    -1.1870 H     1 <1>   0.1500 
 46 H       -0.4120   -11.2780     1.0400 H     1 <1>   0.1500 
 47 H       -2.6160   -12.2790     1.1200 H     1 <1>   0.1500 
@<TRIPOS>BOND
  1   1   2  1   
  2   2   3  ar  
  3   2   4  ar  
  4   3   5  ar  
  5   3   6  1   
  6   4   7  ar  
  7   4  28  1   
  8   5   8  ar  
  9   5  29  1   
 10   6   9  1   
 11   6  30  1   
 12   6  31  1   
 13   7   8  ar  
 14   7  10  1   
 15   8  11  1   
 16   9  12  2   
 17   9  13  am  
 18  10  14  1   
 19  11  15  1   
 20  13  16  1   
 21  13  17  1   
 22  14  15  1   
 23  14  32  1   
 24  14  33  1   
 25  15  34  1   
 26  15  35  1   
 27  16  18  1   
 28  16  36  1   
 29  16  37  1   
 30  17  19  1   
 31  17  38  1   
 32  17  39  1   
 33  18  19  1   
 34  18  20  1   
 35  18  40  1   
 36  19  21  1   
 37  19  41  1   
 38  20  42  1   
 39  21  22  1   
 40  21  43  1   
 41  21  44  1   
 42  22  23  ar  
 43  22  24  ar  
 44  23  25  ar  
 45  24  26  ar  
 46  24  45  1   
 47  25  27  ar  
 48  25  46  1   
 49  26  27  ar  
 50  27  47  1   
@<TRIPOS>SUBSTRUCTURE
  1 ****  13 GROUP 4 **** **** 0

# MOE 2024.06 (io_trps.svl 2023.06)
