@<TRIPOS>MOLECULE
NONAME
50 52 1 0 0 
SMALL
USER_CHARGES


@<TRIPOS>ATOM
  1 F       -2.1210    -0.4340     0.6480 F     1 <1>  -0.1900 
  2 C       -2.9070     0.3020    -0.0910 C.ar  1 <1>   0.1900 
  3 C       -4.0550    -0.2510    -0.6710 C.ar  1 <1>   0.0860 
  4 C       -2.5360     1.6250    -0.2470 C.ar  1 <1>  -0.1500 
  5 C       -4.4640    -1.6410    -0.5270 C.2   1 <1>   0.5440 
  6 C       -4.8280     0.6330    -1.4310 C.ar  1 <1>  -0.1500 
  7 C       -3.3290     2.4630    -1.0100 C.ar  1 <1>  -0.1500 
  8 O       -5.5990    -1.9760    -0.8120 O.2   1 <1>  -0.5700 
  9 N       -3.6100    -2.6130    -0.0830 N.am  1 <1>  -0.7300 
 10 C       -4.4760     1.9610    -1.6000 C.ar  1 <1>  -0.1500 
 11 C       -3.9280    -4.0540     0.0390 C.3   1 <1>   0.1400 
 12 C       -4.3050    -4.3790     1.4840 C.3   1 <1>  -0.0990 
 13 C       -5.0600    -5.6920     1.5320 C.2   1 <1>   0.5690 
 14 O       -4.4160    -6.6690     1.8340 O.2   1 <1>  -0.5700 
 15 N       -6.3990    -5.7730     1.2250 N.am  1 <1>  -0.6600 
 16 C       -7.2120    -4.6010     0.7650 C.3   1 <1>   0.2200 
 17 C       -7.0690    -7.1110     1.2620 C.3   1 <1>   0.0600 
 18 C       -7.9240    -4.8210    -0.5650 C.3   1 <1>  -0.1600 
 19 C       -8.3210    -4.2090     1.7350 C.3   1 <1>  -0.1600 
 20 C       -8.9690    -3.7000    -0.6000 C.3   1 <1>  -0.0800 
 21 C       -9.3010    -3.3890     0.8810 C.3   1 <1>  -0.0800 
 22 C      -10.1680    -4.0280    -1.5140 C.3   1 <1>   0.1400 
 23 C      -10.7750    -3.6290     1.2570 C.3   1 <1>  -0.0990 
 24 N      -11.3550    -3.2550    -1.0930 N.am  1 <1>  -0.7300 
 25 C      -11.6880    -3.0520     0.1980 C.2   1 <1>   0.5690 
 26 O      -12.6790    -2.4420     0.5050 O.2   1 <1>  -0.5700 
 27 H       -1.6410     1.9940     0.2220 H     1 <1>   0.1500 
 28 H       -5.7260     0.2680    -1.9010 H     1 <1>   0.1500 
 29 H       -3.0570     3.4970    -1.1440 H     1 <1>   0.1500 
 30 H       -2.6770    -2.3320     0.2340 H     1 <1>   0.3700 
 31 H       -5.0980     2.6100    -2.1940 H     1 <1>   0.1500 
 32 H       -4.7460    -4.2930    -0.6210 H     1 <1>   0.0800 
 33 H       -3.0800    -4.6450    -0.2630 H     1 <1>   0.0800 
 34 H       -4.9060    -3.6010     1.9160 H     1 <1>   0.0800 
 35 H       -3.4110    -4.4680     2.0720 H     1 <1>   0.0800 
 36 H       -6.5920    -3.7350     0.6370 H     1 <1>   0.0800 
 37 H       -8.1130    -7.0180     1.4940 H     1 <1>   0.0800 
 38 H       -6.6130    -7.7350     2.0110 H     1 <1>   0.0800 
 39 H       -6.9610    -7.5910     0.3050 H     1 <1>   0.0800 
 40 H       -7.2390    -4.7470    -1.3910 H     1 <1>   0.0800 
 41 H       -8.4160    -5.7750    -0.5790 H     1 <1>   0.0800 
 42 H       -8.8090    -5.0810     2.1250 H     1 <1>   0.0800 
 43 H       -7.9310    -3.6260     2.5500 H     1 <1>   0.0800 
 44 H       -8.4850    -2.8260    -1.0060 H     1 <1>   0.0800 
 45 H       -9.0930    -2.3420     1.0370 H     1 <1>   0.0800 
 46 H      -10.4100    -5.0750    -1.4510 H     1 <1>   0.0800 
 47 H       -9.9230    -3.7950    -2.5360 H     1 <1>   0.0800 
 48 H      -10.9940    -3.1760     2.2070 H     1 <1>   0.0800 
 49 H      -10.9800    -4.6810     1.3260 H     1 <1>   0.0800 
 50 H      -11.9810    -2.8800    -1.8080 H     1 <1>   0.3700 
@<TRIPOS>BOND
  1   1   2  1   
  2   2   3  ar  
  3   2   4  ar  
  4   3   5  1   
  5   3   6  ar  
  6   4   7  ar  
  7   4  27  1   
  8   5   8  2   
  9   5   9  am  
 10   6  10  ar  
 11   6  28  1   
 12   7  10  ar  
 13   7  29  1   
 14   9  11  1   
 15   9  30  1   
 16  10  31  1   
 17  11  12  1   
 18  11  32  1   
 19  11  33  1   
 20  12  13  1   
 21  12  34  1   
 22  12  35  1   
 23  13  14  2   
 24  13  15  am  
 25  15  16  1   
 26  15  17  1   
 27  16  18  1   
 28  16  19  1   
 29  16  36  1   
 30  17  37  1   
 31  17  38  1   
 32  17  39  1   
 33  18  20  1   
 34  18  40  1   
 35  18  41  1   
 36  19  21  1   
 37  19  42  1   
 38  19  43  1   
 39  20  21  1   
 40  20  22  1   
 41  20  44  1   
 42  21  23  1   
 43  21  45  1   
 44  22  24  1   
 45  22  46  1   
 46  22  47  1   
 47  23  25  1   
 48  23  48  1   
 49  23  49  1   
 50  24  25  am  
 51  24  50  1   
 52  25  26  2   
@<TRIPOS>SUBSTRUCTURE
  1 ****   8 GROUP 4 **** **** 0

# MOE 2024.06 (io_trps.svl 2023.06)
