@<TRIPOS>MOLECULE
NONAME
36 38 1 0 0 
SMALL
USER_CHARGES


@<TRIPOS>ATOM
  1 O       -0.4980     0.0580     0.1420 O.3   1 <1>  -0.2800 
  2 C       -0.8050     1.1760     0.7350 C.2   1 <1>   0.4780 
  3 C       -1.5180    -0.7110     0.3330 C.2   1 <1>   0.2980 
  4 N       -1.9780     1.0980     1.2730 N.2   1 <1>  -0.3380 
  5 C        0.0980     2.2960     0.7420 C.2   1 <1>   0.1400 
  6 N       -2.4340    -0.1240     1.0100 N.2   1 <1>  -0.3380 
  7 C       -1.4770    -2.1260    -0.2550 C.3   1 <1>   0.2900 
  8 O        1.2790     2.2310     0.1330 O.3   1 <1>  -0.2800 
  9 C       -0.0310     3.5310     1.3020 C.2   1 <1>  -0.1500 
 10 N       -2.6790    -2.9560    -0.0090 N.3   1 <1>  -0.8100 
 11 C        1.9000     3.3810     0.2910 C.2   1 <1>  -0.0100 
 12 C        1.1390     4.2340     1.0090 C.2   1 <1>  -0.1500 
 13 C       -2.5400    -4.3260    -0.4910 C.3   1 <1>   0.1100 
 14 C       -3.9090    -2.4120    -0.6030 C.3   1 <1>   0.1100 
 15 C       -3.9690    -4.8410    -0.5770 C.3   1 <1>  -0.0800 
 16 C       -4.7230    -3.6120    -1.0870 C.3   1 <1>  -0.1600 
 17 C       -4.4630    -5.2790     0.8080 C.3   1 <1>   0.1200 
 18 O       -5.7530    -5.7920     0.6850 O.3   1 <1>  -0.5600 
 19 C       -6.3380    -6.1310     1.8990 C.3   1 <1>   0.0400 
 20 H       -0.6260    -2.6260     0.1720 H     1 <1>   0.0800 
 21 H       -1.3130    -2.0460    -1.3150 H     1 <1>   0.0800 
 22 H       -0.8670     3.9060     1.8660 H     1 <1>   0.1500 
 23 H        2.8780     3.5090    -0.1390 H     1 <1>   0.1500 
 24 H        1.3590     5.2440     1.3070 H     1 <1>   0.1500 
 25 H       -1.9340    -4.9140     0.1780 H     1 <1>   0.0800 
 26 H       -2.0990    -4.3290    -1.4750 H     1 <1>   0.0800 
 27 H       -3.6890    -1.7570    -1.4290 H     1 <1>   0.0800 
 28 H       -4.4510    -1.8600     0.1480 H     1 <1>   0.0800 
 29 H       -4.0360    -5.6700    -1.2580 H     1 <1>   0.0800 
 30 H       -4.7410    -3.6140    -2.1620 H     1 <1>   0.0800 
 31 H       -5.7370    -3.5720    -0.7300 H     1 <1>   0.0800 
 32 H       -4.4810    -4.4390     1.4830 H     1 <1>   0.0800 
 33 H       -3.8280    -6.0510     1.2080 H     1 <1>   0.0800 
 34 H       -7.3190    -6.5240     1.6990 H     1 <1>   0.0800 
 35 H       -6.4170    -5.2500     2.5120 H     1 <1>   0.0800 
 36 H       -5.7380    -6.8810     2.3860 H     1 <1>   0.0800 
@<TRIPOS>BOND
  1   1   2  1   
  2   1   3  1   
  3   2   4  2   
  4   2   5  1   
  5   3   6  2   
  6   3   7  1   
  7   4   6  1   
  8   5   8  1   
  9   5   9  2   
 10   7  10  1   
 11   7  20  1   
 12   7  21  1   
 13   8  11  1   
 14   9  12  1   
 15   9  22  1   
 16  10  13  1   
 17  10  14  1   
 18  11  12  2   
 19  11  23  1   
 20  12  24  1   
 21  13  15  1   
 22  13  25  1   
 23  13  26  1   
 24  14  16  1   
 25  14  27  1   
 26  14  28  1   
 27  15  16  1   
 28  15  17  1   
 29  15  29  1   
 30  16  30  1   
 31  16  31  1   
 32  17  18  1   
 33  17  32  1   
 34  17  33  1   
 35  18  19  1   
 36  19  34  1   
 37  19  35  1   
 38  19  36  1   
@<TRIPOS>SUBSTRUCTURE
  1 ****   3 GROUP 4 **** **** 0

# MOE 2024.06 (io_trps.svl 2023.06)
