@<TRIPOS>MOLECULE
NONAME
53 56 1 0 0 
SMALL
USER_CHARGES


@<TRIPOS>ATOM
  1 S        1.6060    -0.1960     0.9910 S.3   1 <1>  -0.0800 
  2 C        0.4630     0.7140     0.0420 C.2   1 <1>  -0.1400 
  3 C        0.2730    -0.8530     1.9100 C.2   1 <1>   0.2280 
  4 C       -0.7770     0.4400     0.4770 C.2   1 <1>   0.0460 
  5 C        1.0110     1.6110    -1.0450 C.3   1 <1>   0.5230 
  6 N       -0.8720    -0.4360     1.5400 N.2   1 <1>  -0.5650 
  7 C       -2.0920     0.9760    -0.0540 C.3   1 <1>  -0.0590 
  8 N        1.8170     2.7130    -0.4610 N.4   1 <1>  -0.9590 
  9 C        1.1310     3.4220     0.6890 C.3   1 <1>   0.4230 
 10 C        2.3680     3.5870    -1.5610 C.3   1 <1>   0.3430 
 11 C       -0.0280     4.3480     0.2430 C.3   1 <1>   0.1200 
 12 C        2.1540     4.1510     1.6010 C.3   1 <1>   0.1400 
 13 C        2.6190     5.0700    -1.2040 C.3   1 <1>  -0.0800 
 14 O        0.2130     5.0080    -0.9670 O.3   1 <1>  -0.5600 
 15 N        3.5180     4.2710     0.9890 N.am  1 <1>  -0.6600 
 16 C        1.3130     5.8630    -0.9870 C.3   1 <1>   0.1200 
 17 C        3.6530     5.2900    -0.0820 C.3   1 <1>   0.1400 
 18 C        4.4160     3.2300     1.0930 C.2   1 <1>   0.5440 
 19 O        3.9600     2.1300     1.3480 O.2   1 <1>  -0.5700 
 20 C        5.8270     3.4010     0.8430 C.ar  1 <1>   0.0860 
 21 C        6.3790     3.1400    -0.4170 C.ar  1 <1>   0.0830 
 22 C        6.6720     3.8350     1.8630 C.ar  1 <1>  -0.1500 
 23 O        5.5410     2.7320    -1.4060 O.3   1 <1>  -0.3630 
 24 C        7.7460     3.3130    -0.6260 C.ar  1 <1>  -0.1500 
 25 C        8.0250     4.0050     1.6490 C.ar  1 <1>  -0.1500 
 26 C        6.0380     2.1550    -2.5970 C.3   1 <1>   0.0400 
 27 C        8.5630     3.7430     0.4020 C.ar  1 <1>  -0.1500 
 28 H        0.5120    -1.5420     2.7020 H     1 <1>   0.1500 
 29 H        0.1910     2.0280    -1.6070 H     1 <1>   0.0800 
 30 H        1.6190     1.0260    -1.7140 H     1 <1>   0.0800 
 31 H       -1.9410     1.6400    -0.8840 H     1 <1>   0.0800 
 32 H       -2.6110     1.5010     0.7280 H     1 <1>   0.0800 
 33 H       -2.7070     0.1540    -0.3760 H     1 <1>   0.0800 
 34 H        2.6390     2.2780     0.0120 H     1 <1>   0.4500 
 35 H        0.6830     2.6810     1.3300 H     1 <1>   0.0800 
 36 H        3.2900     3.1560    -1.9150 H     1 <1>   0.0800 
 37 H        1.6730     3.5790    -2.3860 H     1 <1>   0.0800 
 38 H       -0.2550     5.0810     0.9980 H     1 <1>   0.0800 
 39 H       -0.9130     3.7540     0.1000 H     1 <1>   0.0800 
 40 H        2.2400     3.5910     2.5170 H     1 <1>   0.0800 
 41 H        1.7970     5.1280     1.8760 H     1 <1>   0.0800 
 42 H        3.0650     5.5130    -2.0770 H     1 <1>   0.0800 
 43 H        1.1620     6.5380    -1.8130 H     1 <1>   0.0800 
 44 H        1.3270     6.4490    -0.0830 H     1 <1>   0.0800 
 45 H        3.5530     6.2750     0.3440 H     1 <1>   0.0800 
 46 H        4.6400     5.2350    -0.5100 H     1 <1>   0.0800 
 47 H        6.2570     4.0350     2.8360 H     1 <1>   0.1500 
 48 H        8.1960     3.1220    -1.5820 H     1 <1>   0.1500 
 49 H        8.6640     4.3380     2.4500 H     1 <1>   0.1500 
 50 H        5.2070     1.7840    -3.1690 H     1 <1>   0.0800 
 51 H        6.6950     1.3400    -2.3420 H     1 <1>   0.0800 
 52 H        6.5630     2.9060    -3.1610 H     1 <1>   0.0800 
 53 H        9.6190     3.8740     0.2360 H     1 <1>   0.1500 
@<TRIPOS>BOND
  1   1   2  1   
  2   1   3  1   
  3   2   4  2   
  4   2   5  1   
  5   3   6  2   
  6   3  28  1   
  7   4   6  1   
  8   4   7  1   
  9   5   8  1   
 10   5  29  1   
 11   5  30  1   
 12   7  31  1   
 13   7  32  1   
 14   7  33  1   
 15   8   9  1   
 16   8  10  1   
 17   8  34  1   
 18   9  11  1   
 19   9  12  1   
 20   9  35  1   
 21  10  13  1   
 22  10  36  1   
 23  10  37  1   
 24  11  14  1   
 25  11  38  1   
 26  11  39  1   
 27  12  15  1   
 28  12  40  1   
 29  12  41  1   
 30  13  16  1   
 31  13  17  1   
 32  13  42  1   
 33  14  16  1   
 34  15  17  1   
 35  15  18  am  
 36  16  43  1   
 37  16  44  1   
 38  17  45  1   
 39  17  46  1   
 40  18  19  2   
 41  18  20  1   
 42  20  21  ar  
 43  20  22  ar  
 44  21  23  1   
 45  21  24  ar  
 46  22  25  ar  
 47  22  47  1   
 48  23  26  1   
 49  24  27  ar  
 50  24  48  1   
 51  25  27  ar  
 52  25  49  1   
 53  26  50  1   
 54  26  51  1   
 55  26  52  1   
 56  27  53  1   
@<TRIPOS>SUBSTRUCTURE
  1 ****   8 GROUP 4 **** **** 0

# MOE 2024.06 (io_trps.svl 2023.06)
