@<TRIPOS>MOLECULE
NONAME
44 46 1 0 0 
SMALL
USER_CHARGES


@<TRIPOS>ATOM
  1 CL      -2.5420     0.0960     3.7250 Cl    1 <1>  -0.1230 
  2 C       -2.6320     0.5330     2.0250 C.2   1 <1>   0.1230 
  3 C       -2.7820    -0.3440     0.9460 C.2   1 <1>   0.2030 
  4 C       -2.5880     1.7850     1.5350 C.2   1 <1>  -0.3320 
  5 N       -2.8400     0.3680    -0.1740 N.2   1 <1>  -0.7070 
  6 C       -2.8510    -1.7950     1.0740 C.2   1 <1>   0.7160 
  7 N       -2.7120     1.6510     0.1970 N.pl3 1 <1>   0.3140 
  8 C       -2.4360     3.1080     2.2720 C.3   1 <1>  -0.0600 
  9 O       -2.1940    -2.3590     1.9340 O.2   1 <1>  -0.5700 
 10 N       -3.6450    -2.5780     0.2530 N.am  1 <1>  -0.6600 
 11 C       -2.7140     2.7350    -0.7950 C.3   1 <1>   0.0160 
 12 C       -3.6200    -4.0790     0.3360 C.3   1 <1>   0.3640 
 13 C       -4.6410    -1.9810    -0.6920 C.3   1 <1>   0.1400 
 14 C       -2.7370    -4.7040    -0.7580 C.ar  1 <1>  -0.1440 
 15 C       -5.0600    -4.6880     0.3060 C.3   1 <1>   0.2000 
 16 C       -5.5790    -3.0320    -1.3010 C.3   1 <1>   0.1200 
 17 C       -2.4380    -6.0580    -0.6560 C.ar  1 <1>  -0.1500 
 18 C       -2.2100    -3.9930    -1.8320 C.ar  1 <1>  -0.1500 
 19 O       -6.0420    -3.8710    -0.2920 O.3   1 <1>  -0.5600 
 20 C       -5.5570    -5.0090     1.7210 C.3   1 <1>   0.1200 
 21 C       -1.6590    -6.6910    -1.6080 C.ar  1 <1>  -0.1500 
 22 C       -1.4310    -4.6240    -2.7860 C.ar  1 <1>  -0.1500 
 23 O       -4.9000    -6.1320     2.2160 O.3   1 <1>  -0.6800 
 24 C       -1.1570    -5.9740    -2.6780 C.ar  1 <1>  -0.1500 
 25 H       -2.3570     2.9380     3.3310 H     1 <1>   0.0800 
 26 H       -3.2900     3.7360     2.0920 H     1 <1>   0.0800 
 27 H       -1.5480     3.6180     1.9430 H     1 <1>   0.0800 
 28 H       -1.7870     3.2730    -0.7310 H     1 <1>   0.0800 
 29 H       -3.5370     3.3950    -0.5970 H     1 <1>   0.0800 
 30 H       -2.8170     2.3140    -1.7780 H     1 <1>   0.0800 
 31 H       -3.1720    -4.3740     1.2700 H     1 <1>   0.0800 
 32 H       -5.2330    -1.2530    -0.1650 H     1 <1>   0.0800 
 33 H       -4.1260    -1.4720    -1.4870 H     1 <1>   0.0800 
 34 H       -5.0500    -5.6020    -0.2590 H     1 <1>   0.0800 
 35 H       -5.0750    -3.6230    -2.0460 H     1 <1>   0.0800 
 36 H       -6.4290    -2.5540    -1.7540 H     1 <1>   0.0800 
 37 H       -2.8090    -6.6300     0.1770 H     1 <1>   0.1500 
 38 H       -2.3870    -2.9390    -1.9400 H     1 <1>   0.1500 
 39 H       -6.6130    -5.2160     1.7150 H     1 <1>   0.0800 
 40 H       -5.3540    -4.1840     2.3820 H     1 <1>   0.0800 
 41 H       -1.4410    -7.7400    -1.5140 H     1 <1>   0.1500 
 42 H       -1.0330    -4.0590    -3.6120 H     1 <1>   0.1500 
 43 H       -5.2980    -6.9500     1.8570 H     1 <1>   0.4000 
 44 H       -0.5510    -6.4640    -3.4200 H     1 <1>   0.1500 
@<TRIPOS>BOND
  1   1   2  1   
  2   2   3  1   
  3   2   4  2   
  4   3   5  2   
  5   3   6  1   
  6   4   7  1   
  7   4   8  1   
  8   5   7  1   
  9   6   9  2   
 10   6  10  am  
 11   7  11  1   
 12   8  25  1   
 13   8  26  1   
 14   8  27  1   
 15  10  12  1   
 16  10  13  1   
 17  11  28  1   
 18  11  29  1   
 19  11  30  1   
 20  12  14  1   
 21  12  15  1   
 22  12  31  1   
 23  13  16  1   
 24  13  32  1   
 25  13  33  1   
 26  14  17  ar  
 27  14  18  ar  
 28  15  19  1   
 29  15  20  1   
 30  15  34  1   
 31  16  19  1   
 32  16  35  1   
 33  16  36  1   
 34  17  21  ar  
 35  17  37  1   
 36  18  22  ar  
 37  18  38  1   
 38  20  23  1   
 39  20  39  1   
 40  20  40  1   
 41  21  24  ar  
 42  21  41  1   
 43  22  24  ar  
 44  22  42  1   
 45  23  43  1   
 46  24  44  1   
@<TRIPOS>SUBSTRUCTURE
  1 ****  10 GROUP 4 **** **** 0

# MOE 2024.06 (io_trps.svl 2023.06)
