@<TRIPOS>MOLECULE
NONAME
58 62 1 0 0 
SMALL
USER_CHARGES


@<TRIPOS>ATOM
  1 S       -0.0710    -0.3080     0.1900 S.o2  1 <1>   1.3330 
  2 O       -1.1660    -1.2370     0.3410 O.2   1 <1>  -0.6500 
  3 O        0.8160    -0.0280     1.2950 O.2   1 <1>  -0.6500 
  4 N        0.8450    -0.9890    -1.0370 N.am  1 <1>  -0.9140 
  5 C       -0.6310     1.2300    -0.5400 C.3   1 <1>  -0.0550 
  6 C        1.9700    -1.8190    -0.6050 C.3   1 <1>   0.1960 
  7 C       -1.4690     2.1040     0.4070 C.3   1 <1>  -0.0800 
  8 C        1.5320    -3.0540     0.2100 C.3   1 <1>  -0.0800 
  9 C       -2.8240     1.5000     0.7730 C.3   1 <1>  -0.1600 
 10 C       -1.8350     3.4520    -0.2090 C.3   1 <1>  -0.1600 
 11 C        0.6650    -4.0180    -0.6160 C.3   1 <1>   0.2000 
 12 C        2.6750    -4.0060     0.6360 C.3   1 <1>  -0.0800 
 13 C       -3.7010     2.6880     1.1790 C.3   1 <1>  -0.1600 
 14 C       -3.0250     3.9420     0.6140 C.3   1 <1>  -0.1600 
 15 O        1.6340    -4.8190    -1.1790 O.3   1 <1>  -0.5600 
 16 C       -0.0660    -5.0210     0.2850 C.3   1 <1>  -0.1600 
 17 C        2.2480    -5.3050    -0.0390 C.3   1 <1>   0.2800 
 18 C        4.1100    -3.7790     0.1330 C.3   1 <1>   0.1400 
 19 C        1.0720    -5.9680     0.6800 C.3   1 <1>  -0.1600 
 20 C        3.5190    -6.1020    -0.3260 C.3   1 <1>   0.1400 
 21 N        4.6340    -5.1250    -0.2070 N.am  1 <1>  -0.6600 
 22 C        5.9540    -5.4780    -0.4110 C.2   1 <1>   0.7160 
 23 O        6.1900    -6.6670    -0.5530 O.2   1 <1>  -0.5700 
 24 C        7.0760    -4.5350    -0.4560 C.2   1 <1>   0.1410 
 25 N        6.9140    -3.1340    -0.4860 N.2   1 <1>  -0.5650 
 26 C        8.3720    -4.9220    -0.4830 C.2   1 <1>  -0.1100 
 27 C        8.0210    -2.5140    -0.5320 C.2   1 <1>   0.1980 
 28 S        9.4260    -3.5480    -0.5440 S.3   1 <1>  -0.0800 
 29 C        8.2560    -1.0220    -0.5770 C.3   1 <1>  -0.0600 
 30 H        0.1920    -1.5910    -1.5330 H     1 <1>   0.4200 
 31 H        0.2310     1.7930    -0.8410 H     1 <1>   0.0800 
 32 H       -1.2020     1.0170    -1.4230 H     1 <1>   0.0800 
 33 H        2.4900    -2.1450    -1.4900 H     1 <1>   0.0800 
 34 H        2.6510    -1.2210    -0.0210 H     1 <1>   0.0800 
 35 H       -0.9140     2.2840     1.3150 H     1 <1>   0.0800 
 36 H        1.0030    -2.7340     1.0890 H     1 <1>   0.0800 
 37 H       -3.2590     1.0220    -0.0880 H     1 <1>   0.0800 
 38 H       -2.7430     0.7780     1.5680 H     1 <1>   0.0800 
 39 H       -1.0140     4.1480    -0.1800 H     1 <1>   0.0800 
 40 H       -2.1480     3.3160    -1.2310 H     1 <1>   0.0800 
 41 H        0.0440    -3.5650    -1.3690 H     1 <1>   0.0800 
 42 H        2.7000    -4.1320     1.7040 H     1 <1>   0.0800 
 43 H       -4.6970     2.5730     0.7880 H     1 <1>   0.0800 
 44 H       -3.7560     2.7580     2.2520 H     1 <1>   0.0800 
 45 H       -2.6730     4.5540     1.4280 H     1 <1>   0.0800 
 46 H       -3.7040     4.5220     0.0120 H     1 <1>   0.0800 
 47 H       -0.5250    -4.5380     1.1310 H     1 <1>   0.0800 
 48 H       -0.8200    -5.5400    -0.2800 H     1 <1>   0.0800 
 49 H        4.7120    -3.3150     0.8960 H     1 <1>   0.0800 
 50 H        4.1460    -3.1840    -0.7600 H     1 <1>   0.0800 
 51 H        0.9060    -6.9560     0.2880 H     1 <1>   0.0800 
 52 H        1.2250    -6.0180     1.7430 H     1 <1>   0.0800 
 53 H        3.4890    -6.5390    -1.3090 H     1 <1>   0.0800 
 54 H        3.6520    -6.8730     0.4120 H     1 <1>   0.0800 
 55 H        8.8120    -5.9030    -0.4760 H     1 <1>   0.1500 
 56 H        7.3150    -0.5050    -0.5620 H     1 <1>   0.0800 
 57 H        8.7840    -0.7640    -1.4760 H     1 <1>   0.0800 
 58 H        8.8360    -0.7190     0.2750 H     1 <1>   0.0800 
@<TRIPOS>BOND
  1   1   2  2   
  2   1   3  2   
  3   1   4  am  
  4   1   5  1   
  5   4   6  1   
  6   4  30  1   
  7   5   7  1   
  8   5  31  1   
  9   5  32  1   
 10   6   8  1   
 11   6  33  1   
 12   6  34  1   
 13   7   9  1   
 14   7  10  1   
 15   7  35  1   
 16   8  11  1   
 17   8  12  1   
 18   8  36  1   
 19   9  13  1   
 20   9  37  1   
 21   9  38  1   
 22  10  14  1   
 23  10  39  1   
 24  10  40  1   
 25  11  15  1   
 26  11  16  1   
 27  11  41  1   
 28  12  17  1   
 29  12  18  1   
 30  12  42  1   
 31  13  14  1   
 32  13  43  1   
 33  13  44  1   
 34  14  45  1   
 35  14  46  1   
 36  15  17  1   
 37  16  19  1   
 38  16  47  1   
 39  16  48  1   
 40  17  19  1   
 41  17  20  1   
 42  18  21  1   
 43  18  49  1   
 44  18  50  1   
 45  19  51  1   
 46  19  52  1   
 47  20  21  1   
 48  20  53  1   
 49  20  54  1   
 50  21  22  am  
 51  22  23  2   
 52  22  24  1   
 53  24  25  1   
 54  24  26  2   
 55  25  27  2   
 56  26  28  1   
 57  26  55  1   
 58  27  28  1   
 59  27  29  1   
 60  29  56  1   
 61  29  57  1   
 62  29  58  1   
@<TRIPOS>SUBSTRUCTURE
  1 ****   6 GROUP 4 **** **** 0

# MOE 2024.06 (io_trps.svl 2023.06)
