@<TRIPOS>MOLECULE
NONAME
50 52 1 0 0 
SMALL
USER_CHARGES


@<TRIPOS>ATOM
  1 O        1.6900    -0.6810    -2.6620 O.2   1 <1>  -0.5700 
  2 C        1.7940    -1.1430    -1.5490 C.2   1 <1>   0.5690 
  3 N        0.8960    -2.0660    -1.0650 N.am  1 <1>  -0.6600 
  4 C        2.9760    -0.6640    -0.7160 C.3   1 <1>  -0.0990 
  5 C       -0.2600    -2.5130    -1.8940 C.3   1 <1>   0.1400 
  6 C        0.9630    -2.7210     0.2730 C.3   1 <1>   0.1400 
  7 C        2.5910     0.3560     0.3750 C.3   1 <1>  -0.0800 
  8 C       -0.1880    -4.0270    -2.0960 C.3   1 <1>  -0.1600 
  9 C        1.0490    -4.2360     0.0910 C.3   1 <1>  -0.1600 
 10 C        2.0360     1.6490    -0.2380 C.3   1 <1>  -0.2400 
 11 C        3.8090     0.6810     1.2470 C.3   1 <1>  -0.2400 
 12 C       -0.1220    -4.7440    -0.7490 C.3   1 <1>   0.2890 
 13 N        0.0480    -6.1870    -0.9840 N.pl3 1 <1>  -0.8690 
 14 C       -0.4420    -7.1900    -0.1700 C.ar  1 <1>   0.4100 
 15 N       -1.1210    -6.8330     0.9010 N.ar  1 <1>  -0.3100 
 16 C       -0.1880    -8.5460    -0.5000 C.ar  1 <1>   0.0000 
 17 N       -1.5880    -7.7500     1.7380 N.ar  1 <1>  -0.3100 
 18 C       -0.6760    -9.5100     0.3940 C.ar  1 <1>   0.0000 
 19 C        0.5090    -8.9820    -1.6500 C.ar  1 <1>  -0.1500 
 20 C       -1.3810    -9.0170     1.5100 C.ar  1 <1>   0.1670 
 21 C       -0.4340   -10.8770     0.1180 C.ar  1 <1>  -0.1500 
 22 C        0.7270   -10.3100    -1.8950 C.ar  1 <1>  -0.1500 
 23 C       -1.9560    -9.9820     2.5330 C.3   1 <1>  -0.0970 
 24 C        0.2510   -11.2690    -0.9980 C.ar  1 <1>  -0.1500 
 25 H        3.6900    -0.2120    -1.3810 H     1 <1>   0.0800 
 26 H        3.4600    -1.5170    -0.2810 H     1 <1>   0.0800 
 27 H       -0.2580    -2.0230    -2.8530 H     1 <1>   0.0800 
 28 H       -1.1750    -2.2500    -1.3910 H     1 <1>   0.0800 
 29 H        0.0740    -2.4720     0.8280 H     1 <1>   0.0800 
 30 H        1.8090    -2.3840     0.8400 H     1 <1>   0.0800 
 31 H        1.8290    -0.0690     1.0050 H     1 <1>   0.0800 
 32 H        0.6840    -4.2540    -2.6830 H     1 <1>   0.0800 
 33 H       -1.0600    -4.3540    -2.6320 H     1 <1>   0.0800 
 34 H        1.0240    -4.7100     1.0560 H     1 <1>   0.0800 
 35 H        1.9810    -4.4800    -0.3860 H     1 <1>   0.0800 
 36 H        2.7610     2.1010    -0.8920 H     1 <1>   0.0800 
 37 H        1.7830     2.3530     0.5340 H     1 <1>   0.0800 
 38 H        1.1460     1.4450    -0.8090 H     1 <1>   0.0800 
 39 H        4.5940     1.1190     0.6550 H     1 <1>   0.0800 
 40 H        4.1880    -0.2120     1.7130 H     1 <1>   0.0800 
 41 H        3.5380     1.3760     2.0230 H     1 <1>   0.0800 
 42 H       -1.0440    -4.5670    -0.2170 H     1 <1>   0.0800 
 43 H        0.7420    -6.4280    -1.6900 H     1 <1>   0.4000 
 44 H        0.8730    -8.2540    -2.3500 H     1 <1>   0.1500 
 45 H       -0.7960   -11.6250     0.7980 H     1 <1>   0.1500 
 46 H        1.2600   -10.6320    -2.7730 H     1 <1>   0.1500 
 47 H       -2.4640    -9.4450     3.3140 H     1 <1>   0.0800 
 48 H       -1.1660   -10.5590     2.9780 H     1 <1>   0.0800 
 49 H       -2.6610   -10.6410     2.0610 H     1 <1>   0.0800 
 50 H        0.4310   -12.3110    -1.2020 H     1 <1>   0.1500 
@<TRIPOS>BOND
  1   1   2  2   
  2   2   3  am  
  3   2   4  1   
  4   3   5  1   
  5   3   6  1   
  6   4   7  1   
  7   4  25  1   
  8   4  26  1   
  9   5   8  1   
 10   5  27  1   
 11   5  28  1   
 12   6   9  1   
 13   6  29  1   
 14   6  30  1   
 15   7  10  1   
 16   7  11  1   
 17   7  31  1   
 18   8  12  1   
 19   8  32  1   
 20   8  33  1   
 21   9  12  1   
 22   9  34  1   
 23   9  35  1   
 24  10  36  1   
 25  10  37  1   
 26  10  38  1   
 27  11  39  1   
 28  11  40  1   
 29  11  41  1   
 30  12  13  1   
 31  12  42  1   
 32  13  14  1   
 33  13  43  1   
 34  14  15  ar  
 35  14  16  ar  
 36  15  17  ar  
 37  16  18  ar  
 38  16  19  ar  
 39  17  20  ar  
 40  18  20  ar  
 41  18  21  ar  
 42  19  22  ar  
 43  19  44  1   
 44  20  23  1   
 45  21  24  ar  
 46  21  45  1   
 47  22  24  ar  
 48  22  46  1   
 49  23  47  1   
 50  23  48  1   
 51  23  49  1   
 52  24  50  1   
@<TRIPOS>SUBSTRUCTURE
  1 ****  12 GROUP 4 **** **** 0

# MOE 2024.06 (io_trps.svl 2023.06)
