@<TRIPOS>MOLECULE
NONAME
61 64 1 0 0 
SMALL
USER_CHARGES


@<TRIPOS>ATOM
  1 O        1.8600    -0.1330     2.6160 O.2   1 <1>  -0.5700 
  2 C        2.1700    -0.6740     1.5700 C.2   1 <1>   0.5440 
  3 N        3.0410    -0.0240     0.7200 N.am  1 <1>  -0.6600 
  4 C        1.5940    -1.9650     1.2660 C.ar  1 <1>   0.0860 
  5 C        3.5200     1.3620     0.9930 C.3   1 <1>   0.1400 
  6 C        3.3200    -0.4420    -0.6870 C.3   1 <1>   0.1400 
  7 C        0.5910    -2.1320     0.3020 C.ar  1 <1>   0.0830 
  8 C        2.0290    -3.0950     1.9580 C.ar  1 <1>  -0.1500 
  9 C        2.9070     2.3160    -0.0450 C.3   1 <1>   0.2000 
 10 C        2.7960     0.6200    -1.6740 C.3   1 <1>   0.1200 
 11 O        0.1470    -1.0710    -0.4160 O.3   1 <1>  -0.3630 
 12 C        0.0560    -3.3930     0.0340 C.ar  1 <1>   0.0830 
 13 C        1.5030    -4.3450     1.7000 C.ar  1 <1>  -0.1500 
 14 O        3.2560     1.9040    -1.3370 O.3   1 <1>  -0.5600 
 15 C        3.3630     3.7630     0.1440 C.3   1 <1>  -0.1600 
 16 C       -0.5900    -0.0640     0.2400 C.3   1 <1>   0.1200 
 17 O       -0.9160    -3.4830    -0.9190 O.3   1 <1>  -0.3630 
 18 C        0.5190    -4.4990     0.7390 C.ar  1 <1>  -0.1500 
 19 C        2.6990     4.6840    -0.8840 C.3   1 <1>   0.1400 
 20 C       -2.0720    -0.2440    -0.0960 C.3   1 <1>  -0.1600 
 21 C       -1.4480    -4.7260    -1.3210 C.3   1 <1>   0.0400 
 22 N        2.4090     5.9990    -0.2660 N.am  1 <1>  -0.7300 
 23 C       -2.9460     0.8650     0.5130 C.3   1 <1>   0.0960 
 24 C        1.3060     6.3800     0.4240 C.2   1 <1>   0.5690 
 25 N       -2.5800     2.1940    -0.0180 N.pl3 1 <1>   0.3140 
 26 O        1.2000     7.5130     0.8150 O.2   1 <1>  -0.5700 
 27 C        0.1970     5.3920     0.7240 C.3   1 <1>  -0.0990 
 28 N       -3.0340     2.6520    -1.1870 N.2   1 <1>  -0.4180 
 29 C       -1.7180     3.0730     0.4970 C.2   1 <1>  -0.3020 
 30 C       -0.8170     5.3320    -0.4250 C.3   1 <1>   0.0210 
 31 N       -2.4770     3.7880    -1.4230 N.2   1 <1>  -0.2270 
 32 C       -1.6560     4.0650    -0.4070 C.2   1 <1>   0.0460 
 33 H        4.5930     1.3910     0.9260 H     1 <1>   0.0800 
 34 H        3.2410     1.6770     1.9830 H     1 <1>   0.0800 
 35 H        2.8680    -1.3910    -0.9090 H     1 <1>   0.0800 
 36 H        4.3830    -0.5490    -0.8170 H     1 <1>   0.0800 
 37 H        2.7890    -2.9780     2.7120 H     1 <1>   0.1500 
 38 H        1.8330     2.2740     0.0390 H     1 <1>   0.0800 
 39 H        1.7200     0.6320    -1.6780 H     1 <1>   0.0800 
 40 H        3.1370     0.3990    -2.6690 H     1 <1>   0.0800 
 41 H        1.8570    -5.2020     2.2480 H     1 <1>   0.1500 
 42 H        4.4330     3.8230     0.0520 H     1 <1>   0.0800 
 43 H        3.0950     4.0690     1.1390 H     1 <1>   0.0800 
 44 H       -0.2220     0.8790    -0.1230 H     1 <1>   0.0800 
 45 H       -0.4300    -0.1250     1.3030 H     1 <1>   0.0800 
 46 H        0.1290    -5.4830     0.5610 H     1 <1>   0.1500 
 47 H        1.7800     4.2470    -1.2370 H     1 <1>   0.0800 
 48 H        3.3440     4.8110    -1.7380 H     1 <1>   0.0800 
 49 H       -2.4010    -1.1950     0.2840 H     1 <1>   0.0800 
 50 H       -2.2000    -0.2470    -1.1650 H     1 <1>   0.0800 
 51 H       -2.1610    -4.5440    -2.1050 H     1 <1>   0.0800 
 52 H       -1.9380    -5.1850    -0.4810 H     1 <1>   0.0800 
 53 H       -0.6500    -5.3440    -1.6910 H     1 <1>   0.0800 
 54 H        3.1190     6.7240    -0.3920 H     1 <1>   0.3700 
 55 H       -2.8420     0.8790     1.5820 H     1 <1>   0.0800 
 56 H       -3.9790     0.6840     0.2730 H     1 <1>   0.0800 
 57 H       -0.3030     5.6870     1.6280 H     1 <1>   0.0800 
 58 H        0.6300     4.4260     0.8930 H     1 <1>   0.0800 
 59 H       -1.2140     2.9330     1.4340 H     1 <1>   0.1500 
 60 H       -0.2980     5.3640    -1.3660 H     1 <1>   0.0800 
 61 H       -1.4640     6.1910    -0.3840 H     1 <1>   0.0800 
@<TRIPOS>BOND
  1   1   2  2   
  2   2   3  am  
  3   2   4  1   
  4   3   5  1   
  5   3   6  1   
  6   4   7  ar  
  7   4   8  ar  
  8   5   9  1   
  9   5  33  1   
 10   5  34  1   
 11   6  10  1   
 12   6  35  1   
 13   6  36  1   
 14   7  11  1   
 15   7  12  ar  
 16   8  13  ar  
 17   8  37  1   
 18   9  14  1   
 19   9  15  1   
 20   9  38  1   
 21  10  14  1   
 22  10  39  1   
 23  10  40  1   
 24  11  16  1   
 25  12  17  1   
 26  12  18  ar  
 27  13  18  ar  
 28  13  41  1   
 29  15  19  1   
 30  15  42  1   
 31  15  43  1   
 32  16  20  1   
 33  16  44  1   
 34  16  45  1   
 35  17  21  1   
 36  18  46  1   
 37  19  22  1   
 38  19  47  1   
 39  19  48  1   
 40  20  23  1   
 41  20  49  1   
 42  20  50  1   
 43  21  51  1   
 44  21  52  1   
 45  21  53  1   
 46  22  24  am  
 47  22  54  1   
 48  23  25  1   
 49  23  55  1   
 50  23  56  1   
 51  24  26  2   
 52  24  27  1   
 53  25  28  1   
 54  25  29  1   
 55  27  30  1   
 56  27  57  1   
 57  27  58  1   
 58  28  31  2   
 59  29  32  2   
 60  29  59  1   
 61  30  32  1   
 62  30  60  1   
 63  30  61  1   
 64  31  32  1   
@<TRIPOS>SUBSTRUCTURE
  1 ****  16 GROUP 4 **** **** 0

# MOE 2024.06 (io_trps.svl 2023.06)
