@<TRIPOS>MOLECULE
NONAME
55 59 1 0 0 
SMALL
USER_CHARGES


@<TRIPOS>ATOM
  1 S       -2.4190    -4.8780    -3.3290 S.3   1 <1>  -0.0800 
  2 C       -2.4990    -5.2600    -1.6260 C.2   1 <1>   0.2280 
  3 C       -3.5590    -3.5920    -3.0640 C.2   1 <1>  -0.1100 
  4 N       -3.2710    -4.4990    -0.9520 N.2   1 <1>  -0.5650 
  5 C       -3.8850    -3.5550    -1.7620 C.2   1 <1>   0.0460 
  6 C       -4.8750    -2.5810    -1.1330 C.3   1 <1>   0.0210 
  7 C       -4.3810    -1.8400     0.1530 C.3   1 <1>   0.0610 
  8 C       -4.8890    -2.5840     1.4010 C.2   1 <1>   0.5690 
  9 C       -2.8390    -1.7010     0.2190 C.3   1 <1>   0.4230 
 10 C       -4.7960    -0.3320     0.1000 C.3   1 <1>  -0.1600 
 11 O       -5.3960    -1.9620     2.3010 O.2   1 <1>  -0.5700 
 12 N       -4.7430    -3.9260     1.4780 N.am  1 <1>  -0.7300 
 13 N       -2.6030    -0.5130    -0.6130 N.4   1 <1>  -0.9060 
 14 C       -2.3460    -1.1510     1.5670 C.3   1 <1>  -0.1600 
 15 C       -3.4570     0.4090     0.1330 C.3   1 <1>   0.4230 
 16 C       -5.4510    -4.8050     2.4240 C.3   1 <1>   0.2840 
 17 C       -2.8440     0.3020     1.5320 C.3   1 <1>  -0.1600 
 18 C       -6.3060    -5.7400     1.5910 C.ar  1 <1>  -0.1430 
 19 C       -5.7340    -6.8260     0.9480 C.ar  1 <1>  -0.1500 
 20 C       -7.6630    -5.5060     1.4470 C.ar  1 <1>  -0.1500 
 21 C       -6.4990    -7.6730     0.1630 C.ar  1 <1>  -0.1430 
 22 C       -8.4330    -6.3490     0.6670 C.ar  1 <1>  -0.1500 
 23 C       -7.8620    -7.4340     0.0220 C.ar  1 <1>  -0.1430 
 24 C       -5.8170    -8.8590    -0.5110 C.3   1 <1>  -0.0170 
 25 C       -8.7510    -8.3210    -0.8420 C.3   1 <1>  -0.0170 
 26 C       -6.6570    -9.4640    -1.6410 C.3   1 <1>  -0.1600 
 27 C       -8.1020    -9.6690    -1.1770 C.3   1 <1>  -0.1600 
 28 H       -1.9010    -6.0880    -1.2840 H     1 <1>   0.1500 
 29 H       -3.8660    -3.0190    -3.9210 H     1 <1>   0.1500 
 30 H       -5.1410    -1.8800    -1.9020 H     1 <1>   0.0800 
 31 H       -5.7810    -3.1210    -0.9080 H     1 <1>   0.0800 
 32 H       -2.2940    -2.5750    -0.0970 H     1 <1>   0.0800 
 33 H       -5.4190    -0.0170     0.9190 H     1 <1>   0.0800 
 34 H       -5.3220    -0.0680    -0.7990 H     1 <1>   0.0800 
 35 H       -4.3620    -4.4410     0.6710 H     1 <1>   0.3700 
 36 H       -1.6190    -0.2270    -0.5740 H     1 <1>   0.4500 
 37 H       -2.9050    -0.6490    -1.5810 H     1 <1>   0.4500 
 38 H       -2.7170    -1.6940     2.4190 H     1 <1>   0.0800 
 39 H       -1.2700    -1.1840     1.6020 H     1 <1>   0.0800 
 40 H       -3.4930     1.4140    -0.2600 H     1 <1>   0.0800 
 41 H       -4.7380    -5.3670     3.0020 H     1 <1>   0.0800 
 42 H       -6.0630    -4.2280     3.0970 H     1 <1>   0.0800 
 43 H       -2.0300     0.9960     1.6480 H     1 <1>   0.0800 
 44 H       -3.5750     0.4950     2.3000 H     1 <1>   0.0800 
 45 H       -4.6810    -7.0140     1.0570 H     1 <1>   0.1500 
 46 H       -8.1250    -4.6660     1.9360 H     1 <1>   0.1500 
 47 H       -9.4860    -6.1550     0.5630 H     1 <1>   0.1500 
 48 H       -4.8640    -8.5530    -0.9060 H     1 <1>   0.0800 
 49 H       -5.6400    -9.6120     0.2360 H     1 <1>   0.0800 
 50 H       -9.6860    -8.4950    -0.3400 H     1 <1>   0.0800 
 51 H       -8.9600    -7.7950    -1.7570 H     1 <1>   0.0800 
 52 H       -6.6450    -8.8010    -2.4890 H     1 <1>   0.0800 
 53 H       -6.2300   -10.4040    -1.9440 H     1 <1>   0.0800 
 54 H       -8.1110   -10.2950    -0.3010 H     1 <1>   0.0800 
 55 H       -8.6700   -10.1610    -1.9470 H     1 <1>   0.0800 
@<TRIPOS>BOND
  1   1   2  1   
  2   1   3  1   
  3   2   4  2   
  4   2  28  1   
  5   3   5  2   
  6   3  29  1   
  7   4   5  1   
  8   5   6  1   
  9   6   7  1   
 10   6  30  1   
 11   6  31  1   
 12   7   8  1   
 13   7   9  1   
 14   7  10  1   
 15   8  11  2   
 16   8  12  am  
 17   9  13  1   
 18   9  14  1   
 19   9  32  1   
 20  10  15  1   
 21  10  33  1   
 22  10  34  1   
 23  12  16  1   
 24  12  35  1   
 25  13  15  1   
 26  13  36  1   
 27  13  37  1   
 28  14  17  1   
 29  14  38  1   
 30  14  39  1   
 31  15  17  1   
 32  15  40  1   
 33  16  18  1   
 34  16  41  1   
 35  16  42  1   
 36  17  43  1   
 37  17  44  1   
 38  18  19  ar  
 39  18  20  ar  
 40  19  21  ar  
 41  19  45  1   
 42  20  22  ar  
 43  20  46  1   
 44  21  23  ar  
 45  21  24  1   
 46  22  23  ar  
 47  22  47  1   
 48  23  25  1   
 49  24  26  1   
 50  24  48  1   
 51  24  49  1   
 52  25  27  1   
 53  25  50  1   
 54  25  51  1   
 55  26  27  1   
 56  26  52  1   
 57  26  53  1   
 58  27  54  1   
 59  27  55  1   
@<TRIPOS>SUBSTRUCTURE
  1 ****  12 GROUP 4 **** **** 0

# MOE 2024.06 (io_trps.svl 2023.06)
