@<TRIPOS>MOLECULE
NONAME
52 56 1 0 0 
SMALL
USER_CHARGES


@<TRIPOS>ATOM
  1 O        3.0630    -1.0790     1.1830 O.2   1 <1>  -0.5700 
  2 C        1.9730    -1.5780     0.9490 C.2   1 <1>   0.5440 
  3 N        1.0120    -0.7450     0.4020 N.am  1 <1>  -0.6600 
  4 C        1.7520    -2.9900     1.2790 C.ar  1 <1>   0.3960 
  5 C       -0.4090    -1.0830     0.1600 C.3   1 <1>   0.1400 
  6 C        1.2850     0.6650     0.0470 C.3   1 <1>   0.1400 
  7 N        0.8340    -3.7240     0.6260 N.ar  1 <1>  -0.6200 
  8 C        2.5320    -3.5500     2.2960 C.ar  1 <1>   0.1600 
  9 C       -1.0890     0.2550    -0.1050 C.3   1 <1>  -0.1600 
 10 C        0.0200     1.1470    -0.6550 C.3   1 <1>  -0.1600 
 11 C        0.7470    -4.9770     1.0390 C.ar  1 <1>   0.4100 
 12 N        2.4660    -4.8030     2.7260 N.ar  1 <1>  -0.6200 
 13 N       -0.2000    -5.7760     0.4170 N.pl3 1 <1>  -0.8380 
 14 C        1.5590    -5.4890     2.0620 C.ar  1 <1>   0.1600 
 15 C       -0.6420    -5.4520    -0.9810 C.3   1 <1>   0.2090 
 16 C       -1.3300    -6.3150     1.2370 C.3   1 <1>   0.2090 
 17 C       -1.2970    -6.6660    -1.6680 C.3   1 <1>   0.2090 
 18 C       -1.9800    -7.5460     0.5710 C.3   1 <1>   0.2090 
 19 N       -2.3960    -7.2600    -0.8370 N.pl3 1 <1>  -0.8380 
 20 C       -3.7120    -6.9670    -1.1070 C.ar  1 <1>   0.4100 
 21 N       -3.9820    -5.7460    -1.4730 N.ar  1 <1>  -0.6200 
 22 C       -4.7250    -7.9490    -0.9590 C.ar  1 <1>   0.0000 
 23 C       -5.2740    -5.4520    -1.6510 C.ar  1 <1>   0.4700 
 24 C       -6.0380    -7.5090    -1.1550 C.ar  1 <1>   0.3100 
 25 C       -4.5100    -9.3080    -0.6520 C.ar  1 <1>  -0.1500 
 26 N       -6.2970    -6.2330    -1.5050 N.ar  1 <1>  -0.6200 
 27 C       -7.0960    -8.4130    -0.9950 C.ar  1 <1>  -0.1500 
 28 C       -5.5590   -10.1800    -0.5060 C.ar  1 <1>  -0.1500 
 29 C       -6.8690    -9.7270    -0.6740 C.ar  1 <1>  -0.1500 
 30 H       -0.8410    -1.5850     1.0090 H     1 <1>   0.0800 
 31 H       -0.4760    -1.7160    -0.7090 H     1 <1>   0.0800 
 32 H        2.1490     0.7380    -0.5920 H     1 <1>   0.0800 
 33 H        1.4570     1.2260     0.9500 H     1 <1>   0.0800 
 34 H        3.2550    -2.9170     2.7820 H     1 <1>   0.1500 
 35 H       -1.4500     0.6530     0.8280 H     1 <1>   0.0800 
 36 H       -1.9150     0.1560    -0.7870 H     1 <1>   0.0800 
 37 H        0.1270     0.9860    -1.7140 H     1 <1>   0.0800 
 38 H       -0.1630     2.1910    -0.4750 H     1 <1>   0.0800 
 39 H        1.4330    -6.5230     2.3190 H     1 <1>   0.1500 
 40 H        0.2050    -5.1310    -1.5620 H     1 <1>   0.0800 
 41 H       -1.3510    -4.6430    -0.9510 H     1 <1>   0.0800 
 42 H       -2.0780    -5.5490     1.3490 H     1 <1>   0.0800 
 43 H       -0.9810    -6.5850     2.2170 H     1 <1>   0.0800 
 44 H       -0.5460    -7.4160    -1.8420 H     1 <1>   0.0800 
 45 H       -1.6860    -6.3650    -2.6250 H     1 <1>   0.0800 
 46 H       -2.8360    -7.8430     1.1510 H     1 <1>   0.0800 
 47 H       -1.2770    -8.3600     0.5720 H     1 <1>   0.0800 
 48 H       -5.4740    -4.4360    -1.9470 H     1 <1>   0.1500 
 49 H       -3.5000    -9.6580    -0.5390 H     1 <1>   0.1500 
 50 H       -8.0950    -8.0440    -1.1370 H     1 <1>   0.1500 
 51 H       -5.3870   -11.2160    -0.2670 H     1 <1>   0.1500 
 52 H       -7.6880   -10.4160    -0.5540 H     1 <1>   0.1500 
@<TRIPOS>BOND
  1   1   2  2   
  2   2   3  am  
  3   2   4  1   
  4   3   5  1   
  5   3   6  1   
  6   4   7  ar  
  7   4   8  ar  
  8   5   9  1   
  9   5  30  1   
 10   5  31  1   
 11   6  10  1   
 12   6  32  1   
 13   6  33  1   
 14   7  11  ar  
 15   8  12  ar  
 16   8  34  1   
 17   9  10  1   
 18   9  35  1   
 19   9  36  1   
 20  10  37  1   
 21  10  38  1   
 22  11  13  1   
 23  11  14  ar  
 24  12  14  ar  
 25  13  15  1   
 26  13  16  1   
 27  14  39  1   
 28  15  17  1   
 29  15  40  1   
 30  15  41  1   
 31  16  18  1   
 32  16  42  1   
 33  16  43  1   
 34  17  19  1   
 35  17  44  1   
 36  17  45  1   
 37  18  19  1   
 38  18  46  1   
 39  18  47  1   
 40  19  20  1   
 41  20  21  ar  
 42  20  22  ar  
 43  21  23  ar  
 44  22  24  ar  
 45  22  25  ar  
 46  23  26  ar  
 47  23  48  1   
 48  24  26  ar  
 49  24  27  ar  
 50  25  28  ar  
 51  25  49  1   
 52  27  29  ar  
 53  27  50  1   
 54  28  29  ar  
 55  28  51  1   
 56  29  52  1   
@<TRIPOS>SUBSTRUCTURE
  1 ****  15 GROUP 4 **** **** 0

# MOE 2024.06 (io_trps.svl 2023.06)
