@<TRIPOS>MOLECULE
NONAME
53 56 1 0 0 
SMALL
USER_CHARGES


@<TRIPOS>ATOM
  1 O       -1.8510     1.4050     0.9520 O.2   1 <1>  -0.5700 
  2 C       -1.3010     2.4710     1.0560 C.2   1 <1>   0.5690 
  3 N       -1.7420     3.5410     0.3570 N.am  1 <1>  -0.7300 
  4 C       -0.0740     2.6180     1.9630 C.3   1 <1>   0.1810 
  5 C       -1.1600     4.8980     0.4950 C.3   1 <1>   0.3640 
  6 O        0.2170     3.9600     2.2950 O.3   1 <1>  -0.5600 
  7 C       -1.0190     5.5420    -0.8790 C.ar  1 <1>  -0.1440 
  8 C        0.2210     4.8570     1.1980 C.3   1 <1>   0.2610 
  9 C       -0.6360     4.8060    -1.9940 C.ar  1 <1>   0.1600 
 10 C       -1.2340     6.8990    -1.0280 C.ar  1 <1>  -0.1500 
 11 C        0.6340     6.2740     1.6400 C.2   1 <1>   0.5690 
 12 N       -0.4440     5.3050    -3.2040 N.ar  1 <1>  -0.6200 
 13 C       -1.0390     7.4350    -2.2820 C.ar  1 <1>  -0.1500 
 14 O       -0.2190     6.9690     2.1530 O.2   1 <1>  -0.5700 
 15 N        1.9110     6.7580     1.4550 N.am  1 <1>  -0.6600 
 16 C       -0.6470     6.6070    -3.3200 C.ar  1 <1>   0.1600 
 17 C        2.3110     8.0570     2.0760 C.3   1 <1>   0.2840 
 18 C        3.0040     6.0200     0.7530 C.3   1 <1>   0.1400 
 19 C        2.4480     9.1500     1.0270 C.ar  1 <1>  -0.1430 
 20 C        2.8050     6.0090    -0.7720 C.3   1 <1>   0.0000 
 21 C        1.3390     9.5590     0.3020 C.ar  1 <1>  -0.1500 
 22 C        3.6730     9.7580     0.7930 C.ar  1 <1>  -0.1500 
 23 C        3.8800     5.1980    -1.5420 C.3   1 <1>   0.0000 
 24 C        3.3010     7.2520    -1.5580 C.3   1 <1>   0.0000 
 25 C        1.4510    10.5560    -0.6510 C.ar  1 <1>  -0.1500 
 26 C        3.7880    10.7560    -0.1610 C.ar  1 <1>  -0.1500 
 27 C        3.7650     6.2660    -2.6600 C.3   1 <1>   0.0000 
 28 C        2.6770    11.1540    -0.8840 C.ar  1 <1>  -0.1500 
 29 H       -2.5970     3.4450    -0.1950 H     1 <1>   0.3700 
 30 H        0.7840     2.1970     1.4720 H     1 <1>   0.0800 
 31 H       -0.2440     2.0850     2.8800 H     1 <1>   0.0800 
 32 H       -1.8400     5.4840     1.0890 H     1 <1>   0.0800 
 33 H        0.9360     4.4780     0.4970 H     1 <1>   0.0800 
 34 H       -0.4680     3.7470    -1.8910 H     1 <1>   0.1500 
 35 H       -1.5330     7.5230    -0.2010 H     1 <1>   0.1500 
 36 H       -1.1840     8.4850    -2.4570 H     1 <1>   0.1500 
 37 H       -0.4940     7.0370    -4.2950 H     1 <1>   0.1500 
 38 H        1.5830     8.3690     2.8050 H     1 <1>   0.0800 
 39 H        3.2420     7.9270     2.5990 H     1 <1>   0.0800 
 40 H        3.9560     6.4660     0.9840 H     1 <1>   0.0800 
 41 H        3.0300     5.0070     1.1160 H     1 <1>   0.0800 
 42 H        1.8200     5.7120    -1.0780 H     1 <1>   0.0000 
 43 H        0.3840     9.0960     0.4830 H     1 <1>   0.1500 
 44 H        4.5440     9.4590     1.3480 H     1 <1>   0.1500 
 45 H        4.8440     5.2050    -1.0620 H     1 <1>   0.0000 
 46 H        3.5540     4.2180    -1.8410 H     1 <1>   0.0000 
 47 H        2.5140     7.9130    -1.8740 H     1 <1>   0.0000 
 48 H        4.1310     7.7520    -1.0900 H     1 <1>   0.0000 
 49 H        0.5860    10.8670    -1.2090 H     1 <1>   0.1500 
 50 H        4.7400    11.2220    -0.3400 H     1 <1>   0.1500 
 51 H        2.9880     6.0420    -3.3720 H     1 <1>   0.0000 
 52 H        4.7040     6.5280    -3.1130 H     1 <1>   0.0000 
 53 H        2.7670    11.9300    -1.6240 H     1 <1>   0.1500 
@<TRIPOS>BOND
  1   1   2  2   
  2   2   3  am  
  3   2   4  1   
  4   3   5  1   
  5   3  29  1   
  6   4   6  1   
  7   4  30  1   
  8   4  31  1   
  9   5   7  1   
 10   5   8  1   
 11   5  32  1   
 12   6   8  1   
 13   7   9  ar  
 14   7  10  ar  
 15   8  11  1   
 16   8  33  1   
 17   9  12  ar  
 18   9  34  1   
 19  10  13  ar  
 20  10  35  1   
 21  11  14  2   
 22  11  15  am  
 23  12  16  ar  
 24  13  16  ar  
 25  13  36  1   
 26  15  17  1   
 27  15  18  1   
 28  16  37  1   
 29  17  19  1   
 30  17  38  1   
 31  17  39  1   
 32  18  20  1   
 33  18  40  1   
 34  18  41  1   
 35  19  21  ar  
 36  19  22  ar  
 37  20  23  1   
 38  20  24  1   
 39  20  42  1   
 40  21  25  ar  
 41  21  43  1   
 42  22  26  ar  
 43  22  44  1   
 44  23  27  1   
 45  23  45  1   
 46  23  46  1   
 47  24  27  1   
 48  24  47  1   
 49  24  48  1   
 50  25  28  ar  
 51  25  49  1   
 52  26  28  ar  
 53  26  50  1   
 54  27  51  1   
 55  27  52  1   
 56  28  53  1   
@<TRIPOS>SUBSTRUCTURE
  1 ****  11 GROUP 4 **** **** 0

# MOE 2024.06 (io_trps.svl 2023.06)
