@<TRIPOS>MOLECULE
NONAME
40 42 1 0 0 
SMALL
USER_CHARGES


@<TRIPOS>ATOM
  1 CL       0.2460    -0.0310     2.4450 Cl    1 <1>  -0.1770 
  2 C        1.4640     0.6990     1.4280 C.ar  1 <1>   0.1770 
  3 C        2.2690    -0.1110     0.6440 C.ar  1 <1>  -0.1440 
  4 C        1.5910     2.0770     1.4170 C.ar  1 <1>  -0.1500 
  5 C        3.2090     0.5040    -0.1660 C.ar  1 <1>   0.1770 
  6 C        2.1310    -1.6180     0.6810 C.3   1 <1>   0.4870 
  7 C        2.5420     2.6700     0.6020 C.ar  1 <1>  -0.1500 
  8 CL       4.2290    -0.4780    -1.1890 Cl    1 <1>  -0.1770 
  9 C        3.3550     1.8800    -0.1950 C.ar  1 <1>  -0.1500 
 10 N        1.4920    -2.1110    -0.5750 N.4   1 <1>  -0.9590 
 11 C        0.1280    -1.5360    -0.8200 C.3   1 <1>   0.3430 
 12 C        1.3020    -3.5870    -0.5300 C.3   1 <1>   0.3430 
 13 C       -0.8880    -2.5970    -0.3700 C.3   1 <1>   0.2000 
 14 C       -0.0740    -3.8020     0.1030 C.3   1 <1>  -0.0800 
 15 O       -1.6840    -2.1350     0.6660 O.3   1 <1>  -0.6800 
 16 C       -0.7290    -5.1450    -0.2750 C.3   1 <1>  -0.0160 
 17 C        0.0790    -6.3390     0.2130 C.ar  1 <1>   0.1670 
 18 N        1.2820    -6.4950    -0.3210 N.ar  1 <1>  -0.6200 
 19 C       -0.4570    -7.2030     1.1680 C.ar  1 <1>   0.1600 
 20 C        1.8970    -7.5720     0.1470 C.ar  1 <1>   0.1600 
 21 N        0.1650    -8.2660     1.6460 N.ar  1 <1>  -0.6200 
 22 C        1.3570    -8.4270     1.1000 C.ar  1 <1>   0.1600 
 23 H        0.9520     2.6810     2.0390 H     1 <1>   0.1500 
 24 H        1.5450    -1.9140     1.5350 H     1 <1>   0.0800 
 25 H        3.1110    -2.0570     0.7850 H     1 <1>   0.0800 
 26 H        2.6490     3.7430     0.5880 H     1 <1>   0.1500 
 27 H        4.0970     2.3290    -0.8330 H     1 <1>   0.1500 
 28 H        2.1250    -1.8610    -1.3500 H     1 <1>   0.4500 
 29 H       -0.0250    -0.6100    -0.2920 H     1 <1>   0.0800 
 30 H       -0.0020    -1.3610    -1.8750 H     1 <1>   0.0800 
 31 H        1.2970    -3.9850    -1.5320 H     1 <1>   0.0800 
 32 H        2.0790    -4.0840     0.0310 H     1 <1>   0.0800 
 33 H       -1.5380    -2.8450    -1.1930 H     1 <1>   0.0800 
 34 H        0.0500    -3.7690     1.1720 H     1 <1>   0.0800 
 35 H       -1.1820    -1.8910     1.4710 H     1 <1>   0.4000 
 36 H       -0.8320    -5.2200    -1.3440 H     1 <1>   0.0800 
 37 H       -1.7190    -5.1820     0.1460 H     1 <1>   0.0800 
 38 H       -1.4430    -7.0120     1.5550 H     1 <1>   0.1500 
 39 H        2.8770    -7.7920    -0.2400 H     1 <1>   0.1500 
 40 H        1.9340    -9.2770     1.4210 H     1 <1>   0.1500 
@<TRIPOS>BOND
  1   1   2  1   
  2   2   3  ar  
  3   2   4  ar  
  4   3   5  ar  
  5   3   6  1   
  6   4   7  ar  
  7   4  23  1   
  8   5   8  1   
  9   5   9  ar  
 10   6  10  1   
 11   6  24  1   
 12   6  25  1   
 13   7   9  ar  
 14   7  26  1   
 15   9  27  1   
 16  10  11  1   
 17  10  12  1   
 18  10  28  1   
 19  11  13  1   
 20  11  29  1   
 21  11  30  1   
 22  12  14  1   
 23  12  31  1   
 24  12  32  1   
 25  13  14  1   
 26  13  15  1   
 27  13  33  1   
 28  14  16  1   
 29  14  34  1   
 30  15  35  1   
 31  16  17  1   
 32  16  36  1   
 33  16  37  1   
 34  17  18  ar  
 35  17  19  ar  
 36  18  20  ar  
 37  19  21  ar  
 38  19  38  1   
 39  20  22  ar  
 40  20  39  1   
 41  21  22  ar  
 42  22  40  1   
@<TRIPOS>SUBSTRUCTURE
  1 ****  10 GROUP 4 **** **** 0

# MOE 2024.06 (io_trps.svl 2023.06)
