@<TRIPOS>MOLECULE
NONAME
49 51 1 0 0 
SMALL
USER_CHARGES


@<TRIPOS>ATOM
  1 F       -0.6010    -1.2790    -2.2570 F     1 <1>  -0.1900 
  2 C       -1.0990    -2.2490    -1.5310 C.ar  1 <1>   0.1900 
  3 C       -0.2930    -3.0640    -0.7280 C.ar  1 <1>   0.0830 
  4 C       -2.4670    -2.4240    -1.5960 C.ar  1 <1>  -0.1500 
  5 O        1.0620    -2.9900    -0.5810 O.3   1 <1>  -0.3630 
  6 C       -0.9160    -4.0620     0.0030 C.ar  1 <1>  -0.1500 
  7 C       -3.0570    -3.4280    -0.8510 C.ar  1 <1>  -0.1500 
  8 C        1.8630    -2.0710    -1.2910 C.3   1 <1>   0.0400 
  9 C       -2.2970    -4.2720    -0.0390 C.ar  1 <1>   0.0530 
 10 C       -2.9080    -5.3260     0.7340 C.2   1 <1>   0.0870 
 11 O       -2.3350    -5.7800     1.8260 O.3   1 <1>  -0.0190 
 12 C       -4.0540    -6.0320     0.5810 C.2   1 <1>  -0.2330 
 13 N       -3.0290    -6.7250     2.4100 N.2   1 <1>  -0.4100 
 14 C       -4.0730    -6.8870     1.6800 C.2   1 <1>   0.3720 
 15 C       -5.0670    -6.0090    -0.4110 C.2   1 <1>   1.0330 
 16 N       -5.0780    -7.8100     1.9940 N.pl3 1 <1>  -0.8210 
 17 O       -5.9990    -5.1940    -0.3510 O.co2 1 <1>  -0.9000 
 18 O       -5.1820    -6.9330    -1.2350 O.co2 1 <1>  -0.9000 
 19 C       -5.0790    -9.0360     1.1260 C.3   1 <1>   0.2090 
 20 C       -6.4110    -7.1930     2.3190 C.3   1 <1>   0.2090 
 21 C       -6.4620    -9.4130     0.5500 C.3   1 <1>   0.3430 
 22 C       -7.4790    -7.2300     1.1920 C.3   1 <1>   0.3430 
 23 N       -7.1980    -8.2020     0.0870 N.4   1 <1>  -0.9590 
 24 C       -8.3530    -8.4060    -0.8070 C.3   1 <1>   0.4810 
 25 C       -8.0240    -9.4650    -1.8480 C.2   1 <1>  -0.2760 
 26 C       -7.0900    -9.2960    -2.7910 C.2   1 <1>  -0.3000 
 27 C       -8.8540   -10.7350    -1.7370 C.3   1 <1>  -0.1020 
 28 H       -3.0640    -1.7830    -2.2190 H     1 <1>   0.1500 
 29 H       -0.3080    -4.6960     0.6220 H     1 <1>   0.1500 
 30 H       -4.1260    -3.5520    -0.9000 H     1 <1>   0.1500 
 31 H        2.8880    -2.2390    -1.0150 H     1 <1>   0.0800 
 32 H        1.5730    -1.0710    -1.0200 H     1 <1>   0.0800 
 33 H        1.7360    -2.2380    -2.3460 H     1 <1>   0.0800 
 34 H       -4.7000    -9.8630     1.6990 H     1 <1>   0.0800 
 35 H       -4.4020    -8.8890     0.3010 H     1 <1>   0.0800 
 36 H       -6.2650    -6.1670     2.6120 H     1 <1>   0.0800 
 37 H       -6.8070    -7.7030     3.1790 H     1 <1>   0.0800 
 38 H       -7.0360    -9.9210     1.3050 H     1 <1>   0.0800 
 39 H       -6.3100   -10.0910    -0.2720 H     1 <1>   0.0800 
 40 H       -7.5650    -6.2410     0.7730 H     1 <1>   0.0800 
 41 H       -8.4280    -7.4600     1.6430 H     1 <1>   0.0800 
 42 H       -6.4970    -7.7080    -0.5270 H     1 <1>   0.4500 
 43 H       -8.5790    -7.4760    -1.3050 H     1 <1>   0.0800 
 44 H       -9.2150    -8.7090    -0.2370 H     1 <1>   0.0800 
 45 H       -6.8390   -10.0220    -3.5440 H     1 <1>   0.1500 
 46 H       -6.4860    -8.4050    -2.8930 H     1 <1>   0.1500 
 47 H       -8.7150   -11.1980    -0.7770 H     1 <1>   0.0800 
 48 H       -8.5660   -11.4410    -2.4970 H     1 <1>   0.0800 
 49 H       -9.8980   -10.5110    -1.8690 H     1 <1>   0.0800 
@<TRIPOS>BOND
  1   1   2  1   
  2   2   3  ar  
  3   2   4  ar  
  4   3   5  1   
  5   3   6  ar  
  6   4   7  ar  
  7   4  28  1   
  8   5   8  1   
  9   6   9  ar  
 10   6  29  1   
 11   7   9  ar  
 12   7  30  1   
 13   8  31  1   
 14   8  32  1   
 15   8  33  1   
 16   9  10  1   
 17  10  11  1   
 18  10  12  2   
 19  11  13  1   
 20  12  14  1   
 21  12  15  1   
 22  13  14  2   
 23  14  16  1   
 24  15  17  ar  
 25  15  18  ar  
 26  16  19  1   
 27  16  20  1   
 28  19  21  1   
 29  19  34  1   
 30  19  35  1   
 31  20  22  1   
 32  20  36  1   
 33  20  37  1   
 34  21  23  1   
 35  21  38  1   
 36  21  39  1   
 37  22  23  1   
 38  22  40  1   
 39  22  41  1   
 40  23  24  1   
 41  23  42  1   
 42  24  25  1   
 43  24  43  1   
 44  24  44  1   
 45  25  26  2   
 46  25  27  1   
 47  26  45  1   
 48  26  46  1   
 49  27  47  1   
 50  27  48  1   
 51  27  49  1   
@<TRIPOS>SUBSTRUCTURE
  1 ****  12 GROUP 4 **** **** 0

# MOE 2024.06 (io_trps.svl 2023.06)
