@<TRIPOS>MOLECULE
NONAME
38 39 1 0 0 
SMALL
USER_CHARGES


@<TRIPOS>ATOM
  1 O        3.6510    -0.1120     1.2730 O.2   1 <1>  -0.5700 
  2 C        2.5780    -0.5260     0.9020 C.2   1 <1>   0.5690 
  3 N        1.6020     0.3130     0.4700 N.am  1 <1>  -0.7300 
  4 C        2.3080    -2.0220     0.9150 C.3   1 <1>   0.0390 
  5 C        1.7150     1.7890     0.4370 C.3   1 <1>   0.1400 
  6 C        1.3760    -2.4690    -0.2090 C.2   1 <1>  -0.2880 
  7 C        2.4390     2.2330    -0.8330 C.3   1 <1>   0.0200 
  8 C        0.1610    -2.9950    -0.0340 C.2   1 <1>  -0.2880 
  9 C        2.7990     3.7000    -0.7310 C.2   1 <1>   0.0060 
 10 C       -0.7560    -3.4360    -1.1590 C.3   1 <1>  -0.1020 
 11 N        3.9160     4.1210    -0.0840 N.pl3 1 <1>   0.0330 
 12 N        2.0910     4.6530    -1.2280 N.2   1 <1>  -0.5650 
 13 C        3.9150     5.4730    -0.1820 C.ar  1 <1>  -0.1520 
 14 C        2.7740     5.7850    -0.8970 C.ar  1 <1>   0.2270 
 15 C        4.7830     6.4670     0.2740 C.ar  1 <1>  -0.1500 
 16 C        2.4760     7.1170    -1.1740 C.ar  1 <1>  -0.1500 
 17 C        4.4840     7.7850    -0.0030 C.ar  1 <1>  -0.1440 
 18 C        3.3270     8.1050    -0.7280 C.ar  1 <1>  -0.1500 
 19 C        5.3900     8.9080     0.4670 C.3   1 <1>  -0.0970 
 20 H        0.7350    -0.0970     0.1110 H     1 <1>   0.3700 
 21 H        3.2440    -2.5430     0.8260 H     1 <1>   0.0800 
 22 H        1.8820    -2.2740     1.8680 H     1 <1>   0.0800 
 23 H        0.7370     2.2370     0.4800 H     1 <1>   0.0800 
 24 H        2.2720     2.1130     1.3010 H     1 <1>   0.0800 
 25 H        1.8080    -2.3130    -1.1850 H     1 <1>   0.1500 
 26 H        1.8000     2.0820    -1.6840 H     1 <1>   0.0800 
 27 H        3.3380     1.6590    -0.9680 H     1 <1>   0.0800 
 28 H       -0.2740    -3.1540     0.9400 H     1 <1>   0.1500 
 29 H       -1.6790    -2.8850    -1.1210 H     1 <1>   0.0800 
 30 H       -0.9740    -4.4850    -1.0650 H     1 <1>   0.0800 
 31 H       -0.2940    -3.2660    -2.1160 H     1 <1>   0.0800 
 32 H        4.6150     3.5390     0.3850 H     1 <1>   0.2700 
 33 H        5.6630     6.1950     0.8280 H     1 <1>   0.1500 
 34 H        1.5860     7.3390    -1.7320 H     1 <1>   0.1500 
 35 H        3.1050     9.1370    -0.9380 H     1 <1>   0.1500 
 36 H        4.8440     9.5740     1.1090 H     1 <1>   0.0800 
 37 H        5.7550     9.4610    -0.3800 H     1 <1>   0.0800 
 38 H        6.2320     8.5200     1.0110 H     1 <1>   0.0800 
@<TRIPOS>BOND
  1   1   2  2   
  2   2   3  am  
  3   2   4  1   
  4   3   5  1   
  5   3  20  1   
  6   4   6  1   
  7   4  21  1   
  8   4  22  1   
  9   5   7  1   
 10   5  23  1   
 11   5  24  1   
 12   6   8  2   
 13   6  25  1   
 14   7   9  1   
 15   7  26  1   
 16   7  27  1   
 17   8  10  1   
 18   8  28  1   
 19   9  11  1   
 20   9  12  2   
 21  10  29  1   
 22  10  30  1   
 23  10  31  1   
 24  11  13  1   
 25  11  32  1   
 26  12  14  1   
 27  13  14  ar  
 28  13  15  ar  
 29  14  16  ar  
 30  15  17  ar  
 31  15  33  1   
 32  16  18  ar  
 33  16  34  1   
 34  17  18  ar  
 35  17  19  1   
 36  18  35  1   
 37  19  36  1   
 38  19  37  1   
 39  19  38  1   
@<TRIPOS>SUBSTRUCTURE
  1 ****   7 GROUP 4 **** **** 0

# MOE 2024.06 (io_trps.svl 2023.06)
