@<TRIPOS>MOLECULE
NONAME
42 44 1 0 0 
SMALL
USER_CHARGES


@<TRIPOS>ATOM
  1 F       -0.3660    -1.6590     0.2800 F     1 <1>  -0.1900 
  2 C       -1.6140    -1.9390    -0.0080 C.ar  1 <1>   0.1900 
  3 C       -2.4470    -0.9760    -0.5190 C.ar  1 <1>   0.1600 
  4 C       -2.1090    -3.2030     0.2000 C.ar  1 <1>   0.1600 
  5 N       -3.7000    -1.2520    -0.8090 N.ar  1 <1>  -0.6200 
  6 N       -3.3630    -3.5040    -0.0820 N.ar  1 <1>  -0.6200 
  7 C       -4.0970    -2.5050    -0.5930 C.ar  1 <1>   0.7200 
  8 N       -5.4030    -2.7950    -0.9070 N.pl3 1 <1>  -0.8380 
  9 C       -5.8640    -4.1790    -1.1150 C.3   1 <1>   0.2090 
 10 C       -6.4980    -1.9040    -0.4470 C.3   1 <1>   0.2090 
 11 C       -6.4910    -4.6010     0.2270 C.3   1 <1>   0.4230 
 12 C       -7.2550    -2.5530     0.7400 C.3   1 <1>  -0.1600 
 13 N       -6.2550    -6.0440     0.6210 N.4   1 <1>  -0.9590 
 14 C       -7.9600    -3.9710     0.3780 C.3   1 <1>   0.0000 
 15 C       -6.7610    -6.9900    -0.3890 C.3   1 <1>   0.3430 
 16 C       -4.8100    -6.2830     0.9290 C.3   1 <1>   0.2630 
 17 C       -8.7060    -5.3430    -0.0500 C.3   1 <1>  -0.1600 
 18 C       -9.4000    -3.3080     0.6090 C.3   1 <1>   0.1200 
 19 C       -8.0560    -6.4280    -0.9460 C.3   1 <1>  -0.1600 
 20 O       -9.7490    -2.5660    -0.5170 O.3   1 <1>  -0.6800 
 21 H       -2.0800     0.0220    -0.6870 H     1 <1>   0.1500 
 22 H       -1.4630    -3.9630     0.6020 H     1 <1>   0.1500 
 23 H       -6.5940    -4.1860    -1.9060 H     1 <1>   0.0800 
 24 H       -5.0410    -4.8100    -1.3960 H     1 <1>   0.0800 
 25 H       -6.1040    -0.9480    -0.1460 H     1 <1>   0.0800 
 26 H       -7.1790    -1.7310    -1.2650 H     1 <1>   0.0800 
 27 H       -5.8520    -4.1070     0.9340 H     1 <1>   0.0800 
 28 H       -6.6000    -2.6200     1.5930 H     1 <1>   0.0800 
 29 H       -7.8740    -1.7230     1.0400 H     1 <1>   0.0800 
 30 H       -6.8010    -6.1890     1.4800 H     1 <1>   0.4500 
 31 H       -6.0470    -7.1130    -1.1880 H     1 <1>   0.0800 
 32 H       -6.9370    -7.9510     0.0670 H     1 <1>   0.0800 
 33 H       -4.2060    -6.1300     0.0490 H     1 <1>   0.0800 
 34 H       -4.6600    -7.2910     1.2820 H     1 <1>   0.0800 
 35 H       -4.4720    -5.5970     1.6900 H     1 <1>   0.0800 
 36 H       -9.0450    -5.8370     0.8470 H     1 <1>   0.0800 
 37 H       -9.5850    -5.1540    -0.6530 H     1 <1>   0.0800 
 38 H       -9.4670    -2.6730     1.4780 H     1 <1>   0.0800 
 39 H      -10.2240    -3.9780     0.8060 H     1 <1>   0.0800 
 40 H       -7.8740    -6.0270    -1.9280 H     1 <1>   0.0800 
 41 H       -8.7460    -7.2430    -1.0820 H     1 <1>   0.0800 
 42 H      -10.6280    -2.1470    -0.4090 H     1 <1>   0.4000 
@<TRIPOS>BOND
  1   1   2  1   
  2   2   3  ar  
  3   2   4  ar  
  4   3   5  ar  
  5   3  21  1   
  6   4   6  ar  
  7   4  22  1   
  8   5   7  ar  
  9   6   7  ar  
 10   7   8  1   
 11   8   9  1   
 12   8  10  1   
 13   9  11  1   
 14   9  23  1   
 15   9  24  1   
 16  10  12  1   
 17  10  25  1   
 18  10  26  1   
 19  11  13  1   
 20  11  14  1   
 21  11  27  1   
 22  12  14  1   
 23  12  28  1   
 24  12  29  1   
 25  13  15  1   
 26  13  16  1   
 27  13  30  1   
 28  14  17  1   
 29  14  18  1   
 30  15  19  1   
 31  15  31  1   
 32  15  32  1   
 33  16  33  1   
 34  16  34  1   
 35  16  35  1   
 36  17  19  1   
 37  17  36  1   
 38  17  37  1   
 39  18  20  1   
 40  18  38  1   
 41  18  39  1   
 42  19  40  1   
 43  19  41  1   
 44  20  42  1   
@<TRIPOS>SUBSTRUCTURE
  1 ****   8 GROUP 4 **** **** 0

# MOE 2024.06 (io_trps.svl 2023.06)
