@<TRIPOS>MOLECULE
NONAME
48 50 1 0 0 
SMALL
USER_CHARGES


@<TRIPOS>ATOM
  1 S       -1.0390     0.6870    -1.4830 S.3   1 <1>  -0.3320 
  2 C       -2.1010     1.7180    -0.4630 C.ar  1 <1>   0.1020 
  3 C        0.5210     0.5110    -0.4970 C.3   1 <1>   0.2140 
  4 C       -2.4740     1.3350     0.8280 C.ar  1 <1>   0.0860 
  5 C       -2.5280     2.9080    -1.0240 C.ar  1 <1>  -0.1500 
  6 C        0.9240    -0.9550    -0.4410 C.ar  1 <1>  -0.1440 
  7 C       -2.1120     0.0610     1.4090 C.2   1 <1>   0.5440 
  8 C       -3.2560     2.2320     1.5550 C.ar  1 <1>  -0.1500 
  9 C       -3.3170     3.7710    -0.2850 C.ar  1 <1>  -0.1500 
 10 C        1.1540    -1.5570     0.7900 C.ar  1 <1>  -0.1500 
 11 C        1.0800    -1.6910    -1.6100 C.ar  1 <1>  -0.1500 
 12 O       -1.3020     0.0320     2.3160 O.2   1 <1>  -0.5700 
 13 N       -2.6820    -1.1190     0.9790 N.am  1 <1>  -0.6600 
 14 C       -3.6750     3.4330     1.0090 C.ar  1 <1>  -0.1500 
 15 C        1.5350    -2.8870     0.8600 C.ar  1 <1>  -0.1500 
 16 C        1.4590    -3.0220    -1.5540 C.ar  1 <1>  -0.1500 
 17 C       -2.2610    -2.4370     1.5660 C.3   1 <1>   0.1400 
 18 C       -3.7750    -1.1550    -0.0450 C.3   1 <1>   0.1400 
 19 C        1.6800    -3.5950    -0.3160 C.ar  1 <1>   0.1900 
 20 C       -2.4650    -3.5870     0.5670 C.3   1 <1>   0.2000 
 21 C       -4.6970    -2.3570     0.1840 C.3   1 <1>  -0.1600 
 22 F        2.0400    -4.8490    -0.2560 F     1 <1>  -0.1900 
 23 O       -1.6870    -3.3280    -0.5510 O.3   1 <1>  -0.6800 
 24 C       -3.9540    -3.7190     0.1620 C.3   1 <1>  -0.0800 
 25 C       -4.1130    -4.4580    -1.1810 C.3   1 <1>   0.1200 
 26 O       -5.4450    -4.7920    -1.3810 O.3   1 <1>  -0.6800 
 27 H        1.2720     1.0970    -0.9940 H     1 <1>   0.0800 
 28 H        0.3410     0.9160     0.4820 H     1 <1>   0.0800 
 29 H       -2.2370     3.1600    -2.0290 H     1 <1>   0.1500 
 30 H       -3.5400     1.9740     2.5610 H     1 <1>   0.1500 
 31 H       -3.6480     4.7020    -0.7130 H     1 <1>   0.1500 
 32 H        1.0340    -0.9940     1.7010 H     1 <1>   0.1500 
 33 H        0.9040    -1.2320    -2.5680 H     1 <1>   0.1500 
 34 H       -4.2810     4.1080     1.5910 H     1 <1>   0.1500 
 35 H        1.7150    -3.3660     1.8050 H     1 <1>   0.1500 
 36 H        1.5780    -3.6070    -2.4470 H     1 <1>   0.1500 
 37 H       -1.2280    -2.4020     1.8630 H     1 <1>   0.0800 
 38 H       -2.8470    -2.6230     2.4490 H     1 <1>   0.0800 
 39 H       -4.3580    -0.2520     0.0030 H     1 <1>   0.0800 
 40 H       -3.3380    -1.2190    -1.0280 H     1 <1>   0.0800 
 41 H       -2.1150    -4.5150     0.9850 H     1 <1>   0.0800 
 42 H       -5.1710    -2.2290     1.1410 H     1 <1>   0.0800 
 43 H       -5.4790    -2.3420    -0.5540 H     1 <1>   0.0800 
 44 H       -1.4610    -2.3710    -0.5580 H     1 <1>   0.4000 
 45 H       -4.4120    -4.3360     0.9140 H     1 <1>   0.0800 
 46 H       -3.5320    -5.3650    -1.1950 H     1 <1>   0.0800 
 47 H       -3.7990    -3.8320    -2.0000 H     1 <1>   0.0800 
 48 H       -5.7400    -5.4430    -0.7170 H     1 <1>   0.4000 
@<TRIPOS>BOND
  1   1   2  1   
  2   1   3  1   
  3   2   4  ar  
  4   2   5  ar  
  5   3   6  1   
  6   3  27  1   
  7   3  28  1   
  8   4   7  1   
  9   4   8  ar  
 10   5   9  ar  
 11   5  29  1   
 12   6  10  ar  
 13   6  11  ar  
 14   7  12  2   
 15   7  13  am  
 16   8  14  ar  
 17   8  30  1   
 18   9  14  ar  
 19   9  31  1   
 20  10  15  ar  
 21  10  32  1   
 22  11  16  ar  
 23  11  33  1   
 24  13  17  1   
 25  13  18  1   
 26  14  34  1   
 27  15  19  ar  
 28  15  35  1   
 29  16  19  ar  
 30  16  36  1   
 31  17  20  1   
 32  17  37  1   
 33  17  38  1   
 34  18  21  1   
 35  18  39  1   
 36  18  40  1   
 37  19  22  1   
 38  20  23  1   
 39  20  24  1   
 40  20  41  1   
 41  21  24  1   
 42  21  42  1   
 43  21  43  1   
 44  23  44  1   
 45  24  25  1   
 46  24  45  1   
 47  25  26  1   
 48  25  46  1   
 49  25  47  1   
 50  26  48  1   
@<TRIPOS>SUBSTRUCTURE
  1 ****  13 GROUP 4 **** **** 0

# MOE 2024.06 (io_trps.svl 2023.06)
