@<TRIPOS>MOLECULE
NONAME
47 49 1 0 0 
SMALL
USER_CHARGES


@<TRIPOS>ATOM
  1 O        0.5240     2.4200     2.6410 O.2   1 <1>  -0.5700 
  2 C        0.5970     2.9660     1.5620 C.2   1 <1>   0.5690 
  3 N       -0.5150     3.4140     0.8960 N.am  1 <1>  -0.6600 
  4 C        1.9900     3.0590     0.9630 C.3   1 <1>   0.0440 
  5 C       -1.8860     3.2190     1.4630 C.3   1 <1>   0.1400 
  6 C       -0.5360     3.9110    -0.5080 C.3   1 <1>   0.1400 
  7 C        2.2530     1.9420    -0.0460 C.ar  1 <1>  -0.1440 
  8 C       -2.6900     2.1940     0.6210 C.3   1 <1>   0.0000 
  9 C       -1.2940     2.9130    -1.3910 C.3   1 <1>  -0.1600 
 10 C        2.0820     0.5980     0.2810 C.ar  1 <1>   0.0820 
 11 C        2.6890     2.2670    -1.3220 C.ar  1 <1>  -0.1500 
 12 C       -4.1120     2.0090     1.1800 C.3   1 <1>   0.2000 
 13 C       -2.7110     2.6440    -0.8560 C.3   1 <1>  -0.1600 
 14 C       -2.1100     0.7780     0.7870 C.3   1 <1>  -0.1600 
 15 O        1.6530     0.2080     1.4970 O.3   1 <1>  -0.5320 
 16 C        2.3450    -0.3920    -0.6500 C.ar  1 <1>  -0.1500 
 17 C        2.9480     1.2760    -2.2550 C.ar  1 <1>  -0.1500 
 18 O       -4.6650     3.2260     1.5880 O.3   1 <1>  -0.5600 
 19 C       -3.9730     1.0350     2.3560 C.3   1 <1>  -0.1600 
 20 C       -2.6710     0.2590     2.1130 C.3   1 <1>  -0.1600 
 21 C        2.7770    -0.0550    -1.9190 C.ar  1 <1>  -0.1500 
 22 C       -6.0380     3.1990     1.8180 C.3   1 <1>   0.0400 
 23 H        2.1260     4.0280     0.5220 H     1 <1>   0.0800 
 24 H        2.7100     2.9750     1.7560 H     1 <1>   0.0800 
 25 H       -1.8310     2.8970     2.4880 H     1 <1>   0.0800 
 26 H       -2.3920     4.1690     1.4550 H     1 <1>   0.0800 
 27 H       -1.0340     4.8650    -0.5310 H     1 <1>   0.0800 
 28 H        0.4560     4.0450    -0.8950 H     1 <1>   0.0800 
 29 H       -1.3570     3.3040    -2.3910 H     1 <1>   0.0800 
 30 H       -0.7340     1.9940    -1.4370 H     1 <1>   0.0800 
 31 H        2.8370     3.2950    -1.6040 H     1 <1>   0.1500 
 32 H       -4.7370     1.5760     0.4170 H     1 <1>   0.0800 
 33 H       -3.1920     1.9000    -1.4660 H     1 <1>   0.0800 
 34 H       -3.2880     3.5500    -0.9300 H     1 <1>   0.0800 
 35 H       -2.4660     0.1460    -0.0090 H     1 <1>   0.0800 
 36 H       -1.0350     0.7570     0.7750 H     1 <1>   0.0800 
 37 H        1.2890     0.9430     2.0510 H     1 <1>   0.4500 
 38 H        2.2080    -1.4220    -0.3730 H     1 <1>   0.1500 
 39 H        3.2870     1.5400    -3.2420 H     1 <1>   0.1500 
 40 H       -3.8990     1.5760     3.2830 H     1 <1>   0.0800 
 41 H       -4.8140     0.3670     2.3910 H     1 <1>   0.0800 
 42 H       -1.9710     0.4690     2.9060 H     1 <1>   0.0800 
 43 H       -2.8390    -0.8030     2.0730 H     1 <1>   0.0800 
 44 H        2.9800    -0.8260    -2.6410 H     1 <1>   0.1500 
 45 H       -6.3480     4.1890     2.1040 H     1 <1>   0.0800 
 46 H       -6.2560     2.5090     2.6140 H     1 <1>   0.0800 
 47 H       -6.5440     2.9080     0.9140 H     1 <1>   0.0800 
@<TRIPOS>BOND
  1   1   2  2   
  2   2   3  am  
  3   2   4  1   
  4   3   5  1   
  5   3   6  1   
  6   4   7  1   
  7   4  23  1   
  8   4  24  1   
  9   5   8  1   
 10   5  25  1   
 11   5  26  1   
 12   6   9  1   
 13   6  27  1   
 14   6  28  1   
 15   7  10  ar  
 16   7  11  ar  
 17   8  12  1   
 18   8  13  1   
 19   8  14  1   
 20   9  13  1   
 21   9  29  1   
 22   9  30  1   
 23  10  15  1   
 24  10  16  ar  
 25  11  17  ar  
 26  11  31  1   
 27  12  18  1   
 28  12  19  1   
 29  12  32  1   
 30  13  33  1   
 31  13  34  1   
 32  14  20  1   
 33  14  35  1   
 34  14  36  1   
 35  15  37  1   
 36  16  21  ar  
 37  16  38  1   
 38  17  21  ar  
 39  17  39  1   
 40  18  22  1   
 41  19  20  1   
 42  19  40  1   
 43  19  41  1   
 44  20  42  1   
 45  20  43  1   
 46  21  44  1   
 47  22  45  1   
 48  22  46  1   
 49  22  47  1   
@<TRIPOS>SUBSTRUCTURE
  1 ****   3 GROUP 4 **** **** 0

# MOE 2024.06 (io_trps.svl 2023.06)
