@<TRIPOS>MOLECULE
NONAME
50 52 1 0 0 
SMALL
USER_CHARGES


@<TRIPOS>ATOM
  1 O       -0.5610     0.1650    -0.6660 O.2   1 <1>  -0.5700 
  2 C       -1.3820     0.8180    -0.0500 C.2   1 <1>   0.5440 
  3 N       -2.5130     0.1830     0.4150 N.am  1 <1>  -0.6600 
  4 C       -1.1620     2.2390     0.1510 C.ar  1 <1>   0.0860 
  5 C       -2.6180    -1.3090     0.4620 C.3   1 <1>   0.1400 
  6 C       -3.8450     0.8540     0.5110 C.3   1 <1>   0.1400 
  7 C       -0.6490     3.0310    -0.8750 C.ar  1 <1>  -0.1500 
  8 C       -1.4480     2.8620     1.3690 C.ar  1 <1>  -0.1500 
  9 C       -3.6710    -1.8180    -0.5370 C.3   1 <1>   0.3440 
 10 C       -4.8420     0.2390    -0.5010 C.3   1 <1>   0.2000 
 11 C       -0.4540     4.3880    -0.6940 C.ar  1 <1>   0.0820 
 12 C       -1.2550     4.2200     1.5510 C.ar  1 <1>  -0.1500 
 13 O       -4.8900    -1.1540    -0.3250 O.3   1 <1>  -0.5600 
 14 C       -3.8740    -3.3230    -0.3850 C.ar  1 <1>  -0.1430 
 15 C       -6.2880     0.8160    -0.4220 C.3   1 <1>   0.0000 
 16 O        0.0380     5.1390    -1.6900 O.3   1 <1>  -0.5320 
 17 C       -0.7580     4.9890     0.5140 C.ar  1 <1>  -0.1500 
 18 C       -3.0990    -4.1970    -1.1330 C.ar  1 <1>  -0.1500 
 19 C       -4.8110    -3.8440     0.4990 C.ar  1 <1>  -0.1500 
 20 C       -7.1540     0.1810    -1.5270 C.3   1 <1>  -0.2400 
 21 C       -6.2860     2.3390    -0.6530 C.3   1 <1>  -0.2400 
 22 C       -6.9560     0.5300     0.9360 C.3   1 <1>  -0.2400 
 23 C       -3.2550    -5.5660    -1.0020 C.ar  1 <1>  -0.1500 
 24 C       -4.9690    -5.2130     0.6320 C.ar  1 <1>  -0.1500 
 25 C       -4.1900    -6.0750    -0.1190 C.ar  1 <1>  -0.1500 
 26 H       -1.6700    -1.7660     0.2390 H     1 <1>   0.0800 
 27 H       -2.9010    -1.6150     1.4530 H     1 <1>   0.0800 
 28 H       -4.2220     0.7390     1.5110 H     1 <1>   0.0800 
 29 H       -3.7440     1.9050     0.3090 H     1 <1>   0.0800 
 30 H       -0.4050     2.5660    -1.8130 H     1 <1>   0.1500 
 31 H       -1.8240     2.2670     2.1830 H     1 <1>   0.1500 
 32 H       -3.3480    -1.6040    -1.5410 H     1 <1>   0.0800 
 33 H       -4.4670     0.4240    -1.4930 H     1 <1>   0.0800 
 34 H       -1.4850     4.6800     2.4970 H     1 <1>   0.1500 
 35 H        0.2680     4.6250    -2.4840 H     1 <1>   0.4500 
 36 H       -0.6010     6.0460     0.6360 H     1 <1>   0.1500 
 37 H       -2.3660    -3.8160    -1.8240 H     1 <1>   0.1500 
 38 H       -5.4240    -3.1810     1.0850 H     1 <1>   0.1500 
 39 H       -8.1500     0.5860    -1.5150 H     1 <1>   0.0800 
 40 H       -7.2250    -0.8840    -1.3850 H     1 <1>   0.0800 
 41 H       -6.7250     0.3620    -2.4960 H     1 <1>   0.0800 
 42 H       -7.2940     2.7120    -0.6990 H     1 <1>   0.0800 
 43 H       -5.7970     2.5800    -1.5800 H     1 <1>   0.0800 
 44 H       -5.7850     2.8560     0.1460 H     1 <1>   0.0800 
 45 H       -7.9720     0.8810     0.9370 H     1 <1>   0.0800 
 46 H       -6.4360     1.0180     1.7390 H     1 <1>   0.0800 
 47 H       -6.9680    -0.5280     1.1320 H     1 <1>   0.0800 
 48 H       -2.6490    -6.2350    -1.5870 H     1 <1>   0.1500 
 49 H       -5.6990    -5.6040     1.3180 H     1 <1>   0.1500 
 50 H       -4.3120    -7.1390    -0.0160 H     1 <1>   0.1500 
@<TRIPOS>BOND
  1   1   2  2   
  2   2   3  am  
  3   2   4  1   
  4   3   5  1   
  5   3   6  1   
  6   4   7  ar  
  7   4   8  ar  
  8   5   9  1   
  9   5  26  1   
 10   5  27  1   
 11   6  10  1   
 12   6  28  1   
 13   6  29  1   
 14   7  11  ar  
 15   7  30  1   
 16   8  12  ar  
 17   8  31  1   
 18   9  13  1   
 19   9  14  1   
 20   9  32  1   
 21  10  13  1   
 22  10  15  1   
 23  10  33  1   
 24  11  16  1   
 25  11  17  ar  
 26  12  17  ar  
 27  12  34  1   
 28  14  18  ar  
 29  14  19  ar  
 30  15  20  1   
 31  15  21  1   
 32  15  22  1   
 33  16  35  1   
 34  17  36  1   
 35  18  23  ar  
 36  18  37  1   
 37  19  24  ar  
 38  19  38  1   
 39  20  39  1   
 40  20  40  1   
 41  20  41  1   
 42  21  42  1   
 43  21  43  1   
 44  21  44  1   
 45  22  45  1   
 46  22  46  1   
 47  22  47  1   
 48  23  25  ar  
 49  23  48  1   
 50  24  25  ar  
 51  24  49  1   
 52  25  50  1   
@<TRIPOS>SUBSTRUCTURE
  1 ****   3 GROUP 4 **** **** 0

# MOE 2024.06 (io_trps.svl 2023.06)
