@<TRIPOS>MOLECULE
NONAME
33 33 1 0 0 
SMALL
USER_CHARGES


@<TRIPOS>ATOM
  1 N        0.0540    -0.1780    -0.4330 N.4   1 <1>  -0.8530 
  2 C        0.2050    -1.5670     0.0150 C.3   1 <1>   0.4230 
  3 C        0.9900    -2.3470    -1.0390 C.3   1 <1>  -0.1600 
  4 C       -1.1800    -2.1770     0.2230 C.3   1 <1>  -0.1600 
  5 C        1.1070    -3.8280    -0.6500 C.3   1 <1>  -0.1600 
  6 C       -1.0730    -3.6570     0.6190 C.3   1 <1>  -0.1600 
  7 C       -0.2760    -4.4870    -0.4190 C.3   1 <1>  -0.0800 
  8 C       -0.1980    -6.0150    -0.0800 C.3   1 <1>   0.0000 
  9 C        0.5190    -6.7840    -1.2050 C.3   1 <1>  -0.2400 
 10 C       -1.6120    -6.6170     0.0340 C.3   1 <1>  -0.2400 
 11 C        0.5450    -6.3040     1.2370 C.3   1 <1>  -0.2400 
 12 H        0.9710     0.2570    -0.5740 H     1 <1>   0.4500 
 13 H       -0.4650     0.3690     0.2610 H     1 <1>   0.4500 
 14 H       -0.4600    -0.1500    -1.3190 H     1 <1>   0.4500 
 15 H        0.7460    -1.5970     0.9490 H     1 <1>   0.0800 
 16 H        1.9810    -1.9410    -1.1380 H     1 <1>   0.0800 
 17 H        0.4960    -2.2850    -1.9940 H     1 <1>   0.0800 
 18 H       -1.7580    -2.1090    -0.6830 H     1 <1>   0.0800 
 19 H       -1.7010    -1.6520     1.0050 H     1 <1>   0.0800 
 20 H        1.7050    -3.9100     0.2410 H     1 <1>   0.0800 
 21 H        1.6330    -4.3340    -1.4400 H     1 <1>   0.0800 
 22 H       -2.0720    -4.0430     0.7150 H     1 <1>   0.0800 
 23 H       -0.6030    -3.7300     1.5840 H     1 <1>   0.0800 
 24 H       -0.8120    -4.4140    -1.3510 H     1 <1>   0.0800 
 25 H        0.0710    -6.5700    -2.1590 H     1 <1>   0.0800 
 26 H        0.4560    -7.8460    -1.0390 H     1 <1>   0.0800 
 27 H        1.5630    -6.5350    -1.2510 H     1 <1>   0.0800 
 28 H       -2.1930    -6.3930    -0.8420 H     1 <1>   0.0800 
 29 H       -2.1310    -6.2460     0.8980 H     1 <1>   0.0800 
 30 H       -1.5600    -7.6880     0.1340 H     1 <1>   0.0800 
 31 H        1.5620    -5.9590     1.1970 H     1 <1>   0.0800 
 32 H        0.5700    -7.3640     1.4220 H     1 <1>   0.0800 
 33 H        0.0550    -5.8410     2.0730 H     1 <1>   0.0800 
@<TRIPOS>BOND
  1   1   2  1   
  2   1  12  1   
  3   1  13  1   
  4   1  14  1   
  5   2   3  1   
  6   2   4  1   
  7   2  15  1   
  8   3   5  1   
  9   3  16  1   
 10   3  17  1   
 11   4   6  1   
 12   4  18  1   
 13   4  19  1   
 14   5   7  1   
 15   5  20  1   
 16   5  21  1   
 17   6   7  1   
 18   6  22  1   
 19   6  23  1   
 20   7   8  1   
 21   7  24  1   
 22   8   9  1   
 23   8  10  1   
 24   8  11  1   
 25   9  25  1   
 26   9  26  1   
 27   9  27  1   
 28  10  28  1   
 29  10  29  1   
 30  10  30  1   
 31  11  31  1   
 32  11  32  1   
 33  11  33  1   
@<TRIPOS>SUBSTRUCTURE
  1 ****   7 GROUP 4 **** **** 0

# MOE 2024.06 (io_trps.svl 2023.06)
