@<TRIPOS>MOLECULE
NONAME
37 39 1 0 0 
SMALL
USER_CHARGES


@<TRIPOS>ATOM
  1 O       -0.0490    -0.7870     1.0130 O.3   1 <1>  -0.5600 
  2 C        0.9260     0.1810     1.2290 C.3   1 <1>   0.1200 
  3 C       -1.3090    -0.1950     1.0320 C.3   1 <1>   0.1200 
  4 C        0.4020     1.4260     0.5280 C.3   1 <1>   0.2890 
  5 C       -1.1120     1.2710     0.6290 C.3   1 <1>  -0.0800 
  6 N        0.8520     2.6780     1.1810 N.pl3 1 <1>  -0.8690 
  7 C       -1.8210     1.6510    -0.6800 C.3   1 <1>  -0.0170 
  8 C        0.7030     3.8420     0.4930 C.ar  1 <1>   0.4100 
  9 C       -3.3310     1.6120    -0.5150 C.ar  1 <1>  -0.1440 
 10 N       -0.2410     4.6280     0.9680 N.ar  1 <1>  -0.6200 
 11 C        1.4870     4.1370    -0.6160 C.ar  1 <1>  -0.1500 
 12 C       -4.1050     0.5880    -1.0240 C.ar  1 <1>  -0.1500 
 13 C       -4.0050     2.6100     0.1580 C.ar  1 <1>  -0.1500 
 14 C       -0.4390     5.7760     0.3170 C.ar  1 <1>   0.3830 
 15 C        1.2890     5.3160    -1.2910 C.ar  1 <1>  -0.1500 
 16 C       -5.4770     0.6100    -0.8350 C.ar  1 <1>   0.1600 
 17 C       -5.3820     2.5370     0.2910 C.ar  1 <1>   0.1600 
 18 C       -1.4710     6.6620     0.7900 C.1   1 <1>   0.4840 
 19 C        0.2990     6.1450    -0.8030 C.ar  1 <1>  -0.1500 
 20 N       -6.1340     1.5590    -0.1880 N.ar  1 <1>  -0.6200 
 21 N       -2.2910     7.3840     1.1270 N.1   1 <1>  -0.5570 
 22 H        1.0140     0.3360     2.2910 H     1 <1>   0.0800 
 23 H        1.8590    -0.1580     0.8160 H     1 <1>   0.0800 
 24 H       -1.9480    -0.7350     0.3550 H     1 <1>   0.0800 
 25 H       -1.6990    -0.2710     2.0330 H     1 <1>   0.0800 
 26 H        0.7250     1.4020    -0.4990 H     1 <1>   0.0800 
 27 H       -1.4950     1.8840     1.4250 H     1 <1>   0.0800 
 28 H        0.4180     2.7750     2.1020 H     1 <1>   0.4000 
 29 H       -1.5170     0.9860    -1.4700 H     1 <1>   0.0800 
 30 H       -1.5340     2.6480    -0.9660 H     1 <1>   0.0800 
 31 H        2.2420     3.4380    -0.9240 H     1 <1>   0.1500 
 32 H       -3.6570    -0.2250    -1.5650 H     1 <1>   0.1500 
 33 H       -3.4730     3.4440     0.5820 H     1 <1>   0.1500 
 34 H        1.8780     5.5820    -2.1530 H     1 <1>   0.1500 
 35 H       -6.0650    -0.1960    -1.2380 H     1 <1>   0.1500 
 36 H       -5.8900     3.3250     0.8200 H     1 <1>   0.1500 
 37 H        0.1000     7.0820    -1.2920 H     1 <1>   0.1500 
@<TRIPOS>BOND
  1   1   2  1   
  2   1   3  1   
  3   2   4  1   
  4   2  22  1   
  5   2  23  1   
  6   3   5  1   
  7   3  24  1   
  8   3  25  1   
  9   4   5  1   
 10   4   6  1   
 11   4  26  1   
 12   5   7  1   
 13   5  27  1   
 14   6   8  1   
 15   6  28  1   
 16   7   9  1   
 17   7  29  1   
 18   7  30  1   
 19   8  10  ar  
 20   8  11  ar  
 21   9  12  ar  
 22   9  13  ar  
 23  10  14  ar  
 24  11  15  ar  
 25  11  31  1   
 26  12  16  ar  
 27  12  32  1   
 28  13  17  ar  
 29  13  33  1   
 30  14  18  1   
 31  14  19  ar  
 32  15  19  ar  
 33  15  34  1   
 34  16  20  ar  
 35  16  35  1   
 36  17  20  ar  
 37  17  36  1   
 38  18  21  3   
 39  19  37  1   
@<TRIPOS>SUBSTRUCTURE
  1 ****   7 GROUP 4 **** **** 0

# MOE 2024.06 (io_trps.svl 2023.06)
