@<TRIPOS>MOLECULE
NONAME
46 49 1 0 0 
SMALL
USER_CHARGES


@<TRIPOS>ATOM
  1 O       -0.1800     0.1060     0.6760 O.2   1 <1>  -0.5700 
  2 C        0.8600    -0.5220     0.7340 C.2   1 <1>   0.5440 
  3 N        2.0690     0.1270     0.6170 N.am  1 <1>  -0.4940 
  4 C        0.8430    -1.9610     0.8920 C.ar  1 <1>   0.0860 
  5 C        2.3510     1.5160     0.5720 C.2   1 <1>  -0.0880 
  6 C       -0.1310    -2.7340     0.2790 C.ar  1 <1>  -0.1500 
  7 C        1.8220    -2.6210     1.6700 C.ar  1 <1>  -0.1500 
  8 N        3.5480     2.0720     0.2300 N.pl3 1 <1>   0.3140 
  9 C        1.5250     2.5500     0.8590 C.2   1 <1>  -0.1500 
 10 C       -0.1290    -4.1230     0.4040 C.ar  1 <1>   0.0000 
 11 C        1.8390    -3.9880     1.8060 C.ar  1 <1>  -0.1500 
 12 N        3.5000     3.4270     0.3080 N.2   1 <1>  -0.7070 
 13 C        4.7790     1.3410    -0.1920 C.3   1 <1>   0.1760 
 14 C        2.2870     3.6950     0.6800 C.2   1 <1>   0.1390 
 15 C        0.8570    -4.7420     1.1620 C.ar  1 <1>  -0.1520 
 16 C       -0.9580    -5.1550    -0.0940 C.2   1 <1>  -0.1810 
 17 C        5.9330     1.4900     0.8010 C.3   1 <1>  -0.1600 
 18 C        5.3660     1.8370    -1.5130 C.3   1 <1>  -0.1600 
 19 N        0.6400    -6.0920     1.1260 N.pl3 1 <1>   0.0330 
 20 C       -0.4670    -6.3340     0.3590 C.2   1 <1>  -0.3320 
 21 C       -2.1650    -4.8830    -0.9730 C.3   1 <1>  -0.0590 
 22 C        7.2060     1.2310    -0.0120 C.3   1 <1>  -0.1600 
 23 C        6.8170     1.3530    -1.4920 C.3   1 <1>  -0.1600 
 24 C       -0.9590    -7.7540     0.1340 C.3   1 <1>  -0.0600 
 25 H        2.8650    -0.5020     0.5280 H     1 <1>   0.3700 
 26 H       -0.9010    -2.2650    -0.3060 H     1 <1>   0.1500 
 27 H        2.5640    -2.0340     2.1790 H     1 <1>   0.1500 
 28 H        0.4950     2.5130     1.1640 H     1 <1>   0.1500 
 29 H        2.5870    -4.4830     2.4000 H     1 <1>   0.1500 
 30 H        4.5480     0.2990    -0.2990 H     1 <1>   0.0800 
 31 H        1.9220     4.6960     0.8310 H     1 <1>   0.1500 
 32 H        5.8400     0.8080     1.6280 H     1 <1>   0.0800 
 33 H        5.9570     2.5020     1.1730 H     1 <1>   0.0800 
 34 H        5.3580     2.9140    -1.5360 H     1 <1>   0.0800 
 35 H        4.8260     1.4560    -2.3620 H     1 <1>   0.0800 
 36 H        1.2090    -6.7980     1.6020 H     1 <1>   0.2700 
 37 H       -2.8560    -4.2470    -0.4520 H     1 <1>   0.0800 
 38 H       -2.6670    -5.7950    -1.2350 H     1 <1>   0.0800 
 39 H       -1.8520    -4.3920    -1.8770 H     1 <1>   0.0800 
 40 H        7.5870     0.2440     0.1860 H     1 <1>   0.0800 
 41 H        7.9650     1.9510     0.2450 H     1 <1>   0.0800 
 42 H        7.4620     2.0380    -2.0160 H     1 <1>   0.0800 
 43 H        6.8840     0.3870    -1.9620 H     1 <1>   0.0800 
 44 H       -1.8320    -7.7650    -0.4910 H     1 <1>   0.0800 
 45 H       -1.2110    -8.2090     1.0750 H     1 <1>   0.0800 
 46 H       -0.1930    -8.3380    -0.3440 H     1 <1>   0.0800 
@<TRIPOS>BOND
  1   1   2  2   
  2   2   3  am  
  3   2   4  1   
  4   3   5  1   
  5   3  25  1   
  6   4   6  ar  
  7   4   7  ar  
  8   5   8  1   
  9   5   9  2   
 10   6  10  ar  
 11   6  26  1   
 12   7  11  ar  
 13   7  27  1   
 14   8  12  1   
 15   8  13  1   
 16   9  14  1   
 17   9  28  1   
 18  10  15  ar  
 19  10  16  1   
 20  11  15  ar  
 21  11  29  1   
 22  12  14  2   
 23  13  17  1   
 24  13  18  1   
 25  13  30  1   
 26  14  31  1   
 27  15  19  1   
 28  16  20  2   
 29  16  21  1   
 30  17  22  1   
 31  17  32  1   
 32  17  33  1   
 33  18  23  1   
 34  18  34  1   
 35  18  35  1   
 36  19  20  1   
 37  19  36  1   
 38  20  24  1   
 39  21  37  1   
 40  21  38  1   
 41  21  39  1   
 42  22  23  1   
 43  22  40  1   
 44  22  41  1   
 45  23  42  1   
 46  23  43  1   
 47  24  44  1   
 48  24  45  1   
 49  24  46  1   
@<TRIPOS>SUBSTRUCTURE
  1 ****   2 GROUP 4 **** **** 0

# MOE 2024.06 (io_trps.svl 2023.06)
