@<TRIPOS>MOLECULE
NONAME
51 54 1 0 0 
SMALL
USER_CHARGES


@<TRIPOS>ATOM
  1 O        1.9910     0.8880     0.5410 O.2   1 <1>  -0.5700 
  2 C        1.6650    -0.2320     0.2400 C.2   1 <1>   0.5950 
  3 C        2.5550    -1.3540     0.1560 C.2   1 <1>  -0.0860 
  4 C        0.1990    -0.5090    -0.0830 C.3   1 <1>  -0.0990 
  5 C        3.9150    -1.5330     0.5240 C.2   1 <1>  -0.0860 
  6 C        2.1590    -2.5610    -0.3090 C.2   1 <1>  -0.0400 
  7 C        0.0150    -1.6070    -1.1590 C.3   1 <1>  -0.1600 
  8 C        4.1700    -2.8450     0.2630 C.2   1 <1>  -0.0400 
  9 C        4.8030    -0.5350     1.0670 C.2   1 <1>   0.7160 
 10 O        3.1190    -3.4410    -0.2430 O.3   1 <1>  -0.2800 
 11 C        0.7790    -2.9060    -0.8300 C.3   1 <1>   0.0200 
 12 C        5.4220    -3.6740     0.4660 C.3   1 <1>  -0.0600 
 13 O        5.4490    -0.7630     2.0720 O.2   1 <1>  -0.5700 
 14 N        5.0150     0.6630     0.4310 N.am  1 <1>  -0.6600 
 15 C        5.4620     1.8580     1.2370 C.3   1 <1>   0.2200 
 16 C        4.9080     0.7730    -1.0540 C.3   1 <1>   0.1400 
 17 C        4.7010     3.1380     0.8570 C.3   1 <1>   0.1200 
 18 C        6.9930     2.0570     1.1460 C.3   1 <1>   0.3430 
 19 C        5.7400     1.9130    -1.6760 C.3   1 <1>  -0.0800 
 20 O        5.3140     3.7940    -0.2110 O.3   1 <1>  -0.5600 
 21 N        7.5900     1.3020    -0.0080 N.4   1 <1>  -0.9590 
 22 C        5.0680     3.2800    -1.4750 C.3   1 <1>   0.1200 
 23 C        7.2430     1.9430    -1.3170 C.3   1 <1>   0.3430 
 24 C        9.1030     1.2760     0.1520 C.3   1 <1>   0.2370 
 25 C        9.7810     2.6480     0.0830 C.2   1 <1>   0.9060 
 26 O       10.0800     3.0850    -1.0320 O.co2 1 <1>  -0.9000 
 27 O        9.8840     3.2950     1.1280 O.co2 1 <1>  -0.9000 
 28 H       -0.2890    -0.8100     0.8260 H     1 <1>   0.0800 
 29 H       -0.2620     0.4020    -0.4180 H     1 <1>   0.0800 
 30 H       -1.0320    -1.8260    -1.2850 H     1 <1>   0.0800 
 31 H        0.3820    -1.2270    -2.0970 H     1 <1>   0.0800 
 32 H        0.8650    -3.5160    -1.7120 H     1 <1>   0.0800 
 33 H        0.2570    -3.4690    -0.0770 H     1 <1>   0.0800 
 34 H        6.2060    -3.0840     0.9030 H     1 <1>   0.0800 
 35 H        5.7590    -4.0630    -0.4780 H     1 <1>   0.0800 
 36 H        5.2040    -4.4970     1.1220 H     1 <1>   0.0800 
 37 H        5.2220     1.6740     2.2700 H     1 <1>   0.0800 
 38 H        5.2220    -0.1600    -1.4910 H     1 <1>   0.0800 
 39 H        3.8730     0.9140    -1.3140 H     1 <1>   0.0800 
 40 H        4.7310     3.8210     1.6880 H     1 <1>   0.0800 
 41 H        3.6680     2.9350     0.6260 H     1 <1>   0.0800 
 42 H        7.4330     1.7030     2.0630 H     1 <1>   0.0800 
 43 H        7.2300     3.1070     1.0660 H     1 <1>   0.0800 
 44 H        5.7000     1.7530    -2.7380 H     1 <1>   0.0800 
 45 H        7.1900     0.3580     0.0380 H     1 <1>   0.4500 
 46 H        4.0030     3.2300    -1.6300 H     1 <1>   0.0800 
 47 H        5.4750     3.9890    -2.1770 H     1 <1>   0.0800 
 48 H        7.5870     2.9670    -1.3150 H     1 <1>   0.0800 
 49 H        7.7890     1.4350    -2.0950 H     1 <1>   0.0800 
 50 H        9.3610     0.8440     1.1020 H     1 <1>   0.0800 
 51 H        9.5400     0.6730    -0.6230 H     1 <1>   0.0800 
@<TRIPOS>BOND
  1   1   2  2   
  2   2   3  1   
  3   2   4  1   
  4   3   5  1   
  5   3   6  2   
  6   4   7  1   
  7   4  28  1   
  8   4  29  1   
  9   5   8  2   
 10   5   9  1   
 11   6  10  1   
 12   6  11  1   
 13   7  11  1   
 14   7  30  1   
 15   7  31  1   
 16   8  10  1   
 17   8  12  1   
 18   9  13  2   
 19   9  14  am  
 20  11  32  1   
 21  11  33  1   
 22  12  34  1   
 23  12  35  1   
 24  12  36  1   
 25  14  15  1   
 26  14  16  1   
 27  15  17  1   
 28  15  18  1   
 29  15  37  1   
 30  16  19  1   
 31  16  38  1   
 32  16  39  1   
 33  17  20  1   
 34  17  40  1   
 35  17  41  1   
 36  18  21  1   
 37  18  42  1   
 38  18  43  1   
 39  19  22  1   
 40  19  23  1   
 41  19  44  1   
 42  20  22  1   
 43  21  23  1   
 44  21  24  1   
 45  21  45  1   
 46  22  46  1   
 47  22  47  1   
 48  23  48  1   
 49  23  49  1   
 50  24  25  1   
 51  24  50  1   
 52  24  51  1   
 53  25  26  ar  
 54  25  27  ar  
@<TRIPOS>SUBSTRUCTURE
  1 ****  14 GROUP 4 **** **** 0

# MOE 2024.06 (io_trps.svl 2023.06)
