@<TRIPOS>MOLECULE
NONAME
62 66 1 0 0 
SMALL
USER_CHARGES


@<TRIPOS>ATOM
  1 O       -0.7590    -0.0190     1.2960 O.2   1 <1>  -0.5700 
  2 C       -1.7250     0.7070     1.2650 C.2   1 <1>   0.5690 
  3 N       -2.9910     0.2150     1.4080 N.am  1 <1>  -0.6600 
  4 C       -1.5180     2.2000     1.0690 C.3   1 <1>  -0.0990 
  5 C       -4.2520     0.9800     1.2810 C.3   1 <1>   0.1400 
  6 C       -3.2770    -1.2250     1.5650 C.3   1 <1>   0.1400 
  7 C       -0.0420     2.6210     1.1400 C.3   1 <1>   0.0200 
  8 C       -5.3320    -0.0580     0.9430 C.3   1 <1>  -0.0800 
  9 C       -4.6330    -1.4370     0.8930 C.3   1 <1>  -0.0800 
 10 C        0.1110     4.1220     1.0000 C.2   1 <1>   0.2980 
 11 C       -6.1950     0.2960    -0.2960 C.3   1 <1>   0.4240 
 12 C       -4.4780    -1.9900    -0.5350 C.3   1 <1>  -0.1600 
 13 O       -0.2920     4.8880     1.9790 O.3   1 <1>  -0.0190 
 14 N        0.6080     4.7260     0.0030 N.2   1 <1>  -0.5650 
 15 O       -5.3720     0.7560    -1.3100 O.3   1 <1>  -0.6800 
 16 C       -7.2310     1.3840     0.0560 C.ar  1 <1>  -0.1440 
 17 C       -6.8430    -0.9830    -0.8540 C.3   1 <1>  -0.1600 
 18 C       -5.8230    -2.0620    -1.2860 C.3   1 <1>  -0.1600 
 19 N       -0.0230     6.0880     1.5710 N.2   1 <1>  -0.4100 
 20 C        0.5040     6.0000     0.4000 C.2   1 <1>   0.4620 
 21 C       -8.3020     1.0800     0.8930 C.ar  1 <1>  -0.1500 
 22 C       -7.1310     2.6880    -0.4230 C.ar  1 <1>  -0.1500 
 23 C        0.9900     7.0910    -0.4260 C.ar  1 <1>   0.0540 
 24 C       -9.2400     2.0390     1.2340 C.ar  1 <1>  -0.1500 
 25 C       -8.0670     3.6500    -0.0840 C.ar  1 <1>  -0.1500 
 26 C        0.3070     8.3080    -0.5700 C.ar  1 <1>   0.0820 
 27 C        2.1950     6.9390    -1.1130 C.ar  1 <1>  -0.1500 
 28 C       -9.1240     3.3270     0.7450 C.ar  1 <1>  -0.1500 
 29 O       -0.8830     8.4550     0.0690 O.3   1 <1>  -0.3620 
 30 C        0.8390     9.3230    -1.3630 C.ar  1 <1>  -0.1500 
 31 C        2.7180     7.9470    -1.9000 C.ar  1 <1>  -0.1500 
 32 C       -1.5710     9.6860     0.1230 C.3   1 <1>   0.0400 
 33 C        2.0400     9.1440    -2.0240 C.ar  1 <1>  -0.1500 
 34 H       -1.9150     2.4770     0.1090 H     1 <1>   0.0800 
 35 H       -2.0700     2.7230     1.8280 H     1 <1>   0.0800 
 36 H       -4.4800     1.4580     2.2180 H     1 <1>   0.0800 
 37 H       -4.1590     1.7380     0.5230 H     1 <1>   0.0800 
 38 H       -2.5030    -1.8290     1.1200 H     1 <1>   0.0800 
 39 H       -3.3390    -1.4510     2.6160 H     1 <1>   0.0800 
 40 H        0.5080     2.1380     0.3520 H     1 <1>   0.0800 
 41 H        0.3830     2.3140     2.0790 H     1 <1>   0.0800 
 42 H       -5.9930    -0.0900     1.7890 H     1 <1>   0.0800 
 43 H       -5.1980    -2.1550     1.4630 H     1 <1>   0.0800 
 44 H       -3.7900    -1.3650    -1.0790 H     1 <1>   0.0800 
 45 H       -4.0400    -2.9730    -0.4990 H     1 <1>   0.0800 
 46 H       -4.7860     0.0220    -1.5650 H     1 <1>   0.4000 
 47 H       -7.4670    -1.4080    -0.0900 H     1 <1>   0.0800 
 48 H       -7.4880    -0.7290    -1.6770 H     1 <1>   0.0800 
 49 H       -6.2670    -3.0300    -1.1290 H     1 <1>   0.0800 
 50 H       -5.6330    -1.9720    -2.3430 H     1 <1>   0.0800 
 51 H       -8.4210     0.0900     1.2940 H     1 <1>   0.1500 
 52 H       -6.3210     2.9740    -1.0720 H     1 <1>   0.1500 
 53 H      -10.0630     1.7840     1.8790 H     1 <1>   0.1500 
 54 H       -7.9700     4.6500    -0.4680 H     1 <1>   0.1500 
 55 H        2.7320     6.0100    -1.0240 H     1 <1>   0.1500 
 56 H       -9.8530     4.0740     1.0080 H     1 <1>   0.1500 
 57 H        0.3320    10.2610    -1.4840 H     1 <1>   0.1500 
 58 H        3.6520     7.8010    -2.4160 H     1 <1>   0.1500 
 59 H       -2.4370     9.5550     0.7460 H     1 <1>   0.0800 
 60 H       -1.8730     9.9620    -0.8710 H     1 <1>   0.0800 
 61 H       -0.9220    10.4280     0.5530 H     1 <1>   0.0800 
 62 H        2.4450     9.9320    -2.6350 H     1 <1>   0.1500 
@<TRIPOS>BOND
  1   1   2  2   
  2   2   3  am  
  3   2   4  1   
  4   3   5  1   
  5   3   6  1   
  6   4   7  1   
  7   4  34  1   
  8   4  35  1   
  9   5   8  1   
 10   5  36  1   
 11   5  37  1   
 12   6   9  1   
 13   6  38  1   
 14   6  39  1   
 15   7  10  1   
 16   7  40  1   
 17   7  41  1   
 18   8   9  1   
 19   8  11  1   
 20   8  42  1   
 21   9  12  1   
 22   9  43  1   
 23  10  13  1   
 24  10  14  2   
 25  11  15  1   
 26  11  16  1   
 27  11  17  1   
 28  12  18  1   
 29  12  44  1   
 30  12  45  1   
 31  13  19  1   
 32  14  20  1   
 33  15  46  1   
 34  16  21  ar  
 35  16  22  ar  
 36  17  18  1   
 37  17  47  1   
 38  17  48  1   
 39  18  49  1   
 40  18  50  1   
 41  19  20  2   
 42  20  23  1   
 43  21  24  ar  
 44  21  51  1   
 45  22  25  ar  
 46  22  52  1   
 47  23  26  ar  
 48  23  27  ar  
 49  24  28  ar  
 50  24  53  1   
 51  25  28  ar  
 52  25  54  1   
 53  26  29  1   
 54  26  30  ar  
 55  27  31  ar  
 56  27  55  1   
 57  28  56  1   
 58  29  32  1   
 59  30  33  ar  
 60  30  57  1   
 61  31  33  ar  
 62  31  58  1   
 63  32  59  1   
 64  32  60  1   
 65  32  61  1   
 66  33  62  1   
@<TRIPOS>SUBSTRUCTURE
  1 ****   4 GROUP 4 **** **** 0

# MOE 2024.06 (io_trps.svl 2023.06)
