@<TRIPOS>MOLECULE
NONAME
45 47 1 0 0 
SMALL
USER_CHARGES


@<TRIPOS>ATOM
  1 O        1.1320     1.3000    -0.5630 O.3   1 <1>  -0.6800 
  2 C        1.6050     0.1500     0.0320 C.3   1 <1>   0.2800 
  3 C        2.9900     0.4590     0.6490 C.3   1 <1>  -0.0800 
  4 C        1.7070    -0.9080    -1.0820 C.3   1 <1>  -0.1600 
  5 C        0.5640    -0.2810     1.0960 C.3   1 <1>  -0.1600 
  6 C        3.8190    -0.7820     1.0170 C.3   1 <1>  -0.0800 
  7 C        3.9410     1.2770    -0.2270 C.3   1 <1>   0.2090 
  8 C        2.4300    -2.1800    -0.6150 C.3   1 <1>  -0.1600 
  9 C        0.1450     0.7950     2.1180 C.3   1 <1>  -0.2400 
 10 C        3.8340    -1.8410    -0.1070 C.3   1 <1>  -0.1600 
 11 C        5.2250    -0.2090     1.2120 C.3   1 <1>   0.2090 
 12 N        5.2980     0.9300     0.2680 N.pl3 1 <1>  -0.8380 
 13 C        6.4450     1.2860    -0.4000 C.ar  1 <1>   0.7200 
 14 N        7.5910     0.7780     0.0550 N.ar  1 <1>  -0.6200 
 15 N        6.3080     2.1090    -1.4380 N.ar  1 <1>  -0.6200 
 16 C        8.6760     1.1290    -0.5850 C.ar  1 <1>   0.1670 
 17 C        7.4070     2.4460    -2.0620 C.ar  1 <1>   0.1670 
 18 C        8.6360     1.9750    -1.6680 C.ar  1 <1>  -0.1500 
 19 C        9.9840     0.5610    -0.0780 C.3   1 <1>  -0.0970 
 20 C        7.2620     3.3820    -3.2420 C.3   1 <1>  -0.0970 
 21 H        0.2250     1.1460    -0.8830 H     1 <1>   0.4000 
 22 H        2.8490     1.0370     1.5420 H     1 <1>   0.0800 
 23 H        0.7260    -1.1720    -1.4350 H     1 <1>   0.0800 
 24 H        2.2530    -0.4970    -1.9130 H     1 <1>   0.0800 
 25 H       -0.3230    -0.6270     0.5950 H     1 <1>   0.0800 
 26 H        0.9530    -1.1210     1.6430 H     1 <1>   0.0800 
 27 H        3.4620    -1.2280     1.9280 H     1 <1>   0.0800 
 28 H        3.7560     2.3330    -0.1280 H     1 <1>   0.0800 
 29 H        3.8560     0.9970    -1.2620 H     1 <1>   0.0800 
 30 H        1.8680    -2.6680     0.1620 H     1 <1>   0.0800 
 31 H        2.5090    -2.8680    -1.4400 H     1 <1>   0.0800 
 32 H       -0.2510     1.6630     1.6210 H     1 <1>   0.0800 
 33 H        0.9760     1.0980     2.7270 H     1 <1>   0.0800 
 34 H       -0.6170     0.4020     2.7670 H     1 <1>   0.0800 
 35 H        4.4170    -1.4760    -0.9370 H     1 <1>   0.0800 
 36 H        4.3140    -2.7360     0.2500 H     1 <1>   0.0800 
 37 H        5.9860    -0.9440     1.0130 H     1 <1>   0.0800 
 38 H        5.3450     0.1660     2.2140 H     1 <1>   0.0800 
 39 H        9.5310     2.2570    -2.1870 H     1 <1>   0.1500 
 40 H       10.8120     0.9100    -0.6670 H     1 <1>   0.0800 
 41 H        9.9490    -0.5120    -0.1230 H     1 <1>   0.0800 
 42 H       10.1310     0.8600     0.9440 H     1 <1>   0.0800 
 43 H        8.2160     3.5990    -3.6850 H     1 <1>   0.0800 
 44 H        6.8110     4.3010    -2.9160 H     1 <1>   0.0800 
 45 H        6.6270     2.9300    -3.9820 H     1 <1>   0.0800 
@<TRIPOS>BOND
  1   1   2  1   
  2   1  21  1   
  3   2   3  1   
  4   2   4  1   
  5   2   5  1   
  6   3   6  1   
  7   3   7  1   
  8   3  22  1   
  9   4   8  1   
 10   4  23  1   
 11   4  24  1   
 12   5   9  1   
 13   5  25  1   
 14   5  26  1   
 15   6  10  1   
 16   6  11  1   
 17   6  27  1   
 18   7  12  1   
 19   7  28  1   
 20   7  29  1   
 21   8  10  1   
 22   8  30  1   
 23   8  31  1   
 24   9  32  1   
 25   9  33  1   
 26   9  34  1   
 27  10  35  1   
 28  10  36  1   
 29  11  12  1   
 30  11  37  1   
 31  11  38  1   
 32  12  13  1   
 33  13  14  ar  
 34  13  15  ar  
 35  14  16  ar  
 36  15  17  ar  
 37  16  18  ar  
 38  16  19  1   
 39  17  18  ar  
 40  17  20  1   
 41  18  39  1   
 42  19  40  1   
 43  19  41  1   
 44  19  42  1   
 45  20  43  1   
 46  20  44  1   
 47  20  45  1   
@<TRIPOS>SUBSTRUCTURE
  1 ****  12 GROUP 4 **** **** 0

# MOE 2024.06 (io_trps.svl 2023.06)
