@<TRIPOS>MOLECULE
NONAME
55 58 1 0 0 
SMALL
USER_CHARGES


@<TRIPOS>ATOM
  1 O       -0.2350    -2.3880     2.0180 O.co2 1 <1>  -0.9000 
  2 C        0.3870    -3.0660     1.1850 C.2   1 <1>   1.0330 
  3 O        0.9150    -4.1320     1.5540 O.co2 1 <1>  -0.9000 
  4 C        0.3900    -2.6980    -0.1920 C.2   1 <1>  -0.2330 
  5 C       -0.5280    -3.1440    -1.1450 C.2   1 <1>   0.3720 
  6 C        1.2190    -1.8860    -0.8940 C.2   1 <1>   0.0870 
  7 N       -0.2640    -2.6560    -2.3040 N.2   1 <1>  -0.4100 
  8 N       -1.6270    -3.9860    -0.9250 N.pl3 1 <1>  -0.8210 
  9 O        0.7930    -1.9030    -2.1360 O.3   1 <1>  -0.0190 
 10 C        2.3680    -1.0930    -0.5250 C.ar  1 <1>   0.0530 
 11 C       -1.3110    -5.1430    -0.0470 C.3   1 <1>   0.2090 
 12 C       -2.7990    -3.2140    -0.4620 C.3   1 <1>   0.2090 
 13 C        3.3100    -0.7070    -1.4800 C.ar  1 <1>  -0.1500 
 14 C        2.5850    -0.6740     0.7880 C.ar  1 <1>  -0.1500 
 15 C       -2.1670    -6.3630    -0.3910 C.3   1 <1>   0.2000 
 16 C       -4.0700    -4.0680    -0.4940 C.3   1 <1>  -0.1600 
 17 C        4.4150     0.0540    -1.1440 C.ar  1 <1>  -0.1500 
 18 C        3.6880     0.0850     1.1320 C.ar  1 <1>  -0.1500 
 19 O       -3.4910    -6.3640     0.1260 O.3   1 <1>  -0.5600 
 20 C       -1.4510    -7.6110     0.1460 C.3   1 <1>   0.3430 
 21 C       -4.0790    -5.1700     0.5720 C.3   1 <1>   0.1200 
 22 C        4.6080     0.4520     0.1660 C.ar  1 <1>  -0.1500 
 23 N       -2.4080    -8.7510     0.2680 N.4   1 <1>  -0.9590 
 24 C       -2.0040    -9.7130     1.3260 C.3   1 <1>   0.3430 
 25 C       -2.6890    -9.3930    -1.0450 C.3   1 <1>   0.3430 
 26 C       -3.1080   -10.7540     1.5220 C.3   1 <1>  -0.1600 
 27 C       -3.8040   -10.4280    -0.8800 C.3   1 <1>  -0.1600 
 28 C       -3.4690   -11.4590     0.2070 C.3   1 <1>  -0.1600 
 29 H       -1.4230    -4.8890     0.9940 H     1 <1>   0.0800 
 30 H       -0.2790    -5.4040    -0.2100 H     1 <1>   0.0800 
 31 H       -2.9300    -2.3650    -1.1140 H     1 <1>   0.0800 
 32 H       -2.6170    -2.8380     0.5330 H     1 <1>   0.0800 
 33 H        3.1730    -1.0130    -2.5020 H     1 <1>   0.1500 
 34 H        1.8790    -0.9410     1.5560 H     1 <1>   0.1500 
 35 H       -2.2380    -6.4290    -1.4620 H     1 <1>   0.0800 
 36 H       -4.2300    -4.4750    -1.4760 H     1 <1>   0.0800 
 37 H       -4.8900    -3.4060    -0.2830 H     1 <1>   0.0800 
 38 H        5.1250     0.3340    -1.9020 H     1 <1>   0.1500 
 39 H        3.8260     0.3880     2.1560 H     1 <1>   0.1500 
 40 H       -1.0570    -7.3670     1.1200 H     1 <1>   0.0800 
 41 H       -0.6190    -7.8660    -0.4890 H     1 <1>   0.0800 
 42 H       -5.0990    -5.4070     0.8210 H     1 <1>   0.0800 
 43 H       -3.5860    -4.8470     1.4740 H     1 <1>   0.0800 
 44 H        5.4660     1.0420     0.4340 H     1 <1>   0.1500 
 45 H       -3.2870    -8.2810     0.5580 H     1 <1>   0.4500 
 46 H       -1.8320    -9.1910     2.2540 H     1 <1>   0.0800 
 47 H       -1.0900   -10.2070     1.0380 H     1 <1>   0.0800 
 48 H       -1.7990    -9.8760    -1.4130 H     1 <1>   0.0800 
 49 H       -2.9960    -8.6470    -1.7610 H     1 <1>   0.0800 
 50 H       -3.9800   -10.2720     1.9300 H     1 <1>   0.0800 
 51 H       -2.7800   -11.4840     2.2400 H     1 <1>   0.0800 
 52 H       -3.9560   -10.9330    -1.8170 H     1 <1>   0.0800 
 53 H       -4.7210    -9.9210    -0.6350 H     1 <1>   0.0800 
 54 H       -4.3120   -12.1130     0.3620 H     1 <1>   0.0800 
 55 H       -2.6390   -12.0650    -0.1160 H     1 <1>   0.0800 
@<TRIPOS>BOND
  1   1   2  ar  
  2   2   3  ar  
  3   2   4  1   
  4   4   5  1   
  5   4   6  2   
  6   5   7  2   
  7   5   8  1   
  8   6   9  1   
  9   6  10  1   
 10   7   9  1   
 11   8  11  1   
 12   8  12  1   
 13  10  13  ar  
 14  10  14  ar  
 15  11  15  1   
 16  11  29  1   
 17  11  30  1   
 18  12  16  1   
 19  12  31  1   
 20  12  32  1   
 21  13  17  ar  
 22  13  33  1   
 23  14  18  ar  
 24  14  34  1   
 25  15  19  1   
 26  15  20  1   
 27  15  35  1   
 28  16  21  1   
 29  16  36  1   
 30  16  37  1   
 31  17  22  ar  
 32  17  38  1   
 33  18  22  ar  
 34  18  39  1   
 35  19  21  1   
 36  20  23  1   
 37  20  40  1   
 38  20  41  1   
 39  21  42  1   
 40  21  43  1   
 41  22  44  1   
 42  23  24  1   
 43  23  25  1   
 44  23  45  1   
 45  24  26  1   
 46  24  46  1   
 47  24  47  1   
 48  25  27  1   
 49  25  48  1   
 50  25  49  1   
 51  26  28  1   
 52  26  50  1   
 53  26  51  1   
 54  27  28  1   
 55  27  52  1   
 56  27  53  1   
 57  28  54  1   
 58  28  55  1   
@<TRIPOS>SUBSTRUCTURE
  1 ****  11 GROUP 4 **** **** 0

# MOE 2024.06 (io_trps.svl 2023.06)
