@<TRIPOS>MOLECULE
NONAME
51 54 1 0 0 
SMALL
USER_CHARGES


@<TRIPOS>ATOM
  1 O        1.1030    -0.2910    -1.8090 O.2   1 <1>  -0.5700 
  2 C        1.8580    -0.8260    -1.0230 C.2   1 <1>   0.7150 
  3 N        2.8220    -0.0560    -0.4060 N.am  1 <1>  -0.6600 
  4 C        1.7490    -2.2370    -0.7590 C.2   1 <1>  -0.2370 
  5 C        3.5420    -0.5340     0.8340 C.3   1 <1>   0.2200 
  6 C        3.0450     1.3450    -0.8890 C.3   1 <1>   0.1400 
  7 N        0.5660    -2.8470    -0.3980 N.pl3 1 <1>   0.0480 
  8 C        2.7180    -3.1990    -0.8090 C.2   1 <1>  -0.1500 
  9 C        3.4510     0.4650     2.0000 C.3   1 <1>   0.1200 
 10 C        5.0160    -0.8780     0.5180 C.3   1 <1>   0.3430 
 11 C        4.3490     2.0090    -0.4050 C.3   1 <1>  -0.0800 
 12 C        0.8100    -4.1840    -0.1900 C.ar  1 <1>  -0.1520 
 13 C       -0.7640    -2.2020    -0.3350 C.3   1 <1>   0.0160 
 14 C        2.1540    -4.4280    -0.4400 C.ar  1 <1>   0.0000 
 15 O        4.4770     1.4090     1.9250 O.3   1 <1>  -0.5600 
 16 N        5.4850    -0.2590    -0.7730 N.4   1 <1>  -0.9590 
 17 C        4.2560     2.4680     1.0580 C.3   1 <1>   0.1200 
 18 C        5.6510     1.2290    -0.6860 C.3   1 <1>   0.3430 
 19 C       -0.0350    -5.2290     0.1990 C.ar  1 <1>  -0.1500 
 20 C        2.6690    -5.7220    -0.3000 C.ar  1 <1>  -0.1500 
 21 C        6.7240    -0.9190    -1.2770 C.3   1 <1>   0.2630 
 22 C        0.4790    -6.4980     0.3380 C.ar  1 <1>  -0.1500 
 23 C        1.8420    -6.7490     0.0880 C.ar  1 <1>   0.0820 
 24 O        2.4100    -7.9810     0.2100 O.3   1 <1>  -0.3630 
 25 C        1.6280    -9.1130     0.5220 C.3   1 <1>   0.0400 
 26 H        3.0660    -1.4280     1.1950 H     1 <1>   0.0800 
 27 H        3.0440     1.3360    -1.9670 H     1 <1>   0.0800 
 28 H        2.2030     1.9460    -0.5850 H     1 <1>   0.0800 
 29 H        3.7480    -3.0910    -1.0910 H     1 <1>   0.1500 
 30 H        3.5930    -0.0630     2.9270 H     1 <1>   0.0800 
 31 H        2.4920     0.9540     2.0370 H     1 <1>   0.0800 
 32 H        5.0940    -1.9500     0.4450 H     1 <1>   0.0800 
 33 H        5.6460    -0.5640     1.3350 H     1 <1>   0.0800 
 34 H        4.4280     2.9240    -0.9640 H     1 <1>   0.0800 
 35 H       -0.6700    -1.2160     0.0800 H     1 <1>   0.0800 
 36 H       -1.4250    -2.7810     0.2800 H     1 <1>   0.0800 
 37 H       -1.1660    -2.1310    -1.3300 H     1 <1>   0.0800 
 38 H        4.7040    -0.4200    -1.4320 H     1 <1>   0.4500 
 39 H        3.3010     2.9160     1.2800 H     1 <1>   0.0800 
 40 H        5.0200     3.1990     1.2610 H     1 <1>   0.0800 
 41 H        6.3740     1.4680     0.0770 H     1 <1>   0.0800 
 42 H        6.0470     1.5790    -1.6260 H     1 <1>   0.0800 
 43 H       -1.0760    -5.0400     0.3870 H     1 <1>   0.1500 
 44 H        3.7070    -5.9100    -0.4970 H     1 <1>   0.1500 
 45 H        7.5380    -0.7650    -0.5860 H     1 <1>   0.0800 
 46 H        7.0030    -0.5100    -2.2350 H     1 <1>   0.0800 
 47 H        6.5640    -1.9790    -1.3920 H     1 <1>   0.0800 
 48 H       -0.1770    -7.2920     0.6390 H     1 <1>   0.1500 
 49 H        2.2750    -9.9720     0.5330 H     1 <1>   0.0800 
 50 H        0.8720    -9.2350    -0.2330 H     1 <1>   0.0800 
 51 H        1.1880    -8.9770     1.4940 H     1 <1>   0.0800 
@<TRIPOS>BOND
  1   1   2  2   
  2   2   3  am  
  3   2   4  1   
  4   3   5  1   
  5   3   6  1   
  6   4   7  1   
  7   4   8  2   
  8   5   9  1   
  9   5  10  1   
 10   5  26  1   
 11   6  11  1   
 12   6  27  1   
 13   6  28  1   
 14   7  12  1   
 15   7  13  1   
 16   8  14  1   
 17   8  29  1   
 18   9  15  1   
 19   9  30  1   
 20   9  31  1   
 21  10  16  1   
 22  10  32  1   
 23  10  33  1   
 24  11  17  1   
 25  11  18  1   
 26  11  34  1   
 27  12  14  ar  
 28  12  19  ar  
 29  13  35  1   
 30  13  36  1   
 31  13  37  1   
 32  14  20  ar  
 33  15  17  1   
 34  16  18  1   
 35  16  21  1   
 36  16  38  1   
 37  17  39  1   
 38  17  40  1   
 39  18  41  1   
 40  18  42  1   
 41  19  22  ar  
 42  19  43  1   
 43  20  23  ar  
 44  20  44  1   
 45  21  45  1   
 46  21  46  1   
 47  21  47  1   
 48  22  23  ar  
 49  22  48  1   
 50  23  24  1   
 51  24  25  1   
 52  25  49  1   
 53  25  50  1   
 54  25  51  1   
@<TRIPOS>SUBSTRUCTURE
  1 ****   4 GROUP 4 **** **** 0

# MOE 2024.06 (io_trps.svl 2023.06)
