@<TRIPOS>MOLECULE
NONAME
42 44 1 0 0 
SMALL
USER_CHARGES


@<TRIPOS>ATOM
  1 CL       1.4740     1.6740     0.6150 Cl    1 <1>  -0.1770 
  2 C        2.0510     0.0690     0.2290 C.ar  1 <1>   0.1770 
  3 C        3.2740    -0.1270    -0.4260 C.ar  1 <1>   0.0860 
  4 C        1.2320    -0.9830     0.5930 C.ar  1 <1>  -0.1500 
  5 C        4.1610     0.9570    -0.8010 C.2   1 <1>   0.5440 
  6 C        3.6340    -1.4470    -0.7230 C.ar  1 <1>  -0.1500 
  7 C        1.6400    -2.2640     0.2880 C.ar  1 <1>   0.1900 
  8 O        4.7990     0.9100    -1.8370 O.2   1 <1>  -0.5700 
  9 N        4.4220     2.0180     0.0240 N.am  1 <1>  -0.6600 
 10 C        2.8290    -2.5160    -0.3690 C.ar  1 <1>  -0.1500 
 11 F        0.8810    -3.2670     0.6270 F     1 <1>  -0.1900 
 12 C        5.2390     1.7490     1.2590 C.3   1 <1>   0.2200 
 13 C        4.4370     3.3990    -0.5620 C.3   1 <1>   0.1400 
 14 C        5.0020     2.7960     2.3590 C.3   1 <1>   0.1200 
 15 C        6.7440     1.6170     0.9110 C.3   1 <1>   0.3430 
 16 C        5.6490     4.2680    -0.1740 C.3   1 <1>  -0.0800 
 17 O        5.8620     3.8840     2.2140 O.3   1 <1>  -0.5600 
 18 N        7.0670     2.1640    -0.4530 N.4   1 <1>  -0.9590 
 19 C        5.5230     4.8260     1.2530 C.3   1 <1>   0.1200 
 20 C        7.0390     3.6570    -0.4540 C.3   1 <1>   0.3430 
 21 C        8.4540     1.6920    -0.8580 C.3   1 <1>   0.2370 
 22 C        9.5660     2.0810     0.1210 C.2   1 <1>   0.9060 
 23 O       10.1120     3.1770    -0.0290 O.co2 1 <1>  -0.9000 
 24 O        9.7660     1.3370     1.0870 O.co2 1 <1>  -0.9000 
 25 H        0.2980    -0.8130     1.0970 H     1 <1>   0.1500 
 26 H        4.5590    -1.6340    -1.2440 H     1 <1>   0.1500 
 27 H        3.1100    -3.5300    -0.5980 H     1 <1>   0.1500 
 28 H        4.9180     0.8070     1.6680 H     1 <1>   0.0800 
 29 H        4.4010     3.3260    -1.6370 H     1 <1>   0.0800 
 30 H        3.5330     3.9000    -0.2590 H     1 <1>   0.0800 
 31 H        5.2350     2.3570     3.3140 H     1 <1>   0.0800 
 32 H        3.9800     3.1320     2.3800 H     1 <1>   0.0800 
 33 H        7.0120     0.5740     0.9410 H     1 <1>   0.0800 
 34 H        7.3440     2.1120     1.6590 H     1 <1>   0.0800 
 35 H        5.5890     5.1380    -0.8020 H     1 <1>   0.0800 
 36 H        6.3440     1.8070    -1.1080 H     1 <1>   0.4500 
 37 H        4.5280     5.1850     1.4540 H     1 <1>   0.0800 
 38 H        6.2070     5.6490     1.3780 H     1 <1>   0.0800 
 39 H        7.7470     4.0300     0.2720 H     1 <1>   0.0800 
 40 H        7.3720     3.9980    -1.4200 H     1 <1>   0.0800 
 41 H        8.4630     0.6200    -0.9350 H     1 <1>   0.0800 
 42 H        8.7140     2.1020    -1.8160 H     1 <1>   0.0800 
@<TRIPOS>BOND
  1   1   2  1   
  2   2   3  ar  
  3   2   4  ar  
  4   3   5  1   
  5   3   6  ar  
  6   4   7  ar  
  7   4  25  1   
  8   5   8  2   
  9   5   9  am  
 10   6  10  ar  
 11   6  26  1   
 12   7  10  ar  
 13   7  11  1   
 14   9  12  1   
 15   9  13  1   
 16  10  27  1   
 17  12  14  1   
 18  12  15  1   
 19  12  28  1   
 20  13  16  1   
 21  13  29  1   
 22  13  30  1   
 23  14  17  1   
 24  14  31  1   
 25  14  32  1   
 26  15  18  1   
 27  15  33  1   
 28  15  34  1   
 29  16  19  1   
 30  16  20  1   
 31  16  35  1   
 32  17  19  1   
 33  18  20  1   
 34  18  21  1   
 35  18  36  1   
 36  19  37  1   
 37  19  38  1   
 38  20  39  1   
 39  20  40  1   
 40  21  22  1   
 41  21  41  1   
 42  21  42  1   
 43  22  23  ar  
 44  22  24  ar  
@<TRIPOS>SUBSTRUCTURE
  1 ****   9 GROUP 4 **** **** 0

# MOE 2024.06 (io_trps.svl 2023.06)
