@<TRIPOS>MOLECULE
NONAME
52 54 1 0 0 
SMALL
USER_CHARGES


@<TRIPOS>ATOM
  1 O       -1.2280    -0.4090    -0.6900 O.2   1 <1>  -0.5700 
  2 C       -1.6650     0.6350    -0.2410 C.2   1 <1>   0.7670 
  3 N       -2.0670     0.6910     1.0630 N.2   1 <1>  -0.6610 
  4 C       -1.7370     1.7910    -1.0600 C.2   1 <1>  -0.1360 
  5 C       -2.5200     1.7990     1.5110 C.2   1 <1>   0.4390 
  6 C       -2.2020     2.9570    -0.5550 C.2   1 <1>  -0.0380 
  7 N       -2.6080     2.9390     0.7630 N.pl3 1 <1>  -0.5500 
  8 C       -2.9900     1.8900     2.9420 C.3   1 <1>  -0.1790 
  9 C       -2.2770     4.2470    -1.3610 C.3   1 <1>   0.4810 
 10 N       -1.2620     5.2140    -0.8470 N.4   1 <1>  -0.9590 
 11 C       -1.6600     6.6350    -1.1150 C.3   1 <1>   0.4230 
 12 C        0.1020     4.8090    -1.3110 C.3   1 <1>   0.4860 
 13 C       -0.5180     7.6340    -0.8540 C.3   1 <1>  -0.1600 
 14 C       -2.8680     6.9880    -0.2240 C.3   1 <1>  -0.1600 
 15 C        1.0320     4.8070    -0.1120 C.ar  1 <1>  -0.1430 
 16 C       -0.9670     9.0910    -1.0380 C.3   1 <1>  -0.1600 
 17 C       -3.3230     8.4410    -0.4170 C.3   1 <1>  -0.1600 
 18 C        2.0510     5.7450    -0.0110 C.ar  1 <1>  -0.1500 
 19 C        0.8850     3.8610     0.8940 C.ar  1 <1>  -0.1500 
 20 C       -2.1740     9.4180    -0.1550 C.3   1 <1>  -0.1600 
 21 C        2.8890     5.7660     1.0910 C.ar  1 <1>  -0.1430 
 22 C        1.7230     3.8750     1.9940 C.ar  1 <1>  -0.1500 
 23 C        2.7190     4.8280     2.0950 C.ar  1 <1>  -0.1500 
 24 C        3.9950     6.8020     1.1970 C.3   1 <1>  -0.0970 
 25 H       -1.4000     1.6610    -2.0710 H     1 <1>   0.1500 
 26 H       -3.0460     3.7410     1.2280 H     1 <1>   0.4000 
 27 H       -2.4100     2.6180     3.4780 H     1 <1>   0.0800 
 28 H       -2.8710     0.9370     3.4280 H     1 <1>   0.0800 
 29 H       -4.0290     2.1590     2.9750 H     1 <1>   0.0800 
 30 H       -3.2730     4.6460    -1.2730 H     1 <1>   0.0800 
 31 H       -2.0960     4.0420    -2.4040 H     1 <1>   0.0800 
 32 H       -1.2050     5.1070     0.1730 H     1 <1>   0.4500 
 33 H       -1.9530     6.7360    -2.1480 H     1 <1>   0.0800 
 34 H        0.4650     5.4780    -2.0730 H     1 <1>   0.0800 
 35 H        0.0810     3.8130    -1.7220 H     1 <1>   0.0800 
 36 H        0.2880     7.4720    -1.5440 H     1 <1>   0.0800 
 37 H       -0.1520     7.5160     0.1520 H     1 <1>   0.0800 
 38 H       -2.6030     6.8540     0.8110 H     1 <1>   0.0800 
 39 H       -3.7130     6.3630    -0.4430 H     1 <1>   0.0800 
 40 H       -1.2240     9.2670    -2.0700 H     1 <1>   0.0800 
 41 H       -0.1560     9.7540    -0.7890 H     1 <1>   0.0800 
 42 H       -4.1340     8.6610     0.2580 H     1 <1>   0.0800 
 43 H       -3.6880     8.5820    -1.4210 H     1 <1>   0.0800 
 44 H        2.2120     6.4720    -0.7880 H     1 <1>   0.1500 
 45 H        0.1360     3.0930     0.8420 H     1 <1>   0.1500 
 46 H       -2.5030    10.4250    -0.3530 H     1 <1>   0.0800 
 47 H       -1.8860     9.3700     0.8830 H     1 <1>   0.0800 
 48 H        1.6080     3.1400     2.7730 H     1 <1>   0.1500 
 49 H        3.3670     4.8310     2.9550 H     1 <1>   0.1500 
 50 H        3.7010     7.7220     0.7250 H     1 <1>   0.0800 
 51 H        4.8850     6.4350     0.7190 H     1 <1>   0.0800 
 52 H        4.2190     7.0110     2.2280 H     1 <1>   0.0800 
@<TRIPOS>BOND
  1   1   2  2   
  2   2   3  1   
  3   2   4  1   
  4   3   5  2   
  5   4   6  2   
  6   4  25  1   
  7   5   7  1   
  8   5   8  1   
  9   6   7  1   
 10   6   9  1   
 11   7  26  1   
 12   8  27  1   
 13   8  28  1   
 14   8  29  1   
 15   9  10  1   
 16   9  30  1   
 17   9  31  1   
 18  10  11  1   
 19  10  12  1   
 20  10  32  1   
 21  11  13  1   
 22  11  14  1   
 23  11  33  1   
 24  12  15  1   
 25  12  34  1   
 26  12  35  1   
 27  13  16  1   
 28  13  36  1   
 29  13  37  1   
 30  14  17  1   
 31  14  38  1   
 32  14  39  1   
 33  15  18  ar  
 34  15  19  ar  
 35  16  20  1   
 36  16  40  1   
 37  16  41  1   
 38  17  20  1   
 39  17  42  1   
 40  17  43  1   
 41  18  21  ar  
 42  18  44  1   
 43  19  22  ar  
 44  19  45  1   
 45  20  46  1   
 46  20  47  1   
 47  21  23  ar  
 48  21  24  1   
 49  22  23  ar  
 50  22  48  1   
 51  23  49  1   
 52  24  50  1   
 53  24  51  1   
 54  24  52  1   
@<TRIPOS>SUBSTRUCTURE
  1 ****  10 GROUP 4 **** **** 0

# MOE 2024.06 (io_trps.svl 2023.06)
