@<TRIPOS>MOLECULE
NONAME
39 40 1 0 0 
SMALL
USER_CHARGES


@<TRIPOS>ATOM
  1 S       -0.3740    -0.9510    -2.0700 S.3   1 <1>  -0.0800 
  2 C       -0.8520    -2.3900    -1.1820 C.2   1 <1>  -0.1400 
  3 C        0.7350    -1.8770    -3.0660 C.2   1 <1>  -0.1100 
  4 C       -0.1860    -3.4670    -1.6440 C.2   1 <1>  -0.1500 
  5 C       -1.8880    -2.1940    -0.0900 C.3   1 <1>   0.3200 
  6 C        0.7160    -3.1750    -2.7160 C.2   1 <1>  -0.1500 
  7 N       -2.3580    -3.5060     0.3840 N.am  1 <1>  -0.7300 
  8 C       -2.6390    -3.8350     1.6660 C.2   1 <1>   0.5690 
  9 O       -2.5710    -3.0310     2.5640 O.2   1 <1>  -0.5700 
 10 C       -3.0530    -5.2790     1.9750 C.3   1 <1>   0.1710 
 11 N       -3.6300    -6.0280     0.8150 N.3   1 <1>  -0.8100 
 12 C       -3.6830    -7.4780     1.1150 C.3   1 <1>   0.1100 
 13 C       -4.9800    -5.5280     0.4900 C.3   1 <1>   0.1100 
 14 C       -4.1350    -8.2670    -0.1250 C.3   1 <1>   0.2000 
 15 C       -5.5280    -6.2410    -0.7520 C.3   1 <1>  -0.1600 
 16 O       -3.2060    -8.0150    -1.1150 O.3   1 <1>  -0.6800 
 17 C       -5.5180    -7.7800    -0.5960 C.3   1 <1>  -0.0800 
 18 C       -5.9400    -8.4910    -1.8930 C.3   1 <1>   0.1200 
 19 O       -7.2510    -8.1570    -2.2050 O.3   1 <1>  -0.6800 
 20 H        1.2910    -1.3430    -3.8160 H     1 <1>   0.1500 
 21 H       -0.2850    -4.4720    -1.2720 H     1 <1>   0.1500 
 22 H       -2.7250    -1.6430    -0.4810 H     1 <1>   0.0800 
 23 H       -1.4590    -1.6370     0.7260 H     1 <1>   0.0800 
 24 H        1.3040    -3.9540    -3.1690 H     1 <1>   0.1500 
 25 H       -2.5010    -4.2260    -0.3270 H     1 <1>   0.3700 
 26 H       -3.7550    -5.2670     2.7890 H     1 <1>   0.0800 
 27 H       -2.1670    -5.7850     2.3150 H     1 <1>   0.0800 
 28 H       -2.7080    -7.8310     1.4090 H     1 <1>   0.0800 
 29 H       -4.3640    -7.6620     1.9280 H     1 <1>   0.0800 
 30 H       -5.6420    -5.6920     1.3240 H     1 <1>   0.0800 
 31 H       -4.9440    -4.4690     0.2950 H     1 <1>   0.0800 
 32 H       -4.1410    -9.3260     0.0680 H     1 <1>   0.0800 
 33 H       -6.5330    -5.9030    -0.9320 H     1 <1>   0.0800 
 34 H       -4.9390    -5.9550    -1.6050 H     1 <1>   0.0800 
 35 H       -3.0080    -7.0560    -1.0500 H     1 <1>   0.4000 
 36 H       -6.2200    -8.0480     0.1730 H     1 <1>   0.0800 
 37 H       -5.8810    -9.5600    -1.7860 H     1 <1>   0.0800 
 38 H       -5.3150    -8.1870    -2.7150 H     1 <1>   0.0800 
 39 H       -7.8650    -8.4910    -1.5250 H     1 <1>   0.4000 
@<TRIPOS>BOND
  1   1   2  1   
  2   1   3  1   
  3   2   4  2   
  4   2   5  1   
  5   3   6  2   
  6   3  20  1   
  7   4   6  1   
  8   4  21  1   
  9   5   7  1   
 10   5  22  1   
 11   5  23  1   
 12   6  24  1   
 13   7   8  am  
 14   7  25  1   
 15   8   9  2   
 16   8  10  1   
 17  10  11  1   
 18  10  26  1   
 19  10  27  1   
 20  11  12  1   
 21  11  13  1   
 22  12  14  1   
 23  12  28  1   
 24  12  29  1   
 25  13  15  1   
 26  13  30  1   
 27  13  31  1   
 28  14  16  1   
 29  14  17  1   
 30  14  32  1   
 31  15  17  1   
 32  15  33  1   
 33  15  34  1   
 34  16  35  1   
 35  17  18  1   
 36  17  36  1   
 37  18  19  1   
 38  18  37  1   
 39  18  38  1   
 40  19  39  1   
@<TRIPOS>SUBSTRUCTURE
  1 ****  11 GROUP 4 **** **** 0

# MOE 2024.06 (io_trps.svl 2023.06)
