@<TRIPOS>MOLECULE
NONAME
43 45 1 0 0 
SMALL
USER_CHARGES


@<TRIPOS>ATOM
  1 S        0.6580    -0.0730     0.0040 S.o2  1 <1>   1.3330 
  2 O        0.3650    -0.8860    -1.1540 O.2   1 <1>  -0.6500 
  3 O        0.9950    -0.7140     1.2550 O.2   1 <1>  -0.6500 
  4 N       -0.6690     0.9460     0.2890 N.am  1 <1>  -0.8490 
  5 C        1.9580     1.0710    -0.4490 C.3   1 <1>  -0.0550 
  6 C       -0.6250     1.6080     1.5980 C.3   1 <1>   0.1160 
  7 C       -1.9450     0.2450     0.1270 C.3   1 <1>   0.1160 
  8 C        3.2890     0.3760    -0.8040 C.3   1 <1>  -0.0800 
  9 C        4.3820     1.3050    -1.3150 C.3   1 <1>   0.2200 
 10 C        3.9600    -0.3310     0.3810 C.3   1 <1>   0.1200 
 11 N        4.3730     2.5790    -0.5630 N.am  1 <1>  -0.7300 
 12 C        5.6300     0.5130    -0.9520 C.3   1 <1>   0.1200 
 13 O        5.3350    -0.1090     0.2610 O.3   1 <1>  -0.5600 
 14 C        3.8950     3.7760    -1.0040 C.2   1 <1>   0.7160 
 15 O        3.5890     3.8880    -2.1780 O.2   1 <1>  -0.5700 
 16 C        3.7240     4.8700    -0.0610 C.2   1 <1>   0.1410 
 17 N        3.8580     4.7090     1.2840 N.2   1 <1>  -0.5650 
 18 C        3.4010     6.1670    -0.3370 C.2   1 <1>  -0.3020 
 19 C        3.6210     5.8870     1.7840 C.2   1 <1>   0.3120 
 20 N        3.3340     6.8320     0.8220 N.pl3 1 <1>   0.3340 
 21 N        3.6430     6.1880     3.1250 N.2   1 <1>  -0.5760 
 22 C        3.0580     8.1360     1.1870 C.2   1 <1>  -0.1810 
 23 C        3.3860     7.4090     3.4530 C.2   1 <1>   0.3760 
 24 C        3.0840     8.4330     2.5100 C.2   1 <1>  -0.1360 
 25 H        1.6330     1.6420    -1.2980 H     1 <1>   0.0800 
 26 H        2.1170     1.7550     0.3620 H     1 <1>   0.0800 
 27 H       -1.4480     2.2960     1.6920 H     1 <1>   0.0800 
 28 H        0.2910     2.1630     1.7060 H     1 <1>   0.0800 
 29 H       -0.6840     0.8800     2.3910 H     1 <1>   0.0800 
 30 H       -2.7660     0.9210     0.2920 H     1 <1>   0.0800 
 31 H       -2.0130    -0.5750     0.8240 H     1 <1>   0.0800 
 32 H       -2.0270    -0.1450    -0.8740 H     1 <1>   0.0800 
 33 H        3.0980    -0.3650    -1.5610 H     1 <1>   0.0800 
 34 H        4.3120     1.4880    -2.3740 H     1 <1>   0.0800 
 35 H        3.7740    -1.3920     0.3730 H     1 <1>   0.0800 
 36 H        3.6480     0.0820     1.3250 H     1 <1>   0.0800 
 37 H        4.6270     2.5190     0.4290 H     1 <1>   0.3700 
 38 H        6.5010     1.1340    -0.8400 H     1 <1>   0.0800 
 39 H        5.8170    -0.2580    -1.6790 H     1 <1>   0.0800 
 40 H        3.2220     6.6220    -1.2930 H     1 <1>   0.1500 
 41 H        2.8400     8.8360     0.4000 H     1 <1>   0.1500 
 42 H        3.3960     7.6810     4.4930 H     1 <1>   0.0600 
 43 H        2.8830     9.4200     2.8860 H     1 <1>   0.1500 
@<TRIPOS>BOND
  1   1   2  2   
  2   1   3  2   
  3   1   4  am  
  4   1   5  1   
  5   4   6  1   
  6   4   7  1   
  7   5   8  1   
  8   5  25  1   
  9   5  26  1   
 10   6  27  1   
 11   6  28  1   
 12   6  29  1   
 13   7  30  1   
 14   7  31  1   
 15   7  32  1   
 16   8   9  1   
 17   8  10  1   
 18   8  33  1   
 19   9  11  1   
 20   9  12  1   
 21   9  34  1   
 22  10  13  1   
 23  10  35  1   
 24  10  36  1   
 25  11  14  am  
 26  11  37  1   
 27  12  13  1   
 28  12  38  1   
 29  12  39  1   
 30  14  15  2   
 31  14  16  1   
 32  16  17  1   
 33  16  18  2   
 34  17  19  2   
 35  18  20  1   
 36  18  40  1   
 37  19  20  1   
 38  19  21  1   
 39  20  22  1   
 40  21  23  2   
 41  22  24  2   
 42  22  41  1   
 43  23  24  1   
 44  23  42  1   
 45  24  43  1   
@<TRIPOS>SUBSTRUCTURE
  1 ****  11 GROUP 4 **** **** 0

# MOE 2024.06 (io_trps.svl 2023.06)
