@<TRIPOS>MOLECULE
NONAME
48 50 1 0 0 
SMALL
USER_CHARGES


@<TRIPOS>ATOM
  1 O       -0.3700    -3.3000     0.0060 O.co2 1 <1>  -0.9000 
  2 C        0.4750    -3.8770     0.7020 C.2   1 <1>   1.0330 
  3 O        0.0460    -4.7480     1.4850 O.co2 1 <1>  -0.9000 
  4 C        1.8590    -3.8100     0.3840 C.2   1 <1>  -0.2330 
  5 C        2.5870    -4.9690     0.1460 C.2   1 <1>   0.3720 
  6 C        2.7470    -2.8120     0.1330 C.2   1 <1>   0.0870 
  7 N        3.7790    -4.7100    -0.2460 N.2   1 <1>  -0.4100 
  8 N        2.0600    -6.2460     0.2810 N.pl3 1 <1>  -0.8520 
  9 O        3.8640    -3.4030    -0.2350 O.3   1 <1>  -0.0190 
 10 C        2.6790    -1.3680     0.1870 C.ar  1 <1>   0.0530 
 11 C        1.5990    -6.8470    -0.9980 C.3   1 <1>   0.2090 
 12 C        3.7810    -0.5830    -0.1660 C.ar  1 <1>  -0.1500 
 13 C        1.5290    -0.6870     0.5930 C.ar  1 <1>  -0.1500 
 14 C        0.2500    -6.2720    -1.5010 C.3   1 <1>   0.3430 
 15 C        3.7370     0.7970    -0.1180 C.ar  1 <1>  -0.1500 
 16 C        1.4750     0.6940     0.6440 C.ar  1 <1>  -0.1500 
 17 N       -0.8770    -6.3530    -0.5150 N.4   1 <1>  -0.9590 
 18 C        2.5850     1.4510     0.2860 C.ar  1 <1>   0.0830 
 19 C       -1.1770    -7.7060     0.0140 C.3   1 <1>   0.3430 
 20 C       -2.0670    -5.6070    -1.0030 C.3   1 <1>   0.3430 
 21 O        2.6180     2.8050     0.3060 O.3   1 <1>  -0.3630 
 22 C       -2.2000    -7.6010     1.1450 C.3   1 <1>  -0.1600 
 23 C       -3.1060    -5.4990     0.1140 C.3   1 <1>  -0.1600 
 24 C        1.4840     3.5590     0.6720 C.3   1 <1>   0.0400 
 25 C       -3.4720    -6.8690     0.6990 C.3   1 <1>  -0.1600 
 26 H        1.2790    -6.1570     0.9600 H     1 <1>   0.4000 
 27 H        1.5180    -7.9120    -0.8740 H     1 <1>   0.0800 
 28 H        2.3500    -6.6720    -1.7500 H     1 <1>   0.0800 
 29 H        4.6900    -1.0600    -0.4840 H     1 <1>   0.1500 
 30 H        0.6520    -1.2390     0.8760 H     1 <1>   0.1500 
 31 H       -0.0290    -6.7870    -2.4030 H     1 <1>   0.0800 
 32 H        0.4100    -5.2360    -1.7550 H     1 <1>   0.0800 
 33 H        4.5960     1.3800    -0.3940 H     1 <1>   0.1500 
 34 H        0.5610     1.1580     0.9620 H     1 <1>   0.1500 
 35 H       -0.5930    -5.7720     0.3160 H     1 <1>   0.4500 
 36 H       -0.2760    -8.1580     0.3960 H     1 <1>   0.0800 
 37 H       -1.5700    -8.3260    -0.7750 H     1 <1>   0.0800 
 38 H       -2.4940    -6.1100    -1.8530 H     1 <1>   0.0800 
 39 H       -1.7730    -4.6110    -1.2990 H     1 <1>   0.0800 
 40 H       -1.7500    -7.0730     1.9700 H     1 <1>   0.0800 
 41 H       -2.4520    -8.5880     1.4900 H     1 <1>   0.0800 
 42 H       -3.9880    -5.0180    -0.2700 H     1 <1>   0.0800 
 43 H       -2.7060    -4.8640     0.8880 H     1 <1>   0.0800 
 44 H        1.7400     4.6010     0.6030 H     1 <1>   0.0800 
 45 H        1.2150     3.3140     1.6850 H     1 <1>   0.0800 
 46 H        0.6810     3.3330    -0.0060 H     1 <1>   0.0800 
 47 H       -4.1310    -6.7380     1.5410 H     1 <1>   0.0800 
 48 H       -3.9890    -7.4550    -0.0420 H     1 <1>   0.0800 
@<TRIPOS>BOND
  1   1   2  ar  
  2   2   3  ar  
  3   2   4  1   
  4   4   5  1   
  5   4   6  2   
  6   5   7  2   
  7   5   8  1   
  8   6   9  1   
  9   6  10  1   
 10   7   9  1   
 11   8  11  1   
 12   8  26  1   
 13  10  12  ar  
 14  10  13  ar  
 15  11  14  1   
 16  11  27  1   
 17  11  28  1   
 18  12  15  ar  
 19  12  29  1   
 20  13  16  ar  
 21  13  30  1   
 22  14  17  1   
 23  14  31  1   
 24  14  32  1   
 25  15  18  ar  
 26  15  33  1   
 27  16  18  ar  
 28  16  34  1   
 29  17  19  1   
 30  17  20  1   
 31  17  35  1   
 32  18  21  1   
 33  19  22  1   
 34  19  36  1   
 35  19  37  1   
 36  20  23  1   
 37  20  38  1   
 38  20  39  1   
 39  21  24  1   
 40  22  25  1   
 41  22  40  1   
 42  22  41  1   
 43  23  25  1   
 44  23  42  1   
 45  23  43  1   
 46  24  44  1   
 47  24  45  1   
 48  24  46  1   
 49  25  47  1   
 50  25  48  1   
@<TRIPOS>SUBSTRUCTURE
  1 ****   2 GROUP 4 **** **** 0

# MOE 2024.06 (io_trps.svl 2023.06)
