@<TRIPOS>MOLECULE
NONAME
52 55 1 0 0 
SMALL
USER_CHARGES


@<TRIPOS>ATOM
  1 O        4.2160     2.1140     2.0620 O.co2 1 <1>  -0.9000 
  2 C        3.6070     1.0600     1.8730 C.2   1 <1>   0.9060 
  3 O        3.9640     0.0150     2.4260 O.co2 1 <1>  -0.9000 
  4 C        2.6700     0.9550     0.6530 C.3   1 <1>  -0.1060 
  5 C        3.3750    -0.0460    -0.2830 C.3   1 <1>   0.4230 
  6 C        2.5480     2.3140    -0.1150 C.3   1 <1>  -0.1600 
  7 C        1.2420     0.4790     1.0320 C.3   1 <1>  -0.1600 
  8 N        3.3250    -1.4330     0.3110 N.4   1 <1>  -0.9590 
  9 C        4.8260     0.4740    -0.5870 C.3   1 <1>   0.3430 
 10 C        3.7770     2.7300    -0.9480 C.3   1 <1>   0.3430 
 11 C        1.2050    -0.9860     1.4920 C.3   1 <1>  -0.1600 
 12 C        1.9330    -1.9170     0.5230 C.3   1 <1>   0.3430 
 13 C        4.1760    -2.4780    -0.3280 C.3   1 <1>   0.2630 
 14 N        4.9770     1.9750    -0.4960 N.4   1 <1>  -0.9590 
 15 C        6.2850     2.4960    -0.9740 C.3   1 <1>   0.4860 
 16 C        6.3350     4.0070    -0.8430 C.ar  1 <1>  -0.1430 
 17 C        6.1940     4.6150     0.4000 C.ar  1 <1>  -0.1500 
 18 C        6.5190     4.7940    -1.9730 C.ar  1 <1>  -0.1500 
 19 C        6.2330     5.9940     0.5070 C.ar  1 <1>   0.0830 
 20 C        6.5510     6.1750    -1.8690 C.ar  1 <1>  -0.1500 
 21 O        6.1080     6.5600     1.7330 O.3   1 <1>  -0.3620 
 22 C        6.4010     6.7790    -0.6350 C.ar  1 <1>   0.0830 
 23 C        6.4730     7.9210     1.8530 C.3   1 <1>   0.1200 
 24 O        6.4160     8.1340    -0.5610 O.3   1 <1>  -0.3630 
 25 C        5.9580     8.7170     0.6450 C.3   1 <1>   0.1200 
 26 H        2.8340    -0.0640    -1.2140 H     1 <1>   0.0800 
 27 H        2.3460     3.0970     0.5990 H     1 <1>   0.0800 
 28 H        1.7050     2.3000    -0.7830 H     1 <1>   0.0800 
 29 H        0.8520     1.1070     1.8170 H     1 <1>   0.0800 
 30 H        0.5850     0.5760     0.1860 H     1 <1>   0.0800 
 31 H        3.6820    -1.2570     1.2940 H     1 <1>   0.4500 
 32 H        5.1130     0.1420    -1.5690 H     1 <1>   0.0800 
 33 H        5.4940     0.0330     0.1350 H     1 <1>   0.0800 
 34 H        3.9330     3.7910    -0.8260 H     1 <1>   0.0800 
 35 H        3.5990     2.5360    -1.9930 H     1 <1>   0.0800 
 36 H        0.1820    -1.3050     1.5840 H     1 <1>   0.0800 
 37 H        1.6490    -1.0770     2.4690 H     1 <1>   0.0800 
 38 H        1.4080    -1.9510    -0.4170 H     1 <1>   0.0800 
 39 H        1.9500    -2.9110     0.9410 H     1 <1>   0.0800 
 40 H        3.8560    -2.6560    -1.3420 H     1 <1>   0.0800 
 41 H        4.1000    -3.4010     0.2240 H     1 <1>   0.0800 
 42 H        5.2100    -2.1750    -0.3300 H     1 <1>   0.0800 
 43 H        4.9770     2.1930     0.5400 H     1 <1>   0.4500 
 44 H        7.0830     2.0670    -0.3890 H     1 <1>   0.0800 
 45 H        6.4340     2.2240    -2.0050 H     1 <1>   0.0800 
 46 H        6.0500     4.0380     1.3000 H     1 <1>   0.1500 
 47 H        6.6400     4.3480    -2.9460 H     1 <1>   0.1500 
 48 H        6.6910     6.7920    -2.7400 H     1 <1>   0.1500 
 49 H        6.0520     8.2970     2.7670 H     1 <1>   0.0800 
 50 H        7.5460     7.9760     1.9080 H     1 <1>   0.0800 
 51 H        6.3120     9.7320     0.6770 H     1 <1>   0.0800 
 52 H        4.8830     8.7180     0.6300 H     1 <1>   0.0800 
@<TRIPOS>BOND
  1   1   2  ar  
  2   2   3  ar  
  3   2   4  1   
  4   4   5  1   
  5   4   6  1   
  6   4   7  1   
  7   5   8  1   
  8   5   9  1   
  9   5  26  1   
 10   6  10  1   
 11   6  27  1   
 12   6  28  1   
 13   7  11  1   
 14   7  29  1   
 15   7  30  1   
 16   8  12  1   
 17   8  13  1   
 18   8  31  1   
 19   9  14  1   
 20   9  32  1   
 21   9  33  1   
 22  10  14  1   
 23  10  34  1   
 24  10  35  1   
 25  11  12  1   
 26  11  36  1   
 27  11  37  1   
 28  12  38  1   
 29  12  39  1   
 30  13  40  1   
 31  13  41  1   
 32  13  42  1   
 33  14  15  1   
 34  14  43  1   
 35  15  16  1   
 36  15  44  1   
 37  15  45  1   
 38  16  17  ar  
 39  16  18  ar  
 40  17  19  ar  
 41  17  46  1   
 42  18  20  ar  
 43  18  47  1   
 44  19  21  1   
 45  19  22  ar  
 46  20  22  ar  
 47  20  48  1   
 48  21  23  1   
 49  22  24  1   
 50  23  25  1   
 51  23  49  1   
 52  23  50  1   
 53  24  25  1   
 54  25  51  1   
 55  25  52  1   
@<TRIPOS>SUBSTRUCTURE
  1 ****  14 GROUP 4 **** **** 0

# MOE 2024.06 (io_trps.svl 2023.06)
