@<TRIPOS>MOLECULE
NONAME
62 64 1 0 0 
SMALL
USER_CHARGES


@<TRIPOS>ATOM
  1 O       -0.8720     0.4400    -0.4760 O.3   1 <1>  -0.5600 
  2 C       -0.1200    -0.7050    -0.2020 C.3   1 <1>   0.2800 
  3 C       -2.2410     0.5010    -0.1330 C.3   1 <1>   0.1200 
  4 C       -0.7800    -1.5310     0.9270 C.3   1 <1>  -0.1600 
  5 C        1.2620    -0.2130     0.2360 C.3   1 <1>  -0.1600 
  6 C        0.0540    -1.4450    -1.5360 C.3   1 <1>  -0.1600 
  7 C       -2.9330    -0.8660    -0.2630 C.3   1 <1>   0.2000 
  8 C       -2.2210    -1.9490     0.6080 C.3   1 <1>   0.2800 
  9 C        2.2530    -1.3690     0.3630 C.3   1 <1>   0.3430 
 10 C        0.9980    -2.6260    -1.3770 C.3   1 <1>   0.3430 
 11 O       -4.2890    -0.7390     0.0400 O.3   1 <1>  -0.6800 
 12 O       -2.1440    -3.1220    -0.1180 O.3   1 <1>  -0.6800 
 13 C       -2.9490    -2.3200     1.9080 C.3   1 <1>  -0.2400 
 14 N        2.3440    -2.1360    -0.9280 N.4   1 <1>  -0.9590 
 15 C        3.3570    -3.2360    -0.9580 C.3   1 <1>   0.4230 
 16 C        3.1410    -4.2730     0.1530 C.3   1 <1>  -0.1600 
 17 C        4.7760    -2.6650    -0.8830 C.3   1 <1>  -0.1600 
 18 C        4.1930    -5.3800     0.0670 C.3   1 <1>   0.3430 
 19 C        5.8110    -3.7880    -0.9620 C.3   1 <1>   0.3430 
 20 N        5.5610    -4.7880     0.1180 N.4   1 <1>  -0.9590 
 21 C        6.5990    -5.8650     0.0840 C.3   1 <1>   0.3430 
 22 C        7.6310    -5.6640     1.2070 C.3   1 <1>  -0.0800 
 23 C        8.3640    -4.3120     1.1330 C.3   1 <1>  -0.2400 
 24 C        8.6630    -6.7970     1.1570 C.3   1 <1>  -0.2400 
 25 H       -2.3060     0.8600     0.8780 H     1 <1>   0.0800 
 26 H       -2.7050     1.2150    -0.7910 H     1 <1>   0.0800 
 27 H       -0.2070    -2.4050     1.1780 H     1 <1>   0.0800 
 28 H       -0.7920    -0.9140     1.8090 H     1 <1>   0.0800 
 29 H        1.6380     0.5010    -0.4750 H     1 <1>   0.0800 
 30 H        1.1830     0.2890     1.1850 H     1 <1>   0.0800 
 31 H       -0.8840    -1.8100    -1.9050 H     1 <1>   0.0800 
 32 H        0.4420    -0.7730    -2.2800 H     1 <1>   0.0800 
 33 H       -2.8920    -1.1480    -1.3000 H     1 <1>   0.0800 
 34 H        1.9310    -2.0240     1.1560 H     1 <1>   0.0800 
 35 H        3.2190    -0.9710     0.6280 H     1 <1>   0.0800 
 36 H        1.0840    -3.1360    -2.3230 H     1 <1>   0.0800 
 37 H        0.5850    -3.3160    -0.6570 H     1 <1>   0.0800 
 38 H       -4.4180    -0.4820     0.9740 H     1 <1>   0.4000 
 39 H       -3.0560    -3.4360    -0.2940 H     1 <1>   0.4000 
 40 H       -3.0600    -1.4540     2.5350 H     1 <1>   0.0800 
 41 H       -2.3880    -3.0580     2.4550 H     1 <1>   0.0800 
 42 H       -3.9280    -2.7170     1.7040 H     1 <1>   0.0800 
 43 H        2.6200    -1.4440    -1.6390 H     1 <1>   0.4500 
 44 H        3.2650    -3.7450    -1.9060 H     1 <1>   0.0800 
 45 H        3.2010    -3.8220     1.1270 H     1 <1>   0.0800 
 46 H        2.1720    -4.7280     0.0520 H     1 <1>   0.0800 
 47 H        4.9420    -1.9960    -1.7080 H     1 <1>   0.0800 
 48 H        4.9310    -2.1200     0.0310 H     1 <1>   0.0800 
 49 H        4.0690    -5.9310    -0.8520 H     1 <1>   0.0800 
 50 H        4.0610    -6.0690     0.8880 H     1 <1>   0.0800 
 51 H        6.8020    -3.3730    -0.8580 H     1 <1>   0.0800 
 52 H        5.7530    -4.2700    -1.9250 H     1 <1>   0.0800 
 53 H        5.6870    -4.3260     1.0310 H     1 <1>   0.4500 
 54 H        6.1360    -6.8300     0.2200 H     1 <1>   0.0800 
 55 H        7.1020    -5.8740    -0.8700 H     1 <1>   0.0800 
 56 H        7.1260    -5.7340     2.1560 H     1 <1>   0.0800 
 57 H        8.8610    -4.1960     0.1860 H     1 <1>   0.0800 
 58 H        9.1130    -4.2610     1.9060 H     1 <1>   0.0800 
 59 H        7.6940    -3.4860     1.2840 H     1 <1>   0.0800 
 60 H        9.2180    -6.7770     0.2340 H     1 <1>   0.0800 
 61 H        8.1830    -7.7570     1.2470 H     1 <1>   0.0800 
 62 H        9.3630    -6.7030     1.9710 H     1 <1>   0.0800 
@<TRIPOS>BOND
  1   1   2  1   
  2   1   3  1   
  3   2   4  1   
  4   2   5  1   
  5   2   6  1   
  6   3   7  1   
  7   3  25  1   
  8   3  26  1   
  9   4   8  1   
 10   4  27  1   
 11   4  28  1   
 12   5   9  1   
 13   5  29  1   
 14   5  30  1   
 15   6  10  1   
 16   6  31  1   
 17   6  32  1   
 18   7   8  1   
 19   7  11  1   
 20   7  33  1   
 21   8  12  1   
 22   8  13  1   
 23   9  14  1   
 24   9  34  1   
 25   9  35  1   
 26  10  14  1   
 27  10  36  1   
 28  10  37  1   
 29  11  38  1   
 30  12  39  1   
 31  13  40  1   
 32  13  41  1   
 33  13  42  1   
 34  14  15  1   
 35  14  43  1   
 36  15  16  1   
 37  15  17  1   
 38  15  44  1   
 39  16  18  1   
 40  16  45  1   
 41  16  46  1   
 42  17  19  1   
 43  17  47  1   
 44  17  48  1   
 45  18  20  1   
 46  18  49  1   
 47  18  50  1   
 48  19  20  1   
 49  19  51  1   
 50  19  52  1   
 51  20  21  1   
 52  20  53  1   
 53  21  22  1   
 54  21  54  1   
 55  21  55  1   
 56  22  23  1   
 57  22  24  1   
 58  22  56  1   
 59  23  57  1   
 60  23  58  1   
 61  23  59  1   
 62  24  60  1   
 63  24  61  1   
 64  24  62  1   
@<TRIPOS>SUBSTRUCTURE
  1 ****  14 GROUP 4 **** **** 0

# MOE 2024.06 (io_trps.svl 2023.06)
