@<TRIPOS>MOLECULE
NONAME
45 48 1 0 0 
SMALL
USER_CHARGES


@<TRIPOS>ATOM
  1 O       -0.6500     0.1150     0.7150 O.3   1 <1>  -0.0190 
  2 N       -1.5380    -0.7880     0.9510 N.2   1 <1>  -0.4100 
  3 C       -1.2280     1.2430     0.4040 C.2   1 <1>   0.4250 
  4 C       -2.6450    -0.1660     0.7740 C.2   1 <1>   0.5990 
  5 N       -2.5060     1.1160     0.4200 N.2   1 <1>  -0.5650 
  6 C       -0.4460     2.4220     0.0940 C.ar  1 <1>   0.0530 
  7 N       -3.9170    -0.7180     0.9260 N.pl3 1 <1>  -0.8210 
  8 C        0.9500     2.3950     0.0650 C.ar  1 <1>  -0.1500 
  9 C       -1.0680     3.6400    -0.1910 C.ar  1 <1>  -0.1500 
 10 C       -5.0060    -0.2000     0.0470 C.3   1 <1>   0.2090 
 11 C       -4.0580    -2.1960     1.0110 C.3   1 <1>   0.2090 
 12 C        1.6880     3.5260    -0.2350 C.ar  1 <1>  -0.1500 
 13 C       -0.3350     4.7730    -0.4910 C.ar  1 <1>  -0.1500 
 14 C       -5.8410    -1.4140    -0.3890 C.3   1 <1>   0.2000 
 15 C       -4.8800    -2.5900    -0.2150 C.3   1 <1>  -0.0800 
 16 C        1.0460     4.7180    -0.5140 C.ar  1 <1>  -0.1500 
 17 O       -6.9350    -1.5990     0.4670 O.3   1 <1>  -0.5600 
 18 C       -5.5560    -3.9660    -0.0860 C.3   1 <1>   0.0200 
 19 C       -8.0560    -0.8230     0.1790 C.3   1 <1>   0.0400 
 20 C       -4.5660    -5.1190    -0.0900 C.2   1 <1>  -0.0400 
 21 O       -5.0090    -6.3290     0.1230 O.3   1 <1>  -0.0190 
 22 C       -3.2380    -5.2000    -0.2810 C.2   1 <1>  -0.1500 
 23 N       -4.0540    -7.2130     0.0890 N.2   1 <1>  -0.4100 
 24 C       -2.9750    -6.5610    -0.1520 C.2   1 <1>   0.1080 
 25 C       -1.6070    -7.1940    -0.2760 C.3   1 <1>  -0.0590 
 26 H        1.4710     1.4780     0.2800 H     1 <1>   0.1500 
 27 H       -2.1430     3.6960    -0.1750 H     1 <1>   0.1500 
 28 H       -5.5980     0.5240     0.5780 H     1 <1>   0.0800 
 29 H       -4.5790     0.2640    -0.8250 H     1 <1>   0.0800 
 30 H       -3.1110    -2.7040     1.0340 H     1 <1>   0.0800 
 31 H       -4.5990    -2.4330     1.9120 H     1 <1>   0.0800 
 32 H        2.7640     3.4800    -0.2510 H     1 <1>   0.1500 
 33 H       -0.8390     5.7000    -0.7070 H     1 <1>   0.1500 
 34 H       -6.1950    -1.3310    -1.4020 H     1 <1>   0.0800 
 35 H       -4.2190    -2.6030    -1.0640 H     1 <1>   0.0800 
 36 H        1.6190     5.5990    -0.7480 H     1 <1>   0.1500 
 37 H       -6.2400    -4.1050    -0.9040 H     1 <1>   0.0800 
 38 H       -6.1280    -4.0090     0.8250 H     1 <1>   0.0800 
 39 H       -8.8180    -1.0590     0.9010 H     1 <1>   0.0800 
 40 H       -8.4090    -1.0610    -0.8090 H     1 <1>   0.0800 
 41 H       -7.8030     0.2200     0.2530 H     1 <1>   0.0800 
 42 H       -2.5140    -4.4350    -0.4870 H     1 <1>   0.1500 
 43 H       -0.9480    -6.7860     0.4680 H     1 <1>   0.0800 
 44 H       -1.2040    -7.0010    -1.2530 H     1 <1>   0.0800 
 45 H       -1.6810    -8.2570    -0.1320 H     1 <1>   0.0800 
@<TRIPOS>BOND
  1   1   2  1   
  2   1   3  1   
  3   2   4  2   
  4   3   5  2   
  5   3   6  1   
  6   4   5  1   
  7   4   7  1   
  8   6   8  ar  
  9   6   9  ar  
 10   7  10  1   
 11   7  11  1   
 12   8  12  ar  
 13   8  26  1   
 14   9  13  ar  
 15   9  27  1   
 16  10  14  1   
 17  10  28  1   
 18  10  29  1   
 19  11  15  1   
 20  11  30  1   
 21  11  31  1   
 22  12  16  ar  
 23  12  32  1   
 24  13  16  ar  
 25  13  33  1   
 26  14  15  1   
 27  14  17  1   
 28  14  34  1   
 29  15  18  1   
 30  15  35  1   
 31  16  36  1   
 32  17  19  1   
 33  18  20  1   
 34  18  37  1   
 35  18  38  1   
 36  19  39  1   
 37  19  40  1   
 38  19  41  1   
 39  20  21  1   
 40  20  22  2   
 41  21  23  1   
 42  22  24  1   
 43  22  42  1   
 44  23  24  2   
 45  24  25  1   
 46  25  43  1   
 47  25  44  1   
 48  25  45  1   
@<TRIPOS>SUBSTRUCTURE
  1 ****   4 GROUP 4 **** **** 0

# MOE 2024.06 (io_trps.svl 2023.06)
