@<TRIPOS>MOLECULE
NONAME
29 29 1 0 0 
SMALL
USER_CHARGES


@<TRIPOS>ATOM
  1 O        5.0260     0.0690     1.9460 O.co2 1 <1>  -0.9000 
  2 C        5.1700     1.1070     1.2710 C.2   1 <1>   0.9060 
  3 O        5.0820     2.2160     1.8000 O.co2 1 <1>  -0.9000 
  4 C        5.4660     1.0040    -0.2580 C.3   1 <1>  -0.1060 
  5 C        5.5420    -0.4890    -0.7450 C.3   1 <1>  -0.0800 
  6 C        4.3790     1.7690    -1.0620 C.3   1 <1>  -0.2400 
  7 C        6.7950     1.7380    -0.5920 C.3   1 <1>  -0.2400 
  8 C        4.1600    -1.2060    -0.6050 C.3   1 <1>  -0.1600 
  9 C        6.7530    -1.2390    -0.1000 C.3   1 <1>  -0.1600 
 10 C        4.1270    -2.5400     0.1330 C.3   1 <1>   0.3430 
 11 C        6.4730    -2.5700     0.5890 C.3   1 <1>   0.3430 
 12 N        5.1400    -2.5070     1.1900 N.4   1 <1>  -0.9060 
 13 H        5.7480    -0.4550    -1.8020 H     1 <1>   0.0800 
 14 H        3.3880     1.4320    -0.8220 H     1 <1>   0.0800 
 15 H        4.5360     1.6700    -2.1200 H     1 <1>   0.0800 
 16 H        4.4110     2.8150    -0.8100 H     1 <1>   0.0800 
 17 H        7.6140     1.3780     0.0000 H     1 <1>   0.0800 
 18 H        6.6960     2.7860    -0.3650 H     1 <1>   0.0800 
 19 H        7.0430     1.6380    -1.6330 H     1 <1>   0.0800 
 20 H        3.7240    -1.3380    -1.5790 H     1 <1>   0.0800 
 21 H        3.4760    -0.5810    -0.0610 H     1 <1>   0.0800 
 22 H        7.1980    -0.6290     0.6630 H     1 <1>   0.0800 
 23 H        7.5180    -1.3870    -0.8410 H     1 <1>   0.0800 
 24 H        4.3360    -3.3480    -0.5490 H     1 <1>   0.0800 
 25 H        3.1480    -2.6880     0.5590 H     1 <1>   0.0800 
 26 H        7.2180    -2.7400     1.3510 H     1 <1>   0.0800 
 27 H        6.5150    -3.3760    -0.1250 H     1 <1>   0.0800 
 28 H        4.9860    -3.1860     1.9350 H     1 <1>   0.4500 
 29 H        5.0650    -1.5500     1.6360 H     1 <1>   0.4500 
@<TRIPOS>BOND
  1   1   2  ar  
  2   2   3  ar  
  3   2   4  1   
  4   4   5  1   
  5   4   6  1   
  6   4   7  1   
  7   5   8  1   
  8   5   9  1   
  9   5  13  1   
 10   6  14  1   
 11   6  15  1   
 12   6  16  1   
 13   7  17  1   
 14   7  18  1   
 15   7  19  1   
 16   8  10  1   
 17   8  20  1   
 18   8  21  1   
 19   9  11  1   
 20   9  22  1   
 21   9  23  1   
 22  10  12  1   
 23  10  24  1   
 24  10  25  1   
 25  11  12  1   
 26  11  26  1   
 27  11  27  1   
 28  12  28  1   
 29  12  29  1   
@<TRIPOS>SUBSTRUCTURE
  1 ****   5 GROUP 4 **** **** 0

# MOE 2024.06 (io_trps.svl 2023.06)
