@<TRIPOS>MOLECULE
NONAME
53 56 1 0 0 
SMALL
USER_CHARGES


@<TRIPOS>ATOM
  1 F       -1.2390     0.3180     1.6920 F     1 <1>  -0.1900 
  2 C       -2.1470    -0.4390     1.1180 C.ar  1 <1>   0.1900 
  3 C       -3.0880     0.1620     0.2750 C.ar  1 <1>   0.1000 
  4 C       -2.1210    -1.7840     1.3800 C.ar  1 <1>  -0.1500 
  5 N       -3.0500     1.5470     0.0370 N.pl3 1 <1>  -0.8380 
  6 C       -4.0410    -0.6870    -0.2940 C.ar  1 <1>   0.0830 
  7 C       -3.0620    -2.6360     0.7910 C.ar  1 <1>   0.0860 
  8 C       -2.7900     2.0120    -1.3620 C.3   1 <1>   0.2090 
  9 C       -4.0220     2.4020     0.7880 C.3   1 <1>   0.2090 
 10 O       -5.0050    -0.1340    -1.0930 O.3   1 <1>  -0.3630 
 11 C       -4.0310    -2.0750    -0.0620 C.ar  1 <1>   0.1000 
 12 C       -3.0570    -4.0520     1.0370 C.2   1 <1>   0.4690 
 13 C       -2.2950     3.4800    -1.3800 C.3   1 <1>   0.3430 
 14 C       -3.7000     3.9090     0.6200 C.3   1 <1>   0.3430 
 15 C       -6.2250    -0.8410    -1.1900 C.3   1 <1>   0.1200 
 16 N       -4.9650    -2.9310    -0.6830 N.pl3 1 <1>  -0.5690 
 17 O       -2.3430    -4.5110     1.9190 O.2   1 <1>  -0.5700 
 18 C       -3.9290    -4.8830     0.2760 C.2   1 <1>   0.0290 
 19 N       -2.3480     4.1160    -0.0120 N.4   1 <1>  -0.9590 
 20 C       -5.9870    -2.3060    -1.5890 C.3   1 <1>   0.2890 
 21 C       -4.8570    -4.2870    -0.5350 C.2   1 <1>  -0.0500 
 22 C       -3.8270    -6.3060     0.3740 C.2   1 <1>   0.7060 
 23 C       -1.8880     5.5350     0.0020 C.3   1 <1>   0.2630 
 24 C       -7.3240    -3.0580    -1.5500 C.3   1 <1>  -0.2400 
 25 O       -2.7840    -6.9300     0.3610 O.2   1 <1>  -0.5700 
 26 O       -4.9770    -6.9900     0.4180 O.3   1 <1>  -0.4300 
 27 C       -4.9920    -8.3980     0.5030 C.3   1 <1>   0.1200 
 28 C       -6.4460    -8.8550     0.5370 C.3   1 <1>  -0.2400 
 29 H       -1.3720    -2.1880     2.0400 H     1 <1>   0.1500 
 30 H       -2.0530     1.3760    -1.8240 H     1 <1>   0.0800 
 31 H       -3.6940     1.9340    -1.9410 H     1 <1>   0.0800 
 32 H       -5.0230     2.2030     0.4460 H     1 <1>   0.0800 
 33 H       -3.9770     2.1450     1.8330 H     1 <1>   0.0800 
 34 H       -2.8980     4.0430    -2.0730 H     1 <1>   0.0800 
 35 H       -1.2810     3.4950    -1.7450 H     1 <1>   0.0800 
 36 H       -3.7340     4.3810     1.5880 H     1 <1>   0.0800 
 37 H       -4.4600     4.3630     0.0070 H     1 <1>   0.0800 
 38 H       -6.7150    -0.7900    -0.2330 H     1 <1>   0.0800 
 39 H       -6.8360    -0.3450    -1.9220 H     1 <1>   0.0800 
 40 H       -1.7180     3.5210     0.5560 H     1 <1>   0.4500 
 41 H       -5.6060    -2.3230    -2.5960 H     1 <1>   0.0800 
 42 H       -5.5300    -4.9170    -1.0920 H     1 <1>   0.1500 
 43 H       -2.5470     6.1480    -0.5920 H     1 <1>   0.0800 
 44 H       -0.8910     5.6080    -0.4010 H     1 <1>   0.0800 
 45 H       -1.8780     5.9140     1.0110 H     1 <1>   0.0800 
 46 H       -7.6550    -3.1870    -0.5340 H     1 <1>   0.0800 
 47 H       -7.2410    -4.0170    -2.0270 H     1 <1>   0.0800 
 48 H       -8.0740    -2.5040    -2.0850 H     1 <1>   0.0800 
 49 H       -4.4800    -8.7990    -0.3560 H     1 <1>   0.0800 
 50 H       -4.4730    -8.6910     1.4010 H     1 <1>   0.0800 
 51 H       -6.9530    -8.5480    -0.3610 H     1 <1>   0.0800 
 52 H       -6.9450    -8.4390     1.3940 H     1 <1>   0.0800 
 53 H       -6.4870    -9.9270     0.6040 H     1 <1>   0.0800 
@<TRIPOS>BOND
  1   1   2  1   
  2   2   3  ar  
  3   2   4  ar  
  4   3   5  1   
  5   3   6  ar  
  6   4   7  ar  
  7   4  29  1   
  8   5   8  1   
  9   5   9  1   
 10   6  10  1   
 11   6  11  ar  
 12   7  11  ar  
 13   7  12  1   
 14   8  13  1   
 15   8  30  1   
 16   8  31  1   
 17   9  14  1   
 18   9  32  1   
 19   9  33  1   
 20  10  15  1   
 21  11  16  1   
 22  12  17  2   
 23  12  18  1   
 24  13  19  1   
 25  13  34  1   
 26  13  35  1   
 27  14  19  1   
 28  14  36  1   
 29  14  37  1   
 30  15  20  1   
 31  15  38  1   
 32  15  39  1   
 33  16  20  1   
 34  16  21  1   
 35  18  21  2   
 36  18  22  1   
 37  19  23  1   
 38  19  40  1   
 39  20  24  1   
 40  20  41  1   
 41  21  42  1   
 42  22  25  2   
 43  22  26  1   
 44  23  43  1   
 45  23  44  1   
 46  23  45  1   
 47  24  46  1   
 48  24  47  1   
 49  24  48  1   
 50  26  27  1   
 51  27  28  1   
 52  27  49  1   
 53  27  50  1   
 54  28  51  1   
 55  28  52  1   
 56  28  53  1   
@<TRIPOS>SUBSTRUCTURE
  1 ****  11 GROUP 4 **** **** 0

# MOE 2024.06 (io_trps.svl 2023.06)
