@<TRIPOS>MOLECULE
NONAME
48 50 1 0 0 
SMALL
USER_CHARGES


@<TRIPOS>ATOM
  1 F       -0.2920    -1.3530     0.9660 F     1 <1>  -0.1900 
  2 C       -0.5650    -2.6100     0.7580 C.ar  1 <1>   0.1900 
  3 C       -1.2530    -3.3160     1.7250 C.ar  1 <1>  -0.1500 
  4 C       -0.1600    -3.1970    -0.4250 C.ar  1 <1>  -0.1500 
  5 C       -1.5360    -4.6510     1.4940 C.ar  1 <1>  -0.1500 
  6 C       -0.4530    -4.5330    -0.6390 C.ar  1 <1>  -0.1500 
  7 C       -1.1400    -5.2940     0.3160 C.ar  1 <1>   0.0860 
  8 C       -1.4410    -6.7000     0.1060 C.2   1 <1>   0.5440 
  9 O       -2.4020    -7.2180     0.6430 O.2   1 <1>  -0.5700 
 10 N       -0.6510    -7.4810    -0.6940 N.am  1 <1>  -0.7300 
 11 C       -0.8520    -8.9330    -0.9080 C.3   1 <1>   0.1400 
 12 C       -1.7970    -9.1570    -2.0850 C.3   1 <1>  -0.0990 
 13 C       -2.3070   -10.5800    -2.0460 C.2   1 <1>   0.5690 
 14 O       -1.6660   -11.4220    -2.6270 O.2   1 <1>  -0.5700 
 15 N       -3.4400   -10.8880    -1.3430 N.am  1 <1>  -0.6600 
 16 C       -4.2550    -9.9470    -0.5280 C.3   1 <1>   0.1400 
 17 C       -3.9030   -12.2810    -1.1410 C.3   1 <1>   0.1400 
 18 C       -5.2550   -10.8310     0.2190 C.3   1 <1>   0.2000 
 19 C       -4.6650   -12.2390     0.1840 C.3   1 <1>  -0.0800 
 20 O       -5.4230   -10.4230     1.5330 O.3   1 <1>  -0.6800 
 21 C       -5.7340   -13.3350     0.3330 C.3   1 <1>  -0.0170 
 22 C       -5.1150   -14.7220     0.3020 C.ar  1 <1>   0.1670 
 23 N       -5.0140   -15.3010    -0.8840 N.ar  1 <1>  -0.6200 
 24 C       -4.6820   -15.3130     1.4870 C.ar  1 <1>   0.1600 
 25 C       -4.4550   -16.4970    -0.8060 C.ar  1 <1>   0.1600 
 26 N       -4.1220   -16.5090     1.5670 N.ar  1 <1>  -0.6200 
 27 C       -4.0230   -17.0810     0.3790 C.ar  1 <1>   0.1600 
 28 H       -1.5590    -2.8290     2.6340 H     1 <1>   0.1500 
 29 H        0.3690    -2.6130    -1.1570 H     1 <1>   0.1500 
 30 H       -2.0740    -5.2150     2.2380 H     1 <1>   0.1500 
 31 H       -0.1500    -4.9880    -1.5650 H     1 <1>   0.1500 
 32 H        0.2000    -7.0870    -1.0970 H     1 <1>   0.3700 
 33 H        0.0930    -9.4160    -1.0930 H     1 <1>   0.0800 
 34 H       -1.2730    -9.3640    -0.0150 H     1 <1>   0.0800 
 35 H       -1.2720    -8.9980    -3.0080 H     1 <1>   0.0800 
 36 H       -2.6230    -8.4740    -2.0420 H     1 <1>   0.0800 
 37 H       -3.6200    -9.4190     0.1610 H     1 <1>   0.0800 
 38 H       -4.7700    -9.2500    -1.1650 H     1 <1>   0.0800 
 39 H       -4.5530   -12.5580    -1.9530 H     1 <1>   0.0800 
 40 H       -3.0740   -12.9690    -1.1000 H     1 <1>   0.0800 
 41 H       -6.2130   -10.7970    -0.2720 H     1 <1>   0.0800 
 42 H       -3.9380   -12.3390     0.9700 H     1 <1>   0.0800 
 43 H       -4.5560   -10.2480     1.9490 H     1 <1>   0.4000 
 44 H       -6.4590   -13.2530    -0.4580 H     1 <1>   0.0800 
 45 H       -6.2540   -13.1960     1.2640 H     1 <1>   0.0800 
 46 H       -4.8020   -14.7720     2.4090 H     1 <1>   0.1500 
 47 H       -4.3320   -17.0420    -1.7250 H     1 <1>   0.1500 
 48 H       -3.5790   -18.0590     0.3400 H     1 <1>   0.1500 
@<TRIPOS>BOND
  1   1   2  1   
  2   2   3  ar  
  3   2   4  ar  
  4   3   5  ar  
  5   3  28  1   
  6   4   6  ar  
  7   4  29  1   
  8   5   7  ar  
  9   5  30  1   
 10   6   7  ar  
 11   6  31  1   
 12   7   8  1   
 13   8   9  2   
 14   8  10  am  
 15  10  11  1   
 16  10  32  1   
 17  11  12  1   
 18  11  33  1   
 19  11  34  1   
 20  12  13  1   
 21  12  35  1   
 22  12  36  1   
 23  13  14  2   
 24  13  15  am  
 25  15  16  1   
 26  15  17  1   
 27  16  18  1   
 28  16  37  1   
 29  16  38  1   
 30  17  19  1   
 31  17  39  1   
 32  17  40  1   
 33  18  19  1   
 34  18  20  1   
 35  18  41  1   
 36  19  21  1   
 37  19  42  1   
 38  20  43  1   
 39  21  22  1   
 40  21  44  1   
 41  21  45  1   
 42  22  23  ar  
 43  22  24  ar  
 44  23  25  ar  
 45  24  26  ar  
 46  24  46  1   
 47  25  27  ar  
 48  25  47  1   
 49  26  27  ar  
 50  27  48  1   
@<TRIPOS>SUBSTRUCTURE
  1 ****  16 GROUP 4 **** **** 0

# MOE 2024.06 (io_trps.svl 2023.06)
