@<TRIPOS>MOLECULE
NONAME
54 57 1 0 0 
SMALL
USER_CHARGES


@<TRIPOS>ATOM
  1 O       -0.6170     0.6530     0.0000 O.2   1 <1>  -0.5700 
  2 C       -1.6730     1.2430    -0.0310 C.2   1 <1>   0.5690 
  3 N       -2.8640     0.5790    -0.2100 N.am  1 <1>  -0.6600 
  4 C       -1.6520     2.7570     0.1330 C.3   1 <1>  -0.0990 
  5 C       -4.1920     1.2650    -0.1570 C.3   1 <1>   0.2200 
  6 C       -2.8560    -0.8940    -0.4730 C.3   1 <1>   0.0600 
  7 C       -0.2430     3.3800     0.1160 C.3   1 <1>  -0.0160 
  8 C       -5.2810     0.5200     0.6120 C.3   1 <1>  -0.1600 
  9 C       -4.7940     1.4830    -1.5410 C.3   1 <1>  -0.1600 
 10 C       -0.2240     4.9040     0.2630 C.ar  1 <1>   0.1670 
 11 C       -6.5850     1.1610     0.1200 C.3   1 <1>  -0.0800 
 12 C       -6.2810     1.7520    -1.2700 C.3   1 <1>  -0.0800 
 13 N       -1.3550     5.5440     0.3180 N.ar  1 <1>  -0.6200 
 14 C        1.0450     5.5540     0.3310 C.ar  1 <1>   0.3930 
 15 C       -7.0550     2.3310     0.9960 C.3   1 <1>  -0.1600 
 16 C       -6.6210     3.2480    -1.1910 C.3   1 <1>  -0.1600 
 17 C       -1.2370     6.8910     0.4470 C.ar  1 <1>   0.3100 
 18 O        2.1490     4.7790     0.2590 O.3   1 <1>  -0.3630 
 19 N        1.1930     6.8440     0.4570 N.ar  1 <1>  -0.6200 
 20 C       -7.5470     3.3770     0.0080 C.3   1 <1>   0.2000 
 21 C        0.0260     7.5300     0.5170 C.ar  1 <1>   0.3100 
 22 C       -2.3970     7.6780     0.5140 C.ar  1 <1>  -0.1500 
 23 C        3.4490     5.3320     0.3200 C.3   1 <1>   0.0400 
 24 O       -7.4360     4.6350     0.5580 O.3   1 <1>  -0.6800 
 25 C        0.0650     8.9270     0.6520 C.ar  1 <1>  -0.1500 
 26 C       -2.3290     9.0410     0.6450 C.ar  1 <1>  -0.1500 
 27 C       -1.0840     9.6720     0.7150 C.ar  1 <1>  -0.1500 
 28 H       -2.2230     3.1920    -0.6650 H     1 <1>   0.0800 
 29 H       -2.1210     3.0020     1.0680 H     1 <1>   0.0800 
 30 H       -4.0930     2.2270     0.3120 H     1 <1>   0.0800 
 31 H       -3.5840    -1.1490    -1.2200 H     1 <1>   0.0800 
 32 H       -3.0780    -1.4240     0.4370 H     1 <1>   0.0800 
 33 H       -1.8900    -1.2130    -0.8250 H     1 <1>   0.0800 
 34 H        0.2410     3.1200    -0.8090 H     1 <1>   0.0800 
 35 H        0.3340     2.9520     0.9170 H     1 <1>   0.0800 
 36 H       -5.3020    -0.5200     0.3420 H     1 <1>   0.0800 
 37 H       -5.1520     0.6080     1.6760 H     1 <1>   0.0800 
 38 H       -4.3140     2.2910    -2.0630 H     1 <1>   0.0800 
 39 H       -4.7050     0.5860    -2.1260 H     1 <1>   0.0800 
 40 H       -7.3690     0.4250     0.0480 H     1 <1>   0.0800 
 41 H       -6.8940     1.2780    -2.0180 H     1 <1>   0.0800 
 42 H       -6.2300     2.7260     1.5630 H     1 <1>   0.0800 
 43 H       -7.8400     2.0290     1.6650 H     1 <1>   0.0800 
 44 H       -7.1050     3.5860    -2.0900 H     1 <1>   0.0800 
 45 H       -5.7290     3.8260    -1.0250 H     1 <1>   0.0800 
 46 H       -8.5730     3.2000    -0.2690 H     1 <1>   0.0800 
 47 H       -3.3450     7.1750     0.4580 H     1 <1>   0.1500 
 48 H        4.1620     4.5310     0.2440 H     1 <1>   0.0800 
 49 H        3.5650     5.8440     1.2590 H     1 <1>   0.0800 
 50 H        3.5730     6.0180    -0.4990 H     1 <1>   0.0800 
 51 H       -6.5110     4.8030     0.8170 H     1 <1>   0.4000 
 52 H        1.0310     9.3960     0.7040 H     1 <1>   0.1500 
 53 H       -3.2250     9.6360     0.6960 H     1 <1>   0.1500 
 54 H       -1.0410    10.7430     0.8190 H     1 <1>   0.1500 
@<TRIPOS>BOND
  1   1   2  2   
  2   2   3  am  
  3   2   4  1   
  4   3   5  1   
  5   3   6  1   
  6   4   7  1   
  7   4  28  1   
  8   4  29  1   
  9   5   8  1   
 10   5   9  1   
 11   5  30  1   
 12   6  31  1   
 13   6  32  1   
 14   6  33  1   
 15   7  10  1   
 16   7  34  1   
 17   7  35  1   
 18   8  11  1   
 19   8  36  1   
 20   8  37  1   
 21   9  12  1   
 22   9  38  1   
 23   9  39  1   
 24  10  13  ar  
 25  10  14  ar  
 26  11  12  1   
 27  11  15  1   
 28  11  40  1   
 29  12  16  1   
 30  12  41  1   
 31  13  17  ar  
 32  14  18  1   
 33  14  19  ar  
 34  15  20  1   
 35  15  42  1   
 36  15  43  1   
 37  16  20  1   
 38  16  44  1   
 39  16  45  1   
 40  17  21  ar  
 41  17  22  ar  
 42  18  23  1   
 43  19  21  ar  
 44  20  24  1   
 45  20  46  1   
 46  21  25  ar  
 47  22  26  ar  
 48  22  47  1   
 49  23  48  1   
 50  23  49  1   
 51  23  50  1   
 52  24  51  1   
 53  25  27  ar  
 54  25  52  1   
 55  26  27  ar  
 56  26  53  1   
 57  27  54  1   
@<TRIPOS>SUBSTRUCTURE
  1 ****   4 GROUP 4 **** **** 0

# MOE 2024.06 (io_trps.svl 2023.06)
