@<TRIPOS>MOLECULE
NONAME
42 43 1 0 0 
SMALL
USER_CHARGES


@<TRIPOS>ATOM
  1 O        0.1870    -0.9870    -2.2540 O.co2 1 <1>  -0.9000 
  2 C        0.0410    -2.1310    -1.7970 C.2   1 <1>   1.0330 
  3 O       -1.0050    -2.7480    -2.0840 O.co2 1 <1>  -0.9000 
  4 C        1.0300    -2.7290    -0.9480 C.2   1 <1>  -0.2330 
  5 C        1.1040    -4.0960    -0.6860 C.2   1 <1>   0.3720 
  6 C        2.0730    -2.2210    -0.2350 C.2   1 <1>   0.0870 
  7 N        2.0870    -4.3840     0.0880 N.2   1 <1>  -0.4100 
  8 N        0.2220    -5.0310    -1.2060 N.pl3 1 <1>  -0.8520 
  9 O        2.6630    -3.2400     0.3490 O.3   1 <1>  -0.0190 
 10 C        2.5950    -0.8940    -0.0010 C.ar  1 <1>   0.0530 
 11 C       -0.3300    -6.0620    -0.2830 C.3   1 <1>   0.2890 
 12 C        3.9560    -0.6970     0.2420 C.ar  1 <1>  -0.1500 
 13 C        1.7790     0.2370     0.0170 C.ar  1 <1>  -0.1500 
 14 C       -1.7970    -5.7240     0.0870 C.3   1 <1>  -0.0800 
 15 C       -0.1860    -7.4380    -0.9640 C.3   1 <1>   0.1200 
 16 C        4.4740     0.5610     0.4890 C.ar  1 <1>  -0.1500 
 17 C        2.2870     1.5000     0.2590 C.ar  1 <1>  -0.1500 
 18 C       -1.8960    -4.4190     0.8970 C.3   1 <1>  -0.2400 
 19 C       -2.4730    -6.8440     0.9000 C.3   1 <1>  -0.2400 
 20 O        1.0800    -7.5410    -1.5180 O.3   1 <1>  -0.6800 
 21 C        3.6470     1.6720     0.4990 C.ar  1 <1>   0.0830 
 22 O        4.2270     2.8720     0.7440 O.3   1 <1>  -0.3620 
 23 C        3.4800     4.0660     0.6930 C.3   1 <1>   0.0400 
 24 H       -0.5460    -4.4820    -1.6520 H     1 <1>   0.4000 
 25 H        0.2500    -6.0860     0.6240 H     1 <1>   0.0800 
 26 H        4.6150    -1.5460     0.2330 H     1 <1>   0.1500 
 27 H        0.7250     0.1240    -0.1660 H     1 <1>   0.1500 
 28 H       -2.3520    -5.5950    -0.8270 H     1 <1>   0.0800 
 29 H       -0.9020    -7.5310    -1.7610 H     1 <1>   0.0800 
 30 H       -0.3160    -8.2430    -0.2640 H     1 <1>   0.0800 
 31 H        5.5240     0.6920     0.6730 H     1 <1>   0.1500 
 32 H        1.6080     2.3310     0.2510 H     1 <1>   0.1500 
 33 H       -1.3070    -4.4810     1.7950 H     1 <1>   0.0800 
 34 H       -2.9170    -4.2130     1.1620 H     1 <1>   0.0800 
 35 H       -1.5410    -3.5860     0.3180 H     1 <1>   0.0800 
 36 H       -1.9130    -7.0500     1.7960 H     1 <1>   0.0800 
 37 H       -2.5550    -7.7470     0.3230 H     1 <1>   0.0800 
 38 H       -3.4690    -6.5490     1.1810 H     1 <1>   0.0800 
 39 H        1.3450    -6.6100    -1.7290 H     1 <1>   0.4000 
 40 H        4.1470     4.8860     0.8870 H     1 <1>   0.0800 
 41 H        2.7130     4.0300     1.4460 H     1 <1>   0.0800 
 42 H        3.0510     4.1660    -0.2890 H     1 <1>   0.0800 
@<TRIPOS>BOND
  1   1   2  ar  
  2   2   3  ar  
  3   2   4  1   
  4   4   5  1   
  5   4   6  2   
  6   5   7  2   
  7   5   8  1   
  8   6   9  1   
  9   6  10  1   
 10   7   9  1   
 11   8  11  1   
 12   8  24  1   
 13  10  12  ar  
 14  10  13  ar  
 15  11  14  1   
 16  11  15  1   
 17  11  25  1   
 18  12  16  ar  
 19  12  26  1   
 20  13  17  ar  
 21  13  27  1   
 22  14  18  1   
 23  14  19  1   
 24  14  28  1   
 25  15  20  1   
 26  15  29  1   
 27  15  30  1   
 28  16  21  ar  
 29  16  31  1   
 30  17  21  ar  
 31  17  32  1   
 32  18  33  1   
 33  18  34  1   
 34  18  35  1   
 35  19  36  1   
 36  19  37  1   
 37  19  38  1   
 38  20  39  1   
 39  21  22  1   
 40  22  23  1   
 41  23  40  1   
 42  23  41  1   
 43  23  42  1   
@<TRIPOS>SUBSTRUCTURE
  1 ****   4 GROUP 4 **** **** 0

# MOE 2024.06 (io_trps.svl 2023.06)
