@<TRIPOS>MOLECULE
NONAME
49 51 1 0 0 
SMALL
USER_CHARGES


@<TRIPOS>ATOM
  1 CL       1.8300    -0.9630    -3.2800 Cl    1 <1>  -0.1770 
  2 C        1.8160    -0.9590    -1.5340 C.ar  1 <1>   0.1770 
  3 C        0.9000    -1.7450    -0.8580 C.ar  1 <1>  -0.1440 
  4 C        2.7160    -0.1530    -0.8590 C.ar  1 <1>  -0.1500 
  5 C        0.9140    -1.6900     0.5240 C.ar  1 <1>   0.1900 
  6 C       -0.0810    -2.6340    -1.5890 C.3   1 <1>   0.4860 
  7 C        2.7070    -0.1220     0.5270 C.ar  1 <1>  -0.1500 
  8 F        0.0440    -2.4170     1.1760 F     1 <1>  -0.1900 
  9 C        1.7990    -0.8930     1.2390 C.ar  1 <1>  -0.1440 
 10 N       -1.4240    -2.0000    -1.5700 N.4   1 <1>  -0.9590 
 11 C        1.7850    -0.8620     2.7610 C.3   1 <1>  -0.0970 
 12 C       -2.5170    -2.9080    -1.9910 C.3   1 <1>   0.3430 
 13 C       -1.4790    -0.6840    -2.2710 C.3   1 <1>   0.3430 
 14 C       -3.8740    -2.3030    -1.6060 C.3   1 <1>  -0.1600 
 15 C       -2.9000    -0.1030    -2.2480 C.3   1 <1>  -0.1600 
 16 C       -3.8270    -0.8040    -1.2380 C.3   1 <1>   0.2800 
 17 O       -3.2280    -0.7390     0.0390 O.3   1 <1>  -0.5600 
 18 C       -5.2460    -0.1840    -1.2120 C.3   1 <1>  -0.1600 
 19 C       -3.4210     0.4350     0.7810 C.3   1 <1>   0.1200 
 20 C       -5.8490    -0.1370     0.1950 C.3   1 <1>   0.2800 
 21 C       -4.9060     0.6200     1.1360 C.3   1 <1>  -0.1600 
 22 O       -5.9380    -1.4230     0.6590 O.3   1 <1>  -0.6800 
 23 C       -7.2650     0.4310     0.2080 C.3   1 <1>  -0.2400 
 24 H        3.4190     0.4450    -1.4130 H     1 <1>   0.1500 
 25 H       -0.1230    -3.5900    -1.0910 H     1 <1>   0.0800 
 26 H        0.2410    -2.7960    -2.6040 H     1 <1>   0.0800 
 27 H        3.4130     0.5070     1.0470 H     1 <1>   0.1500 
 28 H       -1.6480    -1.7700    -0.5810 H     1 <1>   0.4500 
 29 H        0.8250    -0.5320     3.1150 H     1 <1>   0.0800 
 30 H        2.5360    -0.1930     3.1420 H     1 <1>   0.0800 
 31 H        1.9770    -1.8460     3.1510 H     1 <1>   0.0800 
 32 H       -2.4100    -3.8690    -1.5130 H     1 <1>   0.0800 
 33 H       -2.4740    -3.0520    -3.0580 H     1 <1>   0.0800 
 34 H       -1.1450    -0.7880    -3.2910 H     1 <1>   0.0800 
 35 H       -0.8150     0.0060    -1.7730 H     1 <1>   0.0800 
 36 H       -4.2920    -2.8660    -0.7920 H     1 <1>   0.0800 
 37 H       -4.5330    -2.4490    -2.4430 H     1 <1>   0.0800 
 38 H       -3.3220    -0.2060    -3.2320 H     1 <1>   0.0800 
 39 H       -2.8480     0.9520    -2.0510 H     1 <1>   0.0800 
 40 H       -5.9110    -0.7080    -1.8750 H     1 <1>   0.0800 
 41 H       -5.1980     0.8250    -1.5790 H     1 <1>   0.0800 
 42 H       -3.0630     1.2700     0.2040 H     1 <1>   0.0800 
 43 H       -2.8310     0.3620     1.6790 H     1 <1>   0.0800 
 44 H       -5.1180     1.6730     1.0830 H     1 <1>   0.0800 
 45 H       -5.0860     0.3240     2.1550 H     1 <1>   0.0800 
 46 H       -5.0310    -1.7160     0.8780 H     1 <1>   0.4000 
 47 H       -7.2670     1.4420    -0.1580 H     1 <1>   0.0800 
 48 H       -7.6560     0.4310     1.2100 H     1 <1>   0.0800 
 49 H       -7.9090    -0.1590    -0.4190 H     1 <1>   0.0800 
@<TRIPOS>BOND
  1   1   2  1   
  2   2   3  ar  
  3   2   4  ar  
  4   3   5  ar  
  5   3   6  1   
  6   4   7  ar  
  7   4  24  1   
  8   5   8  1   
  9   5   9  ar  
 10   6  10  1   
 11   6  25  1   
 12   6  26  1   
 13   7   9  ar  
 14   7  27  1   
 15   9  11  1   
 16  10  12  1   
 17  10  13  1   
 18  10  28  1   
 19  11  29  1   
 20  11  30  1   
 21  11  31  1   
 22  12  14  1   
 23  12  32  1   
 24  12  33  1   
 25  13  15  1   
 26  13  34  1   
 27  13  35  1   
 28  14  16  1   
 29  14  36  1   
 30  14  37  1   
 31  15  16  1   
 32  15  38  1   
 33  15  39  1   
 34  16  17  1   
 35  16  18  1   
 36  17  19  1   
 37  18  20  1   
 38  18  40  1   
 39  18  41  1   
 40  19  21  1   
 41  19  42  1   
 42  19  43  1   
 43  20  21  1   
 44  20  22  1   
 45  20  23  1   
 46  21  44  1   
 47  21  45  1   
 48  22  46  1   
 49  23  47  1   
 50  23  48  1   
 51  23  49  1   
@<TRIPOS>SUBSTRUCTURE
  1 ****  10 GROUP 4 **** **** 0

# MOE 2024.06 (io_trps.svl 2023.06)
