@<TRIPOS>MOLECULE
NONAME
49 51 1 0 0 
SMALL
USER_CHARGES


@<TRIPOS>ATOM
  1 O        0.4420    -0.4020     0.9010 O.2   1 <1>  -0.5700 
  2 C        1.4480    -0.6180     0.2570 C.2   1 <1>   0.7150 
  3 N        2.3340     0.3900    -0.0080 N.am  1 <1>  -0.4940 
  4 C        1.7760    -1.9250    -0.2240 C.2   1 <1>  -0.2370 
  5 C        2.4170     1.7380     0.4020 C.2   1 <1>  -0.0880 
  6 N        0.9180    -2.8490    -0.7530 N.pl3 1 <1>   0.3140 
  7 C        3.0080    -2.5080    -0.2610 C.2   1 <1>  -0.1500 
  8 N        1.4120     2.6210     0.6550 N.pl3 1 <1>   0.3140 
  9 C        3.5860     2.4140     0.5830 C.2   1 <1>  -0.0540 
 10 N        1.5740    -3.9700    -1.1150 N.2   1 <1>  -0.7070 
 11 C       -0.5510    -2.7800    -1.0440 C.3   1 <1>   0.1760 
 12 C        2.8170    -3.7570    -0.8130 C.2   1 <1>   0.1390 
 13 N        1.8980     3.8370     0.9880 N.2   1 <1>  -0.7070 
 14 C       -0.0390     2.4350     0.5330 C.3   1 <1>   0.0160 
 15 C        4.9280     1.8980     0.4520 C.ar  1 <1>   0.0540 
 16 C        3.1830     3.7040     0.9400 C.2   1 <1>   0.1080 
 17 C       -0.9520    -1.5190    -1.8280 C.3   1 <1>  -0.2400 
 18 C       -1.4010    -2.9770     0.2200 C.3   1 <1>  -0.2400 
 19 C        5.8140     2.3370    -0.5390 C.ar  1 <1>   0.0830 
 20 C        5.3600     0.9130     1.3360 C.ar  1 <1>  -0.1500 
 21 C        4.1210     4.8490     1.2470 C.3   1 <1>  -0.0590 
 22 O        5.3700     3.2940    -1.3990 O.3   1 <1>  -0.3630 
 23 C        7.0930     1.7920    -0.6230 C.ar  1 <1>  -0.1500 
 24 C        6.6290     0.3740     1.2490 C.ar  1 <1>  -0.1500 
 25 C        6.1850     3.8210    -2.4220 C.3   1 <1>   0.0400 
 26 C        7.4970     0.8140     0.2670 C.ar  1 <1>  -0.1500 
 27 H        3.1680     0.0610    -0.4950 H     1 <1>   0.3700 
 28 H        3.9510    -2.1100     0.0700 H     1 <1>   0.1500 
 29 H       -0.7590    -3.6170    -1.6870 H     1 <1>   0.0800 
 30 H        3.5950    -4.4830    -0.9820 H     1 <1>   0.1500 
 31 H       -0.2480     1.8150    -0.3170 H     1 <1>   0.0800 
 32 H       -0.5070     3.3920     0.4050 H     1 <1>   0.0800 
 33 H       -0.4080     1.9700     1.4270 H     1 <1>   0.0800 
 34 H       -0.9120    -0.6400    -1.2140 H     1 <1>   0.0800 
 35 H       -1.9610    -1.6250    -2.1830 H     1 <1>   0.0800 
 36 H       -0.3070    -1.3930    -2.6800 H     1 <1>   0.0800 
 37 H       -1.2960    -2.1530     0.9000 H     1 <1>   0.0800 
 38 H       -1.1080    -3.8840     0.7180 H     1 <1>   0.0800 
 39 H       -2.4380    -3.0590    -0.0480 H     1 <1>   0.0800 
 40 H        4.6850     0.5750     2.1040 H     1 <1>   0.1500 
 41 H        5.0220     4.4820     1.7010 H     1 <1>   0.0800 
 42 H        3.6440     5.5380     1.9190 H     1 <1>   0.0800 
 43 H        4.3660     5.3610     0.3350 H     1 <1>   0.0800 
 44 H        7.7890     2.1140    -1.3740 H     1 <1>   0.1500 
 45 H        6.9430    -0.3850     1.9460 H     1 <1>   0.1500 
 46 H        5.6150     4.5620    -2.9520 H     1 <1>   0.0800 
 47 H        6.4620     3.0260    -3.0920 H     1 <1>   0.0800 
 48 H        7.0530     4.2760    -1.9780 H     1 <1>   0.0800 
 49 H        8.4870     0.3960     0.1980 H     1 <1>   0.1500 
@<TRIPOS>BOND
  1   1   2  2   
  2   2   3  am  
  3   2   4  1   
  4   3   5  1   
  5   3  27  1   
  6   4   6  1   
  7   4   7  2   
  8   5   8  1   
  9   5   9  2   
 10   6  10  1   
 11   6  11  1   
 12   7  12  1   
 13   7  28  1   
 14   8  13  1   
 15   8  14  1   
 16   9  15  1   
 17   9  16  1   
 18  10  12  2   
 19  11  17  1   
 20  11  18  1   
 21  11  29  1   
 22  12  30  1   
 23  13  16  2   
 24  14  31  1   
 25  14  32  1   
 26  14  33  1   
 27  15  19  ar  
 28  15  20  ar  
 29  16  21  1   
 30  17  34  1   
 31  17  35  1   
 32  17  36  1   
 33  18  37  1   
 34  18  38  1   
 35  18  39  1   
 36  19  22  1   
 37  19  23  ar  
 38  20  24  ar  
 39  20  40  1   
 40  21  41  1   
 41  21  42  1   
 42  21  43  1   
 43  22  25  1   
 44  23  26  ar  
 45  23  44  1   
 46  24  26  ar  
 47  24  45  1   
 48  25  46  1   
 49  25  47  1   
 50  25  48  1   
 51  26  49  1   
@<TRIPOS>SUBSTRUCTURE
  1 ****   3 GROUP 4 **** **** 0

# MOE 2024.06 (io_trps.svl 2023.06)
