@<TRIPOS>MOLECULE
NONAME
33 34 1 0 0 
SMALL
USER_CHARGES


@<TRIPOS>ATOM
  1 CL       0.2830     0.6880    -1.0770 Cl    1 <1>  -0.1770 
  2 C        1.8370     1.2460    -0.5010 C.ar  1 <1>   0.1770 
  3 C        2.5390     2.2030    -1.2170 C.ar  1 <1>   0.1600 
  4 C        2.3520     0.7250     0.6660 C.ar  1 <1>  -0.1500 
  5 N        3.7240     2.6920    -0.8650 N.ar  1 <1>  -0.6200 
  6 C        3.5750     1.2300     1.0320 C.ar  1 <1>   0.1900 
  7 C        4.2400     2.2050     0.2660 C.ar  1 <1>   0.4100 
  8 F        4.1210     0.7710     2.1340 F     1 <1>  -0.1900 
  9 N        5.4740     2.7180     0.6390 N.pl3 1 <1>  -0.8380 
 10 C        5.5410     4.1860     0.8770 C.3   1 <1>   0.2090 
 11 C        6.6340     2.3070    -0.1880 C.3   1 <1>   0.2090 
 12 C        6.5180     4.7190    -0.1620 C.3   1 <1>  -0.0190 
 13 C        7.4940     3.5560    -0.3490 C.3   1 <1>  -0.1600 
 14 C        7.1600     6.0380     0.2440 C.2   1 <1>   0.5690 
 15 O        6.6660     6.7010     1.1230 O.2   1 <1>  -0.5700 
 16 N        8.2760     6.4450    -0.4180 N.am  1 <1>  -0.7300 
 17 C        9.0240     7.6850    -0.1380 C.3   1 <1>   0.1400 
 18 C       10.5050     7.3450    -0.0330 C.3   1 <1>  -0.2400 
 19 H        2.1000     2.5820    -2.1230 H     1 <1>   0.1500 
 20 H        1.8360    -0.0180     1.2440 H     1 <1>   0.1500 
 21 H        5.9150     4.3560     1.8730 H     1 <1>   0.0800 
 22 H        4.5760     4.6550     0.7810 H     1 <1>   0.0800 
 23 H        6.2960     1.9620    -1.1510 H     1 <1>   0.0800 
 24 H        7.1800     1.5180     0.3010 H     1 <1>   0.0800 
 25 H        5.9690     4.8760    -1.0730 H     1 <1>   0.0800 
 26 H        7.9820     3.5760    -1.3060 H     1 <1>   0.0800 
 27 H        8.2360     3.5680     0.4300 H     1 <1>   0.0800 
 28 H        8.6490     5.8700    -1.1720 H     1 <1>   0.3700 
 29 H        8.6800     8.1250     0.7840 H     1 <1>   0.0800 
 30 H        8.8570     8.3900    -0.9350 H     1 <1>   0.0800 
 31 H       10.6670     6.6430     0.7660 H     1 <1>   0.0800 
 32 H       11.0640     8.2370     0.1830 H     1 <1>   0.0800 
 33 H       10.8660     6.9320    -0.9570 H     1 <1>   0.0800 
@<TRIPOS>BOND
  1   1   2  1   
  2   2   3  ar  
  3   2   4  ar  
  4   3   5  ar  
  5   3  19  1   
  6   4   6  ar  
  7   4  20  1   
  8   5   7  ar  
  9   6   7  ar  
 10   6   8  1   
 11   7   9  1   
 12   9  10  1   
 13   9  11  1   
 14  10  12  1   
 15  10  21  1   
 16  10  22  1   
 17  11  13  1   
 18  11  23  1   
 19  11  24  1   
 20  12  13  1   
 21  12  14  1   
 22  12  25  1   
 23  13  26  1   
 24  13  27  1   
 25  14  15  2   
 26  14  16  am  
 27  16  17  1   
 28  16  28  1   
 29  17  18  1   
 30  17  29  1   
 31  17  30  1   
 32  18  31  1   
 33  18  32  1   
 34  18  33  1   
@<TRIPOS>SUBSTRUCTURE
  1 ****   9 GROUP 4 **** **** 0

# MOE 2024.06 (io_trps.svl 2023.06)
