@<TRIPOS>MOLECULE
NONAME
45 46 1 0 0 
SMALL
USER_CHARGES


@<TRIPOS>ATOM
  1 F        0.8760     0.9350     0.5210 F     1 <1>  -0.1900 
  2 C        2.0500     1.4120     0.8420 C.ar  1 <1>   0.1900 
  3 C        2.3240     2.7600     0.6470 C.ar  1 <1>  -0.1440 
  4 C        2.9660     0.5230     1.3650 C.ar  1 <1>  -0.1500 
  5 C        3.6050     3.2350     0.9720 C.ar  1 <1>   0.0860 
  6 C        1.2340     3.6890     0.1070 C.3   1 <1>  -0.0970 
  7 C        4.2160     0.9930     1.7150 C.ar  1 <1>  -0.1500 
  8 C        4.0410     4.6080     0.7590 C.2   1 <1>   0.5440 
  9 C        4.5190     2.3290     1.5210 C.ar  1 <1>  -0.1500 
 10 O        4.7610     5.1720     1.5610 O.2   1 <1>  -0.5700 
 11 N        3.8080     5.2760    -0.4190 N.am  1 <1>  -0.6600 
 12 C        4.5050     4.8190    -1.6590 C.3   1 <1>   0.1400 
 13 C        3.3380     6.6910    -0.4270 C.3   1 <1>   0.1400 
 14 C        6.0270     5.0810    -1.5740 C.3   1 <1>   0.3430 
 15 C        4.4720     7.7040    -0.1870 C.3   1 <1>  -0.1600 
 16 N        6.3540     6.1870    -0.6150 N.4   1 <1>  -0.9590 
 17 C        5.7440     7.4830    -1.0080 C.3   1 <1>   0.3430 
 18 C        7.8090     6.2650    -0.3010 C.3   1 <1>   0.3430 
 19 C        8.0510     6.9950     1.0230 C.3   1 <1>  -0.0220 
 20 C        9.5370     7.0230     1.3310 C.2   1 <1>  -0.2880 
 21 C       10.2840     8.1290     1.3740 C.2   1 <1>  -0.3000 
 22 H        2.7010    -0.5110     1.4990 H     1 <1>   0.1500 
 23 H        0.2530     3.2730     0.2480 H     1 <1>   0.0800 
 24 H        1.3810     3.8580    -0.9450 H     1 <1>   0.0800 
 25 H        1.2550     4.6320     0.6220 H     1 <1>   0.0800 
 26 H        4.9450     0.3230     2.1390 H     1 <1>   0.1500 
 27 H        5.4960     2.6820     1.8060 H     1 <1>   0.1500 
 28 H        4.0980     5.3340    -2.5120 H     1 <1>   0.0800 
 29 H        4.3310     3.7670    -1.8080 H     1 <1>   0.0800 
 30 H        2.5940     6.8150     0.3430 H     1 <1>   0.0800 
 31 H        2.8590     6.8960    -1.3690 H     1 <1>   0.0800 
 32 H        6.4150     5.3030    -2.5550 H     1 <1>   0.0800 
 33 H        6.5000     4.1740    -1.2350 H     1 <1>   0.0800 
 34 H        4.7220     7.7160     0.8600 H     1 <1>   0.0800 
 35 H        4.0900     8.6830    -0.4150 H     1 <1>   0.0800 
 36 H        5.8540     5.9160     0.2640 H     1 <1>   0.4500 
 37 H        6.4310     8.2890    -0.8090 H     1 <1>   0.0800 
 38 H        5.5150     7.4890    -2.0620 H     1 <1>   0.0800 
 39 H        8.3340     6.7720    -1.0950 H     1 <1>   0.0800 
 40 H        8.2130     5.2700    -0.2150 H     1 <1>   0.0800 
 41 H        7.5380     6.4880     1.8220 H     1 <1>   0.0800 
 42 H        7.6850     8.0040     0.9650 H     1 <1>   0.0800 
 43 H        9.9530     6.0460     1.5250 H     1 <1>   0.1500 
 44 H       11.3380     8.1300     1.5990 H     1 <1>   0.1500 
 45 H        9.9200     9.1270     1.1960 H     1 <1>   0.1500 
@<TRIPOS>BOND
  1   1   2  1   
  2   2   3  ar  
  3   2   4  ar  
  4   3   5  ar  
  5   3   6  1   
  6   4   7  ar  
  7   4  22  1   
  8   5   8  1   
  9   5   9  ar  
 10   6  23  1   
 11   6  24  1   
 12   6  25  1   
 13   7   9  ar  
 14   7  26  1   
 15   8  10  2   
 16   8  11  am  
 17   9  27  1   
 18  11  12  1   
 19  11  13  1   
 20  12  14  1   
 21  12  28  1   
 22  12  29  1   
 23  13  15  1   
 24  13  30  1   
 25  13  31  1   
 26  14  16  1   
 27  14  32  1   
 28  14  33  1   
 29  15  17  1   
 30  15  34  1   
 31  15  35  1   
 32  16  17  1   
 33  16  18  1   
 34  16  36  1   
 35  17  37  1   
 36  17  38  1   
 37  18  19  1   
 38  18  39  1   
 39  18  40  1   
 40  19  20  1   
 41  19  41  1   
 42  19  42  1   
 43  20  21  2   
 44  20  43  1   
 45  21  44  1   
 46  21  45  1   
@<TRIPOS>SUBSTRUCTURE
  1 ****   8 GROUP 4 **** **** 0

# MOE 2024.06 (io_trps.svl 2023.06)
