@<TRIPOS>MOLECULE
NONAME
41 42 1 0 0 
SMALL
USER_CHARGES


@<TRIPOS>ATOM
  1 S        2.0730     0.6930    -0.1900 S.3   1 <1>  -0.3320 
  2 C        1.7480    -1.0510    -0.4840 C.ar  1 <1>   0.1020 
  3 C        0.5430     1.3760     0.6280 C.3   1 <1>   0.1310 
  4 C        0.5670    -1.6730    -0.1350 C.ar  1 <1>  -0.1500 
  5 C        2.7260    -1.8060    -1.0890 C.ar  1 <1>  -0.1500 
  6 C        0.6740     2.8600     0.9380 C.2   1 <1>   0.5690 
  7 C        0.4310    -3.0220    -0.4120 C.ar  1 <1>   0.1600 
  8 C        2.4800    -3.1480    -1.3160 C.ar  1 <1>   0.1600 
  9 O       -0.2730     3.4050     1.4530 O.2   1 <1>  -0.5700 
 10 N        1.8420     3.5010     0.6250 N.am  1 <1>  -0.4940 
 11 N        1.3570    -3.7710    -0.9920 N.ar  1 <1>  -0.6200 
 12 C        2.2190     4.8540     0.8050 C.2   1 <1>  -0.0880 
 13 N        3.4140     5.4010     0.4370 N.pl3 1 <1>   0.3140 
 14 C        1.5020     5.8590     1.3600 C.2   1 <1>  -0.1500 
 15 N        3.4650     6.7190     0.7460 N.2   1 <1>  -0.7070 
 16 C        4.5810     4.7490    -0.2260 C.3   1 <1>   0.1760 
 17 C        2.3220     6.9770     1.2940 C.2   1 <1>   0.1080 
 18 C        4.2020     4.2610    -1.6410 C.3   1 <1>  -0.1600 
 19 C        5.1710     3.6390     0.6610 C.3   1 <1>  -0.2400 
 20 C        1.9560     8.3540     1.7940 C.3   1 <1>  -0.0590 
 21 C        5.4100     3.7940    -2.4660 C.3   1 <1>  -0.2400 
 22 H        0.3920     0.8270     1.5380 H     1 <1>   0.0800 
 23 H       -0.2800     1.2170    -0.0440 H     1 <1>   0.0800 
 24 H       -0.2380    -1.1500     0.3380 H     1 <1>   0.1500 
 25 H        3.6610    -1.3620    -1.3770 H     1 <1>   0.1500 
 26 H       -0.4880    -3.5150    -0.1420 H     1 <1>   0.1500 
 27 H        3.2450    -3.7420    -1.7890 H     1 <1>   0.1500 
 28 H        2.5430     2.8940     0.1940 H     1 <1>   0.3700 
 29 H        0.5090     5.8190     1.7690 H     1 <1>   0.1500 
 30 H        5.3300     5.5150    -0.3330 H     1 <1>   0.0800 
 31 H        3.7350     5.0790    -2.1650 H     1 <1>   0.0800 
 32 H        3.4910     3.4570    -1.5820 H     1 <1>   0.0800 
 33 H        4.5180     2.7880     0.7150 H     1 <1>   0.0800 
 34 H        5.3390     4.0190     1.6540 H     1 <1>   0.0800 
 35 H        6.1180     3.3150     0.2700 H     1 <1>   0.0800 
 36 H        0.9670     8.3510     2.2120 H     1 <1>   0.0800 
 37 H        1.9950     9.0520     0.9790 H     1 <1>   0.0800 
 38 H        2.6580     8.6580     2.5480 H     1 <1>   0.0800 
 39 H        6.1510     4.5710    -2.5230 H     1 <1>   0.0800 
 40 H        5.0960     3.5530    -3.4670 H     1 <1>   0.0800 
 41 H        5.8570     2.9150    -2.0360 H     1 <1>   0.0800 
@<TRIPOS>BOND
  1   1   2  1   
  2   1   3  1   
  3   2   4  ar  
  4   2   5  ar  
  5   3   6  1   
  6   3  22  1   
  7   3  23  1   
  8   4   7  ar  
  9   4  24  1   
 10   5   8  ar  
 11   5  25  1   
 12   6   9  2   
 13   6  10  am  
 14   7  11  ar  
 15   7  26  1   
 16   8  11  ar  
 17   8  27  1   
 18  10  12  1   
 19  10  28  1   
 20  12  13  1   
 21  12  14  2   
 22  13  15  1   
 23  13  16  1   
 24  14  17  1   
 25  14  29  1   
 26  15  17  2   
 27  16  18  1   
 28  16  19  1   
 29  16  30  1   
 30  17  20  1   
 31  18  21  1   
 32  18  31  1   
 33  18  32  1   
 34  19  33  1   
 35  19  34  1   
 36  19  35  1   
 37  20  36  1   
 38  20  37  1   
 39  20  38  1   
 40  21  39  1   
 41  21  40  1   
 42  21  41  1   
@<TRIPOS>SUBSTRUCTURE
  1 ****  10 GROUP 4 **** **** 0

# MOE 2024.06 (io_trps.svl 2023.06)
