@<TRIPOS>MOLECULE
NONAME
45 47 1 0 0 
SMALL
USER_CHARGES


@<TRIPOS>ATOM
  1 O        1.7570    -1.7750    -3.2060 O.2   1 <1>  -0.5700 
  2 C        2.4250    -1.4840    -2.2300 C.2   1 <1>   0.6950 
  3 N        3.6790    -0.9680    -2.4530 N.2   1 <1>  -0.6610 
  4 C        1.9090    -1.6740    -0.8960 C.ar  1 <1>   0.0860 
  5 C        4.3970    -0.6560    -1.4400 C.2   1 <1>   0.4390 
  6 C        2.7370    -1.3150     0.1680 C.ar  1 <1>   0.1000 
  7 C        0.6420    -2.1890    -0.6010 C.ar  1 <1>  -0.1500 
  8 N        3.9790    -0.8090    -0.1540 N.pl3 1 <1>  -0.5500 
  9 C        5.7980    -0.0770    -1.6450 C.3   1 <1>   0.2010 
 10 C        2.3110    -1.4650     1.4840 C.ar  1 <1>  -0.1500 
 11 C        0.2200    -2.3370     0.7050 C.ar  1 <1>  -0.1500 
 12 N        5.9470     1.2930    -1.0660 N.am  1 <1>  -0.7300 
 13 C        1.0590    -1.9740     1.7520 C.ar  1 <1>  -0.1500 
 14 C        6.0450     1.5730     0.2580 C.2   1 <1>   0.5690 
 15 O        6.0030     0.6950     1.0890 O.2   1 <1>  -0.5700 
 16 C        6.1650     3.0250     0.7110 C.3   1 <1>  -0.0190 
 17 C        4.9450     3.8610     0.2740 C.3   1 <1>  -0.1600 
 18 C        7.4920     3.6720     0.2440 C.3   1 <1>  -0.1600 
 19 C        4.9790     5.2900     0.8530 C.3   1 <1>   0.2000 
 20 C        7.4420     5.2120     0.1820 C.3   1 <1>  -0.1600 
 21 O        4.3890     6.1500    -0.0900 O.3   1 <1>  -0.5600 
 22 C        6.4170     5.7840     1.1640 C.3   1 <1>   0.2000 
 23 C        2.9960     6.1940    -0.0610 C.3   1 <1>   0.0400 
 24 O        6.4550     7.1590     1.0670 O.3   1 <1>  -0.6800 
 25 H       -0.0060    -2.4700    -1.4140 H     1 <1>   0.1500 
 26 H        4.6160    -0.4650     0.5850 H     1 <1>   0.4000 
 27 H        6.0150    -0.0430    -2.6980 H     1 <1>   0.0800 
 28 H        6.5110    -0.7360    -1.1810 H     1 <1>   0.0800 
 29 H        2.9660    -1.1830     2.2900 H     1 <1>   0.1500 
 30 H       -0.7580    -2.7350     0.9170 H     1 <1>   0.1500 
 31 H        5.8910     2.0610    -1.7380 H     1 <1>   0.3700 
 32 H        0.7240    -2.0940     2.7690 H     1 <1>   0.1500 
 33 H        6.1710     3.0120     1.7880 H     1 <1>   0.0800 
 34 H        4.0430     3.3720     0.5960 H     1 <1>   0.0800 
 35 H        4.9340     3.9170    -0.8010 H     1 <1>   0.0800 
 36 H        8.2710     3.3690     0.9230 H     1 <1>   0.0800 
 37 H        7.7670     3.3080    -0.7310 H     1 <1>   0.0800 
 38 H        4.4140     5.3350     1.7690 H     1 <1>   0.0800 
 39 H        7.1640     5.5150    -0.8140 H     1 <1>   0.0800 
 40 H        8.4180     5.6140     0.3960 H     1 <1>   0.0800 
 41 H        6.6970     5.5160     2.1680 H     1 <1>   0.0800 
 42 H        2.6680     6.8840    -0.8190 H     1 <1>   0.0800 
 43 H        2.6710     6.5400     0.9060 H     1 <1>   0.0800 
 44 H        2.5990     5.2160    -0.2680 H     1 <1>   0.0800 
 45 H        5.7820     7.3980     0.3900 H     1 <1>   0.4000 
@<TRIPOS>BOND
  1   1   2  2   
  2   2   3  1   
  3   2   4  1   
  4   3   5  2   
  5   4   6  ar  
  6   4   7  ar  
  7   5   8  1   
  8   5   9  1   
  9   6   8  1   
 10   6  10  ar  
 11   7  11  ar  
 12   7  25  1   
 13   8  26  1   
 14   9  12  1   
 15   9  27  1   
 16   9  28  1   
 17  10  13  ar  
 18  10  29  1   
 19  11  13  ar  
 20  11  30  1   
 21  12  14  am  
 22  12  31  1   
 23  13  32  1   
 24  14  15  2   
 25  14  16  1   
 26  16  17  1   
 27  16  18  1   
 28  16  33  1   
 29  17  19  1   
 30  17  34  1   
 31  17  35  1   
 32  18  20  1   
 33  18  36  1   
 34  18  37  1   
 35  19  21  1   
 36  19  22  1   
 37  19  38  1   
 38  20  22  1   
 39  20  39  1   
 40  20  40  1   
 41  21  23  1   
 42  22  24  1   
 43  22  41  1   
 44  23  42  1   
 45  23  43  1   
 46  23  44  1   
 47  24  45  1   
@<TRIPOS>SUBSTRUCTURE
  1 ****  14 GROUP 4 **** **** 0

# MOE 2024.06 (io_trps.svl 2023.06)
