@<TRIPOS>MOLECULE
NONAME
61 62 1 0 0 
SMALL
USER_CHARGES


@<TRIPOS>ATOM
  1 O        4.7550     1.2590     1.4010 O.2   1 <1>  -0.5700 
  2 C        4.1870     0.2610     1.0110 C.2   1 <1>   0.5690 
  3 N        3.1730     0.3180     0.0880 N.am  1 <1>  -0.6600 
  4 C        4.6620    -1.0730     1.5590 C.3   1 <1>  -0.0990 
  5 C        2.5470    -0.8960    -0.5040 C.3   1 <1>   0.1400 
  6 C        2.6510     1.6230    -0.4110 C.3   1 <1>   0.1400 
  7 C        5.3920    -1.9220     0.5050 C.3   1 <1>  -0.1600 
  8 C        3.5690    -1.6970    -1.3180 C.3   1 <1>  -0.1600 
  9 C        3.6620     2.2380    -1.3800 C.3   1 <1>  -0.0990 
 10 C        4.4440    -2.6340    -0.4690 C.3   1 <1>  -0.1600 
 11 C        3.4850     3.7330    -1.5570 C.2   1 <1>   0.5690 
 12 O        2.9710     4.1060    -2.5810 O.2   1 <1>  -0.5700 
 13 N        3.9860     4.6300    -0.6400 N.am  1 <1>  -0.6600 
 14 C        4.4720     4.2970     0.7340 C.3   1 <1>   0.1400 
 15 C        4.1910     6.0490    -1.0190 C.3   1 <1>   0.1400 
 16 C        5.9720     3.9550     0.7620 C.3   1 <1>   0.3430 
 17 C        5.5780     6.2270    -1.6540 C.3   1 <1>  -0.1600 
 18 N        6.8450     5.0270     0.1560 N.4   1 <1>  -0.9590 
 19 C        6.6180     5.1490    -1.3190 C.3   1 <1>   0.3430 
 20 C        8.2760     4.7060     0.4680 C.3   1 <1>   0.3430 
 21 C        9.2240     5.8810     0.2020 C.3   1 <1>   0.1200 
 22 O       10.4960     5.4630     0.5620 O.3   1 <1>  -0.5600 
 23 C       11.4900     6.4250     0.4050 C.3   1 <1>   0.1200 
 24 C       12.8140     5.8010     0.8390 C.3   1 <1>  -0.1600 
 25 C       13.9720     6.7950     0.6980 C.3   1 <1>  -0.2400 
 26 H        3.8300    -1.6130     1.9720 H     1 <1>   0.0800 
 27 H        5.3430    -0.8730     2.3660 H     1 <1>   0.0800 
 28 H        1.7420    -0.6060    -1.1580 H     1 <1>   0.0800 
 29 H        2.1240    -1.5070     0.2750 H     1 <1>   0.0800 
 30 H        2.4740     2.2650     0.4310 H     1 <1>   0.0800 
 31 H        1.7040     1.4960    -0.9090 H     1 <1>   0.0800 
 32 H        5.9700    -2.6730     1.0160 H     1 <1>   0.0800 
 33 H        6.0830    -1.3030    -0.0420 H     1 <1>   0.0800 
 34 H        4.1810    -1.0310    -1.9010 H     1 <1>   0.0800 
 35 H        3.0220    -2.3110    -2.0110 H     1 <1>   0.0800 
 36 H        3.5470     1.7640    -2.3370 H     1 <1>   0.0800 
 37 H        4.6650     2.0550    -1.0530 H     1 <1>   0.0800 
 38 H        3.8120    -3.3100     0.0810 H     1 <1>   0.0800 
 39 H        5.0400    -3.2350    -1.1360 H     1 <1>   0.0800 
 40 H        3.9150     3.4790     1.1400 H     1 <1>   0.0800 
 41 H        4.2880     5.1280     1.3920 H     1 <1>   0.0800 
 42 H        4.0970     6.6740    -0.1470 H     1 <1>   0.0800 
 43 H        3.4280     6.3610    -1.7150 H     1 <1>   0.0800 
 44 H        6.1230     3.0220     0.2450 H     1 <1>   0.0800 
 45 H        6.2550     3.7950     1.7900 H     1 <1>   0.0800 
 46 H        5.9610     7.2020    -1.4150 H     1 <1>   0.0800 
 47 H        5.4400     6.2100    -2.7210 H     1 <1>   0.0800 
 48 H        6.6010     5.9210     0.5960 H     1 <1>   0.4500 
 49 H        7.5400     5.4020    -1.8160 H     1 <1>   0.0800 
 50 H        6.2870     4.2010    -1.7140 H     1 <1>   0.0800 
 51 H        8.5950     3.8600    -0.1180 H     1 <1>   0.0800 
 52 H        8.3640     4.4440     1.5100 H     1 <1>   0.0800 
 53 H        8.9620     6.7300     0.8100 H     1 <1>   0.0800 
 54 H        9.2400     6.1470    -0.8400 H     1 <1>   0.0800 
 55 H       11.2550     7.2760     1.0220 H     1 <1>   0.0800 
 56 H       11.5340     6.7190    -0.6310 H     1 <1>   0.0800 
 57 H       13.0160     4.9360     0.2300 H     1 <1>   0.0800 
 58 H       12.7400     5.4880     1.8660 H     1 <1>   0.0800 
 59 H       14.0790     7.1090    -0.3250 H     1 <1>   0.0800 
 60 H       14.8920     6.3320     1.0100 H     1 <1>   0.0800 
 61 H       13.8030     7.6620     1.3130 H     1 <1>   0.0800 
@<TRIPOS>BOND
  1   1   2  2   
  2   2   3  am  
  3   2   4  1   
  4   3   5  1   
  5   3   6  1   
  6   4   7  1   
  7   4  26  1   
  8   4  27  1   
  9   5   8  1   
 10   5  28  1   
 11   5  29  1   
 12   6   9  1   
 13   6  30  1   
 14   6  31  1   
 15   7  10  1   
 16   7  32  1   
 17   7  33  1   
 18   8  10  1   
 19   8  34  1   
 20   8  35  1   
 21   9  11  1   
 22   9  36  1   
 23   9  37  1   
 24  10  38  1   
 25  10  39  1   
 26  11  12  2   
 27  11  13  am  
 28  13  14  1   
 29  13  15  1   
 30  14  16  1   
 31  14  40  1   
 32  14  41  1   
 33  15  17  1   
 34  15  42  1   
 35  15  43  1   
 36  16  18  1   
 37  16  44  1   
 38  16  45  1   
 39  17  19  1   
 40  17  46  1   
 41  17  47  1   
 42  18  19  1   
 43  18  20  1   
 44  18  48  1   
 45  19  49  1   
 46  19  50  1   
 47  20  21  1   
 48  20  51  1   
 49  20  52  1   
 50  21  22  1   
 51  21  53  1   
 52  21  54  1   
 53  22  23  1   
 54  23  24  1   
 55  23  55  1   
 56  23  56  1   
 57  24  25  1   
 58  24  57  1   
 59  24  58  1   
 60  25  59  1   
 61  25  60  1   
 62  25  61  1   
@<TRIPOS>SUBSTRUCTURE
  1 ****  16 GROUP 4 **** **** 0

# MOE 2024.06 (io_trps.svl 2023.06)
