@<TRIPOS>MOLECULE
NONAME
62 65 1 0 0 
SMALL
USER_CHARGES


@<TRIPOS>ATOM
  1 O        1.0780     0.8770     2.5550 O.2   1 <1>  -0.5700 
  2 C        1.3230     1.2050     1.4090 C.2   1 <1>   0.5440 
  3 N        2.1050     0.3690     0.6320 N.am  1 <1>  -0.6600 
  4 C        0.7450     2.4390     0.9060 C.ar  1 <1>   0.0860 
  5 C        2.2170    -1.0870     0.9590 C.3   1 <1>   0.1400 
  6 C        3.0410     0.8700    -0.4120 C.3   1 <1>   0.0600 
  7 C        0.2800     2.5600    -0.4060 C.ar  1 <1>  -0.1500 
  8 C        0.5800     3.5420     1.7480 C.ar  1 <1>  -0.1500 
  9 C        1.4730    -2.0040    -0.0430 C.3   1 <1>  -0.0800 
 10 C       -0.3560     3.7050    -0.8440 C.ar  1 <1>  -0.1500 
 11 C       -0.0560     4.6930     1.3210 C.ar  1 <1>  -0.1500 
 12 C        0.2340    -1.3430    -0.6870 C.3   1 <1>  -0.1600 
 13 C        1.0640    -3.3080     0.6780 C.3   1 <1>  -0.1600 
 14 C       -0.5540     4.7610     0.0280 C.ar  1 <1>   0.0830 
 15 C       -0.5760    -2.3240    -1.5390 C.3   1 <1>   0.1400 
 16 C        0.1940    -4.2320    -0.1820 C.3   1 <1>   0.1400 
 17 O       -1.2650     5.8180    -0.3980 O.3   1 <1>  -0.3630 
 18 N       -0.9770    -3.4650    -0.6830 N.am  1 <1>  -0.6600 
 19 C       -2.4830     6.1440     0.2480 C.3   1 <1>   0.1200 
 20 C       -2.2500    -3.7240    -0.2310 C.2   1 <1>   0.5690 
 21 C       -3.5350     5.0470     0.0020 C.3   1 <1>  -0.1600 
 22 O       -2.4770    -4.6240     0.5430 O.2   1 <1>  -0.5700 
 23 C       -3.4480    -2.8970    -0.6840 C.3   1 <1>  -0.0990 
 24 C       -3.4770     3.9010     1.0320 C.3   1 <1>   0.0960 
 25 C       -3.5070    -1.4980    -0.0390 C.3   1 <1>  -0.1600 
 26 N       -4.2010     2.7060     0.5550 N.pl3 1 <1>   0.3140 
 27 C       -4.7750    -0.7290    -0.4410 C.3   1 <1>   0.0210 
 28 N       -5.4790     2.7150     0.1650 N.2   1 <1>  -0.4180 
 29 C       -3.7080     1.4740     0.4270 C.2   1 <1>  -0.3020 
 30 C       -4.7230     0.7430    -0.0610 C.2   1 <1>   0.0460 
 31 N       -5.7970     1.5250    -0.2120 N.2   1 <1>  -0.2270 
 32 H        1.8120    -1.2560     1.9420 H     1 <1>   0.0800 
 33 H        3.2550    -1.3670     1.0060 H     1 <1>   0.0800 
 34 H        3.0230     1.9450    -0.4540 H     1 <1>   0.0800 
 35 H        2.7640     0.4740    -1.3730 H     1 <1>   0.0800 
 36 H        4.0440     0.5570    -0.1790 H     1 <1>   0.0800 
 37 H        0.4030     1.7390    -1.0860 H     1 <1>   0.1500 
 38 H        0.9490     3.4800     2.7580 H     1 <1>   0.1500 
 39 H        2.1590    -2.2590    -0.8310 H     1 <1>   0.0800 
 40 H       -0.7210     3.7830    -1.8530 H     1 <1>   0.1500 
 41 H       -0.1730     5.5290     1.9860 H     1 <1>   0.1500 
 42 H        0.5430    -0.5350    -1.3210 H     1 <1>   0.0800 
 43 H       -0.3950    -0.9390     0.0860 H     1 <1>   0.0800 
 44 H        0.5000    -3.0700     1.5650 H     1 <1>   0.0800 
 45 H        1.9430    -3.8450     0.9880 H     1 <1>   0.0800 
 46 H        0.0300    -2.6910    -2.3500 H     1 <1>   0.0800 
 47 H       -1.4280    -1.8320    -1.9670 H     1 <1>   0.0800 
 48 H       -0.1260    -5.0780     0.4030 H     1 <1>   0.0800 
 49 H        0.7590    -4.6020    -1.0190 H     1 <1>   0.0800 
 50 H       -2.8200     7.0690    -0.1870 H     1 <1>   0.0800 
 51 H       -2.3020     6.3030     1.2960 H     1 <1>   0.0800 
 52 H       -3.4130     4.6650    -0.9970 H     1 <1>   0.0800 
 53 H       -4.5120     5.4920     0.0640 H     1 <1>   0.0800 
 54 H       -4.3390    -3.4390    -0.4190 H     1 <1>   0.0800 
 55 H       -3.4330    -2.8180    -1.7540 H     1 <1>   0.0800 
 56 H       -3.9180     4.2150     1.9590 H     1 <1>   0.0800 
 57 H       -2.4670     3.6030     1.2270 H     1 <1>   0.0800 
 58 H       -2.6510    -0.9310    -0.3440 H     1 <1>   0.0800 
 59 H       -3.4750    -1.5930     1.0340 H     1 <1>   0.0800 
 60 H       -5.6320    -1.1790     0.0290 H     1 <1>   0.0800 
 61 H       -4.9150    -0.7860    -1.5060 H     1 <1>   0.0800 
 62 H       -2.6990     1.2090     0.6810 H     1 <1>   0.1500 
@<TRIPOS>BOND
  1   1   2  2   
  2   2   3  am  
  3   2   4  1   
  4   3   5  1   
  5   3   6  1   
  6   4   7  ar  
  7   4   8  ar  
  8   5   9  1   
  9   5  32  1   
 10   5  33  1   
 11   6  34  1   
 12   6  35  1   
 13   6  36  1   
 14   7  10  ar  
 15   7  37  1   
 16   8  11  ar  
 17   8  38  1   
 18   9  12  1   
 19   9  13  1   
 20   9  39  1   
 21  10  14  ar  
 22  10  40  1   
 23  11  14  ar  
 24  11  41  1   
 25  12  15  1   
 26  12  42  1   
 27  12  43  1   
 28  13  16  1   
 29  13  44  1   
 30  13  45  1   
 31  14  17  1   
 32  15  18  1   
 33  15  46  1   
 34  15  47  1   
 35  16  18  1   
 36  16  48  1   
 37  16  49  1   
 38  17  19  1   
 39  18  20  am  
 40  19  21  1   
 41  19  50  1   
 42  19  51  1   
 43  20  22  2   
 44  20  23  1   
 45  21  24  1   
 46  21  52  1   
 47  21  53  1   
 48  23  25  1   
 49  23  54  1   
 50  23  55  1   
 51  24  26  1   
 52  24  56  1   
 53  24  57  1   
 54  25  27  1   
 55  25  58  1   
 56  25  59  1   
 57  26  28  1   
 58  26  29  1   
 59  27  30  1   
 60  27  60  1   
 61  27  61  1   
 62  28  31  2   
 63  29  30  2   
 64  29  62  1   
 65  30  31  1   
@<TRIPOS>SUBSTRUCTURE
  1 ****   7 GROUP 4 **** **** 0

# MOE 2024.06 (io_trps.svl 2023.06)
