@<TRIPOS>MOLECULE
NONAME
49 51 1 0 0 
SMALL
USER_CHARGES


@<TRIPOS>ATOM
  1 O       -0.4990     0.9710    -0.9870 O.2   1 <1>  -0.5700 
  2 C       -0.4530     2.1480    -0.7160 C.2   1 <1>   0.5690 
  3 N       -1.3820     2.7790     0.0780 N.am  1 <1>  -0.6600 
  4 C        0.7020     2.9470    -1.3220 C.3   1 <1>   0.1810 
  5 C       -1.2490     4.2470     0.3800 C.3   1 <1>   0.3640 
  6 C       -2.4070     2.0640     0.8940 C.3   1 <1>   0.2200 
  7 O        0.9840     4.1330    -0.6230 O.3   1 <1>  -0.5600 
  8 C       -2.5790     4.9630     0.1300 C.ar  1 <1>  -0.1440 
  9 C       -0.1470     4.9600    -0.4430 C.3   1 <1>   0.2610 
 10 C       -1.7290     1.1440     1.9090 C.3   1 <1>  -0.2400 
 11 C       -3.3970     1.3060     0.0080 C.3   1 <1>  -0.2400 
 12 C       -3.2980     4.7560    -1.0410 C.ar  1 <1>  -0.1500 
 13 C       -3.0780     5.8440     1.0780 C.ar  1 <1>  -0.1500 
 14 C        0.2560     6.3050     0.1900 C.2   1 <1>   0.5690 
 15 C       -4.4950     5.4160    -1.2570 C.ar  1 <1>  -0.1500 
 16 C       -4.2740     6.5060     0.8630 C.ar  1 <1>  -0.1500 
 17 O        0.1060     6.4620     1.3830 O.2   1 <1>  -0.5700 
 18 N        0.7740     7.3180    -0.5830 N.am  1 <1>  -0.6600 
 19 C       -4.9840     6.2920    -0.3050 C.ar  1 <1>  -0.1500 
 20 C        1.0920     8.6430     0.0290 C.3   1 <1>   0.3210 
 21 C        1.2180     7.1670    -1.9990 C.3   1 <1>   0.0600 
 22 C        2.5710     8.7380     0.3680 C.2   1 <1>   0.1080 
 23 N        3.3970     9.5570    -0.1840 N.2   1 <1>  -0.4100 
 24 C        3.2210     7.9470     1.3140 C.2   1 <1>  -0.1500 
 25 O        4.5550     9.3310     0.3670 O.3   1 <1>  -0.0190 
 26 C        4.4880     8.3810     1.2610 C.2   1 <1>  -0.0100 
 27 H        0.4720     3.1950    -2.3410 H     1 <1>   0.0800 
 28 H        1.5920     2.3440    -1.3060 H     1 <1>   0.0800 
 29 H       -1.0010     4.3270     1.4240 H     1 <1>   0.0800 
 30 H       -2.9740     2.7900     1.4530 H     1 <1>   0.0800 
 31 H       -0.5450     5.1700    -1.4180 H     1 <1>   0.0800 
 32 H       -1.2100     0.3430     1.4160 H     1 <1>   0.0800 
 33 H       -2.4680     0.7140     2.5590 H     1 <1>   0.0800 
 34 H       -1.0330     1.7020     2.5090 H     1 <1>   0.0800 
 35 H       -2.9170     0.4970    -0.5100 H     1 <1>   0.0800 
 36 H       -3.8430     1.9720    -0.7060 H     1 <1>   0.0800 
 37 H       -4.1800     0.8930     0.6170 H     1 <1>   0.0800 
 38 H       -2.9320     4.0730    -1.7880 H     1 <1>   0.1500 
 39 H       -2.5340     6.0260     1.9910 H     1 <1>   0.1500 
 40 H       -5.0480     5.2470    -2.1650 H     1 <1>   0.1500 
 41 H       -4.6520     7.1880     1.6050 H     1 <1>   0.1500 
 42 H       -5.9150     6.8050    -0.4710 H     1 <1>   0.1500 
 43 H        0.8330     9.4260    -0.6610 H     1 <1>   0.0800 
 44 H        0.5160     8.7940     0.9250 H     1 <1>   0.0800 
 45 H        2.1440     7.6950    -2.1530 H     1 <1>   0.0800 
 46 H        0.4720     7.5750    -2.6600 H     1 <1>   0.0800 
 47 H        1.3850     6.1340    -2.2460 H     1 <1>   0.0800 
 48 H        2.7690     7.1800     1.9180 H     1 <1>   0.1500 
 49 H        5.3730     8.0890     1.7950 H     1 <1>   0.1500 
@<TRIPOS>BOND
  1   1   2  2   
  2   2   3  am  
  3   2   4  1   
  4   3   5  1   
  5   3   6  1   
  6   4   7  1   
  7   4  27  1   
  8   4  28  1   
  9   5   8  1   
 10   5   9  1   
 11   5  29  1   
 12   6  10  1   
 13   6  11  1   
 14   6  30  1   
 15   7   9  1   
 16   8  12  ar  
 17   8  13  ar  
 18   9  14  1   
 19   9  31  1   
 20  10  32  1   
 21  10  33  1   
 22  10  34  1   
 23  11  35  1   
 24  11  36  1   
 25  11  37  1   
 26  12  15  ar  
 27  12  38  1   
 28  13  16  ar  
 29  13  39  1   
 30  14  17  2   
 31  14  18  am  
 32  15  19  ar  
 33  15  40  1   
 34  16  19  ar  
 35  16  41  1   
 36  18  20  1   
 37  18  21  1   
 38  19  42  1   
 39  20  22  1   
 40  20  43  1   
 41  20  44  1   
 42  21  45  1   
 43  21  46  1   
 44  21  47  1   
 45  22  23  2   
 46  22  24  1   
 47  23  25  1   
 48  24  26  2   
 49  24  48  1   
 50  25  26  1   
 51  26  49  1   
@<TRIPOS>SUBSTRUCTURE
  1 ****   9 GROUP 4 **** **** 0

# MOE 2024.06 (io_trps.svl 2023.06)
