@<TRIPOS>MOLECULE
NONAME
49 50 1 0 0 
SMALL
USER_CHARGES


@<TRIPOS>ATOM
  1 S        0.1110    -0.3090    -1.6990 S.o2  1 <1>   1.4470 
  2 O        0.8550    -1.4210    -2.2550 O.2   1 <1>  -0.6500 
  3 O       -0.8270     0.3730    -2.5680 O.2   1 <1>  -0.6500 
  4 N       -0.7690    -0.9070    -0.3760 N.am  1 <1>  -0.8490 
  5 C        1.3170     0.8020    -0.9150 C.ar  1 <1>  -0.0090 
  6 C       -1.4800    -2.1570    -0.7080 C.3   1 <1>   0.1960 
  7 C       -1.6920     0.0950     0.1640 C.3   1 <1>   0.1960 
  8 C        1.1040     2.1670    -0.7500 C.ar  1 <1>   0.0820 
  9 C        2.5040     0.2730    -0.4250 C.ar  1 <1>  -0.1500 
 10 C       -2.1330    -2.7510     0.5430 C.3   1 <1>  -0.1860 
 11 C       -2.3320    -0.4130     1.4540 C.3   1 <1>  -0.1600 
 12 O       -0.0610     2.6990    -1.1940 O.3   1 <1>  -0.3620 
 13 C        2.0690     2.9540    -0.1290 C.ar  1 <1>  -0.1500 
 14 C        3.4790     1.0430     0.1950 C.ar  1 <1>  -0.1440 
 15 C       -2.9190    -3.9990     0.2150 C.2   1 <1>   0.9060 
 16 C       -3.0580    -1.7260     1.1910 C.3   1 <1>   0.2000 
 17 C       -0.1900     4.0730    -1.4880 C.3   1 <1>   0.0400 
 18 C        3.2520     2.4090     0.3400 C.ar  1 <1>  -0.1440 
 19 C        4.7550     0.3500     0.6930 C.3   1 <1>   0.0630 
 20 O       -3.0150    -4.3800    -0.9540 O.co2 1 <1>  -0.9000 
 21 O       -3.4810    -4.5860     1.1490 O.co2 1 <1>  -0.9000 
 22 O       -3.5020    -2.2290     2.3940 O.3   1 <1>  -0.6800 
 23 C        4.2570     3.3400     1.0070 C.3   1 <1>  -0.0970 
 24 C        5.5110    -0.3090    -0.4670 C.3   1 <1>  -0.2400 
 25 C        4.4280    -0.6790     1.7800 C.3   1 <1>  -0.2400 
 26 H       -2.2270    -1.9680    -1.4620 H     1 <1>   0.0800 
 27 H       -0.7890    -2.8820    -1.1070 H     1 <1>   0.0800 
 28 H       -1.1580     1.0020     0.3850 H     1 <1>   0.0800 
 29 H       -2.4560     0.3210    -0.5630 H     1 <1>   0.0800 
 30 H        2.6610    -0.7860    -0.5380 H     1 <1>   0.1500 
 31 H       -1.3560    -3.0250     1.2300 H     1 <1>   0.0800 
 32 H       -3.0310     0.3160     1.8210 H     1 <1>   0.0800 
 33 H       -1.5630    -0.5620     2.1910 H     1 <1>   0.0800 
 34 H        1.9010     4.0050     0.0010 H     1 <1>   0.1500 
 35 H       -3.9190    -1.5650     0.5630 H     1 <1>   0.0800 
 36 H       -1.1230     4.2150    -2.0040 H     1 <1>   0.0800 
 37 H        0.6260     4.3720    -2.1220 H     1 <1>   0.0800 
 38 H       -0.1930     4.6310    -0.5690 H     1 <1>   0.0800 
 39 H        5.4230     1.0670     1.1320 H     1 <1>   0.0800 
 40 H       -3.6710    -3.2040     2.2310 H     1 <1>   0.4000 
 41 H        3.8990     4.3530     1.0270 H     1 <1>   0.0800 
 42 H        5.1860     3.3250     0.4660 H     1 <1>   0.0800 
 43 H        4.4320     3.0270     2.0210 H     1 <1>   0.0800 
 44 H        4.9360    -1.1040    -0.9040 H     1 <1>   0.0800 
 45 H        6.4440    -0.7150    -0.1190 H     1 <1>   0.0800 
 46 H        5.7180     0.4220    -1.2280 H     1 <1>   0.0800 
 47 H        3.8240    -1.4780     1.3880 H     1 <1>   0.0800 
 48 H        3.8870    -0.2050     2.5800 H     1 <1>   0.0800 
 49 H        5.3330    -1.0990     2.1810 H     1 <1>   0.0800 
@<TRIPOS>BOND
  1   1   2  2   
  2   1   3  2   
  3   1   4  am  
  4   1   5  1   
  5   4   6  1   
  6   4   7  1   
  7   5   8  ar  
  8   5   9  ar  
  9   6  10  1   
 10   6  26  1   
 11   6  27  1   
 12   7  11  1   
 13   7  28  1   
 14   7  29  1   
 15   8  12  1   
 16   8  13  ar  
 17   9  14  ar  
 18   9  30  1   
 19  10  15  1   
 20  10  16  1   
 21  10  31  1   
 22  11  16  1   
 23  11  32  1   
 24  11  33  1   
 25  12  17  1   
 26  13  18  ar  
 27  13  34  1   
 28  14  18  ar  
 29  14  19  1   
 30  15  20  ar  
 31  15  21  ar  
 32  16  22  1   
 33  16  35  1   
 34  17  36  1   
 35  17  37  1   
 36  17  38  1   
 37  18  23  1   
 38  19  24  1   
 39  19  25  1   
 40  19  39  1   
 41  22  40  1   
 42  23  41  1   
 43  23  42  1   
 44  23  43  1   
 45  24  44  1   
 46  24  45  1   
 47  24  46  1   
 48  25  47  1   
 49  25  48  1   
 50  25  49  1   
@<TRIPOS>SUBSTRUCTURE
  1 ****   4 GROUP 4 **** **** 0

# MOE 2024.06 (io_trps.svl 2023.06)
