@<TRIPOS>MOLECULE
NONAME
41 42 1 0 0 
SMALL
USER_CHARGES


@<TRIPOS>ATOM
  1 S       -0.2920    -0.6460    -0.8520 S.3   1 <1>  -0.0800 
  2 C       -0.6420    -1.8590     0.3340 C.2   1 <1>   0.4420 
  3 C       -0.1150     0.4790     0.4540 C.2   1 <1>   0.1980 
  4 N       -0.6110    -1.3920     1.5290 N.2   1 <1>  -0.3380 
  5 N       -0.9060    -3.1250    -0.1420 N.am  1 <1>  -0.4940 
  6 N       -0.3100    -0.0600     1.5900 N.2   1 <1>  -0.3380 
  7 C        0.2320     1.9330     0.1400 C.3   1 <1>   0.3800 
  8 C       -1.1970    -4.2680     0.5510 C.2   1 <1>   0.5690 
  9 O       -0.7010     2.4890    -0.7410 O.3   1 <1>  -0.5600 
 10 C        1.6040     2.0730    -0.5180 C.3   1 <1>  -0.2400 
 11 O       -1.2260    -4.3280     1.7540 O.2   1 <1>  -0.5700 
 12 C       -1.5060    -5.5380    -0.2540 C.3   1 <1>   0.1710 
 13 C       -1.9570     2.7360    -0.1860 C.3   1 <1>   0.0400 
 14 N       -2.9270    -5.7130    -0.6640 N.3   1 <1>  -0.8100 
 15 C       -3.8030    -5.8190     0.5230 C.3   1 <1>   0.2530 
 16 C       -3.3940    -4.6820    -1.6040 C.3   1 <1>   0.0300 
 17 C       -5.2150    -6.2340     0.1320 C.ar  1 <1>  -0.1430 
 18 C       -6.3260    -5.5260     0.5460 C.ar  1 <1>  -0.1500 
 19 C       -5.4580    -7.3410    -0.6550 C.ar  1 <1>  -0.1500 
 20 C       -7.5880    -5.9490     0.1620 C.ar  1 <1>   0.1600 
 21 C       -6.7600    -7.6780    -0.9840 C.ar  1 <1>   0.1600 
 22 N       -7.8330    -7.0070    -0.5940 N.ar  1 <1>  -0.6200 
 23 H       -0.9120    -3.2080    -1.1540 H     1 <1>   0.3700 
 24 H        0.2210     2.5060     1.0510 H     1 <1>   0.0800 
 25 H        1.6230     1.5600    -1.4620 H     1 <1>   0.0800 
 26 H        2.3580     1.6520     0.1210 H     1 <1>   0.0800 
 27 H        1.8280     3.1120    -0.6740 H     1 <1>   0.0800 
 28 H       -1.2180    -6.3830     0.3460 H     1 <1>   0.0800 
 29 H       -0.8870    -5.5550    -1.1320 H     1 <1>   0.0800 
 30 H       -2.5770     3.1780    -0.9460 H     1 <1>   0.0800 
 31 H       -1.8560     3.4200     0.6390 H     1 <1>   0.0800 
 32 H       -2.3980     1.8110     0.1430 H     1 <1>   0.0800 
 33 H       -3.8300    -4.8770     1.0460 H     1 <1>   0.0800 
 34 H       -3.4060    -6.5600     1.1960 H     1 <1>   0.0800 
 35 H       -2.7200    -4.6120    -2.4410 H     1 <1>   0.0800 
 36 H       -3.4680    -3.7250    -1.1170 H     1 <1>   0.0800 
 37 H       -4.3660    -4.9470    -1.9860 H     1 <1>   0.0800 
 38 H       -6.2230    -4.6530     1.1630 H     1 <1>   0.1500 
 39 H       -4.6380    -7.9350    -1.0170 H     1 <1>   0.1500 
 40 H       -8.4430    -5.3850     0.4950 H     1 <1>   0.1500 
 41 H       -6.9270    -8.5440    -1.6010 H     1 <1>   0.1500 
@<TRIPOS>BOND
  1   1   2  1   
  2   1   3  1   
  3   2   4  2   
  4   2   5  1   
  5   3   6  2   
  6   3   7  1   
  7   4   6  1   
  8   5   8  am  
  9   5  23  1   
 10   7   9  1   
 11   7  10  1   
 12   7  24  1   
 13   8  11  2   
 14   8  12  1   
 15   9  13  1   
 16  10  25  1   
 17  10  26  1   
 18  10  27  1   
 19  12  14  1   
 20  12  28  1   
 21  12  29  1   
 22  13  30  1   
 23  13  31  1   
 24  13  32  1   
 25  14  15  1   
 26  14  16  1   
 27  15  17  1   
 28  15  33  1   
 29  15  34  1   
 30  16  35  1   
 31  16  36  1   
 32  16  37  1   
 33  17  18  ar  
 34  17  19  ar  
 35  18  20  ar  
 36  18  38  1   
 37  19  21  ar  
 38  19  39  1   
 39  20  22  ar  
 40  20  40  1   
 41  21  22  ar  
 42  21  41  1   
@<TRIPOS>SUBSTRUCTURE
  1 ****   5 GROUP 4 **** **** 0

# MOE 2024.06 (io_trps.svl 2023.06)
