@<TRIPOS>MOLECULE
NONAME
54 56 1 0 0 
SMALL
USER_CHARGES


@<TRIPOS>ATOM
  1 O       -2.4730     0.7740    -2.3660 O.2   1 <1>  -0.5700 
  2 C       -2.0830     1.3030    -1.3410 C.2   1 <1>   0.5440 
  3 N       -2.4870     0.7720    -0.1300 N.am  1 <1>  -0.6600 
  4 C       -1.2290     2.4720    -1.4340 C.ar  1 <1>   0.0860 
  5 C       -3.1260    -0.5790    -0.0910 C.3   1 <1>   0.1400 
  6 C       -2.4120     1.5300     1.1540 C.3   1 <1>   0.1400 
  7 C       -0.0540     2.5870    -0.6910 C.ar  1 <1>  -0.1500 
  8 C       -1.5530     3.5260    -2.2860 C.ar  1 <1>  -0.1500 
  9 C       -4.6390    -0.4910    -0.3410 C.3   1 <1>   0.1400 
 10 C       -3.6890     1.4520     2.0030 C.3   1 <1>  -0.1600 
 11 C        0.7600     3.7030    -0.7580 C.ar  1 <1>   0.0830 
 12 C       -0.7570     4.6530    -2.3740 C.ar  1 <1>  -0.1500 
 13 N       -5.3730     0.0700     0.8390 N.am  1 <1>  -0.6600 
 14 C       -4.9910     1.4660     1.1950 C.3   1 <1>   0.1400 
 15 O        1.8610     3.6450     0.0460 O.3   1 <1>  -0.3630 
 16 C        0.3960     4.7580    -1.6120 C.ar  1 <1>   0.0830 
 17 C       -6.3630    -0.5840     1.5430 C.2   1 <1>   0.5690 
 18 C        2.9720     4.4980    -0.1230 C.3   1 <1>   0.0400 
 19 O        1.1060     5.8960    -1.7350 O.3   1 <1>  -0.5320 
 20 O       -6.9060    -0.0470     2.4830 O.2   1 <1>  -0.5700 
 21 C       -6.8000    -2.0190     1.1790 C.3   1 <1>   0.1240 
 22 C       -7.5030    -2.0850    -0.1790 C.ar  1 <1>  -0.1430 
 23 C       -7.7070    -2.6820     2.2330 C.3   1 <1>  -0.2400 
 24 C       -8.4370    -1.1240    -0.5420 C.ar  1 <1>  -0.1500 
 25 C       -7.2130    -3.1120    -1.0660 C.ar  1 <1>  -0.1500 
 26 C       -9.0630    -1.1830    -1.7750 C.ar  1 <1>  -0.1500 
 27 C       -7.8370    -3.1710    -2.3000 C.ar  1 <1>  -0.1500 
 28 C       -8.7620    -2.2060    -2.6560 C.ar  1 <1>  -0.1500 
 29 H       -2.9310    -1.0590     0.8510 H     1 <1>   0.0800 
 30 H       -2.6880    -1.1890    -0.8630 H     1 <1>   0.0800 
 31 H       -2.2300     2.5690     0.9390 H     1 <1>   0.0800 
 32 H       -1.5780     1.1670     1.7300 H     1 <1>   0.0800 
 33 H        0.2360     1.7780    -0.0460 H     1 <1>   0.1500 
 34 H       -2.4450     3.4490    -2.8850 H     1 <1>   0.1500 
 35 H       -4.9910    -1.4760    -0.5750 H     1 <1>   0.0800 
 36 H       -4.8240     0.1220    -1.2050 H     1 <1>   0.0800 
 37 H       -3.6910     2.3040     2.6590 H     1 <1>   0.0800 
 38 H       -3.6650     0.5820     2.6340 H     1 <1>   0.0800 
 39 H       -1.0440     5.4460    -3.0400 H     1 <1>   0.1500 
 40 H       -4.8820     2.0590     0.3020 H     1 <1>   0.0800 
 41 H       -5.7690     1.9170     1.7870 H     1 <1>   0.0800 
 42 H        3.7720     4.1330     0.4940 H     1 <1>   0.0800 
 43 H        2.6980     5.4910     0.1850 H     1 <1>   0.0800 
 44 H        3.2690     4.4850    -1.1570 H     1 <1>   0.0800 
 45 H        0.7200     6.5290    -2.3660 H     1 <1>   0.4500 
 46 H       -5.9030    -2.6080     1.1330 H     1 <1>   0.0800 
 47 H       -8.6290    -2.1350     2.3240 H     1 <1>   0.0800 
 48 H       -7.2180    -2.6900     3.1900 H     1 <1>   0.0800 
 49 H       -7.9340    -3.6930     1.9470 H     1 <1>   0.0800 
 50 H       -8.6840    -0.3240     0.1360 H     1 <1>   0.1500 
 51 H       -6.5000    -3.8730    -0.8030 H     1 <1>   0.1500 
 52 H       -9.7830    -0.4320    -2.0470 H     1 <1>   0.1500 
 53 H       -7.6050    -3.9690    -2.9840 H     1 <1>   0.1500 
 54 H       -9.2470    -2.2510    -3.6150 H     1 <1>   0.1500 
@<TRIPOS>BOND
  1   1   2  2   
  2   2   3  am  
  3   2   4  1   
  4   3   5  1   
  5   3   6  1   
  6   4   7  ar  
  7   4   8  ar  
  8   5   9  1   
  9   5  29  1   
 10   5  30  1   
 11   6  10  1   
 12   6  31  1   
 13   6  32  1   
 14   7  11  ar  
 15   7  33  1   
 16   8  12  ar  
 17   8  34  1   
 18   9  13  1   
 19   9  35  1   
 20   9  36  1   
 21  10  14  1   
 22  10  37  1   
 23  10  38  1   
 24  11  15  1   
 25  11  16  ar  
 26  12  16  ar  
 27  12  39  1   
 28  13  14  1   
 29  13  17  am  
 30  14  40  1   
 31  14  41  1   
 32  15  18  1   
 33  16  19  1   
 34  17  20  2   
 35  17  21  1   
 36  18  42  1   
 37  18  43  1   
 38  18  44  1   
 39  19  45  1   
 40  21  22  1   
 41  21  23  1   
 42  21  46  1   
 43  22  24  ar  
 44  22  25  ar  
 45  23  47  1   
 46  23  48  1   
 47  23  49  1   
 48  24  26  ar  
 49  24  50  1   
 50  25  27  ar  
 51  25  51  1   
 52  26  28  ar  
 53  26  52  1   
 54  27  28  ar  
 55  27  53  1   
 56  28  54  1   
@<TRIPOS>SUBSTRUCTURE
  1 ****   3 GROUP 4 **** **** 0

# MOE 2024.06 (io_trps.svl 2023.06)
