@<TRIPOS>MOLECULE
NONAME
37 38 1 0 0 
SMALL
USER_CHARGES


@<TRIPOS>ATOM
  1 O       -0.2990     0.3830     0.0200 O.co2 1 <1>  -0.9000 
  2 C       -1.1500     1.0710     0.5930 C.2   1 <1>   0.9060 
  3 O       -2.0920     0.5630     1.2160 O.co2 1 <1>  -0.9000 
  4 C       -1.0930     2.5790     0.5070 C.3   1 <1>  -0.1860 
  5 C       -2.3700     3.1010    -0.1500 C.3   1 <1>   0.2000 
  6 C        0.1380     3.0360    -0.2800 C.3   1 <1>   0.2090 
  7 O       -3.4450     2.7690     0.6450 O.3   1 <1>  -0.6800 
  8 C       -2.3460     4.6170    -0.3120 C.3   1 <1>  -0.1600 
  9 N        0.1160     4.5230    -0.4860 N.pl3 1 <1>  -0.8380 
 10 C       -1.1240     5.0480    -1.1210 C.3   1 <1>   0.2090 
 11 C        1.2550     5.2930    -0.3570 C.ar  1 <1>   0.7200 
 12 N        1.3180     6.4150    -1.0760 N.ar  1 <1>  -0.6200 
 13 N        2.2000     4.8530     0.4710 N.ar  1 <1>  -0.6200 
 14 C        2.4070     7.1310    -0.9450 C.ar  1 <1>   0.1600 
 15 C        3.2750     5.5920     0.5800 C.ar  1 <1>   0.1600 
 16 C        3.4430     6.7670    -0.1170 C.ar  1 <1>  -0.1430 
 17 C        4.6970     7.6250     0.0100 C.3   1 <1>   0.0630 
 18 C        5.9360     6.8500    -0.4490 C.3   1 <1>  -0.2400 
 19 C        4.8730     8.1250     1.4480 C.3   1 <1>  -0.2400 
 20 H       -1.0130     2.9640     1.5040 H     1 <1>   0.0800 
 21 H       -2.5080     2.6210    -1.1050 H     1 <1>   0.0800 
 22 H        0.1480     2.5530    -1.2430 H     1 <1>   0.0800 
 23 H        1.0230     2.7210     0.2450 H     1 <1>   0.0800 
 24 H       -3.2420     1.8550     1.0030 H     1 <1>   0.4000 
 25 H       -3.2390     4.9400    -0.8140 H     1 <1>   0.0800 
 26 H       -2.3010     5.0850     0.6550 H     1 <1>   0.0800 
 27 H       -1.1070     6.1230    -1.1700 H     1 <1>   0.0800 
 28 H       -1.1910     4.6640    -2.1250 H     1 <1>   0.0800 
 29 H        2.4720     8.0390    -1.5200 H     1 <1>   0.1500 
 30 H        4.0450     5.2460     1.2470 H     1 <1>   0.1500 
 31 H        4.5930     8.4880    -0.6270 H     1 <1>   0.0800 
 32 H        6.1160     6.0010     0.1860 H     1 <1>   0.0800 
 33 H        6.8040     7.4860    -0.4240 H     1 <1>   0.0800 
 34 H        5.7980     6.5000    -1.4570 H     1 <1>   0.0800 
 35 H        5.0290     7.3040     2.1250 H     1 <1>   0.0800 
 36 H        3.9950     8.6630     1.7600 H     1 <1>   0.0800 
 37 H        5.7180     8.7860     1.5120 H     1 <1>   0.0800 
@<TRIPOS>BOND
  1   1   2  ar  
  2   2   3  ar  
  3   2   4  1   
  4   4   5  1   
  5   4   6  1   
  6   4  20  1   
  7   5   7  1   
  8   5   8  1   
  9   5  21  1   
 10   6   9  1   
 11   6  22  1   
 12   6  23  1   
 13   7  24  1   
 14   8  10  1   
 15   8  25  1   
 16   8  26  1   
 17   9  10  1   
 18   9  11  1   
 19  10  27  1   
 20  10  28  1   
 21  11  12  ar  
 22  11  13  ar  
 23  12  14  ar  
 24  13  15  ar  
 25  14  16  ar  
 26  14  29  1   
 27  15  16  ar  
 28  15  30  1   
 29  16  17  1   
 30  17  18  1   
 31  17  19  1   
 32  17  31  1   
 33  18  32  1   
 34  18  33  1   
 35  18  34  1   
 36  19  35  1   
 37  19  36  1   
 38  19  37  1   
@<TRIPOS>SUBSTRUCTURE
  1 ****   9 GROUP 4 **** **** 0

# MOE 2024.06 (io_trps.svl 2023.06)
