@<TRIPOS>MOLECULE
NONAME
46 48 1 0 0 
SMALL
USER_CHARGES


@<TRIPOS>ATOM
  1 O       -2.5690     0.3240    -2.8450 O.2   1 <1>  -0.5700 
  2 C       -2.0570     0.6300    -1.7940 C.2   1 <1>   0.5690 
  3 N       -1.8290    -0.2910    -0.8240 N.am  1 <1>  -0.7300 
  4 C       -1.6740     2.0860    -1.5580 C.3   1 <1>   0.1810 
  5 C       -2.1730    -1.7290    -0.8920 C.3   1 <1>   0.2200 
  6 O       -1.3750     2.3250    -0.1890 O.3   1 <1>  -0.3630 
  7 C       -3.3900    -2.0470    -0.0340 C.3   1 <1>  -0.0800 
  8 C       -1.1010    -2.5330    -0.1680 C.3   1 <1>   0.1200 
  9 C       -1.0340     3.5620     0.2490 C.ar  1 <1>   0.0820 
 10 C       -2.7870    -2.2330     1.3620 C.3   1 <1>   0.1200 
 11 C       -4.5420    -1.0270    -0.0950 C.3   1 <1>  -0.0160 
 12 O       -1.4130    -2.4300     1.1890 O.3   1 <1>  -0.5600 
 13 C       -0.9470     4.6810    -0.5750 C.ar  1 <1>  -0.1500 
 14 C       -0.7620     3.6920     1.6010 C.ar  1 <1>  -0.1500 
 15 C       -5.7210    -1.4890     0.7480 C.ar  1 <1>  -0.1440 
 16 C       -0.5910     5.9080    -0.0400 C.ar  1 <1>  -0.1500 
 17 C       -0.4070     4.9190     2.1310 C.ar  1 <1>  -0.1500 
 18 C       -5.9510    -0.9980     2.0170 C.ar  1 <1>  -0.1500 
 19 C       -6.6220    -2.4250     0.2840 C.ar  1 <1>  -0.1500 
 20 C       -0.3190     6.0340     1.3130 C.ar  1 <1>  -0.1440 
 21 C       -7.0360    -1.4590     2.7440 C.ar  1 <1>   0.1600 
 22 C       -7.6760    -2.8190     1.0920 C.ar  1 <1>   0.1600 
 23 C        0.0690     7.3820     1.8950 C.3   1 <1>  -0.0970 
 24 N       -7.9040    -2.3610     2.3120 N.ar  1 <1>  -0.6200 
 25 H       -1.4250     0.0180     0.0670 H     1 <1>   0.3700 
 26 H       -2.4970     2.7160    -1.8410 H     1 <1>   0.0800 
 27 H       -0.8060     2.3250    -2.1440 H     1 <1>   0.0800 
 28 H       -2.2940    -2.0400    -1.9170 H     1 <1>   0.0800 
 29 H       -3.7710    -3.0020    -0.3480 H     1 <1>   0.0800 
 30 H       -0.1080    -2.1570    -0.3430 H     1 <1>   0.0800 
 31 H       -1.1550    -3.5720    -0.4400 H     1 <1>   0.0800 
 32 H       -3.2050    -3.0860     1.8680 H     1 <1>   0.0800 
 33 H       -2.9130    -1.3530     1.9680 H     1 <1>   0.0800 
 34 H       -4.8590    -0.9050    -1.1160 H     1 <1>   0.0800 
 35 H       -4.2130    -0.0640     0.2560 H     1 <1>   0.0800 
 36 H       -1.1500     4.6240    -1.6270 H     1 <1>   0.1500 
 37 H       -0.8290     2.8280     2.2370 H     1 <1>   0.1500 
 38 H       -0.5280     6.7690    -0.6830 H     1 <1>   0.1500 
 39 H       -0.2000     5.0030     3.1840 H     1 <1>   0.1500 
 40 H       -5.2980    -0.2620     2.4490 H     1 <1>   0.1500 
 41 H       -6.5160    -2.8510    -0.6960 H     1 <1>   0.1500 
 42 H       -7.2000    -1.0660     3.7320 H     1 <1>   0.1500 
 43 H       -8.3690    -3.5510     0.7140 H     1 <1>   0.1500 
 44 H        0.5840     7.9750     1.1610 H     1 <1>   0.0800 
 45 H        0.7200     7.2530     2.7410 H     1 <1>   0.0800 
 46 H       -0.8130     7.9080     2.2120 H     1 <1>   0.0800 
@<TRIPOS>BOND
  1   1   2  2   
  2   2   3  am  
  3   2   4  1   
  4   3   5  1   
  5   3  25  1   
  6   4   6  1   
  7   4  26  1   
  8   4  27  1   
  9   5   7  1   
 10   5   8  1   
 11   5  28  1   
 12   6   9  1   
 13   7  10  1   
 14   7  11  1   
 15   7  29  1   
 16   8  12  1   
 17   8  30  1   
 18   8  31  1   
 19   9  13  ar  
 20   9  14  ar  
 21  10  12  1   
 22  10  32  1   
 23  10  33  1   
 24  11  15  1   
 25  11  34  1   
 26  11  35  1   
 27  13  16  ar  
 28  13  36  1   
 29  14  17  ar  
 30  14  37  1   
 31  15  18  ar  
 32  15  19  ar  
 33  16  20  ar  
 34  16  38  1   
 35  17  20  ar  
 36  17  39  1   
 37  18  21  ar  
 38  18  40  1   
 39  19  22  ar  
 40  19  41  1   
 41  20  23  1   
 42  21  24  ar  
 43  21  42  1   
 44  22  24  ar  
 45  22  43  1   
 46  23  44  1   
 47  23  45  1   
 48  23  46  1   
@<TRIPOS>SUBSTRUCTURE
  1 ****   3 GROUP 4 **** **** 0

# MOE 2024.06 (io_trps.svl 2023.06)
