@<TRIPOS>MOLECULE
NONAME
47 49 1 0 0 
SMALL
USER_CHARGES


@<TRIPOS>ATOM
  1 S        1.2150     1.4920    -0.0540 S.o2  1 <1>   1.3330 
  2 O        1.1060     2.1790    -1.3190 O.2   1 <1>  -0.6500 
  3 O        2.2530     1.9290     0.8660 O.2   1 <1>  -0.6500 
  4 N        1.4300    -0.1600    -0.3530 N.am  1 <1>  -0.8490 
  5 C       -0.3530     1.5600     0.8230 C.3   1 <1>  -0.0550 
  6 C        2.8390    -0.5410    -0.5030 C.3   1 <1>   0.1160 
  7 C        0.6670    -0.6520    -1.5090 C.3   1 <1>   0.1160 
  8 C       -0.9070     2.9640     1.1660 C.3   1 <1>  -0.0800 
  9 C       -1.4700     3.7030    -0.0570 C.3   1 <1>   0.2000 
 10 C        0.1300     3.9280     1.7520 C.3   1 <1>   0.2090 
 11 O       -2.6590     4.3110     0.3170 O.3   1 <1>  -0.6800 
 12 C       -0.4460     4.7810    -0.4430 C.3   1 <1>   0.2090 
 13 N        0.6250     4.7320     0.5980 N.pl3 1 <1>  -0.8380 
 14 C        1.8800     5.1830     0.3630 C.ar  1 <1>   0.4610 
 15 N        2.9340     4.5210     0.8570 N.ar  1 <1>  -0.1790 
 16 C        2.2040     6.3100    -0.4200 C.ar  1 <1>   0.0000 
 17 C        4.2340     4.8900     0.6300 C.ar  1 <1>   0.5280 
 18 C        3.5240     6.6390    -0.6000 C.ar  1 <1>   0.1050 
 19 C        1.5180     7.3150    -1.1180 C.2   1 <1>   0.1390 
 20 N        4.5620     5.9240    -0.0670 N.ar  1 <1>  -0.5670 
 21 C        5.3140     4.0120     1.2260 C.3   1 <1>  -0.0970 
 22 N        3.5570     7.7540    -1.3650 N.pl3 1 <1>   0.3140 
 23 N        2.3100     8.1690    -1.6790 N.2   1 <1>  -0.7070 
 24 C        4.7430     8.4900    -1.8280 C.3   1 <1>   0.0160 
 25 H       -1.0970     1.0380     0.2520 H     1 <1>   0.0800 
 26 H       -0.2360     1.0150     1.7400 H     1 <1>   0.0800 
 27 H        2.9220    -1.6040    -0.6600 H     1 <1>   0.0800 
 28 H        3.3870    -0.2940     0.3910 H     1 <1>   0.0800 
 29 H        3.2810    -0.0260    -1.3390 H     1 <1>   0.0800 
 30 H        0.7760    -1.7200    -1.5970 H     1 <1>   0.0800 
 31 H        1.0170    -0.1900    -2.4180 H     1 <1>   0.0800 
 32 H       -0.3800    -0.4320    -1.3910 H     1 <1>   0.0800 
 33 H       -1.6900     2.8080     1.8890 H     1 <1>   0.0800 
 34 H       -1.6880     3.0480    -0.8840 H     1 <1>   0.0800 
 35 H        0.9120     3.4210     2.2890 H     1 <1>   0.0800 
 36 H       -0.3640     4.5960     2.4390 H     1 <1>   0.0800 
 37 H       -2.5140     4.9860     1.0080 H     1 <1>   0.4000 
 38 H       -0.9090     5.7530    -0.4720 H     1 <1>   0.0800 
 39 H       -0.0260     4.5550    -1.4100 H     1 <1>   0.0800 
 40 H        2.7530     3.5930     1.2540 H     1 <1>   0.4570 
 41 H        0.4460     7.3870    -1.1830 H     1 <1>   0.1500 
 42 H        6.2860     4.3850     0.9540 H     1 <1>   0.0800 
 43 H        5.2210     3.0070     0.8560 H     1 <1>   0.0800 
 44 H        5.2400     4.0060     2.2980 H     1 <1>   0.0800 
 45 H        5.6300     7.9260    -1.6110 H     1 <1>   0.0800 
 46 H        4.7830     9.4390    -1.3260 H     1 <1>   0.0800 
 47 H        4.6640     8.6490    -2.8870 H     1 <1>   0.0800 
@<TRIPOS>BOND
  1   1   2  2   
  2   1   3  2   
  3   1   4  am  
  4   1   5  1   
  5   4   6  1   
  6   4   7  1   
  7   5   8  1   
  8   5  25  1   
  9   5  26  1   
 10   6  27  1   
 11   6  28  1   
 12   6  29  1   
 13   7  30  1   
 14   7  31  1   
 15   7  32  1   
 16   8   9  1   
 17   8  10  1   
 18   8  33  1   
 19   9  11  1   
 20   9  12  1   
 21   9  34  1   
 22  10  13  1   
 23  10  35  1   
 24  10  36  1   
 25  11  37  1   
 26  12  13  1   
 27  12  38  1   
 28  12  39  1   
 29  13  14  1   
 30  14  15  ar  
 31  14  16  ar  
 32  15  17  ar  
 33  15  40  1   
 34  16  18  ar  
 35  16  19  1   
 36  17  20  ar  
 37  17  21  1   
 38  18  20  ar  
 39  18  22  1   
 40  19  23  2   
 41  19  41  1   
 42  21  42  1   
 43  21  43  1   
 44  21  44  1   
 45  22  23  1   
 46  22  24  1   
 47  24  45  1   
 48  24  46  1   
 49  24  47  1   
@<TRIPOS>SUBSTRUCTURE
  1 ****  14 GROUP 4 **** **** 0

# MOE 2024.06 (io_trps.svl 2023.06)
