@<TRIPOS>MOLECULE
NONAME
50 53 1 0 0 
SMALL
USER_CHARGES


@<TRIPOS>ATOM
  1 O       -0.5490    -0.3180    -0.3410 O.3   1 <1>  -0.5600 
  2 C       -1.6030     0.5190    -0.7410 C.3   1 <1>   0.3440 
  3 C       -0.7520    -1.6630    -0.6670 C.3   1 <1>   0.1200 
  4 C       -1.2900     1.9610    -0.3520 C.ar  1 <1>  -0.1440 
  5 C       -2.9200     0.0520    -0.0840 C.3   1 <1>   0.1100 
  6 C       -2.0310    -2.1970     0.0030 C.3   1 <1>   0.1100 
  7 C       -0.6360     2.2610     0.8350 C.ar  1 <1>  -0.1500 
  8 C       -1.6760     2.9990    -1.1890 C.ar  1 <1>  -0.1500 
  9 N       -3.2030    -1.3740    -0.3590 N.3   1 <1>  -0.8100 
 10 C       -0.3750     3.5760     1.1830 C.ar  1 <1>  -0.1500 
 11 C       -1.4150     4.3140    -0.8430 C.ar  1 <1>  -0.1500 
 12 C       -4.4340    -1.8130     0.3220 C.3   1 <1>   0.2900 
 13 C       -0.7650     4.6030     0.3430 C.ar  1 <1>  -0.1500 
 14 C       -4.7800    -3.2580     0.0010 C.2   1 <1>  -0.0400 
 15 O       -5.0700    -3.6100    -1.2230 O.3   1 <1>  -0.0190 
 16 C       -4.8620    -4.3510     0.7750 C.2   1 <1>  -0.1500 
 17 N       -5.3410    -4.8810    -1.3090 N.2   1 <1>  -0.4100 
 18 C       -5.2240    -5.3570    -0.1180 C.2   1 <1>   0.1080 
 19 C       -5.4460    -6.8150     0.2690 C.3   1 <1>   0.1010 
 20 C       -4.4270    -7.7310    -0.4330 C.3   1 <1>  -0.1600 
 21 C       -6.8840    -7.2590    -0.0490 C.3   1 <1>  -0.1600 
 22 C       -4.6520    -9.2070    -0.0730 C.3   1 <1>  -0.1600 
 23 C       -7.1130    -8.7350     0.3120 C.3   1 <1>  -0.1600 
 24 C       -6.0900    -9.6400    -0.3870 C.3   1 <1>  -0.1600 
 25 H       -1.6910     0.4470    -1.8110 H     1 <1>   0.0800 
 26 H        0.1050    -2.2160    -0.3270 H     1 <1>   0.0800 
 27 H       -0.8210    -1.7540    -1.7370 H     1 <1>   0.0800 
 28 H       -3.7250     0.6570    -0.4630 H     1 <1>   0.0800 
 29 H       -2.8480     0.2180     0.9770 H     1 <1>   0.0800 
 30 H       -1.8930    -2.1990     1.0700 H     1 <1>   0.0800 
 31 H       -2.1870    -3.2120    -0.3210 H     1 <1>   0.0800 
 32 H       -0.3250     1.4660     1.4900 H     1 <1>   0.1500 
 33 H       -2.1810     2.7890    -2.1150 H     1 <1>   0.1500 
 34 H        0.1340     3.7960     2.1040 H     1 <1>   0.1500 
 35 H       -1.7170     5.1130    -1.4980 H     1 <1>   0.1500 
 36 H       -5.2530    -1.1910     0.0060 H     1 <1>   0.0800 
 37 H       -4.3170    -1.7040     1.3860 H     1 <1>   0.0800 
 38 H       -0.5620     5.6250     0.6120 H     1 <1>   0.1500 
 39 H       -4.6970    -4.4610     1.8300 H     1 <1>   0.1500 
 40 H       -5.2970    -6.9040     1.3310 H     1 <1>   0.0800 
 41 H       -3.4300    -7.4380    -0.1550 H     1 <1>   0.0800 
 42 H       -4.5200    -7.6080    -1.4990 H     1 <1>   0.0800 
 43 H       -7.0730    -7.1190    -1.0990 H     1 <1>   0.0800 
 44 H       -7.5780    -6.6410     0.4940 H     1 <1>   0.0800 
 45 H       -4.4550    -9.3550     0.9750 H     1 <1>   0.0800 
 46 H       -3.9630    -9.8210    -0.6280 H     1 <1>   0.0800 
 47 H       -8.1080    -9.0250     0.0220 H     1 <1>   0.0800 
 48 H       -7.0310    -8.8600     1.3790 H     1 <1>   0.0800 
 49 H       -6.2370   -10.6600    -0.0740 H     1 <1>   0.0800 
 50 H       -6.2490    -9.5970    -1.4510 H     1 <1>   0.0800 
@<TRIPOS>BOND
  1   1   2  1   
  2   1   3  1   
  3   2   4  1   
  4   2   5  1   
  5   2  25  1   
  6   3   6  1   
  7   3  26  1   
  8   3  27  1   
  9   4   7  ar  
 10   4   8  ar  
 11   5   9  1   
 12   5  28  1   
 13   5  29  1   
 14   6   9  1   
 15   6  30  1   
 16   6  31  1   
 17   7  10  ar  
 18   7  32  1   
 19   8  11  ar  
 20   8  33  1   
 21   9  12  1   
 22  10  13  ar  
 23  10  34  1   
 24  11  13  ar  
 25  11  35  1   
 26  12  14  1   
 27  12  36  1   
 28  12  37  1   
 29  13  38  1   
 30  14  15  1   
 31  14  16  2   
 32  15  17  1   
 33  16  18  1   
 34  16  39  1   
 35  17  18  2   
 36  18  19  1   
 37  19  20  1   
 38  19  21  1   
 39  19  40  1   
 40  20  22  1   
 41  20  41  1   
 42  20  42  1   
 43  21  23  1   
 44  21  43  1   
 45  21  44  1   
 46  22  24  1   
 47  22  45  1   
 48  22  46  1   
 49  23  24  1   
 50  23  47  1   
 51  23  48  1   
 52  24  49  1   
 53  24  50  1   
@<TRIPOS>SUBSTRUCTURE
  1 ****   9 GROUP 4 **** **** 0

# MOE 2024.06 (io_trps.svl 2023.06)
