@<TRIPOS>MOLECULE
NONAME
50 52 1 0 0 
SMALL
USER_CHARGES


@<TRIPOS>ATOM
  1 O       -1.3940     0.3440     0.6400 O.2   1 <1>  -0.5700 
  2 C       -2.2430     1.1620     0.9700 C.2   1 <1>   0.7160 
  3 N       -3.4980     0.6550     1.2670 N.am  1 <1>  -0.6600 
  4 C       -1.9000     2.5840     1.0050 C.2   1 <1>   0.2030 
  5 C       -3.6870    -0.7980     1.5360 C.3   1 <1>   0.1400 
  6 C       -4.7610     1.3370     0.8660 C.3   1 <1>   0.1400 
  7 N       -2.6080     3.5760     1.5220 N.2   1 <1>  -0.7070 
  8 C       -0.7040     3.0900     0.4760 C.2   1 <1>  -0.1500 
  9 C       -4.1390    -1.4800     0.2250 C.3   1 <1>   0.4230 
 10 C       -5.2950     0.6640    -0.4090 C.3   1 <1>  -0.1600 
 11 N       -1.8790     4.6820     1.3260 N.pl3 1 <1>   0.3000 
 12 C       -0.7210     4.4180     0.6920 C.2   1 <1>  -0.3320 
 13 N       -4.2380    -2.9770     0.3010 N.4   1 <1>  -0.9590 
 14 C       -5.4810    -0.8730    -0.2430 C.3   1 <1>  -0.1060 
 15 C        0.3160     5.4680     0.3350 C.3   1 <1>   0.0200 
 16 C       -4.5540    -3.5790    -1.0190 C.3   1 <1>   0.3430 
 17 C       -3.0950    -3.6500     0.9740 C.3   1 <1>   0.2630 
 18 C       -6.5610    -1.1820     0.8130 C.2   1 <1>   0.9060 
 19 C       -5.8710    -1.4790    -1.6120 C.3   1 <1>  -0.1600 
 20 C       -0.2270     6.4310    -0.7270 C.3   1 <1>  -0.1600 
 21 C       -5.8680    -3.0150    -1.5660 C.3   1 <1>  -0.1600 
 22 O       -6.4630    -2.2210     1.4870 O.co2 1 <1>  -0.9000 
 23 O       -7.4990    -0.4030     0.9670 O.co2 1 <1>  -0.9000 
 24 C        0.8170     7.4800    -1.1220 C.3   1 <1>  -0.2400 
 25 H       -2.7600    -1.2140     1.8840 H     1 <1>   0.0800 
 26 H       -4.4230    -0.9210     2.3120 H     1 <1>   0.0800 
 27 H       -5.4830     1.2550     1.6620 H     1 <1>   0.0800 
 28 H       -4.6000     2.3820     0.6750 H     1 <1>   0.0800 
 29 H        0.0560     2.4940     0.0000 H     1 <1>   0.1500 
 30 H       -3.3930    -1.2390    -0.5130 H     1 <1>   0.0800 
 31 H       -6.2390     1.1170    -0.6630 H     1 <1>   0.0800 
 32 H       -4.6140     0.8760    -1.2140 H     1 <1>   0.0800 
 33 H       -2.1940     5.6090     1.6360 H     1 <1>   0.2700 
 34 H       -5.1060    -3.0840     0.8930 H     1 <1>   0.4500 
 35 H        0.5990     6.0120     1.2190 H     1 <1>   0.0800 
 36 H        1.1960     4.9780    -0.0460 H     1 <1>   0.0800 
 37 H       -3.7560    -3.3670    -1.7110 H     1 <1>   0.0800 
 38 H       -4.6450    -4.6480    -0.9190 H     1 <1>   0.0800 
 39 H       -2.1780    -3.4420     0.4490 H     1 <1>   0.0800 
 40 H       -3.2550    -4.7150     0.9960 H     1 <1>   0.0800 
 41 H       -3.0050    -3.3010     1.9890 H     1 <1>   0.0800 
 42 H       -6.8530    -1.1310    -1.8880 H     1 <1>   0.0800 
 43 H       -5.1800    -1.1490    -2.3680 H     1 <1>   0.0800 
 44 H       -0.5140     5.8680    -1.5990 H     1 <1>   0.0800 
 45 H       -1.1040     6.9290    -0.3520 H     1 <1>   0.0800 
 46 H       -6.0340    -3.4020    -2.5560 H     1 <1>   0.0800 
 47 H       -6.6810    -3.3620    -0.9500 H     1 <1>   0.0800 
 48 H        1.6930     7.0050    -1.5280 H     1 <1>   0.0800 
 49 H        1.1040     8.0690    -0.2690 H     1 <1>   0.0800 
 50 H        0.4110     8.1390    -1.8700 H     1 <1>   0.0800 
@<TRIPOS>BOND
  1   1   2  2   
  2   2   3  am  
  3   2   4  1   
  4   3   5  1   
  5   3   6  1   
  6   4   7  2   
  7   4   8  1   
  8   5   9  1   
  9   5  25  1   
 10   5  26  1   
 11   6  10  1   
 12   6  27  1   
 13   6  28  1   
 14   7  11  1   
 15   8  12  2   
 16   8  29  1   
 17   9  13  1   
 18   9  14  1   
 19   9  30  1   
 20  10  14  1   
 21  10  31  1   
 22  10  32  1   
 23  11  12  1   
 24  11  33  1   
 25  12  15  1   
 26  13  16  1   
 27  13  17  1   
 28  13  34  1   
 29  14  18  1   
 30  14  19  1   
 31  15  20  1   
 32  15  35  1   
 33  15  36  1   
 34  16  21  1   
 35  16  37  1   
 36  16  38  1   
 37  17  39  1   
 38  17  40  1   
 39  17  41  1   
 40  18  22  ar  
 41  18  23  ar  
 42  19  21  1   
 43  19  42  1   
 44  19  43  1   
 45  20  24  1   
 46  20  44  1   
 47  20  45  1   
 48  21  46  1   
 49  21  47  1   
 50  24  48  1   
 51  24  49  1   
 52  24  50  1   
@<TRIPOS>SUBSTRUCTURE
  1 ****   3 GROUP 4 **** **** 0

# MOE 2024.06 (io_trps.svl 2023.06)
