@<TRIPOS>MOLECULE
NONAME
52 54 1 0 0 
SMALL
USER_CHARGES


@<TRIPOS>ATOM
  1 O        0.0950    -3.0260    -1.9110 O.3   1 <1>  -0.6800 
  2 C        0.4690    -1.7950    -1.3950 C.3   1 <1>   0.1200 
  3 C        1.3380    -1.9240    -0.1070 C.3   1 <1>   0.0000 
  4 C        2.7340    -2.5850    -0.3270 C.3   1 <1>   0.4230 
  5 C        1.6060    -0.4810     0.3960 C.3   1 <1>  -0.1600 
  6 C        0.5510    -2.6820     1.0050 C.3   1 <1>  -0.1600 
  7 N        2.7300    -4.0860    -0.5860 N.4   1 <1>  -0.9590 
  8 C        3.6010    -1.7560    -1.2990 C.3   1 <1>   0.2090 
  9 C        2.5100     0.3580    -0.5240 C.3   1 <1>   0.2090 
 10 C        1.1130    -4.0820     1.3150 C.3   1 <1>  -0.1600 
 11 C        1.5680    -4.7930     0.0430 C.3   1 <1>   0.3430 
 12 C        2.8110    -4.4770    -2.0300 C.3   1 <1>   0.2630 
 13 N        3.8020    -0.3620    -0.7600 N.pl3 1 <1>  -0.8380 
 14 C        5.0330     0.1550    -0.5050 C.ar  1 <1>   0.4100 
 15 N        6.0600    -0.7070    -0.4450 N.ar  1 <1>  -0.6200 
 16 C        5.2710     1.5250    -0.3050 C.ar  1 <1>  -0.1500 
 17 C        7.2510    -0.2490    -0.1890 C.ar  1 <1>   0.5270 
 18 C        6.5310     1.9710    -0.0370 C.ar  1 <1>   0.2180 
 19 N        7.5170     1.0550     0.0190 N.ar  1 <1>  -0.1790 
 20 C        8.4020    -1.2330    -0.1200 C.3   1 <1>  -0.0970 
 21 C        6.8630     3.4410     0.1920 C.3   1 <1>  -0.0170 
 22 C        7.3680     3.7050     1.6160 C.3   1 <1>  -0.2400 
 23 H       -0.6290    -2.9150    -2.5650 H     1 <1>   0.4000 
 24 H        0.9790    -1.2590    -2.1750 H     1 <1>   0.0800 
 25 H       -0.4380    -1.2600    -1.1630 H     1 <1>   0.0800 
 26 H        3.2290    -2.4710     0.6220 H     1 <1>   0.0800 
 27 H        2.0820    -0.5140     1.3620 H     1 <1>   0.0800 
 28 H        0.6730     0.0400     0.5280 H     1 <1>   0.0800 
 29 H        0.5400    -2.1240     1.9270 H     1 <1>   0.0800 
 30 H       -0.4800    -2.7860     0.7100 H     1 <1>   0.0800 
 31 H        3.5720    -4.4500    -0.1200 H     1 <1>   0.4500 
 32 H        3.1250    -1.6890    -2.2600 H     1 <1>   0.0800 
 33 H        4.5420    -2.2550    -1.4380 H     1 <1>   0.0800 
 34 H        2.6690     1.3060    -0.0460 H     1 <1>   0.0800 
 35 H        2.0270     0.5470    -1.4680 H     1 <1>   0.0800 
 36 H        0.3450    -4.6680     1.7900 H     1 <1>   0.0800 
 37 H        1.9360    -4.0160     2.0060 H     1 <1>   0.0800 
 38 H        0.7400    -4.8190    -0.6470 H     1 <1>   0.0800 
 39 H        1.8390    -5.8110     0.2700 H     1 <1>   0.0800 
 40 H        1.9720    -4.0850    -2.5770 H     1 <1>   0.0800 
 41 H        2.8060    -5.5510    -2.1250 H     1 <1>   0.0800 
 42 H        3.7180    -4.1020    -2.4750 H     1 <1>   0.0800 
 43 H        4.4640     2.2260    -0.3780 H     1 <1>   0.1500 
 44 H        8.4740     1.3450     0.2200 H     1 <1>   0.4570 
 45 H        8.0480    -2.2300    -0.3130 H     1 <1>   0.0800 
 46 H        8.8490    -1.2180     0.8580 H     1 <1>   0.0800 
 47 H        9.1450    -0.9920    -0.8580 H     1 <1>   0.0800 
 48 H        7.6040     3.7630    -0.5210 H     1 <1>   0.0800 
 49 H        5.9820     4.0390     0.0240 H     1 <1>   0.0800 
 50 H        8.2930     3.1940     1.8120 H     1 <1>   0.0800 
 51 H        6.6360     3.3900     2.3410 H     1 <1>   0.0800 
 52 H        7.5360     4.7600     1.7520 H     1 <1>   0.0800 
@<TRIPOS>BOND
  1   1   2  1   
  2   1  23  1   
  3   2   3  1   
  4   2  24  1   
  5   2  25  1   
  6   3   4  1   
  7   3   5  1   
  8   3   6  1   
  9   4   7  1   
 10   4   8  1   
 11   4  26  1   
 12   5   9  1   
 13   5  27  1   
 14   5  28  1   
 15   6  10  1   
 16   6  29  1   
 17   6  30  1   
 18   7  11  1   
 19   7  12  1   
 20   7  31  1   
 21   8  13  1   
 22   8  32  1   
 23   8  33  1   
 24   9  13  1   
 25   9  34  1   
 26   9  35  1   
 27  10  11  1   
 28  10  36  1   
 29  10  37  1   
 30  11  38  1   
 31  11  39  1   
 32  12  40  1   
 33  12  41  1   
 34  12  42  1   
 35  13  14  1   
 36  14  15  ar  
 37  14  16  ar  
 38  15  17  ar  
 39  16  18  ar  
 40  16  43  1   
 41  17  19  ar  
 42  17  20  1   
 43  18  19  ar  
 44  18  21  1   
 45  19  44  1   
 46  20  45  1   
 47  20  46  1   
 48  20  47  1   
 49  21  22  1   
 50  21  48  1   
 51  21  49  1   
 52  22  50  1   
 53  22  51  1   
 54  22  52  1   
@<TRIPOS>SUBSTRUCTURE
  1 ****  13 GROUP 4 **** **** 0

# MOE 2024.06 (io_trps.svl 2023.06)
