@<TRIPOS>MOLECULE
NONAME
40 42 1 0 0 
SMALL
USER_CHARGES


@<TRIPOS>ATOM
  1 F       -0.9340    -0.4280    -1.3590 F     1 <1>  -0.1900 
  2 C       -1.8360    -1.1230    -0.6960 C.ar  1 <1>   0.1900 
  3 C       -3.0460    -0.5620    -0.2910 C.ar  1 <1>   0.4100 
  4 C       -1.5810    -2.4340    -0.4110 C.ar  1 <1>   0.1600 
  5 N       -3.9200    -1.3070     0.3570 N.ar  1 <1>  -0.6200 
  6 N       -3.4090     0.7630    -0.5290 N.pl3 1 <1>  -0.8380 
  7 N       -2.4520    -3.1810     0.2370 N.ar  1 <1>  -0.6200 
  8 C       -3.5820    -2.5720     0.5950 C.ar  1 <1>   0.7200 
  9 C       -4.8420     1.1550    -0.6270 C.3   1 <1>   0.1290 
 10 C       -2.4580     1.8780    -0.2720 C.3   1 <1>   0.1290 
 11 N       -4.4960    -3.3440     1.2780 N.pl3 1 <1>  -0.8380 
 12 C       -4.8040    -4.7290     0.7960 C.3   1 <1>   0.2090 
 13 C       -5.6610    -2.7230     1.9850 C.3   1 <1>   0.2090 
 14 C       -6.0760    -4.7530    -0.0760 C.3   1 <1>   0.2090 
 15 C       -6.9160    -2.7240     1.0920 C.3   1 <1>   0.2090 
 16 N       -7.2450    -4.1040     0.6090 N.pl3 1 <1>  -0.8380 
 17 C       -8.5260    -4.3420     0.1270 C.ar  1 <1>   0.4100 
 18 N       -8.6340    -4.7250    -1.1400 N.ar  1 <1>  -0.6200 
 19 C       -9.6520    -4.1760     0.9540 C.ar  1 <1>   0.1600 
 20 C       -9.8900    -4.9080    -1.5110 C.ar  1 <1>   0.1600 
 21 N      -10.9070    -4.3530     0.5850 N.ar  1 <1>  -0.6200 
 22 C      -10.9890    -4.7280    -0.6830 C.ar  1 <1>   0.1600 
 23 H       -0.6530    -2.8800    -0.7200 H     1 <1>   0.1500 
 24 H       -5.4240     0.3350    -1.0110 H     1 <1>   0.0800 
 25 H       -4.9490     1.9920    -1.2940 H     1 <1>   0.0800 
 26 H       -5.2130     1.4220     0.3470 H     1 <1>   0.0800 
 27 H       -1.5700     1.5130     0.2140 H     1 <1>   0.0800 
 28 H       -2.9160     2.6140     0.3660 H     1 <1>   0.0800 
 29 H       -2.1830     2.3400    -1.2040 H     1 <1>   0.0800 
 30 H       -4.9510    -5.3700     1.6460 H     1 <1>   0.0800 
 31 H       -3.9830    -5.1290     0.2280 H     1 <1>   0.0800 
 32 H       -5.4280    -1.7160     2.2850 H     1 <1>   0.0800 
 33 H       -5.8670    -3.2850     2.8780 H     1 <1>   0.0800 
 34 H       -6.3210    -5.7740    -0.3130 H     1 <1>   0.0800 
 35 H       -5.8770    -4.2370    -1.0000 H     1 <1>   0.0800 
 36 H       -6.7380    -2.0850     0.2440 H     1 <1>   0.0800 
 37 H       -7.7430    -2.3180     1.6460 H     1 <1>   0.0800 
 38 H       -9.4730    -3.8860     1.9710 H     1 <1>   0.1500 
 39 H      -10.0570    -5.2180    -2.5270 H     1 <1>   0.1500 
 40 H      -11.9730    -4.9010    -1.0800 H     1 <1>   0.1500 
@<TRIPOS>BOND
  1   1   2  1   
  2   2   3  ar  
  3   2   4  ar  
  4   3   5  ar  
  5   3   6  1   
  6   4   7  ar  
  7   4  23  1   
  8   5   8  ar  
  9   6   9  1   
 10   6  10  1   
 11   7   8  ar  
 12   8  11  1   
 13   9  24  1   
 14   9  25  1   
 15   9  26  1   
 16  10  27  1   
 17  10  28  1   
 18  10  29  1   
 19  11  12  1   
 20  11  13  1   
 21  12  14  1   
 22  12  30  1   
 23  12  31  1   
 24  13  15  1   
 25  13  32  1   
 26  13  33  1   
 27  14  16  1   
 28  14  34  1   
 29  14  35  1   
 30  15  16  1   
 31  15  36  1   
 32  15  37  1   
 33  16  17  1   
 34  17  18  ar  
 35  17  19  ar  
 36  18  20  ar  
 37  19  21  ar  
 38  19  38  1   
 39  20  22  ar  
 40  20  39  1   
 41  21  22  ar  
 42  22  40  1   
@<TRIPOS>SUBSTRUCTURE
  1 ****  15 GROUP 4 **** **** 0

# MOE 2024.06 (io_trps.svl 2023.06)
