@<TRIPOS>MOLECULE
NONAME
39 40 1 0 0 
SMALL
USER_CHARGES


@<TRIPOS>ATOM
  1 S       -0.7850     0.3330    -1.0750 S.o2  1 <1>   1.4470 
  2 O       -1.5640     1.5090    -1.4070 O.2   1 <1>  -0.6500 
  3 O       -0.6690    -0.7150    -2.0690 O.2   1 <1>  -0.6500 
  4 N       -1.4650    -0.3560     0.3190 N.am  1 <1>  -0.8490 
  5 C        0.8830     0.8490    -0.5440 C.ar  1 <1>  -0.0090 
  6 C       -0.8620    -1.6350     0.7520 C.3   1 <1>   0.1960 
  7 C       -2.9290    -0.3630     0.3610 C.3   1 <1>   0.1960 
  8 C        1.1230     1.7200     0.5240 C.ar  1 <1>  -0.1440 
  9 C        1.9880     0.3580    -1.2340 C.ar  1 <1>  -0.1500 
 10 C       -1.7840    -2.8610     0.6190 C.3   1 <1>  -0.1860 
 11 C       -3.5100    -1.4060    -0.5990 C.3   1 <1>  -0.1600 
 12 C        2.4230     2.0640     0.8700 C.ar  1 <1>  -0.1500 
 13 C       -0.0140     2.3160     1.3470 C.3   1 <1>  -0.0970 
 14 C        3.2810     0.7050    -0.8880 C.ar  1 <1>  -0.1500 
 15 C       -2.4920    -3.1210     1.9370 C.2   1 <1>   0.9060 
 16 C       -2.7110    -2.7190    -0.5970 C.3   1 <1>   0.2000 
 17 C        3.5050     1.5640     0.1700 C.ar  1 <1>  -0.1440 
 18 O       -1.8020    -3.2420     2.9520 O.co2 1 <1>  -0.9000 
 19 O       -3.7270    -3.2300     1.9710 O.co2 1 <1>  -0.9000 
 20 O       -3.6050    -3.7660    -0.5970 O.3   1 <1>  -0.6800 
 21 C        4.9180     1.9540     0.5650 C.3   1 <1>  -0.0970 
 22 H        0.0310    -1.8210     0.1800 H     1 <1>   0.0800 
 23 H       -0.5460    -1.5310     1.7780 H     1 <1>   0.0800 
 24 H       -3.2430    -0.5970     1.3660 H     1 <1>   0.0800 
 25 H       -3.3170     0.6130     0.1270 H     1 <1>   0.0800 
 26 H        1.8370    -0.3130    -2.0620 H     1 <1>   0.1500 
 27 H       -1.1580    -3.7180     0.4610 H     1 <1>   0.0800 
 28 H       -3.5170    -1.0050    -1.5960 H     1 <1>   0.0800 
 29 H       -4.5290    -1.5860    -0.3080 H     1 <1>   0.0800 
 30 H        2.5970     2.7300     1.6970 H     1 <1>   0.1500 
 31 H        0.3490     3.0750     2.0160 H     1 <1>   0.0800 
 32 H       -0.4840     1.5500     1.9380 H     1 <1>   0.0800 
 33 H       -0.7510     2.7670     0.7080 H     1 <1>   0.0800 
 34 H        4.1080     0.3030    -1.4460 H     1 <1>   0.1500 
 35 H       -2.1320    -2.7860    -1.5020 H     1 <1>   0.0800 
 36 H       -3.9630    -3.7950     0.3370 H     1 <1>   0.4000 
 37 H        5.5930     1.8250    -0.2620 H     1 <1>   0.0800 
 38 H        5.2500     1.3390     1.3820 H     1 <1>   0.0800 
 39 H        4.9490     2.9840     0.8700 H     1 <1>   0.0800 
@<TRIPOS>BOND
  1   1   2  2   
  2   1   3  2   
  3   1   4  am  
  4   1   5  1   
  5   4   6  1   
  6   4   7  1   
  7   5   8  ar  
  8   5   9  ar  
  9   6  10  1   
 10   6  22  1   
 11   6  23  1   
 12   7  11  1   
 13   7  24  1   
 14   7  25  1   
 15   8  12  ar  
 16   8  13  1   
 17   9  14  ar  
 18   9  26  1   
 19  10  15  1   
 20  10  16  1   
 21  10  27  1   
 22  11  16  1   
 23  11  28  1   
 24  11  29  1   
 25  12  17  ar  
 26  12  30  1   
 27  13  31  1   
 28  13  32  1   
 29  13  33  1   
 30  14  17  ar  
 31  14  34  1   
 32  15  18  ar  
 33  15  19  ar  
 34  16  20  1   
 35  16  35  1   
 36  17  21  1   
 37  20  36  1   
 38  21  37  1   
 39  21  38  1   
 40  21  39  1   
@<TRIPOS>SUBSTRUCTURE
  1 ****   4 GROUP 4 **** **** 0

# MOE 2024.06 (io_trps.svl 2023.06)
