@<TRIPOS>MOLECULE
NONAME
63 66 1 0 0 
SMALL
USER_CHARGES


@<TRIPOS>ATOM
  1 O       -1.1620    -3.9100     2.1660 O.2   1 <1>  -0.5700 
  2 C       -0.0790    -4.0660     1.6680 C.2   1 <1>   0.5690 
  3 N        0.4750    -5.2890     1.5400 N.am  1 <1>  -0.7300 
  4 C        0.7220    -2.8840     1.1680 C.3   1 <1>  -0.0990 
  5 C        1.8100    -5.5250     0.9600 C.3   1 <1>   0.1400 
  6 C        1.3690    -3.2090    -0.1930 C.3   1 <1>  -0.0800 
  7 C        2.0090    -4.6190    -0.2750 C.3   1 <1>  -0.0800 
  8 C        2.4600    -2.2060    -0.5990 C.3   1 <1>  -0.1600 
  9 C        3.4840    -4.3890    -0.6290 C.3   1 <1>  -0.1600 
 10 C        3.4870    -3.0440    -1.3530 C.3   1 <1>   0.4230 
 11 N        4.8220    -2.3880    -1.4410 N.4   1 <1>  -0.9590 
 12 C        5.5420    -2.2000    -0.1460 C.3   1 <1>   0.4860 
 13 C        5.6950    -3.0780    -2.4420 C.3   1 <1>   0.2630 
 14 C        6.6250    -1.1640    -0.3630 C.ar  1 <1>  -0.1430 
 15 C        7.9570    -1.5450    -0.4500 C.ar  1 <1>  -0.1500 
 16 C        6.2880     0.1760    -0.4880 C.ar  1 <1>  -0.1500 
 17 C        8.9420    -0.5990    -0.6760 C.ar  1 <1>  -0.1500 
 18 C        7.2720     1.1200    -0.7150 C.ar  1 <1>  -0.1500 
 19 C        8.6000     0.7420    -0.8130 C.ar  1 <1>   0.0830 
 20 O        9.4930     1.7320    -1.0420 O.3   1 <1>  -0.3630 
 21 C       10.8900     1.4770    -1.0940 C.3   1 <1>   0.1810 
 22 C       11.6890     2.7550    -1.3410 C.2   1 <1>   0.5690 
 23 O       12.4490     2.7470    -2.2830 O.2   1 <1>  -0.5700 
 24 N       11.5790     3.8500    -0.5150 N.am  1 <1>  -0.6600 
 25 C       10.6810     3.8860     0.6810 C.3   1 <1>   0.1400 
 26 C       12.3320     5.1020    -0.8330 C.3   1 <1>   0.1400 
 27 C       11.1930     4.8950     1.7150 C.3   1 <1>  -0.1600 
 28 C       11.5510     6.3360    -0.3690 C.3   1 <1>  -0.1600 
 29 C       11.2790     6.3210     1.1450 C.3   1 <1>  -0.1600 
 30 H       -0.0530    -6.0830     1.9140 H     1 <1>   0.3700 
 31 H        0.0750    -2.0300     1.0800 H     1 <1>   0.0800 
 32 H        1.4690    -2.6670     1.9090 H     1 <1>   0.0800 
 33 H        2.5460    -5.3060     1.7150 H     1 <1>   0.0800 
 34 H        1.9080    -6.5610     0.6800 H     1 <1>   0.0800 
 35 H        0.5830    -3.1760    -0.9310 H     1 <1>   0.0800 
 36 H        1.5470    -5.1250    -1.1080 H     1 <1>   0.0800 
 37 H        2.8850    -1.7670     0.2840 H     1 <1>   0.0800 
 38 H        2.0510    -1.4290    -1.2220 H     1 <1>   0.0800 
 39 H        3.8580    -5.1810    -1.2550 H     1 <1>   0.0800 
 40 H        4.0580    -4.3410     0.2780 H     1 <1>   0.0800 
 41 H        3.1040    -3.2030    -2.3490 H     1 <1>   0.0800 
 42 H        4.6680    -1.4340    -1.7970 H     1 <1>   0.4500 
 43 H        4.8700    -1.8460     0.6170 H     1 <1>   0.0800 
 44 H        5.9740    -3.1300     0.1840 H     1 <1>   0.0800 
 45 H        5.9350    -4.0750    -2.1090 H     1 <1>   0.0800 
 46 H        6.6140    -2.5290    -2.5800 H     1 <1>   0.0800 
 47 H        5.1940    -3.1440    -3.3940 H     1 <1>   0.0800 
 48 H        8.2470    -2.5770    -0.3440 H     1 <1>   0.1500 
 49 H        5.2660     0.5070    -0.4080 H     1 <1>   0.1500 
 50 H        9.9650    -0.9230    -0.7420 H     1 <1>   0.1500 
 51 H        7.0190     2.1620    -0.8170 H     1 <1>   0.1500 
 52 H       11.1960     1.0400    -0.1630 H     1 <1>   0.0800 
 53 H       11.0740     0.7890    -1.8990 H     1 <1>   0.0800 
 54 H        9.6900     4.1620     0.3640 H     1 <1>   0.0800 
 55 H       10.6310     2.9120     1.1360 H     1 <1>   0.0800 
 56 H       13.2890     5.0680    -0.3430 H     1 <1>   0.0800 
 57 H       12.5010     5.1680    -1.8950 H     1 <1>   0.0800 
 58 H       10.5480     4.8890     2.5760 H     1 <1>   0.0800 
 59 H       12.1680     4.5760     2.0400 H     1 <1>   0.0800 
 60 H       12.0940     7.2270    -0.6300 H     1 <1>   0.0800 
 61 H       10.6170     6.3600    -0.9040 H     1 <1>   0.0800 
 62 H       12.0630     6.8500     1.6600 H     1 <1>   0.0800 
 63 H       10.3570     6.8440     1.3340 H     1 <1>   0.0800 
@<TRIPOS>BOND
  1   1   2  2   
  2   2   3  am  
  3   2   4  1   
  4   3   5  1   
  5   3  30  1   
  6   4   6  1   
  7   4  31  1   
  8   4  32  1   
  9   5   7  1   
 10   5  33  1   
 11   5  34  1   
 12   6   7  1   
 13   6   8  1   
 14   6  35  1   
 15   7   9  1   
 16   7  36  1   
 17   8  10  1   
 18   8  37  1   
 19   8  38  1   
 20   9  10  1   
 21   9  39  1   
 22   9  40  1   
 23  10  11  1   
 24  10  41  1   
 25  11  12  1   
 26  11  13  1   
 27  11  42  1   
 28  12  14  1   
 29  12  43  1   
 30  12  44  1   
 31  13  45  1   
 32  13  46  1   
 33  13  47  1   
 34  14  15  ar  
 35  14  16  ar  
 36  15  17  ar  
 37  15  48  1   
 38  16  18  ar  
 39  16  49  1   
 40  17  19  ar  
 41  17  50  1   
 42  18  19  ar  
 43  18  51  1   
 44  19  20  1   
 45  20  21  1   
 46  21  22  1   
 47  21  52  1   
 48  21  53  1   
 49  22  23  2   
 50  22  24  am  
 51  24  25  1   
 52  24  26  1   
 53  25  27  1   
 54  25  54  1   
 55  25  55  1   
 56  26  28  1   
 57  26  56  1   
 58  26  57  1   
 59  27  29  1   
 60  27  58  1   
 61  27  59  1   
 62  28  29  1   
 63  28  60  1   
 64  28  61  1   
 65  29  62  1   
 66  29  63  1   
@<TRIPOS>SUBSTRUCTURE
  1 ****  16 GROUP 4 **** **** 0

# MOE 2024.06 (io_trps.svl 2023.06)
