@<TRIPOS>MOLECULE
NONAME
47 48 1 0 0 
SMALL
USER_CHARGES


@<TRIPOS>ATOM
  1 S        0.4270    -0.0640     0.8770 S.o2  1 <1>   1.3330 
  2 O        1.7940     0.0400     1.3360 O.2   1 <1>  -0.6500 
  3 O       -0.6560     0.0100     1.8300 O.2   1 <1>  -0.6500 
  4 N        0.2770    -1.5100    -0.0010 N.am  1 <1>  -0.8490 
  5 C        0.1390     1.1940    -0.3650 C.3   1 <1>  -0.0550 
  6 C        1.5100    -1.9040    -0.6900 C.3   1 <1>   0.1160 
  7 C       -0.2060    -2.6170     0.8310 C.3   1 <1>   0.1160 
  8 C        0.1000     2.6190     0.2150 C.3   1 <1>  -0.0800 
  9 C       -0.2650     3.6650    -0.8330 C.3   1 <1>   0.2000 
 10 C        1.4360     3.1150     0.7780 C.3   1 <1>   0.1400 
 11 O       -1.6380     3.7040    -1.0080 O.3   1 <1>  -0.6800 
 12 C        0.2790     4.9830    -0.2880 C.3   1 <1>   0.1400 
 13 N        1.4130     4.5870     0.5830 N.am  1 <1>  -0.6600 
 14 C        2.4980     5.3850     0.8600 C.2   1 <1>   0.7150 
 15 O        3.5300     4.8510     1.2230 O.2   1 <1>  -0.5700 
 16 C        2.4310     6.8130     0.7150 C.2   1 <1>  -0.2370 
 17 N        3.4630     7.5980     0.3010 N.pl3 1 <1>   0.3140 
 18 C        1.4010     7.6720     0.9550 C.2   1 <1>  -0.1500 
 19 N        3.1150     8.8990     0.2640 N.2   1 <1>  -0.7070 
 20 C        4.8360     7.1390    -0.0600 C.3   1 <1>   0.0960 
 21 C        1.8820     8.9310     0.6570 C.2   1 <1>   0.1080 
 22 C        5.5890     8.1130    -0.9800 C.3   1 <1>  -0.2400 
 23 C        1.1090    10.2230     0.7650 C.3   1 <1>  -0.0590 
 24 H        0.8970     1.1350    -1.1200 H     1 <1>   0.0800 
 25 H       -0.8060     0.9950    -0.8350 H     1 <1>   0.0800 
 26 H        1.3310    -2.7740    -1.2990 H     1 <1>   0.0800 
 27 H        2.2860    -2.1290     0.0240 H     1 <1>   0.0800 
 28 H        1.8500    -1.1080    -1.3290 H     1 <1>   0.0800 
 29 H       -0.3060    -3.5110     0.2400 H     1 <1>   0.0800 
 30 H       -1.1720    -2.3760     1.2410 H     1 <1>   0.0800 
 31 H        0.4780    -2.8010     1.6430 H     1 <1>   0.0800 
 32 H       -0.6170     2.6560     1.0180 H     1 <1>   0.0800 
 33 H        0.1930     3.4480    -1.7830 H     1 <1>   0.0800 
 34 H        2.2670     2.7000     0.2320 H     1 <1>   0.0800 
 35 H        1.5430     2.8710     1.8220 H     1 <1>   0.0800 
 36 H       -2.0930     3.8230    -0.1510 H     1 <1>   0.4000 
 37 H       -0.4640     5.4830     0.3070 H     1 <1>   0.0800 
 38 H        0.6130     5.6230    -1.0860 H     1 <1>   0.0800 
 39 H        0.4140     7.4440     1.3140 H     1 <1>   0.1500 
 40 H        5.3860     7.0000     0.8530 H     1 <1>   0.0800 
 41 H        4.7560     6.1880    -0.5530 H     1 <1>   0.0800 
 42 H        5.7370     9.0550    -0.4830 H     1 <1>   0.0800 
 43 H        5.0310     8.2740    -1.8850 H     1 <1>   0.0800 
 44 H        6.5500     7.7060    -1.2340 H     1 <1>   0.0800 
 45 H        0.1080    10.0370     1.1070 H     1 <1>   0.0800 
 46 H        1.0720    10.6990    -0.1980 H     1 <1>   0.0800 
 47 H        1.6040    10.8780     1.4580 H     1 <1>   0.0800 
@<TRIPOS>BOND
  1   1   2  2   
  2   1   3  2   
  3   1   4  am  
  4   1   5  1   
  5   4   6  1   
  6   4   7  1   
  7   5   8  1   
  8   5  24  1   
  9   5  25  1   
 10   6  26  1   
 11   6  27  1   
 12   6  28  1   
 13   7  29  1   
 14   7  30  1   
 15   7  31  1   
 16   8   9  1   
 17   8  10  1   
 18   8  32  1   
 19   9  11  1   
 20   9  12  1   
 21   9  33  1   
 22  10  13  1   
 23  10  34  1   
 24  10  35  1   
 25  11  36  1   
 26  12  13  1   
 27  12  37  1   
 28  12  38  1   
 29  13  14  am  
 30  14  15  2   
 31  14  16  1   
 32  16  17  1   
 33  16  18  2   
 34  17  19  1   
 35  17  20  1   
 36  18  21  1   
 37  18  39  1   
 38  19  21  2   
 39  20  22  1   
 40  20  40  1   
 41  20  41  1   
 42  21  23  1   
 43  22  42  1   
 44  22  43  1   
 45  22  44  1   
 46  23  45  1   
 47  23  46  1   
 48  23  47  1   
@<TRIPOS>SUBSTRUCTURE
  1 ****  13 GROUP 4 **** **** 0

# MOE 2024.06 (io_trps.svl 2023.06)
