@<TRIPOS>MOLECULE
NONAME
42 44 1 0 0 
SMALL
USER_CHARGES


@<TRIPOS>ATOM
  1 CL      -0.3470     3.2950     1.8550 Cl    1 <1>  -0.1770 
  2 C        1.0520     2.7240     0.9740 C.ar  1 <1>   0.1770 
  3 C        1.9830     3.6150     0.4680 C.ar  1 <1>   0.1900 
  4 C        1.2140     1.3650     0.7910 C.ar  1 <1>  -0.1500 
  5 F        1.7710     4.8900     0.6600 F     1 <1>  -0.1900 
  6 C        3.1170     3.1930    -0.2310 C.ar  1 <1>   0.0860 
  7 C        2.3210     0.9100     0.0950 C.ar  1 <1>  -0.1500 
  8 C        4.1240     4.0950    -0.7650 C.2   1 <1>   0.5440 
  9 C        3.2490     1.8100    -0.4050 C.ar  1 <1>  -0.1500 
 10 O        4.8520     3.7460    -1.6760 O.2   1 <1>  -0.5700 
 11 N        4.3860     5.3280    -0.2290 N.am  1 <1>  -0.6600 
 12 C        5.0590     5.3680     1.1180 C.3   1 <1>   0.2200 
 13 C        4.5600     6.4960    -1.1530 C.3   1 <1>   0.1400 
 14 C        4.8000     6.6850     1.8670 C.3   1 <1>   0.1200 
 15 C        6.5760     5.0740     0.9890 C.3   1 <1>   0.3430 
 16 C        5.7930     7.3770    -0.8780 C.3   1 <1>  -0.0800 
 17 O        5.7510     7.6500     1.5350 O.3   1 <1>  -0.5600 
 18 N        7.0680     5.2120    -0.4260 N.4   1 <1>  -0.9590 
 19 C        5.5770     8.3090     0.3260 C.3   1 <1>   0.1200 
 20 C        7.1530     6.6470    -0.8290 C.3   1 <1>   0.3430 
 21 C        8.4470     4.5810    -0.5320 C.3   1 <1>   0.2370 
 22 C        9.4900     5.1780     0.4180 C.2   1 <1>   0.9060 
 23 O        9.5380     4.7360     1.5690 O.co2 1 <1>  -0.9000 
 24 O       10.1360     6.1550     0.0280 O.co2 1 <1>  -0.9000 
 25 H        0.4860     0.6770     1.1860 H     1 <1>   0.1500 
 26 H        2.4580    -0.1480    -0.0600 H     1 <1>   0.1500 
 27 H        4.1000     1.4300    -0.9480 H     1 <1>   0.1500 
 28 H        4.6300     4.5900     1.7250 H     1 <1>   0.0800 
 29 H        4.6190     6.1370    -2.1680 H     1 <1>   0.0800 
 30 H        3.6720     7.1030    -1.0940 H     1 <1>   0.0800 
 31 H        4.9060     6.5120     2.9240 H     1 <1>   0.0800 
 32 H        3.8080     7.0620     1.6840 H     1 <1>   0.0800 
 33 H        6.7590     4.0670     1.3260 H     1 <1>   0.0800 
 34 H        7.1380     5.7250     1.6400 H     1 <1>   0.0800 
 35 H        5.8600     8.0460    -1.7170 H     1 <1>   0.0800 
 36 H        6.3840     4.7230    -1.0380 H     1 <1>   0.4500 
 37 H        4.5980     8.7570     0.3120 H     1 <1>   0.0800 
 38 H        6.3070     9.1010     0.3030 H     1 <1>   0.0800 
 39 H        7.8170     7.1700    -0.1560 H     1 <1>   0.0800 
 40 H        7.5990     6.6940    -1.8080 H     1 <1>   0.0800 
 41 H        8.3830     3.5320    -0.3110 H     1 <1>   0.0800 
 42 H        8.8240     4.6940    -1.5320 H     1 <1>   0.0800 
@<TRIPOS>BOND
  1   1   2  1   
  2   2   3  ar  
  3   2   4  ar  
  4   3   5  1   
  5   3   6  ar  
  6   4   7  ar  
  7   4  25  1   
  8   6   8  1   
  9   6   9  ar  
 10   7   9  ar  
 11   7  26  1   
 12   8  10  2   
 13   8  11  am  
 14   9  27  1   
 15  11  12  1   
 16  11  13  1   
 17  12  14  1   
 18  12  15  1   
 19  12  28  1   
 20  13  16  1   
 21  13  29  1   
 22  13  30  1   
 23  14  17  1   
 24  14  31  1   
 25  14  32  1   
 26  15  18  1   
 27  15  33  1   
 28  15  34  1   
 29  16  19  1   
 30  16  20  1   
 31  16  35  1   
 32  17  19  1   
 33  18  20  1   
 34  18  21  1   
 35  18  36  1   
 36  19  37  1   
 37  19  38  1   
 38  20  39  1   
 39  20  40  1   
 40  21  22  1   
 41  21  41  1   
 42  21  42  1   
 43  22  23  ar  
 44  22  24  ar  
@<TRIPOS>SUBSTRUCTURE
  1 ****  11 GROUP 4 **** **** 0

# MOE 2024.06 (io_trps.svl 2023.06)
