@<TRIPOS>MOLECULE
NONAME
53 54 1 0 0 
SMALL
USER_CHARGES


@<TRIPOS>ATOM
  1 O        0.4540     1.9050     0.4780 O.2   1 <1>  -0.5700 
  2 C       -0.2100     2.7640    -0.0520 C.2   1 <1>   0.5690 
  3 N       -1.2270     3.4210     0.5810 N.am  1 <1>  -0.6600 
  4 C        0.0860     3.1390    -1.5060 C.3   1 <1>   0.1810 
  5 C       -1.9000     4.5350    -0.1610 C.3   1 <1>   0.3640 
  6 C       -1.5330     3.2010     2.0170 C.3   1 <1>   0.2200 
  7 O        0.0660     4.5320    -1.7440 O.3   1 <1>  -0.5600 
  8 C       -3.0710     4.0440    -1.0250 C.ar  1 <1>  -0.1440 
  9 C       -0.8630     5.3290    -1.0010 C.3   1 <1>   0.2610 
 10 C       -3.0360     3.0260     2.2370 C.3   1 <1>  -0.2400 
 11 C       -0.9710     4.3540     2.8480 C.3   1 <1>  -0.2400 
 12 C       -3.3170     2.7020    -1.3010 C.ar  1 <1>  -0.1500 
 13 C       -3.9390     4.9950    -1.5490 C.ar  1 <1>  -0.1500 
 14 C       -0.1270     6.2850    -0.0600 C.2   1 <1>   0.5690 
 15 C       -4.3890     2.3260    -2.0920 C.ar  1 <1>  -0.1500 
 16 C       -5.0110     4.6210    -2.3390 C.ar  1 <1>  -0.1500 
 17 O       -0.7490     7.1890     0.4490 O.2   1 <1>  -0.5700 
 18 N        1.1980     6.1040     0.1870 N.am  1 <1>  -0.7300 
 19 C       -5.2370     3.2860    -2.6140 C.ar  1 <1>  -0.1500 
 20 C        2.0130     6.8850     1.1440 C.3   1 <1>   0.1400 
 21 C        2.5850     8.1150     0.4390 C.3   1 <1>  -0.0990 
 22 C        3.4440     8.9610     1.3650 C.2   1 <1>   0.5690 
 23 O        3.9130     8.4330     2.3470 O.2   1 <1>  -0.5700 
 24 N        3.6830    10.2830     1.0730 N.am  1 <1>  -0.6600 
 25 C        4.4320    11.1600     2.0170 C.3   1 <1>   0.0600 
 26 C        3.2330    10.9720    -0.1690 C.3   1 <1>   0.0600 
 27 H       -0.6450     2.6840    -2.1480 H     1 <1>   0.0800 
 28 H        1.0580     2.7740    -1.7820 H     1 <1>   0.0800 
 29 H       -2.3240     5.2170     0.5540 H     1 <1>   0.0800 
 30 H       -1.0480     2.2930     2.3390 H     1 <1>   0.0800 
 31 H       -1.3820     5.9390    -1.7150 H     1 <1>   0.0800 
 32 H       -3.5780     3.9230     2.0030 H     1 <1>   0.0800 
 33 H       -3.2230     2.7810     3.2660 H     1 <1>   0.0800 
 34 H       -3.4050     2.2180     1.6300 H     1 <1>   0.0800 
 35 H       -1.4640     5.2820     2.6260 H     1 <1>   0.0800 
 36 H        0.0830     4.4590     2.6620 H     1 <1>   0.0800 
 37 H       -1.1050     4.1450     3.8940 H     1 <1>   0.0800 
 38 H       -2.6870     1.9270    -0.9030 H     1 <1>   0.1500 
 39 H       -3.7900     6.0420    -1.3440 H     1 <1>   0.1500 
 40 H       -4.5650     1.2850    -2.2980 H     1 <1>   0.1500 
 41 H       -5.6720     5.3700    -2.7400 H     1 <1>   0.1500 
 42 H        1.6770     5.3560    -0.3240 H     1 <1>   0.3700 
 43 H       -6.0700     2.9930    -3.2290 H     1 <1>   0.1500 
 44 H        1.3980     7.1970     1.9720 H     1 <1>   0.0800 
 45 H        2.8070     6.2660     1.5270 H     1 <1>   0.0800 
 46 H        1.7620     8.7070     0.0860 H     1 <1>   0.0800 
 47 H        3.1890     7.8060    -0.3930 H     1 <1>   0.0800 
 48 H        3.8500    12.0380     2.2380 H     1 <1>   0.0800 
 49 H        5.3670    11.4540     1.5750 H     1 <1>   0.0800 
 50 H        4.6360    10.6460     2.9410 H     1 <1>   0.0800 
 51 H        3.9680    11.6990    -0.4710 H     1 <1>   0.0800 
 52 H        2.2990    11.4750     0.0150 H     1 <1>   0.0800 
 53 H        3.1060    10.2720    -0.9750 H     1 <1>   0.0800 
@<TRIPOS>BOND
  1   1   2  2   
  2   2   3  am  
  3   2   4  1   
  4   3   5  1   
  5   3   6  1   
  6   4   7  1   
  7   4  27  1   
  8   4  28  1   
  9   5   8  1   
 10   5   9  1   
 11   5  29  1   
 12   6  10  1   
 13   6  11  1   
 14   6  30  1   
 15   7   9  1   
 16   8  12  ar  
 17   8  13  ar  
 18   9  14  1   
 19   9  31  1   
 20  10  32  1   
 21  10  33  1   
 22  10  34  1   
 23  11  35  1   
 24  11  36  1   
 25  11  37  1   
 26  12  15  ar  
 27  12  38  1   
 28  13  16  ar  
 29  13  39  1   
 30  14  17  2   
 31  14  18  am  
 32  15  19  ar  
 33  15  40  1   
 34  16  19  ar  
 35  16  41  1   
 36  18  20  1   
 37  18  42  1   
 38  19  43  1   
 39  20  21  1   
 40  20  44  1   
 41  20  45  1   
 42  21  22  1   
 43  21  46  1   
 44  21  47  1   
 45  22  23  2   
 46  22  24  am  
 47  24  25  1   
 48  24  26  1   
 49  25  48  1   
 50  25  49  1   
 51  25  50  1   
 52  26  51  1   
 53  26  52  1   
 54  26  53  1   
@<TRIPOS>SUBSTRUCTURE
  1 ****  14 GROUP 4 **** **** 0

# MOE 2024.06 (io_trps.svl 2023.06)
