@<TRIPOS>MOLECULE
NONAME
61 65 1 0 0 
SMALL
USER_CHARGES


@<TRIPOS>ATOM
  1 O        1.0560    -1.3800    -2.7010 O.2   1 <1>  -0.5700 
  2 C        2.1810    -1.6490    -2.3340 C.2   1 <1>   0.6900 
  3 N        2.5230    -2.4930    -1.3110 N.am  1 <1>  -0.4770 
  4 N        3.2660    -1.0980    -2.8990 N.am  1 <1>  -0.7300 
  5 C        1.6890    -3.1460    -0.3870 C.ar  1 <1>   0.1170 
  6 C        4.0020    -2.4920    -1.1600 C.3   1 <1>   0.1400 
  7 C        4.5010    -1.4750    -2.2000 C.3   1 <1>   0.1400 
  8 C        2.0410    -4.3880     0.1250 C.ar  1 <1>  -0.1500 
  9 C        0.5020    -2.5680     0.0510 C.ar  1 <1>  -0.1500 
 10 C        1.2500    -5.0580     1.0520 C.ar  1 <1>   0.0860 
 11 C       -0.2990    -3.2070     0.9790 C.ar  1 <1>  -0.1500 
 12 C        1.6490    -6.3590     1.5440 C.2   1 <1>   0.5440 
 13 C        0.0760    -4.4400     1.4780 C.ar  1 <1>  -0.1500 
 14 O        2.6760    -6.4760     2.1840 O.2   1 <1>  -0.5700 
 15 N        0.9040    -7.4760     1.2730 N.am  1 <1>  -0.6600 
 16 C        1.0850    -8.8300     1.7890 C.3   1 <1>   0.2200 
 17 C       -0.3930    -7.6250     0.6490 C.3   1 <1>   0.2200 
 18 C        0.9350    -9.6800     0.4890 C.3   1 <1>   0.0610 
 19 C       -0.1760    -8.8820     2.6780 C.3   1 <1>  -0.1600 
 20 C       -0.1310    -8.8250    -0.2720 C.3   1 <1>  -0.1600 
 21 C       -1.2140    -8.0950     1.8550 C.3   1 <1>  -0.1600 
 22 C        0.4930   -11.1270     0.8180 C.2   1 <1>   0.5690 
 23 C        2.2840    -9.8060    -0.2910 C.3   1 <1>  -0.1600 
 24 O        0.9060   -11.6100     1.8490 O.2   1 <1>  -0.5700 
 25 N       -0.2900   -11.8930    -0.0220 N.am  1 <1>  -0.6600 
 26 C        3.0380    -8.5240    -0.6830 C.3   1 <1>  -0.2400 
 27 C       -0.8670   -13.1930     0.4460 C.3   1 <1>   0.1400 
 28 C       -0.4300   -11.7330    -1.5030 C.3   1 <1>   0.1400 
 29 C       -0.3050   -14.3600    -0.3800 C.3   1 <1>   0.1200 
 30 C        0.1030   -12.9790    -2.2320 C.3   1 <1>   0.1200 
 31 O       -0.5140   -14.1360    -1.7470 O.3   1 <1>  -0.5600 
 32 H        3.1790    -0.3140    -3.5460 H     1 <1>   0.3700 
 33 H        4.2770    -2.1940    -0.1630 H     1 <1>   0.0800 
 34 H        4.3980    -3.4690    -1.3710 H     1 <1>   0.0800 
 35 H        5.2040    -1.9240    -2.8810 H     1 <1>   0.0800 
 36 H        4.9410    -0.6170    -1.7220 H     1 <1>   0.0800 
 37 H        2.9460    -4.8640    -0.1990 H     1 <1>   0.1500 
 38 H        0.2050    -1.6080    -0.3350 H     1 <1>   0.1500 
 39 H       -1.2110    -2.7400     1.3100 H     1 <1>   0.1500 
 40 H       -0.5410    -4.9340     2.2070 H     1 <1>   0.1500 
 41 H        2.0100    -8.9800     2.3210 H     1 <1>   0.0800 
 42 H       -0.7650    -6.7440     0.1540 H     1 <1>   0.0800 
 43 H       -0.5080    -9.8750     2.9140 H     1 <1>   0.0800 
 44 H        0.0320    -8.3720     3.6030 H     1 <1>   0.0800 
 45 H       -1.0520    -9.3500    -0.4380 H     1 <1>   0.0800 
 46 H        0.2360    -8.4790    -1.2200 H     1 <1>   0.0800 
 47 H       -1.5770    -7.2510     2.4130 H     1 <1>   0.0800 
 48 H       -2.0480    -8.7070     1.5600 H     1 <1>   0.0800 
 49 H        2.9550   -10.3970     0.3100 H     1 <1>   0.0800 
 50 H        2.1130   -10.3670    -1.1900 H     1 <1>   0.0800 
 51 H        3.4230    -8.0350     0.1940 H     1 <1>   0.0800 
 52 H        2.4080    -7.8360    -1.2170 H     1 <1>   0.0800 
 53 H        3.8750    -8.7730    -1.3100 H     1 <1>   0.0800 
 54 H       -0.6510   -13.3600     1.4870 H     1 <1>   0.0800 
 55 H       -1.9360   -13.1660     0.3360 H     1 <1>   0.0800 
 56 H       -1.4690   -11.6010    -1.7480 H     1 <1>   0.0800 
 57 H        0.1060   -10.8750    -1.8570 H     1 <1>   0.0800 
 58 H       -0.8030   -15.2760    -0.1170 H     1 <1>   0.0800 
 59 H        0.7500   -14.4750    -0.2020 H     1 <1>   0.0800 
 60 H        1.1670   -13.0730    -2.0950 H     1 <1>   0.0800 
 61 H       -0.1060   -12.9130    -3.2840 H     1 <1>   0.0800 
@<TRIPOS>BOND
  1   1   2  2   
  2   2   3  am  
  3   2   4  am  
  4   3   5  1   
  5   3   6  1   
  6   4   7  1   
  7   4  32  1   
  8   5   8  ar  
  9   5   9  ar  
 10   6   7  1   
 11   6  33  1   
 12   6  34  1   
 13   7  35  1   
 14   7  36  1   
 15   8  10  ar  
 16   8  37  1   
 17   9  11  ar  
 18   9  38  1   
 19  10  12  1   
 20  10  13  ar  
 21  11  13  ar  
 22  11  39  1   
 23  12  14  2   
 24  12  15  am  
 25  13  40  1   
 26  15  16  1   
 27  15  17  1   
 28  16  18  1   
 29  16  19  1   
 30  16  41  1   
 31  17  20  1   
 32  17  21  1   
 33  17  42  1   
 34  18  20  1   
 35  18  22  1   
 36  18  23  1   
 37  19  21  1   
 38  19  43  1   
 39  19  44  1   
 40  20  45  1   
 41  20  46  1   
 42  21  47  1   
 43  21  48  1   
 44  22  24  2   
 45  22  25  am  
 46  23  26  1   
 47  23  49  1   
 48  23  50  1   
 49  25  27  1   
 50  25  28  1   
 51  26  51  1   
 52  26  52  1   
 53  26  53  1   
 54  27  29  1   
 55  27  54  1   
 56  27  55  1   
 57  28  30  1   
 58  28  56  1   
 59  28  57  1   
 60  29  31  1   
 61  29  58  1   
 62  29  59  1   
 63  30  31  1   
 64  30  60  1   
 65  30  61  1   
@<TRIPOS>SUBSTRUCTURE
  1 ****  15 GROUP 4 **** **** 0

# MOE 2024.06 (io_trps.svl 2023.06)
