@<TRIPOS>MOLECULE
NONAME
46 47 1 0 0 
SMALL
USER_CHARGES


@<TRIPOS>ATOM
  1 O       -0.3330     0.4250     0.3400 O.3   1 <1>  -0.5600 
  2 C        0.8640     0.4660    -0.3810 C.3   1 <1>   0.1200 
  3 C       -1.4500     0.7880    -0.3980 C.3   1 <1>   0.1200 
  4 C        2.0090     0.0480     0.5370 C.3   1 <1>   0.1200 
  5 C       -2.6640     0.6800     0.5330 C.3   1 <1>   0.3430 
  6 O        3.1880     0.1000    -0.1990 O.3   1 <1>  -0.5600 
  7 N       -3.9590     0.9820    -0.1580 N.4   1 <1>  -0.9590 
  8 C        4.3200    -0.2610     0.5250 C.3   1 <1>   0.0400 
  9 C       -5.1060     0.5980     0.7260 C.3   1 <1>   0.3430 
 10 C       -4.0640     2.4170    -0.5620 C.3   1 <1>   0.3430 
 11 C       -6.4500     0.7430    -0.0070 C.3   1 <1>   0.0000 
 12 C       -5.3600     2.6420    -1.3440 C.3   1 <1>  -0.1600 
 13 C       -7.5820     0.3260     0.9440 C.3   1 <1>   0.2000 
 14 C       -6.5960     2.1940    -0.5450 C.3   1 <1>  -0.1600 
 15 C       -6.6370    -0.2780    -1.1450 C.3   1 <1>  -0.1600 
 16 O       -7.8880     1.3120     1.8570 O.3   1 <1>  -0.6800 
 17 C       -8.7730    -0.0110     0.0550 C.3   1 <1>  -0.1600 
 18 C       -8.1560    -0.4790    -1.2720 C.3   1 <1>  -0.1600 
 19 H        0.7970    -0.2160    -1.2110 H     1 <1>   0.0800 
 20 H        1.0280     1.4700    -0.7320 H     1 <1>   0.0800 
 21 H       -1.3110     1.7980    -0.7430 H     1 <1>   0.0800 
 22 H       -1.5430     0.1100    -1.2280 H     1 <1>   0.0800 
 23 H        1.8630    -0.9600     0.8840 H     1 <1>   0.0800 
 24 H        2.0910     0.7280     1.3680 H     1 <1>   0.0800 
 25 H       -2.5280     1.3560     1.3620 H     1 <1>   0.0800 
 26 H       -2.6930    -0.3250     0.9200 H     1 <1>   0.0800 
 27 H       -4.0300     0.4060    -1.0070 H     1 <1>   0.4500 
 28 H        5.1720    -0.1890    -0.1280 H     1 <1>   0.0800 
 29 H        4.2130    -1.2750     0.8700 H     1 <1>   0.0800 
 30 H        4.4410     0.4130     1.3550 H     1 <1>   0.0800 
 31 H       -4.9920    -0.4220     1.0550 H     1 <1>   0.0800 
 32 H       -5.1200     1.2300     1.6000 H     1 <1>   0.0800 
 33 H       -4.0630     3.0420     0.3170 H     1 <1>   0.0800 
 34 H       -3.2250     2.6960    -1.1770 H     1 <1>   0.0800 
 35 H       -5.4510     3.6910    -1.5680 H     1 <1>   0.0800 
 36 H       -5.3070     2.1240    -2.2850 H     1 <1>   0.0800 
 37 H       -7.2950    -0.5540     1.4970 H     1 <1>   0.0800 
 38 H       -7.4750     2.2880    -1.1590 H     1 <1>   0.0800 
 39 H       -6.7110     2.8760     0.2800 H     1 <1>   0.0800 
 40 H       -6.2090     0.0300    -2.0820 H     1 <1>   0.0800 
 41 H       -6.1970    -1.2210    -0.8640 H     1 <1>   0.0800 
 42 H       -8.6160     1.8710     1.5200 H     1 <1>   0.4000 
 43 H       -9.3740    -0.7860     0.4980 H     1 <1>   0.0800 
 44 H       -9.3820     0.8590    -0.1230 H     1 <1>   0.0800 
 45 H       -8.3880    -1.5130    -1.4660 H     1 <1>   0.0800 
 46 H       -8.5450     0.1150    -2.0820 H     1 <1>   0.0800 
@<TRIPOS>BOND
  1   1   2  1   
  2   1   3  1   
  3   2   4  1   
  4   2  19  1   
  5   2  20  1   
  6   3   5  1   
  7   3  21  1   
  8   3  22  1   
  9   4   6  1   
 10   4  23  1   
 11   4  24  1   
 12   5   7  1   
 13   5  25  1   
 14   5  26  1   
 15   6   8  1   
 16   7   9  1   
 17   7  10  1   
 18   7  27  1   
 19   8  28  1   
 20   8  29  1   
 21   8  30  1   
 22   9  11  1   
 23   9  31  1   
 24   9  32  1   
 25  10  12  1   
 26  10  33  1   
 27  10  34  1   
 28  11  13  1   
 29  11  14  1   
 30  11  15  1   
 31  12  14  1   
 32  12  35  1   
 33  12  36  1   
 34  13  16  1   
 35  13  17  1   
 36  13  37  1   
 37  14  38  1   
 38  14  39  1   
 39  15  18  1   
 40  15  40  1   
 41  15  41  1   
 42  16  42  1   
 43  17  18  1   
 44  17  43  1   
 45  17  44  1   
 46  18  45  1   
 47  18  46  1   
@<TRIPOS>SUBSTRUCTURE
  1 ****   7 GROUP 4 **** **** 0

# MOE 2024.06 (io_trps.svl 2023.06)
