@<TRIPOS>MOLECULE
NONAME
48 49 1 0 0 
SMALL
USER_CHARGES


@<TRIPOS>ATOM
  1 S        0.3910     0.3750    -1.0080 S.o2  1 <1>   1.3330 
  2 O        0.6340    -0.9420    -1.5520 O.2   1 <1>  -0.6500 
  3 O       -0.6070     1.2280    -1.6110 O.2   1 <1>  -0.6500 
  4 N       -0.0270     0.1920     0.6300 N.am  1 <1>  -0.8490 
  5 C        1.9580     1.2480    -0.9510 C.3   1 <1>  -0.0550 
  6 C       -0.8700    -0.9860     0.8560 C.3   1 <1>   0.1160 
  7 C       -0.6740     1.3800     1.1990 C.3   1 <1>   0.1160 
  8 C        3.1280     0.4150    -0.3810 C.3   1 <1>  -0.0800 
  9 C        4.4950     1.0720    -0.4970 C.3   1 <1>   0.2200 
 10 C        3.0340     0.0900     1.1160 C.3   1 <1>   0.1200 
 11 N        4.4250     2.5070    -0.1350 N.am  1 <1>  -0.7300 
 12 C        5.2510     0.3300     0.5950 C.3   1 <1>   0.1200 
 13 O        4.3300     0.1970     1.6340 O.3   1 <1>  -0.5600 
 14 C        4.4190     3.5320    -1.0190 C.2   1 <1>   0.5690 
 15 O        4.4100     3.3430    -2.2090 O.2   1 <1>  -0.5700 
 16 C        4.4150     4.9490    -0.4940 C.3   1 <1>  -0.0990 
 17 C        5.8280     5.5410    -0.4970 C.3   1 <1>  -0.0170 
 18 C        5.8100     6.9570     0.0560 C.ar  1 <1>  -0.1440 
 19 C        6.0580     7.1890     1.4010 C.ar  1 <1>  -0.1500 
 20 C        5.5420     8.0290    -0.7850 C.ar  1 <1>  -0.1500 
 21 C        6.0380     8.4790     1.9020 C.ar  1 <1>  -0.1500 
 22 C        5.5220     9.3210    -0.2880 C.ar  1 <1>  -0.1500 
 23 C        5.7710     9.5410     1.0570 C.ar  1 <1>   0.0820 
 24 O        5.7560    10.7870     1.5530 O.3   1 <1>  -0.5330 
 25 H        2.2160     1.5370    -1.9520 H     1 <1>   0.0800 
 26 H        1.8400     2.1480    -0.3820 H     1 <1>   0.0800 
 27 H       -1.1090    -1.0790     1.9020 H     1 <1>   0.0800 
 28 H       -0.3490    -1.8780     0.5500 H     1 <1>   0.0800 
 29 H       -1.7830    -0.9080     0.2880 H     1 <1>   0.0800 
 30 H       -0.8330     1.2430     2.2560 H     1 <1>   0.0800 
 31 H       -1.6250     1.5570     0.7220 H     1 <1>   0.0800 
 32 H       -0.0520     2.2470     1.0590 H     1 <1>   0.0800 
 33 H        3.1680    -0.5190    -0.9140 H     1 <1>   0.0800 
 34 H        4.9410     0.9430    -1.4700 H     1 <1>   0.0800 
 35 H        2.6690    -0.9090     1.2850 H     1 <1>   0.0800 
 36 H        2.4160     0.7950     1.6430 H     1 <1>   0.0800 
 37 H        4.4060     2.6760     0.8740 H     1 <1>   0.3700 
 38 H        6.1190     0.8620     0.9410 H     1 <1>   0.0800 
 39 H        5.5280    -0.6570     0.2680 H     1 <1>   0.0800 
 40 H        3.7760     5.5440    -1.1210 H     1 <1>   0.0800 
 41 H        4.0140     4.9680     0.5020 H     1 <1>   0.0800 
 42 H        6.2130     5.5480    -1.5020 H     1 <1>   0.0800 
 43 H        6.4810     4.9260     0.0970 H     1 <1>   0.0800 
 44 H        6.2680     6.3700     2.0660 H     1 <1>   0.1500 
 45 H        5.3490     7.8590    -1.8300 H     1 <1>   0.1500 
 46 H        6.2290     8.6680     2.9430 H     1 <1>   0.1500 
 47 H        5.3140    10.1430    -0.9470 H     1 <1>   0.1500 
 48 H        5.5660    11.4630     0.8790 H     1 <1>   0.4500 
@<TRIPOS>BOND
  1   1   2  2   
  2   1   3  2   
  3   1   4  am  
  4   1   5  1   
  5   4   6  1   
  6   4   7  1   
  7   5   8  1   
  8   5  25  1   
  9   5  26  1   
 10   6  27  1   
 11   6  28  1   
 12   6  29  1   
 13   7  30  1   
 14   7  31  1   
 15   7  32  1   
 16   8   9  1   
 17   8  10  1   
 18   8  33  1   
 19   9  11  1   
 20   9  12  1   
 21   9  34  1   
 22  10  13  1   
 23  10  35  1   
 24  10  36  1   
 25  11  14  am  
 26  11  37  1   
 27  12  13  1   
 28  12  38  1   
 29  12  39  1   
 30  14  15  2   
 31  14  16  1   
 32  16  17  1   
 33  16  40  1   
 34  16  41  1   
 35  17  18  1   
 36  17  42  1   
 37  17  43  1   
 38  18  19  ar  
 39  18  20  ar  
 40  19  21  ar  
 41  19  44  1   
 42  20  22  ar  
 43  20  45  1   
 44  21  23  ar  
 45  21  46  1   
 46  22  23  ar  
 47  22  47  1   
 48  23  24  1   
 49  24  48  1   
@<TRIPOS>SUBSTRUCTURE
  1 ****  11 GROUP 4 **** **** 0

# MOE 2024.06 (io_trps.svl 2023.06)
