@<TRIPOS>MOLECULE
NONAME
47 48 1 0 0 
SMALL
USER_CHARGES


@<TRIPOS>ATOM
  1 F       -0.5050    -0.0500     0.8410 F     1 <1>  -0.1900 
  2 C       -0.4390     1.1270     0.2740 C.ar  1 <1>   0.1900 
  3 C       -1.5520     1.9550     0.2920 C.ar  1 <1>  -0.1440 
  4 C        0.7490     1.4900    -0.3320 C.ar  1 <1>  -0.1500 
  5 C       -1.4520     3.1910    -0.3310 C.ar  1 <1>  -0.1500 
  6 C       -2.8400     1.5250     0.9680 C.3   1 <1>   0.2840 
  7 C        0.8310     2.7260    -0.9480 C.ar  1 <1>  -0.1500 
  8 C       -0.2680     3.5720    -0.9470 C.ar  1 <1>  -0.1500 
  9 N       -3.5050     0.5360     0.0940 N.am  1 <1>  -0.7300 
 10 C       -4.1590    -0.5590     0.5610 C.2   1 <1>   0.5690 
 11 O       -4.4100    -0.6990     1.7360 O.2   1 <1>  -0.5700 
 12 C       -4.6110    -1.6800    -0.3930 C.3   1 <1>   0.4040 
 13 N       -5.6350    -2.6020     0.2360 N.4   1 <1>  -0.9590 
 14 C       -5.6390    -3.9520    -0.4090 C.3   1 <1>   0.3430 
 15 C       -6.9830    -1.9520     0.2870 C.3   1 <1>   0.2630 
 16 C       -6.4120    -4.9890     0.4070 C.3   1 <1>   0.0210 
 17 C       -6.2240    -6.3360    -0.2570 C.2   1 <1>  -0.1810 
 18 C       -5.1690    -7.2230    -0.0420 C.2   1 <1>   0.1080 
 19 C       -7.0020    -6.9410    -1.1820 C.2   1 <1>  -0.3320 
 20 N       -5.2690    -8.2830    -0.7740 N.2   1 <1>  -0.7070 
 21 C       -4.0160    -7.0380     0.9210 C.3   1 <1>  -0.0590 
 22 N       -6.4050    -8.1180    -1.4720 N.pl3 1 <1>   0.3000 
 23 C       -8.3030    -6.5080    -1.8380 C.3   1 <1>  -0.0600 
 24 H        1.5890     0.8190    -0.3210 H     1 <1>   0.1500 
 25 H       -2.2890     3.8680    -0.3420 H     1 <1>   0.1500 
 26 H       -3.4900     2.3720     1.1140 H     1 <1>   0.0800 
 27 H       -2.6260     1.0930     1.9330 H     1 <1>   0.0800 
 28 H        1.7460     3.0320    -1.4270 H     1 <1>   0.1500 
 29 H       -0.2000     4.5340    -1.4260 H     1 <1>   0.1500 
 30 H       -3.2500     0.6520    -0.8900 H     1 <1>   0.3700 
 31 H       -3.7340    -2.2460    -0.6550 H     1 <1>   0.0800 
 32 H       -5.0100    -1.2420    -1.2910 H     1 <1>   0.0800 
 33 H       -5.3120    -2.6890     1.2190 H     1 <1>   0.4500 
 34 H       -4.6240    -4.3030    -0.5140 H     1 <1>   0.0800 
 35 H       -6.0670    -3.8920    -1.3970 H     1 <1>   0.0800 
 36 H       -7.3640    -1.7910    -0.7080 H     1 <1>   0.0800 
 37 H       -6.9170    -1.0000     0.7920 H     1 <1>   0.0800 
 38 H       -7.6800    -2.5700     0.8290 H     1 <1>   0.0800 
 39 H       -7.4590    -4.7520     0.4330 H     1 <1>   0.0800 
 40 H       -6.0400    -5.0340     1.4140 H     1 <1>   0.0800 
 41 H       -3.4950    -6.1240     0.7110 H     1 <1>   0.0800 
 42 H       -3.3260    -7.8570     0.8200 H     1 <1>   0.0800 
 43 H       -4.3830    -7.0240     1.9300 H     1 <1>   0.0800 
 44 H       -6.7430    -8.8270    -2.1340 H     1 <1>   0.2700 
 45 H       -8.6130    -5.5420    -1.4850 H     1 <1>   0.0800 
 46 H       -9.0820    -7.2160    -1.6130 H     1 <1>   0.0800 
 47 H       -8.1810    -6.4580    -2.9060 H     1 <1>   0.0800 
@<TRIPOS>BOND
  1   1   2  1   
  2   2   3  ar  
  3   2   4  ar  
  4   3   5  ar  
  5   3   6  1   
  6   4   7  ar  
  7   4  24  1   
  8   5   8  ar  
  9   5  25  1   
 10   6   9  1   
 11   6  26  1   
 12   6  27  1   
 13   7   8  ar  
 14   7  28  1   
 15   8  29  1   
 16   9  10  am  
 17   9  30  1   
 18  10  11  2   
 19  10  12  1   
 20  12  13  1   
 21  12  31  1   
 22  12  32  1   
 23  13  14  1   
 24  13  15  1   
 25  13  33  1   
 26  14  16  1   
 27  14  34  1   
 28  14  35  1   
 29  15  36  1   
 30  15  37  1   
 31  15  38  1   
 32  16  17  1   
 33  16  39  1   
 34  16  40  1   
 35  17  18  1   
 36  17  19  2   
 37  18  20  2   
 38  18  21  1   
 39  19  22  1   
 40  19  23  1   
 41  20  22  1   
 42  21  41  1   
 43  21  42  1   
 44  21  43  1   
 45  22  44  1   
 46  23  45  1   
 47  23  46  1   
 48  23  47  1   
@<TRIPOS>SUBSTRUCTURE
  1 ****  12 GROUP 4 **** **** 0

# MOE 2024.06 (io_trps.svl 2023.06)
