@<TRIPOS>MOLECULE
NONAME
60 62 1 0 0 
SMALL
USER_CHARGES


@<TRIPOS>ATOM
  1 O       -1.4550     0.9760     1.0230 O.2   1 <1>  -0.5700 
  2 C       -1.9470     0.2030     0.2360 C.2   1 <1>   0.5690 
  3 N       -2.8230     0.6420    -0.7320 N.am  1 <1>  -0.6600 
  4 C       -1.5930    -1.2780     0.3450 C.3   1 <1>  -0.0990 
  5 C       -3.6260    -0.2360    -1.6220 C.3   1 <1>   0.1400 
  6 C       -3.0770     2.0960    -0.9170 C.3   1 <1>   0.1400 
  7 C       -0.4840    -1.5990     1.3640 C.3   1 <1>  -0.1600 
  8 C       -5.1080     0.0070    -1.3270 C.3   1 <1>  -0.1600 
  9 C       -4.5450     2.3770    -0.6000 C.3   1 <1>  -0.1600 
 10 C       -0.1750    -3.0990     1.4040 C.3   1 <1>  -0.2400 
 11 C       -5.4530     1.4950    -1.4710 C.3   1 <1>   0.4230 
 12 N       -6.9030     1.7100    -1.1880 N.4   1 <1>  -0.9590 
 13 C       -7.3610     3.0420    -1.6810 C.3   1 <1>   0.3430 
 14 C       -7.2780     1.5420     0.2520 C.3   1 <1>   0.3430 
 15 C       -8.8780     3.1410    -1.5760 C.3   1 <1>  -0.1600 
 16 C       -8.7930     1.6060     0.3980 C.3   1 <1>  -0.1600 
 17 C       -9.3490     2.9380    -0.1260 C.3   1 <1>   0.2800 
 18 O       -8.7030     3.9420     0.6220 O.3   1 <1>  -0.5600 
 19 C      -10.9000     2.9680     0.0290 C.3   1 <1>   0.2000 
 20 C       -9.4770     4.8490     1.3590 C.3   1 <1>   0.1200 
 21 O      -11.5090     2.0730    -0.8560 O.3   1 <1>  -0.6800 
 22 C      -11.5230     4.3950    -0.0570 C.3   1 <1>   0.2800 
 23 C      -10.5370     5.4640     0.4430 C.3   1 <1>  -0.1600 
 24 O      -12.6010     4.3980     0.8050 O.3   1 <1>  -0.6800 
 25 C      -12.1030     4.7910    -1.4230 C.3   1 <1>  -0.2400 
 26 H       -2.4810    -1.8150     0.6220 H     1 <1>   0.0800 
 27 H       -1.2740    -1.6190    -0.6230 H     1 <1>   0.0800 
 28 H       -3.4010     0.0020    -2.6480 H     1 <1>   0.0800 
 29 H       -3.3940    -1.2750    -1.4660 H     1 <1>   0.0800 
 30 H       -2.4470     2.6850    -0.2700 H     1 <1>   0.0800 
 31 H       -2.8470     2.3700    -1.9330 H     1 <1>   0.0800 
 32 H        0.4090    -1.0570     1.1020 H     1 <1>   0.0800 
 33 H       -0.7910    -1.2720     2.3430 H     1 <1>   0.0800 
 34 H       -5.3060    -0.3400    -0.3290 H     1 <1>   0.0800 
 35 H       -5.6940    -0.5740    -2.0160 H     1 <1>   0.0800 
 36 H       -4.7360     3.4180    -0.7850 H     1 <1>   0.0800 
 37 H       -4.6900     2.1810     0.4460 H     1 <1>   0.0800 
 38 H        0.1600    -3.4420     0.4410 H     1 <1>   0.0800 
 39 H       -1.0490    -3.6580     1.6890 H     1 <1>   0.0800 
 40 H        0.6020    -3.2930     2.1230 H     1 <1>   0.0800 
 41 H       -5.2680     1.7620    -2.4990 H     1 <1>   0.0800 
 42 H       -7.4280     1.0030    -1.7160 H     1 <1>   0.4500 
 43 H       -6.9160     3.8250    -1.0850 H     1 <1>   0.0800 
 44 H       -7.0630     3.1820    -2.7070 H     1 <1>   0.0800 
 45 H       -6.9230     0.5960     0.6260 H     1 <1>   0.0800 
 46 H       -6.8350     2.3290     0.8400 H     1 <1>   0.0800 
 47 H       -9.3300     2.4120    -2.2240 H     1 <1>   0.0800 
 48 H       -9.1830     4.1100    -1.9210 H     1 <1>   0.0800 
 49 H       -9.0510     1.4990     1.4370 H     1 <1>   0.0800 
 50 H       -9.2420     0.7830    -0.1290 H     1 <1>   0.0800 
 51 H      -11.1120     2.5900     1.0150 H     1 <1>   0.0800 
 52 H       -9.9270     4.3330     2.1920 H     1 <1>   0.0800 
 53 H       -8.8180     5.6110     1.7390 H     1 <1>   0.0800 
 54 H      -12.4770     2.0970    -0.7010 H     1 <1>   0.4000 
 55 H      -10.0240     5.9150    -0.3870 H     1 <1>   0.0800 
 56 H      -11.0570     6.2500     0.9600 H     1 <1>   0.0800 
 57 H      -13.0930     5.2360     0.7180 H     1 <1>   0.4000 
 58 H      -11.3490     4.7380    -2.1840 H     1 <1>   0.0800 
 59 H      -12.4790     5.7980    -1.3990 H     1 <1>   0.0800 
 60 H      -12.9030     4.1300    -1.7070 H     1 <1>   0.0800 
@<TRIPOS>BOND
  1   1   2  2   
  2   2   3  am  
  3   2   4  1   
  4   3   5  1   
  5   3   6  1   
  6   4   7  1   
  7   4  26  1   
  8   4  27  1   
  9   5   8  1   
 10   5  28  1   
 11   5  29  1   
 12   6   9  1   
 13   6  30  1   
 14   6  31  1   
 15   7  10  1   
 16   7  32  1   
 17   7  33  1   
 18   8  11  1   
 19   8  34  1   
 20   8  35  1   
 21   9  11  1   
 22   9  36  1   
 23   9  37  1   
 24  10  38  1   
 25  10  39  1   
 26  10  40  1   
 27  11  12  1   
 28  11  41  1   
 29  12  13  1   
 30  12  14  1   
 31  12  42  1   
 32  13  15  1   
 33  13  43  1   
 34  13  44  1   
 35  14  16  1   
 36  14  45  1   
 37  14  46  1   
 38  15  17  1   
 39  15  47  1   
 40  15  48  1   
 41  16  17  1   
 42  16  49  1   
 43  16  50  1   
 44  17  18  1   
 45  17  19  1   
 46  18  20  1   
 47  19  21  1   
 48  19  22  1   
 49  19  51  1   
 50  20  23  1   
 51  20  52  1   
 52  20  53  1   
 53  21  54  1   
 54  22  23  1   
 55  22  24  1   
 56  22  25  1   
 57  23  55  1   
 58  23  56  1   
 59  24  57  1   
 60  25  58  1   
 61  25  59  1   
 62  25  60  1   
@<TRIPOS>SUBSTRUCTURE
  1 ****  14 GROUP 4 **** **** 0

# MOE 2024.06 (io_trps.svl 2023.06)
