@<TRIPOS>MOLECULE
NONAME
48 50 1 0 0 
SMALL
USER_CHARGES


@<TRIPOS>ATOM
  1 O       -1.8850    -1.8780     1.8240 O.2   1 <1>  -0.5700 
  2 C       -1.2170    -2.4380     0.9900 C.2   1 <1>   0.5690 
  3 N       -1.4050    -2.1390    -0.3190 N.am  1 <1>  -0.7300 
  4 C       -0.1680    -3.4660     1.4200 C.3   1 <1>   0.2010 
  5 C       -0.6600    -2.6280    -1.4980 C.3   1 <1>   0.1400 
  6 N       -0.3760    -4.8000     0.7560 N.am  1 <1>  -0.6600 
  7 C       -0.7250    -4.1540    -1.6240 C.3   1 <1>  -0.1600 
  8 C       -1.1620    -5.7450     1.3760 C.2   1 <1>   0.5690 
  9 C        0.1620    -4.9040    -0.6220 C.3   1 <1>   0.1400 
 10 O       -1.4020    -5.6580     2.5600 O.2   1 <1>  -0.5700 
 11 C       -1.8180    -6.8930     0.5890 C.3   1 <1>   0.2610 
 12 O       -1.2300    -8.1420     0.8970 O.3   1 <1>  -0.5600 
 13 C       -3.3410    -6.8780     0.8590 C.3   1 <1>   0.3640 
 14 C       -1.7760    -9.2270     0.1870 C.3   1 <1>   0.1810 
 15 N       -4.0270    -8.1770     0.5620 N.am  1 <1>  -0.6600 
 16 C       -3.9630    -5.6960     0.0970 C.ar  1 <1>  -0.1430 
 17 C       -3.3050    -9.3000     0.2560 C.2   1 <1>   0.5690 
 18 C       -5.4960    -8.2120     0.8150 C.3   1 <1>   0.0600 
 19 C       -4.2890    -5.6930    -1.2650 C.ar  1 <1>  -0.1430 
 20 C       -4.1740    -4.5370     0.8350 C.ar  1 <1>  -0.1500 
 21 O       -3.8340   -10.3580     0.0070 O.2   1 <1>  -0.5700 
 22 C       -4.8280    -4.5480    -1.8340 C.ar  1 <1>  -0.1500 
 23 C       -4.0900    -6.8910    -2.1880 C.3   1 <1>  -0.0970 
 24 C       -4.7000    -3.4000     0.2550 C.ar  1 <1>  -0.1500 
 25 C       -5.0320    -3.4060    -1.0840 C.ar  1 <1>  -0.1500 
 26 H       -2.1880    -1.5100    -0.5070 H     1 <1>   0.3700 
 27 H       -0.2190    -3.5720     2.4900 H     1 <1>   0.0800 
 28 H        0.8090    -3.0890     1.1820 H     1 <1>   0.0800 
 29 H       -1.0970    -2.1860    -2.3770 H     1 <1>   0.0800 
 30 H        0.3640    -2.3000    -1.4360 H     1 <1>   0.0800 
 31 H       -0.3810    -4.4090    -2.6100 H     1 <1>   0.0800 
 32 H       -1.7460    -4.4840    -1.5510 H     1 <1>   0.0800 
 33 H        1.1610    -4.5020    -0.6450 H     1 <1>   0.0800 
 34 H        0.2380    -5.9400    -0.9040 H     1 <1>   0.0800 
 35 H       -1.6700    -6.7280    -0.4580 H     1 <1>   0.0800 
 36 H       -3.4830    -6.7090     1.9130 H     1 <1>   0.0800 
 37 H       -1.4680    -9.1520    -0.8400 H     1 <1>   0.0800 
 38 H       -1.3640   -10.1270     0.6050 H     1 <1>   0.0800 
 39 H       -6.0000    -7.5100     0.1730 H     1 <1>   0.0800 
 40 H       -5.6950    -7.9530     1.8400 H     1 <1>   0.0800 
 41 H       -5.8920    -9.1950     0.6250 H     1 <1>   0.0800 
 42 H       -3.9160    -4.4980     1.8820 H     1 <1>   0.1500 
 43 H       -5.0950    -4.5340    -2.8760 H     1 <1>   0.1500 
 44 H       -4.1240    -6.5910    -3.2200 H     1 <1>   0.0800 
 45 H       -4.8690    -7.6130    -2.0260 H     1 <1>   0.0800 
 46 H       -3.1410    -7.3610    -2.0190 H     1 <1>   0.0800 
 47 H       -4.8430    -2.5140     0.8500 H     1 <1>   0.1500 
 48 H       -5.4490    -2.5250    -1.5400 H     1 <1>   0.1500 
@<TRIPOS>BOND
  1   1   2  2   
  2   2   3  am  
  3   2   4  1   
  4   3   5  1   
  5   3  26  1   
  6   4   6  1   
  7   4  27  1   
  8   4  28  1   
  9   5   7  1   
 10   5  29  1   
 11   5  30  1   
 12   6   8  am  
 13   6   9  1   
 14   7   9  1   
 15   7  31  1   
 16   7  32  1   
 17   8  10  2   
 18   8  11  1   
 19   9  33  1   
 20   9  34  1   
 21  11  12  1   
 22  11  13  1   
 23  11  35  1   
 24  12  14  1   
 25  13  15  1   
 26  13  16  1   
 27  13  36  1   
 28  14  17  1   
 29  14  37  1   
 30  14  38  1   
 31  15  17  am  
 32  15  18  1   
 33  16  19  ar  
 34  16  20  ar  
 35  17  21  2   
 36  18  39  1   
 37  18  40  1   
 38  18  41  1   
 39  19  22  ar  
 40  19  23  1   
 41  20  24  ar  
 42  20  42  1   
 43  22  25  ar  
 44  22  43  1   
 45  23  44  1   
 46  23  45  1   
 47  23  46  1   
 48  24  25  ar  
 49  24  47  1   
 50  25  48  1   
@<TRIPOS>SUBSTRUCTURE
  1 ****  16 GROUP 4 **** **** 0

# MOE 2024.06 (io_trps.svl 2023.06)
