@<TRIPOS>MOLECULE
NONAME
52 56 1 0 0 
SMALL
USER_CHARGES


@<TRIPOS>ATOM
  1 O       -3.6690     3.7600     0.4410 O.2   1 <1>  -0.5700 
  2 C       -3.3030     2.9210    -0.3590 C.2   1 <1>   0.5440 
  3 N       -4.1190     1.8460    -0.6290 N.am  1 <1>  -0.6600 
  4 C       -1.9930     3.0620    -0.9530 C.ar  1 <1>   0.0860 
  5 C       -5.3650     1.5800     0.1540 C.3   1 <1>   0.1400 
  6 C       -3.8010     0.7440    -1.5850 C.3   1 <1>   0.1400 
  7 C       -0.8850     2.3290    -0.5000 C.ar  1 <1>  -0.0230 
  8 C       -1.8120     3.9590    -2.0040 C.ar  1 <1>  -0.1500 
  9 C       -5.2690     0.2180     0.8660 C.3   1 <1>   0.1900 
 10 C       -3.7690    -0.6160    -0.8630 C.3   1 <1>   0.1100 
 11 N       -1.0070     1.3840     0.5540 N.pl3 1 <1>   0.3260 
 12 C        0.3560     2.5170    -1.1050 C.ar  1 <1>  -0.1500 
 13 C       -0.5780     4.1320    -2.6000 C.ar  1 <1>  -0.1500 
 14 N       -5.0130    -0.8740    -0.1090 N.3   1 <1>  -0.8100 
 15 C       -6.5590    -0.0660     1.6610 C.3   1 <1>   0.1200 
 16 C       -0.5220     0.1330     0.5880 C.2   1 <1>   0.0360 
 17 C       -1.6610     1.4400     1.7260 C.2   1 <1>   0.0360 
 18 C        0.5090     3.4090    -2.1480 C.ar  1 <1>  -0.1500 
 19 C       -4.9330    -2.1550     0.6340 C.3   1 <1>   0.3330 
 20 O       -6.4720    -1.2970     2.3220 O.3   1 <1>  -0.5600 
 21 N       -0.8600    -0.5050     1.6530 N.2   1 <1>  -0.3380 
 22 N       -1.5930     0.3350     2.3840 N.2   1 <1>  -0.3380 
 23 C       -4.7230    -3.3310    -0.3180 C.ar  1 <1>  -0.1430 
 24 C       -6.2160    -2.3790     1.4640 C.3   1 <1>   0.1200 
 25 C       -5.5480    -3.5130    -1.4200 C.ar  1 <1>  -0.1500 
 26 C       -3.6940    -4.2330    -0.0890 C.ar  1 <1>  -0.1500 
 27 C       -5.3510    -4.5820    -2.2760 C.ar  1 <1>  -0.1500 
 28 C       -3.4950    -5.3020    -0.9450 C.ar  1 <1>  -0.1500 
 29 C       -4.3240    -5.4780    -2.0390 C.ar  1 <1>  -0.1500 
 30 H       -5.5270     2.3510     0.8870 H     1 <1>   0.0800 
 31 H       -6.2080     1.5760    -0.5140 H     1 <1>   0.0800 
 32 H       -4.5610     0.7120    -2.3460 H     1 <1>   0.0800 
 33 H       -2.8580     0.9130    -2.0720 H     1 <1>   0.0800 
 34 H       -2.6570     4.5310    -2.3490 H     1 <1>   0.1500 
 35 H       -4.4550     0.2720     1.5690 H     1 <1>   0.0800 
 36 H       -2.9320    -0.6490    -0.1920 H     1 <1>   0.0800 
 37 H       -3.6280    -1.3860    -1.6020 H     1 <1>   0.0800 
 38 H        1.2170     1.9680    -0.7600 H     1 <1>   0.1500 
 39 H       -0.4610     4.8320    -3.4110 H     1 <1>   0.1500 
 40 H       -7.4110    -0.0890     1.0050 H     1 <1>   0.0800 
 41 H       -6.7110     0.6920     2.4080 H     1 <1>   0.0800 
 42 H        0.0750    -0.2740    -0.2060 H     1 <1>   0.1500 
 43 H       -2.1840     2.3210     2.0550 H     1 <1>   0.1500 
 44 H        1.4740     3.5460    -2.6090 H     1 <1>   0.1500 
 45 H       -4.1020    -2.1090     1.3190 H     1 <1>   0.0800 
 46 H       -6.1100    -3.2600     2.0700 H     1 <1>   0.0800 
 47 H       -7.0630    -2.5070     0.8140 H     1 <1>   0.0800 
 48 H       -6.3430    -2.8130    -1.6110 H     1 <1>   0.1500 
 49 H       -3.0410    -4.1060     0.7580 H     1 <1>   0.1500 
 50 H       -5.9960    -4.7160    -3.1270 H     1 <1>   0.1500 
 51 H       -2.6950    -5.9980    -0.7590 H     1 <1>   0.1500 
 52 H       -4.1690    -6.3090    -2.7040 H     1 <1>   0.1500 
@<TRIPOS>BOND
  1   1   2  2   
  2   2   3  am  
  3   2   4  1   
  4   3   5  1   
  5   3   6  1   
  6   4   7  ar  
  7   4   8  ar  
  8   5   9  1   
  9   5  30  1   
 10   5  31  1   
 11   6  10  1   
 12   6  32  1   
 13   6  33  1   
 14   7  11  1   
 15   7  12  ar  
 16   8  13  ar  
 17   8  34  1   
 18   9  14  1   
 19   9  15  1   
 20   9  35  1   
 21  10  14  1   
 22  10  36  1   
 23  10  37  1   
 24  11  16  1   
 25  11  17  1   
 26  12  18  ar  
 27  12  38  1   
 28  13  18  ar  
 29  13  39  1   
 30  14  19  1   
 31  15  20  1   
 32  15  40  1   
 33  15  41  1   
 34  16  21  2   
 35  16  42  1   
 36  17  22  2   
 37  17  43  1   
 38  18  44  1   
 39  19  23  1   
 40  19  24  1   
 41  19  45  1   
 42  20  24  1   
 43  21  22  1   
 44  23  25  ar  
 45  23  26  ar  
 46  24  46  1   
 47  24  47  1   
 48  25  27  ar  
 49  25  48  1   
 50  26  28  ar  
 51  26  49  1   
 52  27  29  ar  
 53  27  50  1   
 54  28  29  ar  
 55  28  51  1   
 56  29  52  1   
@<TRIPOS>SUBSTRUCTURE
  1 ****  10 GROUP 4 **** **** 0

# MOE 2024.06 (io_trps.svl 2023.06)
