@<TRIPOS>MOLECULE
NONAME
52 53 1 0 0 
SMALL
USER_CHARGES


@<TRIPOS>ATOM
  1 S        1.4250     0.4980    -0.5200 S.3   1 <1>  -0.0800 
  2 C        2.4350     0.9600     0.8550 C.2   1 <1>  -0.0450 
  3 C        1.1820    -1.1210     0.1010 C.2   1 <1>  -0.1400 
  4 C        2.9870     2.2880     0.9150 C.2   1 <1>   0.7150 
  5 C        2.5340    -0.1020     1.6930 C.2   1 <1>  -0.1500 
  6 C        1.8330    -1.2690     1.2710 C.2   1 <1>  -0.1500 
  7 C        0.3190    -2.0480    -0.7380 C.3   1 <1>   0.0200 
  8 O        3.7240     2.6300     1.8250 O.2   1 <1>  -0.5700 
  9 N        2.7790     3.2120    -0.0790 N.am  1 <1>  -0.6600 
 10 C        0.1740    -3.4340    -0.1060 C.3   1 <1>  -0.2400 
 11 C        3.6750     3.2310    -1.2730 C.3   1 <1>   0.1400 
 12 C        2.0330     4.4670     0.1910 C.3   1 <1>   0.1400 
 13 C        5.0940     3.7340    -0.9280 C.3   1 <1>   0.3430 
 14 C        2.9160     5.5350     0.8560 C.3   1 <1>  -0.1600 
 15 N        5.1260     4.5760     0.3200 N.4   1 <1>  -0.9590 
 16 C        4.2690     5.7850     0.1820 C.3   1 <1>   0.3430 
 17 C        6.5190     4.9310     0.7810 C.3   1 <1>   0.4840 
 18 C        7.3750     5.7620    -0.2250 C.2   1 <1>   0.5690 
 19 C        7.2220     3.6390     1.2120 C.3   1 <1>  -0.2400 
 20 O        6.8990     6.0600    -1.2980 O.2   1 <1>  -0.5700 
 21 N        8.6340     6.1600     0.1090 N.am  1 <1>  -0.7300 
 22 C        9.5380     6.9150    -0.7730 C.3   1 <1>   0.2780 
 23 C       10.9320     6.3830    -0.5260 C.2   1 <1>  -0.2880 
 24 C       11.9330     7.0670     0.0350 C.2   1 <1>  -0.3000 
 25 H        3.0910    -0.0990     2.6140 H     1 <1>   0.1500 
 26 H        1.8490    -2.1650     1.8670 H     1 <1>   0.1500 
 27 H        0.7590    -2.1460    -1.7150 H     1 <1>   0.0800 
 28 H       -0.6550    -1.6060    -0.8550 H     1 <1>   0.0800 
 29 H        1.1380    -3.8990    -0.0010 H     1 <1>   0.0800 
 30 H       -0.4420    -4.0590    -0.7280 H     1 <1>   0.0800 
 31 H       -0.2850    -3.3560     0.8640 H     1 <1>   0.0800 
 32 H        3.2490     3.8630    -2.0320 H     1 <1>   0.0800 
 33 H        3.7440     2.2400    -1.6900 H     1 <1>   0.0800 
 34 H        1.1970     4.2460     0.8360 H     1 <1>   0.0800 
 35 H        1.6310     4.8440    -0.7350 H     1 <1>   0.0800 
 36 H        5.4910     4.2850    -1.7660 H     1 <1>   0.0800 
 37 H        5.7200     2.8700    -0.7860 H     1 <1>   0.0800 
 38 H        3.0710     5.2790     1.8890 H     1 <1>   0.0800 
 39 H        2.3660     6.4590     0.8520 H     1 <1>   0.0800 
 40 H        4.6810     3.9870     1.0540 H     1 <1>   0.4500 
 41 H        4.7430     6.6250     0.6640 H     1 <1>   0.0800 
 42 H        4.1360     6.0340    -0.8590 H     1 <1>   0.0800 
 43 H        6.4180     5.5410     1.6620 H     1 <1>   0.0800 
 44 H        7.4880     3.0380     0.3620 H     1 <1>   0.0800 
 45 H        6.5980     3.0700     1.8780 H     1 <1>   0.0800 
 46 H        8.1290     3.8790     1.7380 H     1 <1>   0.0800 
 47 H        9.0720     5.9220     1.0020 H     1 <1>   0.3700 
 48 H        9.4870     7.9630    -0.5280 H     1 <1>   0.0800 
 49 H        9.2640     6.7860    -1.8080 H     1 <1>   0.0800 
 50 H       11.0450     5.3650    -0.8610 H     1 <1>   0.1500 
 51 H       12.9190     6.6630     0.1960 H     1 <1>   0.1500 
 52 H       11.8620     8.0850     0.3790 H     1 <1>   0.1500 
@<TRIPOS>BOND
  1   1   2  1   
  2   1   3  1   
  3   2   4  1   
  4   2   5  2   
  5   3   6  2   
  6   3   7  1   
  7   4   8  2   
  8   4   9  am  
  9   5   6  1   
 10   5  25  1   
 11   6  26  1   
 12   7  10  1   
 13   7  27  1   
 14   7  28  1   
 15   9  11  1   
 16   9  12  1   
 17  10  29  1   
 18  10  30  1   
 19  10  31  1   
 20  11  13  1   
 21  11  32  1   
 22  11  33  1   
 23  12  14  1   
 24  12  34  1   
 25  12  35  1   
 26  13  15  1   
 27  13  36  1   
 28  13  37  1   
 29  14  16  1   
 30  14  38  1   
 31  14  39  1   
 32  15  16  1   
 33  15  17  1   
 34  15  40  1   
 35  16  41  1   
 36  16  42  1   
 37  17  18  1   
 38  17  19  1   
 39  17  43  1   
 40  18  20  2   
 41  18  21  am  
 42  19  44  1   
 43  19  45  1   
 44  19  46  1   
 45  21  22  1   
 46  21  47  1   
 47  22  23  1   
 48  22  48  1   
 49  22  49  1   
 50  23  24  2   
 51  23  50  1   
 52  24  51  1   
 53  24  52  1   
@<TRIPOS>SUBSTRUCTURE
  1 ****  13 GROUP 4 **** **** 0

# MOE 2024.06 (io_trps.svl 2023.06)
