@<TRIPOS>MOLECULE
NONAME
48 50 1 0 0 
SMALL
USER_CHARGES


@<TRIPOS>ATOM
  1 S       -0.8530     0.1110     1.6400 S.o2  1 <1>   1.2040 
  2 O        0.0830     0.0810     2.7410 O.2   1 <1>  -0.6500 
  3 O       -2.2410     0.4390     1.8870 O.2   1 <1>  -0.6500 
  4 C       -0.2000     1.1570     0.3160 C.ar  1 <1>  -0.0090 
  5 C       -0.8340    -1.5160     0.8930 C.3   1 <1>  -0.0550 
  6 C       -1.0450     1.9170    -0.4850 C.ar  1 <1>  -0.1500 
  7 C        1.1640     1.2000     0.0470 C.ar  1 <1>  -0.1500 
  8 C       -1.7290    -1.6340    -0.3500 C.3   1 <1>  -0.0990 
  9 C       -0.5500     2.6860    -1.5240 C.ar  1 <1>  -0.1500 
 10 C        1.6670     1.9660    -0.9900 C.ar  1 <1>  -0.1500 
 11 C       -1.7860    -3.0740    -0.8080 C.2   1 <1>   0.5690 
 12 C        0.8080     2.7100    -1.7790 C.ar  1 <1>  -0.1500 
 13 O       -0.8840    -3.4640    -1.5070 O.2   1 <1>  -0.5700 
 14 N       -2.8050    -3.8930    -0.4100 N.am  1 <1>  -0.6600 
 15 C       -3.9310    -3.5500     0.4970 C.3   1 <1>   0.1400 
 16 C       -2.8750    -5.3220    -0.8030 C.3   1 <1>   0.1400 
 17 C       -4.7190    -4.8500     0.6710 C.3   1 <1>   0.2000 
 18 C       -3.7760    -5.9740     0.2460 C.3   1 <1>  -0.0800 
 19 O       -5.1110    -5.0340     1.9880 O.3   1 <1>  -0.6800 
 20 C       -4.5280    -7.2190    -0.2550 C.3   1 <1>  -0.0160 
 21 C       -3.5730    -8.3330    -0.6500 C.ar  1 <1>   0.1670 
 22 N       -3.0580    -8.2600    -1.8670 N.ar  1 <1>  -0.6200 
 23 C       -3.2860    -9.3450     0.2540 C.ar  1 <1>  -0.1500 
 24 C       -2.2220    -9.2310    -2.1970 C.ar  1 <1>   0.1600 
 25 C       -2.4140   -10.3520    -0.1030 C.ar  1 <1>  -0.1500 
 26 C       -1.8710   -10.2830    -1.3670 C.ar  1 <1>  -0.1500 
 27 H        0.1710    -1.7810     0.6240 H     1 <1>   0.0800 
 28 H       -1.1670    -2.2290     1.6230 H     1 <1>   0.0800 
 29 H       -2.1060     1.9110    -0.2940 H     1 <1>   0.1500 
 30 H        1.8440     0.6300     0.6580 H     1 <1>   0.1500 
 31 H       -2.7170    -1.2680    -0.1420 H     1 <1>   0.0800 
 32 H       -1.3240    -1.0410    -1.1500 H     1 <1>   0.0800 
 33 H       -1.2220     3.2680    -2.1330 H     1 <1>   0.1500 
 34 H        2.7260     1.9850    -1.1830 H     1 <1>   0.1500 
 35 H        1.1960     3.3060    -2.5860 H     1 <1>   0.1500 
 36 H       -3.5440    -3.2030     1.4400 H     1 <1>   0.0800 
 37 H       -4.5530    -2.7940     0.0490 H     1 <1>   0.0800 
 38 H       -3.3120    -5.3950    -1.7850 H     1 <1>   0.0800 
 39 H       -1.8960    -5.7730    -0.8200 H     1 <1>   0.0800 
 40 H       -5.6020    -4.8240     0.0550 H     1 <1>   0.0800 
 41 H       -3.1470    -6.2500     1.0740 H     1 <1>   0.0800 
 42 H       -4.3310    -5.1070     2.5700 H     1 <1>   0.4000 
 43 H       -5.1380    -6.9660    -1.1040 H     1 <1>   0.0800 
 44 H       -5.1860    -7.5710     0.5200 H     1 <1>   0.0800 
 45 H       -3.7380    -9.3490     1.2290 H     1 <1>   0.1500 
 46 H       -1.7910    -9.1860    -3.1830 H     1 <1>   0.1500 
 47 H       -2.1690   -11.1530     0.5730 H     1 <1>   0.1500 
 48 H       -1.1830   -11.0340    -1.7100 H     1 <1>   0.1500 
@<TRIPOS>BOND
  1   1   2  2   
  2   1   3  2   
  3   1   4  1   
  4   1   5  1   
  5   4   6  ar  
  6   4   7  ar  
  7   5   8  1   
  8   5  27  1   
  9   5  28  1   
 10   6   9  ar  
 11   6  29  1   
 12   7  10  ar  
 13   7  30  1   
 14   8  11  1   
 15   8  31  1   
 16   8  32  1   
 17   9  12  ar  
 18   9  33  1   
 19  10  12  ar  
 20  10  34  1   
 21  11  13  2   
 22  11  14  am  
 23  12  35  1   
 24  14  15  1   
 25  14  16  1   
 26  15  17  1   
 27  15  36  1   
 28  15  37  1   
 29  16  18  1   
 30  16  38  1   
 31  16  39  1   
 32  17  18  1   
 33  17  19  1   
 34  17  40  1   
 35  18  20  1   
 36  18  41  1   
 37  19  42  1   
 38  20  21  1   
 39  20  43  1   
 40  20  44  1   
 41  21  22  ar  
 42  21  23  ar  
 43  22  24  ar  
 44  23  25  ar  
 45  23  45  1   
 46  24  26  ar  
 47  24  46  1   
 48  25  26  ar  
 49  25  47  1   
 50  26  48  1   
@<TRIPOS>SUBSTRUCTURE
  1 ****  11 GROUP 4 **** **** 0

# MOE 2024.06 (io_trps.svl 2023.06)
