@<TRIPOS>MOLECULE
NONAME
57 61 1 0 0 
SMALL
USER_CHARGES


@<TRIPOS>ATOM
  1 O       -1.5820    -1.2260    -0.9940 O.3   1 <1>  -0.5600 
  2 C       -0.2380    -1.5490    -0.8010 C.3   1 <1>   0.1200 
  3 C       -2.4760    -2.1750    -0.4850 C.3   1 <1>   0.1200 
  4 C        0.1060    -2.8760    -1.5060 C.3   1 <1>   0.2090 
  5 C       -2.2620    -3.5380    -1.1640 C.3   1 <1>   0.2090 
  6 N       -0.8190    -3.9770    -1.0650 N.pl3 1 <1>  -0.8380 
  7 C       -0.4790    -5.2040    -0.5870 C.ar  1 <1>   0.7710 
  8 N       -1.3970    -5.9440     0.0120 N.ar  1 <1>  -0.6200 
  9 N        0.7830    -5.6430    -0.7410 N.ar  1 <1>  -0.1790 
 10 C       -1.0620    -7.1410     0.4530 C.ar  1 <1>   0.4100 
 11 C        1.1870    -6.8510    -0.2840 C.ar  1 <1>   0.2180 
 12 N       -2.0330    -7.8990     1.0280 N.pl3 1 <1>  -0.8380 
 13 C        0.2550    -7.6200     0.3280 C.ar  1 <1>  -0.1500 
 14 C        2.6380    -7.2730    -0.4780 C.3   1 <1>  -0.0170 
 15 C       -3.2200    -7.2870     1.6940 C.3   1 <1>   0.2090 
 16 C       -2.1640    -9.3670     0.8140 C.3   1 <1>   0.2090 
 17 C        3.6120    -6.3570     0.2740 C.3   1 <1>  -0.2400 
 18 C       -4.4570    -7.5260     0.8310 C.3   1 <1>  -0.1600 
 19 C       -3.4040    -9.6430    -0.0410 C.3   1 <1>  -0.1600 
 20 C       -4.6720    -9.0260     0.5680 C.3   1 <1>   0.1000 
 21 C       -5.8720    -9.2760    -0.3420 C.2   1 <1>   0.0060 
 22 N       -6.3240    -8.4420    -1.2240 N.2   1 <1>  -0.3380 
 23 N       -6.5850   -10.4100    -0.3210 N.pl3 1 <1>   0.3340 
 24 N       -7.3650    -9.0080    -1.8190 N.2   1 <1>  -0.3380 
 25 C       -7.5190   -10.1870    -1.2770 C.2   1 <1>   0.1410 
 26 C       -6.5530   -11.6080     0.3920 C.2   1 <1>  -0.1810 
 27 C       -8.4820   -11.1920    -1.5540 C.2   1 <1>  -0.1050 
 28 C       -7.4700   -12.5780     0.1340 C.2   1 <1>  -0.1500 
 29 C       -8.4600   -12.3660    -0.8620 C.2   1 <1>  -0.1500 
 30 H       -0.0480    -1.6140     0.2560 H     1 <1>   0.0800 
 31 H        0.3500    -0.7460    -1.2090 H     1 <1>   0.0800 
 32 H       -3.4740    -1.8200    -0.6750 H     1 <1>   0.0800 
 33 H       -2.3340    -2.2530     0.5790 H     1 <1>   0.0800 
 34 H        1.1320    -3.1120    -1.2930 H     1 <1>   0.0800 
 35 H        0.0080    -2.7320    -2.5700 H     1 <1>   0.0800 
 36 H       -2.5340    -3.4510    -2.2020 H     1 <1>   0.0800 
 37 H       -2.9350    -4.2510    -0.7200 H     1 <1>   0.0800 
 38 H        1.4070    -5.0260    -1.2410 H     1 <1>   0.4570 
 39 H        0.4950    -8.5840     0.7360 H     1 <1>   0.1500 
 40 H        2.8790    -7.2770    -1.5270 H     1 <1>   0.0800 
 41 H        2.7670    -8.2810    -0.1180 H     1 <1>   0.0800 
 42 H       -3.0760    -6.2300     1.8420 H     1 <1>   0.0800 
 43 H       -3.3530    -7.7360     2.6640 H     1 <1>   0.0800 
 44 H       -2.2530    -9.8580     1.7690 H     1 <1>   0.0800 
 45 H       -1.3000    -9.7630     0.3100 H     1 <1>   0.0800 
 46 H        3.5780    -5.3490    -0.1000 H     1 <1>   0.0800 
 47 H        4.6180    -6.7220     0.1570 H     1 <1>   0.0800 
 48 H        3.3830    -6.3460     1.3270 H     1 <1>   0.0800 
 49 H       -4.3290    -7.0010    -0.1000 H     1 <1>   0.0800 
 50 H       -5.3220    -7.1170     1.3210 H     1 <1>   0.0800 
 51 H       -3.5300   -10.7050    -0.1500 H     1 <1>   0.0800 
 52 H       -3.2460    -9.2310    -1.0230 H     1 <1>   0.0800 
 53 H       -4.8620    -9.4960     1.5170 H     1 <1>   0.0800 
 54 H       -5.7830   -11.7130     1.1330 H     1 <1>   0.1500 
 55 H       -9.2100   -10.9840    -2.3170 H     1 <1>   0.1500 
 56 H       -7.4750   -13.5150     0.6660 H     1 <1>   0.1500 
 57 H       -9.1780   -13.1460    -1.0520 H     1 <1>   0.1500 
@<TRIPOS>BOND
  1   1   2  1   
  2   1   3  1   
  3   2   4  1   
  4   2  30  1   
  5   2  31  1   
  6   3   5  1   
  7   3  32  1   
  8   3  33  1   
  9   4   6  1   
 10   4  34  1   
 11   4  35  1   
 12   5   6  1   
 13   5  36  1   
 14   5  37  1   
 15   6   7  1   
 16   7   8  ar  
 17   7   9  ar  
 18   8  10  ar  
 19   9  11  ar  
 20   9  38  1   
 21  10  12  1   
 22  10  13  ar  
 23  11  13  ar  
 24  11  14  1   
 25  12  15  1   
 26  12  16  1   
 27  13  39  1   
 28  14  17  1   
 29  14  40  1   
 30  14  41  1   
 31  15  18  1   
 32  15  42  1   
 33  15  43  1   
 34  16  19  1   
 35  16  44  1   
 36  16  45  1   
 37  17  46  1   
 38  17  47  1   
 39  17  48  1   
 40  18  20  1   
 41  18  49  1   
 42  18  50  1   
 43  19  20  1   
 44  19  51  1   
 45  19  52  1   
 46  20  21  1   
 47  20  53  1   
 48  21  22  2   
 49  21  23  1   
 50  22  24  1   
 51  23  25  1   
 52  23  26  1   
 53  24  25  2   
 54  25  27  1   
 55  26  28  2   
 56  26  54  1   
 57  27  29  2   
 58  27  55  1   
 59  28  29  1   
 60  28  56  1   
 61  29  57  1   
@<TRIPOS>SUBSTRUCTURE
  1 ****  12 GROUP 4 **** **** 0

# MOE 2024.06 (io_trps.svl 2023.06)
