@<TRIPOS>MOLECULE
NONAME
43 45 1 0 0 
SMALL
USER_CHARGES


@<TRIPOS>ATOM
  1 O       -1.1990     0.5990    -1.5820 O.2   1 <1>  -0.5700 
  2 C       -1.1250     0.5090    -0.3830 C.2   1 <1>   0.5690 
  3 N       -1.5090    -0.6040     0.2830 N.am  1 <1>  -0.7300 
  4 C       -0.5930     1.6840     0.4000 C.3   1 <1>  -0.0990 
  5 C       -2.0100    -1.8430    -0.3530 C.3   1 <1>   0.2200 
  6 C       -1.3450     2.9610     0.0070 C.3   1 <1>   0.0960 
  7 C       -3.4850    -2.0120    -0.0230 C.3   1 <1>  -0.0800 
  8 C       -1.4000    -3.0500     0.3490 C.3   1 <1>   0.1200 
  9 N       -0.8210     4.1150     0.7570 N.pl3 1 <1>   0.3140 
 10 C       -3.4410    -2.6980     1.3490 C.3   1 <1>   0.1200 
 11 C       -4.2040    -2.8690    -1.0820 C.3   1 <1>  -0.0170 
 12 O       -2.1560    -3.2280     1.5080 O.3   1 <1>  -0.5600 
 13 N       -1.1730     4.3700     1.9970 N.2   1 <1>  -0.4180 
 14 C        0.0550     5.0380     0.3920 C.2   1 <1>   0.0060 
 15 C       -5.6830    -3.0260    -0.7630 C.ar  1 <1>  -0.1440 
 16 N       -0.5220     5.4190     2.3500 N.2   1 <1>   0.0000 
 17 N        0.2510     5.8490     1.3580 N.2   1 <1>  -0.3380 
 18 C        0.7350     5.1300    -0.9620 C.3   1 <1>  -0.0600 
 19 C       -6.2050    -4.2010    -0.2590 C.ar  1 <1>  -0.1500 
 20 C       -6.5820    -1.9990    -0.9650 C.ar  1 <1>  -0.1500 
 21 C       -7.5590    -4.2860     0.0170 C.ar  1 <1>   0.1600 
 22 C       -7.9190    -2.1880    -0.6560 C.ar  1 <1>   0.1600 
 23 N       -8.4290    -3.3060    -0.1670 N.ar  1 <1>  -0.6200 
 24 H       -1.4280    -0.6700     1.3010 H     1 <1>   0.3700 
 25 H       -0.7090     1.5040     1.4530 H     1 <1>   0.0800 
 26 H        0.4520     1.7900     0.1760 H     1 <1>   0.0800 
 27 H       -1.8050    -1.8370    -1.4110 H     1 <1>   0.0800 
 28 H       -2.3910     2.8570     0.2310 H     1 <1>   0.0800 
 29 H       -1.2400     3.1490    -1.0470 H     1 <1>   0.0800 
 30 H       -3.9790    -1.0590     0.0390 H     1 <1>   0.0800 
 31 H       -0.3660    -2.9030     0.6080 H     1 <1>   0.0800 
 32 H       -1.5030    -3.9360    -0.2510 H     1 <1>   0.0800 
 33 H       -4.1580    -3.4940     1.4450 H     1 <1>   0.0800 
 34 H       -3.5980    -1.9840     2.1390 H     1 <1>   0.0800 
 35 H       -3.7460    -3.8410    -1.1520 H     1 <1>   0.0800 
 36 H       -4.1100    -2.3980    -2.0460 H     1 <1>   0.0800 
 37 H        1.4340     5.9480    -0.9640 H     1 <1>   0.0800 
 38 H        0.0060     5.3020    -1.7330 H     1 <1>   0.0800 
 39 H        1.2710     4.2220    -1.1740 H     1 <1>   0.0800 
 40 H       -5.5730    -5.0510    -0.0770 H     1 <1>   0.1500 
 41 H       -6.2580    -1.0540    -1.3600 H     1 <1>   0.1500 
 42 H       -7.9480    -5.2100     0.4110 H     1 <1>   0.1500 
 43 H       -8.6060    -1.3750    -0.8200 H     1 <1>   0.1500 
@<TRIPOS>BOND
  1   1   2  2   
  2   2   3  am  
  3   2   4  1   
  4   3   5  1   
  5   3  24  1   
  6   4   6  1   
  7   4  25  1   
  8   4  26  1   
  9   5   7  1   
 10   5   8  1   
 11   5  27  1   
 12   6   9  1   
 13   6  28  1   
 14   6  29  1   
 15   7  10  1   
 16   7  11  1   
 17   7  30  1   
 18   8  12  1   
 19   8  31  1   
 20   8  32  1   
 21   9  13  1   
 22   9  14  1   
 23  10  12  1   
 24  10  33  1   
 25  10  34  1   
 26  11  15  1   
 27  11  35  1   
 28  11  36  1   
 29  13  16  2   
 30  14  17  2   
 31  14  18  1   
 32  15  19  ar  
 33  15  20  ar  
 34  16  17  1   
 35  18  37  1   
 36  18  38  1   
 37  18  39  1   
 38  19  21  ar  
 39  19  40  1   
 40  20  22  ar  
 41  20  41  1   
 42  21  23  ar  
 43  21  42  1   
 44  22  23  ar  
 45  22  43  1   
@<TRIPOS>SUBSTRUCTURE
  1 ****   3 GROUP 4 **** **** 0

# MOE 2024.06 (io_trps.svl 2023.06)
