@<TRIPOS>MOLECULE
NONAME
36 37 1 0 0 
SMALL
USER_CHARGES


@<TRIPOS>ATOM
  1 S       -1.1700     0.7310    -1.3540 S.o2  1 <1>   1.5000 
  2 O       -1.7420     1.9950    -1.7700 O.2   1 <1>  -0.6500 
  3 O       -1.2180    -0.3680    -2.2940 O.2   1 <1>  -0.6500 
  4 N       -2.0290     0.2620     0.0360 N.am  1 <1>  -0.8490 
  5 C        0.5380     0.9770    -0.8000 C.2   1 <1>  -0.0220 
  6 C       -1.4220    -0.8020     0.8540 C.3   1 <1>   0.1960 
  7 C       -3.4690     0.0630    -0.2150 C.3   1 <1>   0.1960 
  8 S        1.0730     2.6140    -0.4260 S.3   1 <1>  -0.0800 
  9 C        1.5540     0.1180    -0.5670 C.2   1 <1>  -0.1500 
 10 C       -1.5490    -2.1840     0.2110 C.3   1 <1>  -0.1860 
 11 C       -3.9580    -1.3660     0.0660 C.3   1 <1>  -0.1600 
 12 C        2.6760     2.0640     0.0340 C.2   1 <1>  -0.1400 
 13 C        2.7600     0.7280    -0.0990 C.2   1 <1>  -0.1500 
 14 C       -1.1230    -3.1560     1.2850 C.2   1 <1>   0.9060 
 15 C       -2.9420    -2.3950    -0.4250 C.3   1 <1>   0.2000 
 16 C        3.6530     3.1330     0.4870 C.3   1 <1>   0.0200 
 17 O        0.0870    -3.2820     1.4860 O.co2 1 <1>  -0.9000 
 18 O       -1.9760    -3.7350     1.9690 O.co2 1 <1>  -0.9000 
 19 O       -3.4460    -3.6450    -0.1420 O.3   1 <1>  -0.6800 
 20 C        5.0070     2.5420     0.8900 C.3   1 <1>  -0.2400 
 21 H       -0.3900    -0.5900     1.0680 H     1 <1>   0.0800 
 22 H       -1.9260    -0.8210     1.8070 H     1 <1>   0.0800 
 23 H       -4.0220     0.7500     0.4020 H     1 <1>   0.0800 
 24 H       -3.6950     0.3050    -1.2400 H     1 <1>   0.0800 
 25 H        1.4970    -0.9520    -0.6980 H     1 <1>   0.1500 
 26 H       -0.8190    -2.2700    -0.5680 H     1 <1>   0.0800 
 27 H       -4.8990    -1.5210    -0.4280 H     1 <1>   0.0800 
 28 H       -4.1100    -1.4890     1.1240 H     1 <1>   0.0800 
 29 H        3.6240     0.1240     0.1170 H     1 <1>   0.1500 
 30 H       -2.8590    -2.3220    -1.4960 H     1 <1>   0.0800 
 31 H        3.7940     3.8400    -0.3110 H     1 <1>   0.0800 
 32 H        3.2310     3.6580     1.3260 H     1 <1>   0.0800 
 33 H       -3.0700    -3.9020     0.7560 H     1 <1>   0.4000 
 34 H        5.4550     2.0360     0.0540 H     1 <1>   0.0800 
 35 H        4.8820     1.8420     1.6970 H     1 <1>   0.0800 
 36 H        5.6690     3.3260     1.2130 H     1 <1>   0.0800 
@<TRIPOS>BOND
  1   1   2  2   
  2   1   3  2   
  3   1   4  am  
  4   1   5  1   
  5   4   6  1   
  6   4   7  1   
  7   5   8  1   
  8   5   9  2   
  9   6  10  1   
 10   6  21  1   
 11   6  22  1   
 12   7  11  1   
 13   7  23  1   
 14   7  24  1   
 15   8  12  1   
 16   9  13  1   
 17   9  25  1   
 18  10  14  1   
 19  10  15  1   
 20  10  26  1   
 21  11  15  1   
 22  11  27  1   
 23  11  28  1   
 24  12  13  2   
 25  12  16  1   
 26  13  29  1   
 27  14  17  ar  
 28  14  18  ar  
 29  15  19  1   
 30  15  30  1   
 31  16  20  1   
 32  16  31  1   
 33  16  32  1   
 34  19  33  1   
 35  20  34  1   
 36  20  35  1   
 37  20  36  1   
@<TRIPOS>SUBSTRUCTURE
  1 ****   6 GROUP 4 **** **** 0

# MOE 2024.06 (io_trps.svl 2023.06)
