@<TRIPOS>MOLECULE
NONAME
48 50 1 0 0 
SMALL
USER_CHARGES


@<TRIPOS>ATOM
  1 O       -1.2270    -2.2260     0.9720 O.3   1 <1>  -0.6800 
  2 C       -0.5320    -1.3550     0.1320 C.3   1 <1>   0.1200 
  3 C        0.9950    -1.8480     0.0520 C.3   1 <1>   0.0000 
  4 C        2.5120    -2.3470     0.0630 C.3   1 <1>   0.4230 
  5 C        1.4360    -0.5460     0.9230 C.3   1 <1>  -0.1600 
  6 C        0.5420    -3.0860    -0.8870 C.3   1 <1>  -0.1600 
  7 N        2.9290    -3.7940     0.2870 N.4   1 <1>  -0.9590 
  8 C        3.3010    -1.5050    -0.9520 C.3   1 <1>   0.2090 
  9 C        2.8630     0.1000     0.9540 C.3   1 <1>   0.2090 
 10 C        0.8340    -4.5260    -0.4550 C.3   1 <1>  -0.1600 
 11 C        2.3110    -4.7760    -0.5970 C.3   1 <1>   0.3430 
 12 C        4.4140    -3.9560     0.3770 C.3   1 <1>   0.2630 
 13 N        3.6790    -0.2390    -0.2570 N.pl3 1 <1>  -0.8380 
 14 C        5.0420    -0.0360    -0.0850 C.ar  1 <1>   0.4100 
 15 N        5.6760    -1.0250     0.5390 N.ar  1 <1>  -0.6200 
 16 C        5.6930     1.1430    -0.5170 C.ar  1 <1>   0.1670 
 17 C        6.9610    -0.7700     0.7210 C.ar  1 <1>   0.1670 
 18 N        6.9750     1.3840    -0.3340 N.ar  1 <1>  -0.6200 
 19 C        4.9310     2.2440    -1.2370 C.3   1 <1>  -0.0970 
 20 C        7.5880     0.3970     0.2980 C.ar  1 <1>   0.1600 
 21 C        7.7570    -1.8400     1.4400 C.3   1 <1>  -0.0970 
 22 H       -2.1710    -1.9730     1.0400 H     1 <1>   0.4000 
 23 H       -1.0180    -1.3160    -0.8300 H     1 <1>   0.0800 
 24 H       -0.7760    -0.3910     0.5460 H     1 <1>   0.0800 
 25 H        2.9010    -2.0060     1.0000 H     1 <1>   0.0800 
 26 H        1.1120    -0.6690     1.9440 H     1 <1>   0.0800 
 27 H        0.9460     0.3360     0.5430 H     1 <1>   0.0800 
 28 H       -0.4950    -3.1610    -1.1780 H     1 <1>   0.0800 
 29 H        1.0130    -2.9370    -1.8460 H     1 <1>   0.0800 
 30 H        2.5490    -4.0090     1.2190 H     1 <1>   0.4500 
 31 H        2.6850    -1.2620    -1.8000 H     1 <1>   0.0800 
 32 H        4.1760    -2.0120    -1.3130 H     1 <1>   0.0800 
 33 H        3.3870    -0.2400     1.8330 H     1 <1>   0.0800 
 34 H        2.7860     1.1730     1.0350 H     1 <1>   0.0800 
 35 H        0.3110    -5.2100    -1.1020 H     1 <1>   0.0800 
 36 H        0.4930    -4.7020     0.5510 H     1 <1>   0.0800 
 37 H        2.6270    -4.6250    -1.6170 H     1 <1>   0.0800 
 38 H        2.5570    -5.7800    -0.2900 H     1 <1>   0.0800 
 39 H        4.8760    -3.7760    -0.5790 H     1 <1>   0.0800 
 40 H        4.6650    -4.9540     0.6990 H     1 <1>   0.0800 
 41 H        4.8220    -3.2540     1.0880 H     1 <1>   0.0800 
 42 H        4.0380     1.8700    -1.6990 H     1 <1>   0.0800 
 43 H        5.5510     2.6740    -2.0030 H     1 <1>   0.0800 
 44 H        4.6690     3.0140    -0.5350 H     1 <1>   0.0800 
 45 H        8.6390     0.5280     0.4850 H     1 <1>   0.1500 
 46 H        8.7770    -1.5340     1.5830 H     1 <1>   0.0800 
 47 H        7.7480    -2.7470     0.8650 H     1 <1>   0.0800 
 48 H        7.3190    -2.0300     2.4030 H     1 <1>   0.0800 
@<TRIPOS>BOND
  1   1   2  1   
  2   1  22  1   
  3   2   3  1   
  4   2  23  1   
  5   2  24  1   
  6   3   4  1   
  7   3   5  1   
  8   3   6  1   
  9   4   7  1   
 10   4   8  1   
 11   4  25  1   
 12   5   9  1   
 13   5  26  1   
 14   5  27  1   
 15   6  10  1   
 16   6  28  1   
 17   6  29  1   
 18   7  11  1   
 19   7  12  1   
 20   7  30  1   
 21   8  13  1   
 22   8  31  1   
 23   8  32  1   
 24   9  13  1   
 25   9  33  1   
 26   9  34  1   
 27  10  11  1   
 28  10  35  1   
 29  10  36  1   
 30  11  37  1   
 31  11  38  1   
 32  12  39  1   
 33  12  40  1   
 34  12  41  1   
 35  13  14  1   
 36  14  15  ar  
 37  14  16  ar  
 38  15  17  ar  
 39  16  18  ar  
 40  16  19  1   
 41  17  20  ar  
 42  17  21  1   
 43  18  20  ar  
 44  19  42  1   
 45  19  43  1   
 46  19  44  1   
 47  20  45  1   
 48  21  46  1   
 49  21  47  1   
 50  21  48  1   
@<TRIPOS>SUBSTRUCTURE
  1 ****   8 GROUP 4 **** **** 0

# MOE 2024.06 (io_trps.svl 2023.06)
