@<TRIPOS>MOLECULE
NONAME
43 45 1 0 0 
SMALL
USER_CHARGES


@<TRIPOS>ATOM
  1 CL       1.0350     0.8760    -0.2930 Cl    1 <1>  -0.1770 
  2 C        2.0690    -0.4130     0.2880 C.ar  1 <1>   0.1770 
  3 C        3.1910    -0.0900     1.0500 C.ar  1 <1>   0.0860 
  4 C        1.7450    -1.7250    -0.0330 C.ar  1 <1>  -0.1440 
  5 C        3.5390     1.2750     1.3740 C.2   1 <1>   0.5440 
  6 C        3.9890    -1.1420     1.4960 C.ar  1 <1>  -0.1500 
  7 C        2.5650    -2.7450     0.4230 C.ar  1 <1>  -0.1500 
  8 C        0.5150    -2.0560    -0.8650 C.3   1 <1>  -0.0960 
  9 O        3.5290     1.6220     2.5400 O.2   1 <1>  -0.5700 
 10 N        3.9360     2.1930     0.4150 N.am  1 <1>  -0.6600 
 11 C        3.6830    -2.4530     1.1850 C.ar  1 <1>  -0.1500 
 12 C        4.2360     3.5990     0.8370 C.3   1 <1>   0.1400 
 13 C        4.3470     1.7660    -0.9600 C.3   1 <1>   0.1400 
 14 C        5.7510     3.8920     0.9920 C.3   1 <1>   0.4230 
 15 C        5.7830     2.1730    -1.3580 C.3   1 <1>  -0.0800 
 16 N        6.3950     4.3820    -0.2820 N.4   1 <1>  -0.9590 
 17 C        6.5820     2.7260     1.5960 C.3   1 <1>   0.1200 
 18 C        6.9120     1.5410    -0.5150 C.3   1 <1>   0.1200 
 19 C        5.9160     3.6900    -1.5160 C.3   1 <1>   0.3430 
 20 C        6.2640     5.8650    -0.4280 C.3   1 <1>   0.2630 
 21 O        6.6270     1.5340     0.8480 O.3   1 <1>  -0.5600 
 22 H        4.8580    -0.9170     2.0930 H     1 <1>   0.1500 
 23 H        2.3390    -3.7720     0.1910 H     1 <1>   0.1500 
 24 H        0.4200    -3.1170    -1.0130 H     1 <1>   0.0800 
 25 H        0.5820    -1.5830    -1.8290 H     1 <1>   0.0800 
 26 H       -0.3710    -1.7030    -0.3670 H     1 <1>   0.0800 
 27 H        4.3140    -3.2510     1.5400 H     1 <1>   0.1500 
 28 H        3.7860     4.2850     0.1420 H     1 <1>   0.0800 
 29 H        3.7670     3.7930     1.7860 H     1 <1>   0.0800 
 30 H        4.2780     0.6960    -1.0470 H     1 <1>   0.0800 
 31 H        3.6440     2.1800    -1.6630 H     1 <1>   0.0800 
 32 H        5.8200     4.6950     1.7070 H     1 <1>   0.0800 
 33 H        5.9130     1.7850    -2.3530 H     1 <1>   0.0800 
 34 H        7.3930     4.1530    -0.1830 H     1 <1>   0.4500 
 35 H        6.1570     2.4640     2.5500 H     1 <1>   0.0800 
 36 H        7.5940     3.0420     1.7700 H     1 <1>   0.0800 
 37 H        7.8620     2.0230    -0.6720 H     1 <1>   0.0800 
 38 H        7.0190     0.5070    -0.7980 H     1 <1>   0.0800 
 39 H        4.9580     4.0890    -1.8100 H     1 <1>   0.0800 
 40 H        6.6100     3.8930    -2.3160 H     1 <1>   0.0800 
 41 H        5.2270     6.1430    -0.5250 H     1 <1>   0.0800 
 42 H        6.7950     6.2040    -1.3030 H     1 <1>   0.0800 
 43 H        6.6760     6.3650     0.4340 H     1 <1>   0.0800 
@<TRIPOS>BOND
  1   1   2  1   
  2   2   3  ar  
  3   2   4  ar  
  4   3   5  1   
  5   3   6  ar  
  6   4   7  ar  
  7   4   8  1   
  8   5   9  2   
  9   5  10  am  
 10   6  11  ar  
 11   6  22  1   
 12   7  11  ar  
 13   7  23  1   
 14   8  24  1   
 15   8  25  1   
 16   8  26  1   
 17  10  12  1   
 18  10  13  1   
 19  11  27  1   
 20  12  14  1   
 21  12  28  1   
 22  12  29  1   
 23  13  15  1   
 24  13  30  1   
 25  13  31  1   
 26  14  16  1   
 27  14  17  1   
 28  14  32  1   
 29  15  18  1   
 30  15  19  1   
 31  15  33  1   
 32  16  19  1   
 33  16  20  1   
 34  16  34  1   
 35  17  21  1   
 36  17  35  1   
 37  17  36  1   
 38  18  21  1   
 39  18  37  1   
 40  18  38  1   
 41  19  39  1   
 42  19  40  1   
 43  20  41  1   
 44  20  42  1   
 45  20  43  1   
@<TRIPOS>SUBSTRUCTURE
  1 ****  10 GROUP 4 **** **** 0

# MOE 2024.06 (io_trps.svl 2023.06)
