@<TRIPOS>MOLECULE
NONAME
51 54 1 0 0 
SMALL
USER_CHARGES


@<TRIPOS>ATOM
  1 O       -0.2630     0.8110    -2.6790 O.2   1 <1>  -0.5700 
  2 C       -0.1890     1.7350    -1.8900 C.2   1 <1>   0.5440 
  3 N       -1.3560     2.2950    -1.4060 N.am  1 <1>  -0.6600 
  4 C        1.1130     2.2500    -1.5300 C.ar  1 <1>   0.0860 
  5 C       -1.3660     3.3900    -0.3920 C.3   1 <1>   0.1400 
  6 C       -2.6820     1.8080    -1.8880 C.3   1 <1>   0.1400 
  7 C        1.7340     1.9240    -0.3220 C.ar  1 <1>   0.0820 
  8 C        1.7950     3.0930    -2.4090 C.ar  1 <1>  -0.1500 
  9 C       -2.6080     3.2530     0.4860 C.3   1 <1>  -0.1600 
 10 C       -3.7400     2.9080    -1.7690 C.3   1 <1>  -0.1600 
 11 O        1.1060     1.0950     0.5500 O.3   1 <1>  -0.3620 
 12 C        2.9920     2.4450    -0.0100 C.ar  1 <1>   0.0820 
 13 C        3.0430     3.6030    -2.1030 C.ar  1 <1>  -0.1500 
 14 C       -3.9060     3.4450    -0.3280 C.3   1 <1>   0.2800 
 15 C        1.8890     0.4970     1.5630 C.3   1 <1>   0.1200 
 16 O        3.6070     2.1540     1.1660 O.3   1 <1>  -0.3630 
 17 C        3.6440     3.2780    -0.8990 C.ar  1 <1>  -0.1500 
 18 O       -4.1060     4.8240    -0.4830 O.3   1 <1>  -0.5600 
 19 C       -5.1050     2.7750     0.3940 C.3   1 <1>  -0.1600 
 20 C        2.8300     1.5400     2.1760 C.3   1 <1>   0.1200 
 21 C       -4.7880     5.5330     0.5140 C.3   1 <1>   0.1200 
 22 C       -6.4270     3.5450     0.2620 C.3   1 <1>   0.2800 
 23 C       -6.2260     5.0170     0.7290 C.3   1 <1>   0.2000 
 24 O       -6.8030     3.5530    -1.0670 O.3   1 <1>  -0.6800 
 25 C       -7.5680     2.8110     0.9810 C.3   1 <1>  -0.2400 
 26 O       -6.5110     5.1660     2.0910 O.3   1 <1>  -0.6800 
 27 H       -0.4880     3.3360     0.2270 H     1 <1>   0.0800 
 28 H       -1.3740     4.3420    -0.8950 H     1 <1>   0.0800 
 29 H       -2.6030     1.5010    -2.9170 H     1 <1>   0.0800 
 30 H       -2.9700     0.9500    -1.3050 H     1 <1>   0.0800 
 31 H        1.3300     3.3410    -3.3480 H     1 <1>   0.1500 
 32 H       -2.5600     3.9600     1.2920 H     1 <1>   0.0800 
 33 H       -2.5860     2.2700     0.9220 H     1 <1>   0.0800 
 34 H       -4.6710     2.5320    -2.1450 H     1 <1>   0.0800 
 35 H       -3.4400     3.7090    -2.4230 H     1 <1>   0.0800 
 36 H        3.5490     4.2510    -2.7990 H     1 <1>   0.1500 
 37 H        1.2230     0.0940     2.3040 H     1 <1>   0.0800 
 38 H        2.4530    -0.3060     1.1200 H     1 <1>   0.0800 
 39 H        4.6140     3.6680    -0.6470 H     1 <1>   0.1500 
 40 H       -5.2210     1.7610     0.0570 H     1 <1>   0.0800 
 41 H       -4.8770     2.7110     1.4420 H     1 <1>   0.0800 
 42 H        3.5020     1.0820     2.8790 H     1 <1>   0.0800 
 43 H        2.2650     2.3060     2.6760 H     1 <1>   0.0800 
 44 H       -4.2140     5.4640     1.4200 H     1 <1>   0.0800 
 45 H       -4.8210     6.5620     0.2060 H     1 <1>   0.0800 
 46 H       -6.9190     5.6510     0.2030 H     1 <1>   0.0800 
 47 H       -7.0010     2.6470    -1.3600 H     1 <1>   0.4000 
 48 H       -7.3440     2.6930     2.0250 H     1 <1>   0.0800 
 49 H       -7.7200     1.8320     0.5640 H     1 <1>   0.0800 
 50 H       -8.4780     3.3780     0.8980 H     1 <1>   0.0800 
 51 H       -5.9630     4.5600     2.6220 H     1 <1>   0.4000 
@<TRIPOS>BOND
  1   1   2  2   
  2   2   3  am  
  3   2   4  1   
  4   3   5  1   
  5   3   6  1   
  6   4   7  ar  
  7   4   8  ar  
  8   5   9  1   
  9   5  27  1   
 10   5  28  1   
 11   6  10  1   
 12   6  29  1   
 13   6  30  1   
 14   7  11  1   
 15   7  12  ar  
 16   8  13  ar  
 17   8  31  1   
 18   9  14  1   
 19   9  32  1   
 20   9  33  1   
 21  10  14  1   
 22  10  34  1   
 23  10  35  1   
 24  11  15  1   
 25  12  16  1   
 26  12  17  ar  
 27  13  17  ar  
 28  13  36  1   
 29  14  18  1   
 30  14  19  1   
 31  15  20  1   
 32  15  37  1   
 33  15  38  1   
 34  16  20  1   
 35  17  39  1   
 36  18  21  1   
 37  19  22  1   
 38  19  40  1   
 39  19  41  1   
 40  20  42  1   
 41  20  43  1   
 42  21  23  1   
 43  21  44  1   
 44  21  45  1   
 45  22  23  1   
 46  22  24  1   
 47  22  25  1   
 48  23  26  1   
 49  23  46  1   
 50  24  47  1   
 51  25  48  1   
 52  25  49  1   
 53  25  50  1   
 54  26  51  1   
@<TRIPOS>SUBSTRUCTURE
  1 ****   5 GROUP 4 **** **** 0

# MOE 2024.06 (io_trps.svl 2023.06)
