@<TRIPOS>MOLECULE
NONAME
42 43 1 0 0 
SMALL
USER_CHARGES


@<TRIPOS>ATOM
  1 S       -0.2170    -0.0730     0.2540 S.o2  1 <1>   1.3330 
  2 O       -0.8770     1.2060     0.3820 O.2   1 <1>  -0.6500 
  3 O       -0.0210    -0.8960     1.4260 O.2   1 <1>  -0.6500 
  4 N       -1.0610    -0.9970    -0.8940 N.am  1 <1>  -0.8490 
  5 C        1.3590     0.2010    -0.5580 C.3   1 <1>  -0.0550 
  6 C       -0.7890    -2.4360    -0.7990 C.3   1 <1>   0.1160 
  7 C       -2.5070    -0.7590    -0.8480 C.3   1 <1>   0.1160 
  8 C        2.3130     1.1130     0.2390 C.3   1 <1>  -0.0800 
  9 C        3.5420     1.4650    -0.5840 C.3   1 <1>   0.2200 
 10 C        2.9130     0.4040     1.4630 C.3   1 <1>   0.1200 
 11 N        4.0770     2.7620    -0.1180 N.am  1 <1>  -0.7300 
 12 C        4.5060     0.3550    -0.1900 C.3   1 <1>   0.1200 
 13 O        4.2450     0.1080     1.1560 O.3   1 <1>  -0.5600 
 14 C        4.1540     3.9050    -0.8610 C.2   1 <1>   0.7150 
 15 O        3.7320     3.8730    -2.0020 O.2   1 <1>  -0.5700 
 16 C        4.7260     5.1010    -0.2800 C.2   1 <1>   0.0550 
 17 O        4.8900     6.2070    -1.0010 O.3   1 <1>  -0.2800 
 18 C        5.1790     5.3490     0.9830 C.2   1 <1>  -0.1500 
 19 C        5.4260     7.1420    -0.2490 C.2   1 <1>  -0.0400 
 20 C        5.6320     6.6680     1.0000 C.2   1 <1>  -0.1500 
 21 C        5.7050     8.4980    -0.8730 C.3   1 <1>   0.3000 
 22 O        5.9870     9.4190     0.1240 O.3   1 <1>  -0.6800 
 23 H        1.8330    -0.7420    -0.7460 H     1 <1>   0.0800 
 24 H        1.1620     0.6630    -1.5060 H     1 <1>   0.0800 
 25 H       -1.2740    -2.9570    -1.6070 H     1 <1>   0.0800 
 26 H       -1.1520    -2.8270     0.1380 H     1 <1>   0.0800 
 27 H        0.2690    -2.6200    -0.8630 H     1 <1>   0.0800 
 28 H       -3.0070    -1.3480    -1.5970 H     1 <1>   0.0800 
 29 H       -2.7170     0.2800    -1.0430 H     1 <1>   0.0800 
 30 H       -2.8980    -1.0130     0.1240 H     1 <1>   0.0800 
 31 H        1.7760     2.0010     0.5290 H     1 <1>   0.0800 
 32 H        3.3580     1.4850    -1.6460 H     1 <1>   0.0800 
 33 H        2.4130    -0.5170     1.7090 H     1 <1>   0.0800 
 34 H        2.9120     1.0490     2.3250 H     1 <1>   0.0800 
 35 H        4.4770     2.7400     0.8200 H     1 <1>   0.3700 
 36 H        5.5380     0.6340    -0.3150 H     1 <1>   0.0800 
 37 H        4.3010    -0.5470    -0.7390 H     1 <1>   0.0800 
 38 H        5.1990     4.6830     1.8260 H     1 <1>   0.1500 
 39 H        6.0600     7.1780     1.8450 H     1 <1>   0.1500 
 40 H        4.8430     8.8440    -1.4170 H     1 <1>   0.0800 
 41 H        6.5500     8.4440    -1.5380 H     1 <1>   0.0800 
 42 H        5.2540     9.4230     0.7680 H     1 <1>   0.4000 
@<TRIPOS>BOND
  1   1   2  2   
  2   1   3  2   
  3   1   4  am  
  4   1   5  1   
  5   4   6  1   
  6   4   7  1   
  7   5   8  1   
  8   5  23  1   
  9   5  24  1   
 10   6  25  1   
 11   6  26  1   
 12   6  27  1   
 13   7  28  1   
 14   7  29  1   
 15   7  30  1   
 16   8   9  1   
 17   8  10  1   
 18   8  31  1   
 19   9  11  1   
 20   9  12  1   
 21   9  32  1   
 22  10  13  1   
 23  10  33  1   
 24  10  34  1   
 25  11  14  am  
 26  11  35  1   
 27  12  13  1   
 28  12  36  1   
 29  12  37  1   
 30  14  15  2   
 31  14  16  1   
 32  16  17  1   
 33  16  18  2   
 34  17  19  1   
 35  18  20  1   
 36  18  38  1   
 37  19  20  2   
 38  19  21  1   
 39  20  39  1   
 40  21  22  1   
 41  21  40  1   
 42  21  41  1   
 43  22  42  1   
@<TRIPOS>SUBSTRUCTURE
  1 ****  11 GROUP 4 **** **** 0

# MOE 2024.06 (io_trps.svl 2023.06)
