@<TRIPOS>MOLECULE
NONAME
40 42 1 0 0 
SMALL
USER_CHARGES


@<TRIPOS>ATOM
  1 CL      -0.2690     0.3620     0.5410 Cl    1 <1>  -0.1770 
  2 C       -1.7840     1.2240     0.3530 C.ar  1 <1>   0.1770 
  3 C       -1.8590     2.6110     0.4330 C.ar  1 <1>   0.1660 
  4 C       -2.9200     0.4820     0.1090 C.ar  1 <1>  -0.1500 
  5 N       -2.9870     3.2900     0.2850 N.ar  1 <1>  -0.6200 
  6 C       -0.6320     3.4660     0.6960 C.3   1 <1>  -0.0960 
  7 C       -4.0890     1.1890    -0.0410 C.ar  1 <1>  -0.1500 
  8 C       -4.0880     2.5800     0.0570 C.ar  1 <1>   0.4100 
  9 N       -5.2740     3.2750    -0.0880 N.pl3 1 <1>  -0.8380 
 10 C       -6.4110     2.9780     0.8240 C.3   1 <1>   0.2090 
 11 C       -5.2500     4.6770    -0.6020 C.3   1 <1>   0.2090 
 12 C       -7.7510     3.0720     0.0560 C.3   1 <1>   0.0000 
 13 C       -6.6630     5.2870    -0.6590 C.3   1 <1>  -0.1600 
 14 C       -8.9160     3.1920     1.0560 C.3   1 <1>   0.2000 
 15 C       -7.7230     4.2250    -1.0010 C.3   1 <1>  -0.1600 
 16 C       -8.1100     1.7520    -0.6460 C.3   1 <1>  -0.1600 
 17 O       -9.1160     4.4890     1.4890 O.3   1 <1>  -0.6800 
 18 C      -10.1580     2.6660     0.3350 C.3   1 <1>  -0.1600 
 19 C       -9.6330     1.7870    -0.8100 C.3   1 <1>  -0.1600 
 20 H       -2.8790    -0.5900     0.0390 H     1 <1>   0.1500 
 21 H        0.1660     2.9010     1.1370 H     1 <1>   0.0800 
 22 H       -0.8890     4.2650     1.3690 H     1 <1>   0.0800 
 23 H       -0.2920     3.8940    -0.2280 H     1 <1>   0.0800 
 24 H       -5.0140     0.6860    -0.2450 H     1 <1>   0.1500 
 25 H       -6.2970     2.0090     1.2760 H     1 <1>   0.0800 
 26 H       -6.4030     3.7050     1.6180 H     1 <1>   0.0800 
 27 H       -4.6170     5.2860     0.0220 H     1 <1>   0.0800 
 28 H       -4.8250     4.6600    -1.5910 H     1 <1>   0.0800 
 29 H       -6.8880     5.7340     0.2930 H     1 <1>   0.0800 
 30 H       -6.6740     6.0720    -1.3930 H     1 <1>   0.0800 
 31 H       -8.7250     2.5810     1.9230 H     1 <1>   0.0800 
 32 H       -7.4550     3.8230    -1.9620 H     1 <1>   0.0800 
 33 H       -8.6900     4.6800    -1.1160 H     1 <1>   0.0800 
 34 H       -7.5980     1.6230    -1.5850 H     1 <1>   0.0800 
 35 H       -7.8540     0.9220    -0.0100 H     1 <1>   0.0800 
 36 H       -9.1910     5.0780     0.7160 H     1 <1>   0.4000 
 37 H      -10.7580     2.0880     1.0150 H     1 <1>   0.0800 
 38 H      -10.7490     3.4710    -0.0660 H     1 <1>   0.0800 
 39 H      -10.0520     0.7960    -0.7760 H     1 <1>   0.0800 
 40 H       -9.8860     2.2380    -1.7550 H     1 <1>   0.0800 
@<TRIPOS>BOND
  1   1   2  1   
  2   2   3  ar  
  3   2   4  ar  
  4   3   5  ar  
  5   3   6  1   
  6   4   7  ar  
  7   4  20  1   
  8   5   8  ar  
  9   6  21  1   
 10   6  22  1   
 11   6  23  1   
 12   7   8  ar  
 13   7  24  1   
 14   8   9  1   
 15   9  10  1   
 16   9  11  1   
 17  10  12  1   
 18  10  25  1   
 19  10  26  1   
 20  11  13  1   
 21  11  27  1   
 22  11  28  1   
 23  12  14  1   
 24  12  15  1   
 25  12  16  1   
 26  13  15  1   
 27  13  29  1   
 28  13  30  1   
 29  14  17  1   
 30  14  18  1   
 31  14  31  1   
 32  15  32  1   
 33  15  33  1   
 34  16  19  1   
 35  16  34  1   
 36  16  35  1   
 37  17  36  1   
 38  18  19  1   
 39  18  37  1   
 40  18  38  1   
 41  19  39  1   
 42  19  40  1   
@<TRIPOS>SUBSTRUCTURE
  1 ****   9 GROUP 4 **** **** 0

# MOE 2024.06 (io_trps.svl 2023.06)
