@<TRIPOS>MOLECULE
NONAME
63 67 1 0 0 
SMALL
USER_CHARGES


@<TRIPOS>ATOM
  1 O       -0.0670     0.1900    -1.5250 O.3   1 <1>  -0.5600 
  2 C        0.5460     1.4150    -1.7510 C.3   1 <1>   0.1200 
  3 C       -1.4060     0.4130    -1.1930 C.3   1 <1>   0.1200 
  4 C        0.0040     2.2710    -0.6110 C.3   1 <1>   0.4230 
  5 C       -1.4670     1.8590    -0.6730 C.3   1 <1>  -0.0800 
  6 N        0.6280     1.7950     0.6610 N.4   1 <1>  -0.9060 
  7 C       -2.3080     2.0340     0.6100 C.3   1 <1>  -0.0170 
  8 C        1.7260     2.6180     1.2310 C.3   1 <1>   0.4230 
  9 C       -3.7730     1.7250     0.3290 C.ar  1 <1>  -0.1440 
 10 C        1.1530     3.9430     1.7450 C.3   1 <1>  -0.1600 
 11 C        2.8650     2.8070     0.2230 C.3   1 <1>  -0.1600 
 12 C       -4.6270     2.6400    -0.3340 C.ar  1 <1>   0.0000 
 13 C       -4.3070     0.5280     0.7110 C.ar  1 <1>  -0.1500 
 14 C        2.2630     4.8410     2.2900 C.3   1 <1>   0.2090 
 15 C        3.9590     3.6850     0.8210 C.3   1 <1>   0.2090 
 16 C       -5.9620     2.2330    -0.5810 C.ar  1 <1>   0.3100 
 17 C       -4.2420     3.9320    -0.7660 C.ar  1 <1>  -0.1500 
 18 C       -5.6460     0.2300     0.4290 C.ar  1 <1>   0.1600 
 19 N        3.3250     4.9430     1.2670 N.pl3 1 <1>  -0.8380 
 20 N       -6.4510     1.0290    -0.1940 N.ar  1 <1>  -0.6200 
 21 C       -6.8280     3.1080    -1.2560 C.ar  1 <1>  -0.1500 
 22 C       -5.1130     4.7620    -1.4180 C.ar  1 <1>  -0.1500 
 23 C        3.4910     6.1050     0.5080 C.ar  1 <1>   0.1000 
 24 C       -6.4210     4.3460    -1.6710 C.ar  1 <1>  -0.1500 
 25 C        2.4050     6.8120     0.0040 C.ar  1 <1>  -0.1500 
 26 C        4.7680     6.5790     0.2290 C.ar  1 <1>  -0.1500 
 27 C        2.5780     7.9470    -0.7670 C.ar  1 <1>   0.0820 
 28 C        4.9560     7.7140    -0.5390 C.ar  1 <1>  -0.1500 
 29 O        1.4490     8.5540    -1.2160 O.3   1 <1>  -0.3630 
 30 C        3.8650     8.4000    -1.0420 C.ar  1 <1>  -0.1500 
 31 C        1.5140     9.7630    -1.9400 C.3   1 <1>   0.0400 
 32 H        1.6140     1.2950    -1.7440 H     1 <1>   0.0800 
 33 H        0.2270     1.7860    -2.7110 H     1 <1>   0.0800 
 34 H       -2.0110     0.2830    -2.0760 H     1 <1>   0.0800 
 35 H       -1.6930    -0.3140    -0.4510 H     1 <1>   0.0800 
 36 H        0.1510     3.3280    -0.7670 H     1 <1>   0.0800 
 37 H       -1.9270     2.4440    -1.4510 H     1 <1>   0.0800 
 38 H       -0.1000     1.6850     1.3680 H     1 <1>   0.4500 
 39 H        0.9600     0.8410     0.4520 H     1 <1>   0.4500 
 40 H       -2.2220     3.0380     0.9880 H     1 <1>   0.0800 
 41 H       -1.9620     1.3700     1.3810 H     1 <1>   0.0800 
 42 H        2.1380     2.0970     2.0820 H     1 <1>   0.0800 
 43 H        0.6560     4.4760     0.9580 H     1 <1>   0.0800 
 44 H        0.4460     3.7630     2.5350 H     1 <1>   0.0800 
 45 H        3.2950     1.8580    -0.0400 H     1 <1>   0.0800 
 46 H        2.5230     3.2990    -0.6690 H     1 <1>   0.0800 
 47 H       -3.7330    -0.2180     1.2280 H     1 <1>   0.1500 
 48 H        2.6830     4.4270     3.1920 H     1 <1>   0.0800 
 49 H        1.8800     5.8220     2.5230 H     1 <1>   0.0800 
 50 H        4.7130     3.8890     0.0790 H     1 <1>   0.0800 
 51 H        4.4310     3.2030     1.6610 H     1 <1>   0.0800 
 52 H       -3.2470     4.2850    -0.5790 H     1 <1>   0.1500 
 53 H       -6.0300    -0.7250     0.7470 H     1 <1>   0.1500 
 54 H       -7.8310     2.7680    -1.4350 H     1 <1>   0.1500 
 55 H       -4.8080     5.7430    -1.7430 H     1 <1>   0.1500 
 56 H       -7.0970     5.0060    -2.1870 H     1 <1>   0.1500 
 57 H        1.4060     6.4890     0.2040 H     1 <1>   0.1500 
 58 H        5.6180     6.0570     0.6260 H     1 <1>   0.1500 
 59 H        5.9530     8.0640    -0.7430 H     1 <1>   0.1500 
 60 H        4.0360     9.2770    -1.6380 H     1 <1>   0.1500 
 61 H        0.5090    10.0750    -2.1600 H     1 <1>   0.0800 
 62 H        2.0530     9.5940    -2.8550 H     1 <1>   0.0800 
 63 H        2.0030    10.5060    -1.3350 H     1 <1>   0.0800 
@<TRIPOS>BOND
  1   1   2  1   
  2   1   3  1   
  3   2   4  1   
  4   2  32  1   
  5   2  33  1   
  6   3   5  1   
  7   3  34  1   
  8   3  35  1   
  9   4   5  1   
 10   4   6  1   
 11   4  36  1   
 12   5   7  1   
 13   5  37  1   
 14   6   8  1   
 15   6  38  1   
 16   6  39  1   
 17   7   9  1   
 18   7  40  1   
 19   7  41  1   
 20   8  10  1   
 21   8  11  1   
 22   8  42  1   
 23   9  12  ar  
 24   9  13  ar  
 25  10  14  1   
 26  10  43  1   
 27  10  44  1   
 28  11  15  1   
 29  11  45  1   
 30  11  46  1   
 31  12  16  ar  
 32  12  17  ar  
 33  13  18  ar  
 34  13  47  1   
 35  14  19  1   
 36  14  48  1   
 37  14  49  1   
 38  15  19  1   
 39  15  50  1   
 40  15  51  1   
 41  16  20  ar  
 42  16  21  ar  
 43  17  22  ar  
 44  17  52  1   
 45  18  20  ar  
 46  18  53  1   
 47  19  23  1   
 48  21  24  ar  
 49  21  54  1   
 50  22  24  ar  
 51  22  55  1   
 52  23  25  ar  
 53  23  26  ar  
 54  24  56  1   
 55  25  27  ar  
 56  25  57  1   
 57  26  28  ar  
 58  26  58  1   
 59  27  29  1   
 60  27  30  ar  
 61  28  30  ar  
 62  28  59  1   
 63  29  31  1   
 64  30  60  1   
 65  31  61  1   
 66  31  62  1   
 67  31  63  1   
@<TRIPOS>SUBSTRUCTURE
  1 ****   4 GROUP 4 **** **** 0

# MOE 2024.06 (io_trps.svl 2023.06)
