@<TRIPOS>MOLECULE
NONAME
59 62 1 0 0 
SMALL
USER_CHARGES


@<TRIPOS>ATOM
  1 O       -4.1050     3.7670    -2.0120 O.2   1 <1>  -0.5700 
  2 C       -3.4390     3.3620    -1.0780 C.2   1 <1>   0.5440 
  3 N       -3.5170     2.0090    -0.7800 N.am  1 <1>  -0.6600 
  4 C       -2.5880     4.2970    -0.3480 C.ar  1 <1>   0.3960 
  5 C       -3.8660     1.0120    -1.8350 C.3   1 <1>   0.1400 
  6 C       -2.9020     1.3850     0.4280 C.3   1 <1>   0.1400 
  7 N       -1.3440     3.9280     0.0060 N.ar  1 <1>  -0.6200 
  8 C       -3.1010     5.5580    -0.0410 C.ar  1 <1>   0.1600 
  9 C       -2.5970     0.2410    -2.2500 C.3   1 <1>   0.3430 
 10 C       -1.6150     0.6450     0.0190 C.3   1 <1>   0.3430 
 11 C       -0.6870     4.8590     0.6770 C.ar  1 <1>   0.4100 
 12 N       -2.4610     6.5010     0.6340 N.ar  1 <1>  -0.6200 
 13 N       -1.8770    -0.3730    -1.0690 N.4   1 <1>  -0.9590 
 14 N        0.5970     4.5080     1.0650 N.pl3 1 <1>  -0.8380 
 15 C       -1.2490     6.1130     0.9760 C.ar  1 <1>   0.1600 
 16 C       -0.6040    -1.0220    -1.5030 C.3   1 <1>   0.2630 
 17 C        1.6000     4.1790     0.0190 C.3   1 <1>   0.2090 
 18 C        1.1440     4.8870     2.3950 C.3   1 <1>   0.2090 
 19 C        2.5700     5.3490    -0.1400 C.3   1 <1>  -0.1600 
 20 C        2.1440     6.0370     2.2480 C.3   1 <1>  -0.1600 
 21 C        3.2260     5.7290     1.2000 C.3   1 <1>   0.1000 
 22 C        4.1790     6.9120     1.0610 C.2   1 <1>   0.2980 
 23 O        5.0680     7.1010     2.0040 O.3   1 <1>  -0.0190 
 24 N        4.2040     7.7600     0.1110 N.2   1 <1>  -0.5650 
 25 N        5.7150     8.1580     1.6200 N.2   1 <1>  -0.4100 
 26 C        5.2030     8.5340     0.5140 C.2   1 <1>   0.3350 
 27 C        5.6390     9.7380    -0.3230 C.3   1 <1>   0.1010 
 28 C        6.4880     9.2840    -1.5190 C.3   1 <1>  -0.2400 
 29 C        6.4080    10.7850     0.4990 C.3   1 <1>  -0.2400 
 30 H       -4.2810     1.5000    -2.7010 H     1 <1>   0.0800 
 31 H       -4.6100     0.3330    -1.4590 H     1 <1>   0.0800 
 32 H       -3.5980     0.6930     0.8680 H     1 <1>   0.0800 
 33 H       -2.6790     2.1270     1.1750 H     1 <1>   0.0800 
 34 H       -4.0980     5.7920    -0.3750 H     1 <1>   0.1500 
 35 H       -1.9390     0.9310    -2.7520 H     1 <1>   0.0800 
 36 H       -2.8670    -0.5270    -2.9560 H     1 <1>   0.0800 
 37 H       -1.1960     0.1600     0.8850 H     1 <1>   0.0800 
 38 H       -0.9020     1.3770    -0.3260 H     1 <1>   0.0800 
 39 H       -2.4970    -1.0930    -0.6720 H     1 <1>   0.4500 
 40 H       -0.6480     6.8170     1.5160 H     1 <1>   0.1500 
 41 H        0.0650    -0.2890    -1.9250 H     1 <1>   0.0800 
 42 H       -0.8010    -1.7760    -2.2470 H     1 <1>   0.0800 
 43 H       -0.1160    -1.4890    -0.6630 H     1 <1>   0.0800 
 44 H        1.1110     3.9880    -0.9210 H     1 <1>   0.0800 
 45 H        2.1340     3.2900     0.3080 H     1 <1>   0.0800 
 46 H        1.6370     4.0300     2.8240 H     1 <1>   0.0800 
 47 H        0.3450     5.1730     3.0590 H     1 <1>   0.0800 
 48 H        2.0320     6.1920    -0.5380 H     1 <1>   0.0800 
 49 H        3.3320     5.0850    -0.8510 H     1 <1>   0.0800 
 50 H        2.6070     6.2220     3.2010 H     1 <1>   0.0800 
 51 H        1.6200     6.9320     1.9650 H     1 <1>   0.0800 
 52 H        3.8040     4.8870     1.5390 H     1 <1>   0.0800 
 53 H        4.7460    10.2050    -0.7010 H     1 <1>   0.0800 
 54 H        7.3850     8.8000    -1.1750 H     1 <1>   0.0800 
 55 H        6.7570    10.1250    -2.1320 H     1 <1>   0.0800 
 56 H        5.9320     8.5860    -2.1190 H     1 <1>   0.0800 
 57 H        7.3220    10.3660     0.8810 H     1 <1>   0.0800 
 58 H        5.8090    11.1110     1.3300 H     1 <1>   0.0800 
 59 H        6.6460    11.6400    -0.1090 H     1 <1>   0.0800 
@<TRIPOS>BOND
  1   1   2  2   
  2   2   3  am  
  3   2   4  1   
  4   3   5  1   
  5   3   6  1   
  6   4   7  ar  
  7   4   8  ar  
  8   5   9  1   
  9   5  30  1   
 10   5  31  1   
 11   6  10  1   
 12   6  32  1   
 13   6  33  1   
 14   7  11  ar  
 15   8  12  ar  
 16   8  34  1   
 17   9  13  1   
 18   9  35  1   
 19   9  36  1   
 20  10  13  1   
 21  10  37  1   
 22  10  38  1   
 23  11  14  1   
 24  11  15  ar  
 25  12  15  ar  
 26  13  16  1   
 27  13  39  1   
 28  14  17  1   
 29  14  18  1   
 30  15  40  1   
 31  16  41  1   
 32  16  42  1   
 33  16  43  1   
 34  17  19  1   
 35  17  44  1   
 36  17  45  1   
 37  18  20  1   
 38  18  46  1   
 39  18  47  1   
 40  19  21  1   
 41  19  48  1   
 42  19  49  1   
 43  20  21  1   
 44  20  50  1   
 45  20  51  1   
 46  21  22  1   
 47  21  52  1   
 48  22  23  1   
 49  22  24  2   
 50  23  25  1   
 51  24  26  1   
 52  25  26  2   
 53  26  27  1   
 54  27  28  1   
 55  27  29  1   
 56  27  53  1   
 57  28  54  1   
 58  28  55  1   
 59  28  56  1   
 60  29  57  1   
 61  29  58  1   
 62  29  59  1   
@<TRIPOS>SUBSTRUCTURE
  1 ****  14 GROUP 4 **** **** 0

# MOE 2024.06 (io_trps.svl 2023.06)
