@<TRIPOS>MOLECULE
NONAME
49 50 1 0 0 
SMALL
USER_CHARGES


@<TRIPOS>ATOM
  1 S       -0.1070     0.7690     1.0760 S.o2  1 <1>   1.2040 
  2 O       -1.0400     1.4180     0.1830 O.2   1 <1>  -0.6500 
  3 O       -0.3280     0.8020     2.5040 O.2   1 <1>  -0.6500 
  4 C        1.5710     1.3320     0.7100 C.ar  1 <1>  -0.0090 
  5 C       -0.0310    -0.9450     0.5980 C.3   1 <1>  -0.1350 
  6 C        1.8990     1.8440    -0.5390 C.ar  1 <1>  -0.1500 
  7 C        2.5820     1.2420     1.6590 C.ar  1 <1>  -0.1500 
  8 C        3.1880     2.2540    -0.8300 C.ar  1 <1>  -0.1500 
  9 C        3.8730     1.6480     1.3740 C.ar  1 <1>  -0.1500 
 10 C        4.1900     2.1580     0.1250 C.ar  1 <1>  -0.1430 
 11 C        5.6140     2.6250    -0.1650 C.3   1 <1>   0.4330 
 12 N        5.5440     4.0760    -0.3790 N.pl3 1 <1>  -0.8690 
 13 C        6.2340     1.9650    -1.4050 C.3   1 <1>  -0.1600 
 14 C        6.4380     4.9580     0.1690 C.ar  1 <1>   0.4100 
 15 C        6.3230     0.4350    -1.2940 C.3   1 <1>  -0.2400 
 16 N        7.6270     4.4900     0.4820 N.ar  1 <1>  -0.6200 
 17 C        6.1000     6.2900     0.3810 C.ar  1 <1>  -0.1430 
 18 C        8.4720     5.3550     0.9990 C.ar  1 <1>   0.4770 
 19 C        7.0750     7.0860     0.9320 C.ar  1 <1>   0.1600 
 20 C        4.7030     6.7980     0.0050 C.3   1 <1>  -0.0170 
 21 N        8.2710     6.6340     1.2500 N.ar  1 <1>  -0.6200 
 22 C        9.8390     4.8230     1.3560 C.3   1 <1>  -0.0970 
 23 C        4.4460     8.2870     0.2840 C.3   1 <1>  -0.1600 
 24 C        3.0260     8.6920    -0.1230 C.3   1 <1>  -0.2400 
 25 H       -0.9810    -1.4130     0.7650 H     1 <1>   0.0800 
 26 H        0.7100    -1.4630     1.1750 H     1 <1>   0.0800 
 27 H        0.2140    -1.0340    -0.4430 H     1 <1>   0.0800 
 28 H        1.1340     1.9310    -1.2930 H     1 <1>   0.1500 
 29 H        2.3550     0.8550     2.6390 H     1 <1>   0.1500 
 30 H        3.4070     2.6520    -1.8070 H     1 <1>   0.1500 
 31 H        4.6310     1.5720     2.1360 H     1 <1>   0.1500 
 32 H        6.2360     2.4130     0.6880 H     1 <1>   0.0800 
 33 H        4.5750     4.3850    -0.4240 H     1 <1>   0.4000 
 34 H        7.2280     2.3600    -1.5280 H     1 <1>   0.0800 
 35 H        5.6660     2.2260    -2.2790 H     1 <1>   0.0800 
 36 H        6.9010     0.1540    -0.4310 H     1 <1>   0.0800 
 37 H        6.8010     0.0320    -2.1700 H     1 <1>   0.0800 
 38 H        5.3420     0.0000    -1.2130 H     1 <1>   0.0800 
 39 H        6.8950     8.1270     1.1280 H     1 <1>   0.1500 
 40 H        3.9760     6.2200     0.5500 H     1 <1>   0.0800 
 41 H        4.5490     6.6150    -1.0440 H     1 <1>   0.0800 
 42 H       10.0170     3.8860     0.8610 H     1 <1>   0.0800 
 43 H        9.8960     4.6790     2.4180 H     1 <1>   0.0800 
 44 H       10.5920     5.5250     1.0530 H     1 <1>   0.0800 
 45 H        5.1510     8.8850    -0.2690 H     1 <1>   0.0800 
 46 H        4.5770     8.4860     1.3340 H     1 <1>   0.0800 
 47 H        2.8730     8.5270    -1.1760 H     1 <1>   0.0800 
 48 H        2.8670     9.7360     0.0840 H     1 <1>   0.0800 
 49 H        2.2970     8.1220     0.4270 H     1 <1>   0.0800 
@<TRIPOS>BOND
  1   1   2  2   
  2   1   3  2   
  3   1   4  1   
  4   1   5  1   
  5   4   6  ar  
  6   4   7  ar  
  7   5  25  1   
  8   5  26  1   
  9   5  27  1   
 10   6   8  ar  
 11   6  28  1   
 12   7   9  ar  
 13   7  29  1   
 14   8  10  ar  
 15   8  30  1   
 16   9  10  ar  
 17   9  31  1   
 18  10  11  1   
 19  11  12  1   
 20  11  13  1   
 21  11  32  1   
 22  12  14  1   
 23  12  33  1   
 24  13  15  1   
 25  13  34  1   
 26  13  35  1   
 27  14  16  ar  
 28  14  17  ar  
 29  15  36  1   
 30  15  37  1   
 31  15  38  1   
 32  16  18  ar  
 33  17  19  ar  
 34  17  20  1   
 35  18  21  ar  
 36  18  22  1   
 37  19  21  ar  
 38  19  39  1   
 39  20  23  1   
 40  20  40  1   
 41  20  41  1   
 42  22  42  1   
 43  22  43  1   
 44  22  44  1   
 45  23  24  1   
 46  23  45  1   
 47  23  46  1   
 48  24  47  1   
 49  24  48  1   
 50  24  49  1   
@<TRIPOS>SUBSTRUCTURE
  1 ****  10 GROUP 4 **** **** 0

# MOE 2024.06 (io_trps.svl 2023.06)
