@<TRIPOS>MOLECULE
NONAME
40 41 1 0 0 
SMALL
USER_CHARGES


@<TRIPOS>ATOM
  1 CL      -0.7320    -2.0290     2.2510 Cl    1 <1>  -0.1770 
  2 C       -2.1090    -2.1830     1.1820 C.ar  1 <1>   0.1770 
  3 C       -2.8780    -1.0750     0.8440 C.ar  1 <1>   0.0820 
  4 C       -2.4210    -3.4310     0.6800 C.ar  1 <1>  -0.1500 
  5 O       -2.6050     0.1580     1.3220 O.3   1 <1>  -0.3630 
  6 C       -3.9720    -1.2350     0.0090 C.ar  1 <1>  -0.1500 
  7 C       -3.5100    -3.5710    -0.1650 C.ar  1 <1>  -0.1500 
  8 C       -1.5810     0.8680     0.6690 C.3   1 <1>   0.1200 
  9 C       -4.3020    -2.4790    -0.5170 C.ar  1 <1>  -0.0090 
 10 C       -1.4520     2.2330     1.3380 C.3   1 <1>  -0.2400 
 11 S       -5.7460    -2.6760    -1.6040 S.o2  1 <1>   1.4470 
 12 O       -5.9490    -1.4380    -2.3290 O.2   1 <1>  -0.6500 
 13 O       -5.6340    -3.9000    -2.3670 O.2   1 <1>  -0.6500 
 14 N       -7.0690    -2.8360    -0.5570 N.am  1 <1>  -0.8490 
 15 C       -6.9410    -3.9450     0.4200 C.3   1 <1>   0.1960 
 16 C       -8.3310    -2.8410    -1.3170 C.3   1 <1>   0.1960 
 17 C       -7.7000    -5.1900    -0.0210 C.3   1 <1>  -0.1860 
 18 C       -9.4910    -3.4230    -0.5040 C.3   1 <1>  -0.1600 
 19 C       -7.2960    -6.3580     0.8550 C.2   1 <1>   0.9060 
 20 C       -9.2070    -4.8730    -0.0800 C.3   1 <1>   0.2000 
 21 O       -6.0910    -6.6000     0.9700 O.co2 1 <1>  -0.9000 
 22 O       -8.1590    -7.0260     1.4390 O.co2 1 <1>  -0.9000 
 23 O       -9.7720    -5.0420     1.1640 O.3   1 <1>  -0.6800 
 24 H       -1.8260    -4.2850     0.9510 H     1 <1>   0.1500 
 25 H       -4.5750    -0.3770    -0.2340 H     1 <1>   0.1500 
 26 H       -3.7590    -4.5510    -0.5470 H     1 <1>   0.1500 
 27 H       -0.6630     0.3120     0.7550 H     1 <1>   0.0800 
 28 H       -1.8470     0.9730    -0.3690 H     1 <1>   0.0800 
 29 H       -1.1980     2.1110     2.3760 H     1 <1>   0.0800 
 30 H       -2.3770     2.7740     1.2560 H     1 <1>   0.0800 
 31 H       -0.6760     2.8010     0.8590 H     1 <1>   0.0800 
 32 H       -5.9100    -4.1890     0.5940 H     1 <1>   0.0800 
 33 H       -7.3460    -3.6220     1.3640 H     1 <1>   0.0800 
 34 H       -8.5620    -1.8320    -1.6170 H     1 <1>   0.0800 
 35 H       -8.2140    -3.4320    -2.2110 H     1 <1>   0.0800 
 36 H       -7.3650    -5.4500    -1.0060 H     1 <1>   0.0800 
 37 H      -10.3890    -3.3980    -1.0920 H     1 <1>   0.0800 
 38 H       -9.6370    -2.7980     0.3600 H     1 <1>   0.0800 
 39 H       -9.6860    -5.5720    -0.7450 H     1 <1>   0.0800 
 40 H       -9.3700    -5.8910     1.5250 H     1 <1>   0.4000 
@<TRIPOS>BOND
  1   1   2  1   
  2   2   3  ar  
  3   2   4  ar  
  4   3   5  1   
  5   3   6  ar  
  6   4   7  ar  
  7   4  24  1   
  8   5   8  1   
  9   6   9  ar  
 10   6  25  1   
 11   7   9  ar  
 12   7  26  1   
 13   8  10  1   
 14   8  27  1   
 15   8  28  1   
 16   9  11  1   
 17  10  29  1   
 18  10  30  1   
 19  10  31  1   
 20  11  12  2   
 21  11  13  2   
 22  11  14  am  
 23  14  15  1   
 24  14  16  1   
 25  15  17  1   
 26  15  32  1   
 27  15  33  1   
 28  16  18  1   
 29  16  34  1   
 30  16  35  1   
 31  17  19  1   
 32  17  20  1   
 33  17  36  1   
 34  18  20  1   
 35  18  37  1   
 36  18  38  1   
 37  19  21  ar  
 38  19  22  ar  
 39  20  23  1   
 40  20  39  1   
 41  23  40  1   
@<TRIPOS>SUBSTRUCTURE
  1 ****   9 GROUP 4 **** **** 0

# MOE 2024.06 (io_trps.svl 2023.06)
