@<TRIPOS>MOLECULE
NONAME
51 52 1 0 0 
SMALL
USER_CHARGES


@<TRIPOS>ATOM
  1 O       -0.6140    -0.0800     1.8840 O.2   1 <1>  -0.5700 
  2 C       -1.3940     0.5090     1.1660 C.2   1 <1>   0.5440 
  3 N       -2.1160    -0.2010     0.2250 N.am  1 <1>  -0.6600 
  4 C       -1.5960     1.9320     1.3580 C.ar  1 <1>   0.0860 
  5 C       -2.0860    -1.6950     0.2240 C.3   1 <1>   0.3200 
  6 C       -3.0430     0.4460    -0.7590 C.3   1 <1>   0.1400 
  7 C       -1.2710     2.8640     0.3760 C.ar  1 <1>  -0.1500 
  8 C       -2.1640     2.4090     2.5400 C.ar  1 <1>  -0.1500 
  9 C       -3.5130    -2.1950     0.3410 C.2   1 <1>  -0.3320 
 10 C       -4.3580     0.8720    -0.0740 C.3   1 <1>   0.3430 
 11 C       -1.5640     4.2040     0.5380 C.ar  1 <1>   0.0830 
 12 C       -2.4410     3.7530     2.7180 C.ar  1 <1>  -0.1500 
 13 N       -4.1480    -2.9460    -0.5810 N.pl3 1 <1>   0.0330 
 14 C       -4.4010    -1.9800     1.3360 C.2   1 <1>   0.0770 
 15 N       -5.1170     1.9240    -0.8310 N.4   1 <1>  -0.9590 
 16 O       -1.3000     5.0380    -0.4880 O.3   1 <1>  -0.3620 
 17 C       -2.1520     4.6560     1.7110 C.ar  1 <1>  -0.1500 
 18 C       -5.4010    -3.0980    -0.1020 C.2   1 <1>   0.0360 
 19 N       -5.5980    -2.5150     1.0360 N.2   1 <1>  -0.5650 
 20 C       -4.4330     3.2590    -0.7800 C.3   1 <1>   0.2630 
 21 C       -6.4980     2.0320    -0.2670 C.3   1 <1>   0.2630 
 22 C       -0.4580     6.1510    -0.2690 C.3   1 <1>   0.2000 
 23 C       -0.6550     7.1050    -1.4440 C.3   1 <1>  -0.2400 
 24 C        0.9890     5.6630    -0.1830 C.3   1 <1>  -0.2400 
 25 H       -1.5100    -2.0780     1.0500 H     1 <1>   0.0800 
 26 H       -1.6290    -2.0420    -0.6870 H     1 <1>   0.0800 
 27 H       -3.2620    -0.2450    -1.5540 H     1 <1>   0.0800 
 28 H       -2.5520     1.2930    -1.1970 H     1 <1>   0.0800 
 29 H       -0.7830     2.5430    -0.5270 H     1 <1>   0.1500 
 30 H       -2.3840     1.7080     3.3290 H     1 <1>   0.1500 
 31 H       -4.1320     1.2450     0.9110 H     1 <1>   0.0800 
 32 H       -4.9780    -0.0020     0.0370 H     1 <1>   0.0800 
 33 H       -2.8780     4.0960     3.6410 H     1 <1>   0.1500 
 34 H       -3.7730    -3.3450    -1.4480 H     1 <1>   0.2700 
 35 H       -4.2410    -1.4480     2.2600 H     1 <1>   0.1500 
 36 H       -5.2010     1.6270    -1.8160 H     1 <1>   0.4500 
 37 H       -2.3820     5.6980     1.8410 H     1 <1>   0.1500 
 38 H       -6.1520    -3.6610    -0.6310 H     1 <1>   0.1500 
 39 H       -4.3030     3.5750     0.2430 H     1 <1>   0.0800 
 40 H       -5.0190     4.0010    -1.2970 H     1 <1>   0.0800 
 41 H       -3.4620     3.2100    -1.2460 H     1 <1>   0.0800 
 42 H       -6.4580     2.3440     0.7640 H     1 <1>   0.0800 
 43 H       -6.9990     1.0780    -0.3170 H     1 <1>   0.0800 
 44 H       -7.0760     2.7530    -0.8230 H     1 <1>   0.0800 
 45 H       -0.7450     6.6400     0.6460 H     1 <1>   0.0800 
 46 H       -0.3890     6.6250    -2.3680 H     1 <1>   0.0800 
 47 H       -0.0320     7.9730    -1.3180 H     1 <1>   0.0800 
 48 H       -1.6790     7.4280    -1.4890 H     1 <1>   0.0800 
 49 H        1.2640     5.1400    -1.0810 H     1 <1>   0.0800 
 50 H        1.1160     5.0120     0.6630 H     1 <1>   0.0800 
 51 H        1.6500     6.5020    -0.0600 H     1 <1>   0.0800 
@<TRIPOS>BOND
  1   1   2  2   
  2   2   3  am  
  3   2   4  1   
  4   3   5  1   
  5   3   6  1   
  6   4   7  ar  
  7   4   8  ar  
  8   5   9  1   
  9   5  25  1   
 10   5  26  1   
 11   6  10  1   
 12   6  27  1   
 13   6  28  1   
 14   7  11  ar  
 15   7  29  1   
 16   8  12  ar  
 17   8  30  1   
 18   9  13  1   
 19   9  14  2   
 20  10  15  1   
 21  10  31  1   
 22  10  32  1   
 23  11  16  1   
 24  11  17  ar  
 25  12  17  ar  
 26  12  33  1   
 27  13  18  1   
 28  13  34  1   
 29  14  19  1   
 30  14  35  1   
 31  15  20  1   
 32  15  21  1   
 33  15  36  1   
 34  16  22  1   
 35  17  37  1   
 36  18  19  2   
 37  18  38  1   
 38  20  39  1   
 39  20  40  1   
 40  20  41  1   
 41  21  42  1   
 42  21  43  1   
 43  21  44  1   
 44  22  23  1   
 45  22  24  1   
 46  22  45  1   
 47  23  46  1   
 48  23  47  1   
 49  23  48  1   
 50  24  49  1   
 51  24  50  1   
 52  24  51  1   
@<TRIPOS>SUBSTRUCTURE
  1 ****   4 GROUP 4 **** **** 0

# MOE 2024.06 (io_trps.svl 2023.06)
