@<TRIPOS>MOLECULE
NONAME
62 64 1 0 0 
SMALL
USER_CHARGES


@<TRIPOS>ATOM
  1 O       -0.4420     0.4260    -0.3540 O.2   1 <1>  -0.5700 
  2 C       -1.5520     0.7700     0.0060 C.2   1 <1>   0.5440 
  3 N       -2.5580    -0.1860     0.0650 N.am  1 <1>  -0.6600 
  4 C       -1.7450     2.1630     0.3500 C.ar  1 <1>   0.0860 
  5 C       -4.0290     0.0310    -0.1210 C.3   1 <1>   0.2200 
  6 C       -2.1830    -1.6320     0.0840 C.3   1 <1>   0.0600 
  7 C       -1.9020     3.1300    -0.6400 C.ar  1 <1>  -0.1500 
  8 C       -1.7610     2.5860     1.6800 C.ar  1 <1>  -0.1500 
  9 C       -4.3720     0.8120    -1.3910 C.3   1 <1>  -0.1600 
 10 C       -4.6990     0.7350     1.0590 C.3   1 <1>  -0.1600 
 11 C       -2.1750     4.4520    -0.3250 C.ar  1 <1>   0.0820 
 12 C       -2.0030     3.9070     2.0110 C.ar  1 <1>  -0.1500 
 13 C       -5.5320     1.7580    -1.0440 C.3   1 <1>  -0.0800 
 14 C       -5.6860     1.7620     0.4780 C.3   1 <1>  -0.0800 
 15 O       -2.4380     5.3660    -1.2970 O.3   1 <1>  -0.3630 
 16 C       -2.2370     4.8390     1.0150 C.ar  1 <1>   0.0820 
 17 C       -5.3270     3.2150    -1.4940 C.3   1 <1>  -0.1600 
 18 C       -5.4490     3.2010     0.9530 C.3   1 <1>  -0.1600 
 19 C       -1.6340     5.3720    -2.4570 C.3   1 <1>   0.1200 
 20 O       -2.5660     6.0960     1.3800 O.3   1 <1>  -0.3620 
 21 C       -5.5090     4.1180    -0.2670 C.3   1 <1>   0.4230 
 22 C       -1.8880     6.6820    -3.1970 C.3   1 <1>  -0.2400 
 23 C       -1.5920     7.0930     1.1710 C.3   1 <1>   0.1200 
 24 N       -6.7950     4.8780    -0.2840 N.4   1 <1>  -0.9590 
 25 C       -2.1320     8.4070     1.7280 C.3   1 <1>  -0.2400 
 26 C       -8.0180     4.0350    -0.4780 C.3   1 <1>   0.2630 
 27 C       -6.7260     5.9840    -1.2870 C.3   1 <1>   0.2630 
 28 H       -4.5080    -0.9300    -0.2180 H     1 <1>   0.0800 
 29 H       -2.8100    -2.1670     0.7760 H     1 <1>   0.0800 
 30 H       -1.1600    -1.7560     0.3940 H     1 <1>   0.0800 
 31 H       -2.2980    -2.0480    -0.9010 H     1 <1>   0.0800 
 32 H       -1.8230     2.8150    -1.6630 H     1 <1>   0.1500 
 33 H       -1.5860     1.8600     2.4560 H     1 <1>   0.1500 
 34 H       -3.5170     1.3370    -1.7600 H     1 <1>   0.0800 
 35 H       -4.6790     0.1240    -2.1600 H     1 <1>   0.0800 
 36 H       -5.2360     0.0080     1.6410 H     1 <1>   0.0800 
 37 H       -3.9720     1.1850     1.7040 H     1 <1>   0.0800 
 38 H       -2.0240     4.2180     3.0410 H     1 <1>   0.1500 
 39 H       -6.4380     1.3690    -1.4790 H     1 <1>   0.0800 
 40 H       -6.6920     1.4660     0.7260 H     1 <1>   0.0800 
 41 H       -5.9890     3.4660    -2.3020 H     1 <1>   0.0800 
 42 H       -4.3280     3.3570    -1.8570 H     1 <1>   0.0800 
 43 H       -4.4640     3.2850     1.3590 H     1 <1>   0.0800 
 44 H       -6.1380     3.4840     1.7280 H     1 <1>   0.0800 
 45 H       -0.6010     5.2960    -2.1600 H     1 <1>   0.0800 
 46 H       -1.9040     4.5320    -3.0730 H     1 <1>   0.0800 
 47 H       -4.6930     4.8220    -0.2140 H     1 <1>   0.0800 
 48 H       -1.6280     7.5170    -2.5710 H     1 <1>   0.0800 
 49 H       -2.9200     6.7540    -3.4860 H     1 <1>   0.0800 
 50 H       -1.2810     6.7190    -4.0840 H     1 <1>   0.0800 
 51 H       -0.6920     6.8000     1.6840 H     1 <1>   0.0800 
 52 H       -1.3980     7.1760     0.1170 H     1 <1>   0.0800 
 53 H       -6.8590     5.3170     0.6460 H     1 <1>   0.4500 
 54 H       -2.3320     8.3090     2.7800 H     1 <1>   0.0800 
 55 H       -3.0330     8.6850     1.2130 H     1 <1>   0.0800 
 56 H       -1.4040     9.1850     1.5890 H     1 <1>   0.0800 
 57 H       -7.9950     3.5550    -1.4420 H     1 <1>   0.0800 
 58 H       -8.9050     4.6440    -0.4170 H     1 <1>   0.0800 
 59 H       -8.0720     3.2740     0.2830 H     1 <1>   0.0800 
 60 H       -6.6550     5.5830    -2.2850 H     1 <1>   0.0800 
 61 H       -5.8600     6.6000    -1.1020 H     1 <1>   0.0800 
 62 H       -7.6080     6.6020    -1.2250 H     1 <1>   0.0800 
@<TRIPOS>BOND
  1   1   2  2   
  2   2   3  am  
  3   2   4  1   
  4   3   5  1   
  5   3   6  1   
  6   4   7  ar  
  7   4   8  ar  
  8   5   9  1   
  9   5  10  1   
 10   5  28  1   
 11   6  29  1   
 12   6  30  1   
 13   6  31  1   
 14   7  11  ar  
 15   7  32  1   
 16   8  12  ar  
 17   8  33  1   
 18   9  13  1   
 19   9  34  1   
 20   9  35  1   
 21  10  14  1   
 22  10  36  1   
 23  10  37  1   
 24  11  15  1   
 25  11  16  ar  
 26  12  16  ar  
 27  12  38  1   
 28  13  14  1   
 29  13  17  1   
 30  13  39  1   
 31  14  18  1   
 32  14  40  1   
 33  15  19  1   
 34  16  20  1   
 35  17  21  1   
 36  17  41  1   
 37  17  42  1   
 38  18  21  1   
 39  18  43  1   
 40  18  44  1   
 41  19  22  1   
 42  19  45  1   
 43  19  46  1   
 44  20  23  1   
 45  21  24  1   
 46  21  47  1   
 47  22  48  1   
 48  22  49  1   
 49  22  50  1   
 50  23  25  1   
 51  23  51  1   
 52  23  52  1   
 53  24  26  1   
 54  24  27  1   
 55  24  53  1   
 56  25  54  1   
 57  25  55  1   
 58  25  56  1   
 59  26  57  1   
 60  26  58  1   
 61  26  59  1   
 62  27  60  1   
 63  27  61  1   
 64  27  62  1   
@<TRIPOS>SUBSTRUCTURE
  1 ****   7 GROUP 4 **** **** 0

# MOE 2024.06 (io_trps.svl 2023.06)
