@<TRIPOS>MOLECULE
NONAME
55 59 1 0 0 
SMALL
USER_CHARGES


@<TRIPOS>ATOM
  1 O        0.4200    -0.4130    -1.1670 O.3   1 <1>  -0.5600 
  2 C        1.5620    -0.8930    -0.4890 C.3   1 <1>   0.4600 
  3 C       -0.8540    -0.8120    -0.7160 C.3   1 <1>   0.1200 
  4 C        1.3220    -2.3290    -0.0320 C.2   1 <1>  -0.3320 
  5 C        2.6930    -0.8460    -1.5290 C.3   1 <1>  -0.1600 
  6 C        1.8290     0.0250     0.7130 C.3   1 <1>  -0.1600 
  7 C       -1.0350    -2.3340    -0.8310 C.3   1 <1>   0.0210 
  8 N        2.2250    -3.1490     0.5870 N.pl3 1 <1>   0.0330 
  9 C        0.1590    -2.9930    -0.1890 C.2   1 <1>  -0.1810 
 10 C        4.0380    -0.4620    -0.9160 C.3   1 <1>   0.2090 
 11 C        2.6050     1.2650     0.2850 C.3   1 <1>   0.2090 
 12 C        1.6160    -4.3580     0.8160 C.ar  1 <1>  -0.1520 
 13 C        0.3120    -4.2930     0.3340 C.ar  1 <1>   0.0000 
 14 N        3.9560     0.8640    -0.2220 N.pl3 1 <1>  -0.8380 
 15 C        2.1010    -5.5240     1.4130 C.ar  1 <1>  -0.1500 
 16 C       -0.5240    -5.4090     0.4450 C.ar  1 <1>  -0.1500 
 17 C        5.0820     1.6110    -0.0140 C.ar  1 <1>   0.4100 
 18 C        1.2680    -6.6140     1.5180 C.ar  1 <1>  -0.1500 
 19 C       -0.0450    -6.5570     1.0330 C.ar  1 <1>  -0.1500 
 20 N        6.2470     0.9640    -0.0350 N.ar  1 <1>  -0.6200 
 21 C        5.0250     2.9820     0.2040 C.ar  1 <1>  -0.1500 
 22 C        7.3420     1.6540     0.1780 C.ar  1 <1>   0.7710 
 23 C        6.1810     3.6850     0.4110 C.ar  1 <1>   0.4610 
 24 N        7.3240     2.9820     0.3910 N.ar  1 <1>  -0.1790 
 25 N        8.5550     1.0260     0.1730 N.pl3 1 <1>  -0.8380 
 26 N        6.2210     5.0250     0.6240 N.pl3 1 <1>  -0.9000 
 27 C        8.7200    -0.3100    -0.4860 C.3   1 <1>   0.1290 
 28 C        9.7490     1.4270     0.9820 C.3   1 <1>   0.1290 
 29 H       -1.5880    -0.3050    -1.3160 H     1 <1>   0.0800 
 30 H       -0.9690    -0.5030     0.3070 H     1 <1>   0.0800 
 31 H        2.4630    -0.1180    -2.2870 H     1 <1>   0.0800 
 32 H        2.7780    -1.8000    -2.0150 H     1 <1>   0.0800 
 33 H        2.4130    -0.4930     1.4510 H     1 <1>   0.0800 
 34 H        0.9060     0.3070     1.1810 H     1 <1>   0.0800 
 35 H       -1.1010    -2.6220    -1.8640 H     1 <1>   0.0800 
 36 H       -1.9370    -2.6310    -0.3290 H     1 <1>   0.0800 
 37 H        3.1870    -2.9170     0.8530 H     1 <1>   0.2700 
 38 H        4.7790    -0.4170    -1.6970 H     1 <1>   0.0800 
 39 H        4.3470    -1.2110    -0.2070 H     1 <1>   0.0800 
 40 H        2.7060     1.9210     1.1320 H     1 <1>   0.0800 
 41 H        2.0650     1.7820    -0.4920 H     1 <1>   0.0800 
 42 H        3.1100    -5.5610     1.7830 H     1 <1>   0.1500 
 43 H       -1.5280    -5.3500     0.0680 H     1 <1>   0.1500 
 44 H        1.6180    -7.5240     1.9730 H     1 <1>   0.1500 
 45 H       -0.6760    -7.4230     1.1260 H     1 <1>   0.1500 
 46 H        4.0820     3.4900     0.1950 H     1 <1>   0.1500 
 47 H        8.2210     3.4310     0.4620 H     1 <1>   0.4570 
 48 H        7.0560     5.5980     0.7870 H     1 <1>   0.4000 
 49 H        5.3620     5.5920     0.6300 H     1 <1>   0.4000 
 50 H        7.9770    -0.4570    -1.2520 H     1 <1>   0.0800 
 51 H        8.6200    -1.0930     0.2460 H     1 <1>   0.0800 
 52 H        9.6920    -0.3810    -0.9450 H     1 <1>   0.0800 
 53 H        9.5030     2.1870     1.7020 H     1 <1>   0.0800 
 54 H       10.5300     1.7870     0.3320 H     1 <1>   0.0800 
 55 H       10.1250     0.5730     1.5230 H     1 <1>   0.0800 
@<TRIPOS>BOND
  1   1   2  1   
  2   1   3  1   
  3   2   4  1   
  4   2   5  1   
  5   2   6  1   
  6   3   7  1   
  7   3  29  1   
  8   3  30  1   
  9   4   8  1   
 10   4   9  2   
 11   5  10  1   
 12   5  31  1   
 13   5  32  1   
 14   6  11  1   
 15   6  33  1   
 16   6  34  1   
 17   7   9  1   
 18   7  35  1   
 19   7  36  1   
 20   8  12  1   
 21   8  37  1   
 22   9  13  1   
 23  10  14  1   
 24  10  38  1   
 25  10  39  1   
 26  11  14  1   
 27  11  40  1   
 28  11  41  1   
 29  12  13  ar  
 30  12  15  ar  
 31  13  16  ar  
 32  14  17  1   
 33  15  18  ar  
 34  15  42  1   
 35  16  19  ar  
 36  16  43  1   
 37  17  20  ar  
 38  17  21  ar  
 39  18  19  ar  
 40  18  44  1   
 41  19  45  1   
 42  20  22  ar  
 43  21  23  ar  
 44  21  46  1   
 45  22  24  ar  
 46  22  25  1   
 47  23  24  ar  
 48  23  26  1   
 49  24  47  1   
 50  25  27  1   
 51  25  28  1   
 52  26  48  1   
 53  26  49  1   
 54  27  50  1   
 55  27  51  1   
 56  27  52  1   
 57  28  53  1   
 58  28  54  1   
 59  28  55  1   
@<TRIPOS>SUBSTRUCTURE
  1 ****  10 GROUP 4 **** **** 0

# MOE 2024.06 (io_trps.svl 2023.06)
