@<TRIPOS>MOLECULE
NONAME
48 51 1 0 0 
SMALL
USER_CHARGES


@<TRIPOS>ATOM
  1 F        1.6570    -1.4260     0.3410 F     1 <1>  -0.3400 
  2 C        0.7620    -1.7710     1.2570 C.3   1 <1>   0.8800 
  3 F        1.4210    -1.8370     2.4040 F     1 <1>  -0.3400 
  4 O        0.2870    -3.0640     0.9580 O.3   1 <1>  -0.3630 
  5 C       -0.6020    -3.2750    -0.0430 C.ar  1 <1>   0.0830 
  6 C       -1.0210    -4.5800    -0.2220 C.ar  1 <1>  -0.1500 
  7 C       -1.1000    -2.2730    -0.8710 C.ar  1 <1>  -0.1500 
  8 C       -1.9500    -4.9290    -1.2020 C.ar  1 <1>   0.0860 
  9 C       -2.0130    -2.5960    -1.8580 C.ar  1 <1>  -0.1500 
 10 C       -2.4070    -6.2990    -1.3670 C.2   1 <1>   0.5440 
 11 C       -2.4290    -3.9050    -2.0200 C.ar  1 <1>  -0.1500 
 12 O       -2.8760    -6.6840    -2.4210 O.2   1 <1>  -0.5700 
 13 N       -2.4050    -7.1990    -0.3260 N.am  1 <1>  -0.6600 
 14 C       -3.1390    -6.8860     0.9340 C.3   1 <1>   0.1400 
 15 C       -2.3390    -8.6570    -0.6290 C.3   1 <1>   0.1400 
 16 C       -4.5630    -7.4980     0.9220 C.3   1 <1>   0.4230 
 17 C       -3.7610    -9.2380    -0.7050 C.3   1 <1>   0.3430 
 18 N       -4.5500    -8.9740     0.5590 N.4   1 <1>  -0.9590 
 19 C       -5.5000    -6.7050    -0.0230 C.3   1 <1>   0.1200 
 20 C       -5.9610    -9.4790     0.4830 C.3   1 <1>   0.5180 
 21 O       -6.7860    -7.2590    -0.0080 O.3   1 <1>  -0.5600 
 22 C       -5.9690   -10.9500     0.0500 C.3   1 <1>  -0.1950 
 23 C       -6.8480    -8.5960    -0.4230 C.3   1 <1>   0.1200 
 24 C       -6.9360   -11.9090     0.6720 C.3   1 <1>  -0.2000 
 25 C       -5.4660   -12.0390     0.9480 C.3   1 <1>  -0.2000 
 26 H       -0.0170    -1.0340     1.3220 H     1 <1>   0.0800 
 27 H       -0.6050    -5.3410     0.4130 H     1 <1>   0.1500 
 28 H       -0.7920    -1.2480    -0.7800 H     1 <1>   0.1500 
 29 H       -2.3970    -1.8270    -2.5080 H     1 <1>   0.1500 
 30 H       -3.1360    -4.1420    -2.7980 H     1 <1>   0.1500 
 31 H       -2.5860    -7.2770     1.7700 H     1 <1>   0.0800 
 32 H       -3.2100    -5.8190     1.0680 H     1 <1>   0.0800 
 33 H       -1.8400    -8.8110    -1.5720 H     1 <1>   0.0800 
 34 H       -1.7670    -9.1620     0.1300 H     1 <1>   0.0800 
 35 H       -4.9670    -7.3870     1.9140 H     1 <1>   0.0800 
 36 H       -3.6930   -10.2980    -0.8850 H     1 <1>   0.0800 
 37 H       -4.2580    -8.7900    -1.5500 H     1 <1>   0.0800 
 38 H       -4.0960    -9.4920     1.3180 H     1 <1>   0.4500 
 39 H       -5.1380    -6.7040    -1.0370 H     1 <1>   0.0800 
 40 H       -5.5850    -5.6840     0.3070 H     1 <1>   0.0800 
 41 H       -6.3870    -9.4340     1.4730 H     1 <1>   0.0800 
 42 H       -5.8380   -11.0700    -1.0120 H     1 <1>   0.1000 
 43 H       -7.8740    -8.9120    -0.3540 H     1 <1>   0.0800 
 44 H       -6.5410    -8.6540    -1.4530 H     1 <1>   0.0800 
 45 H       -7.5760   -11.5920     1.4790 H     1 <1>   0.1000 
 46 H       -7.4040   -12.6580     0.0550 H     1 <1>   0.1000 
 47 H       -4.9480   -12.8820     0.5200 H     1 <1>   0.1000 
 48 H       -5.1330   -11.8270     1.9500 H     1 <1>   0.1000 
@<TRIPOS>BOND
  1   1   2  1   
  2   2   3  1   
  3   2   4  1   
  4   2  26  1   
  5   4   5  1   
  6   5   6  ar  
  7   5   7  ar  
  8   6   8  ar  
  9   6  27  1   
 10   7   9  ar  
 11   7  28  1   
 12   8  10  1   
 13   8  11  ar  
 14   9  11  ar  
 15   9  29  1   
 16  10  12  2   
 17  10  13  am  
 18  11  30  1   
 19  13  14  1   
 20  13  15  1   
 21  14  16  1   
 22  14  31  1   
 23  14  32  1   
 24  15  17  1   
 25  15  33  1   
 26  15  34  1   
 27  16  18  1   
 28  16  19  1   
 29  16  35  1   
 30  17  18  1   
 31  17  36  1   
 32  17  37  1   
 33  18  20  1   
 34  18  38  1   
 35  19  21  1   
 36  19  39  1   
 37  19  40  1   
 38  20  22  1   
 39  20  23  1   
 40  20  41  1   
 41  21  23  1   
 42  22  24  1   
 43  22  25  1   
 44  22  42  1   
 45  23  43  1   
 46  23  44  1   
 47  24  25  1   
 48  24  45  1   
 49  24  46  1   
 50  25  47  1   
 51  25  48  1   
@<TRIPOS>SUBSTRUCTURE
  1 ****  13 GROUP 4 **** **** 0

# MOE 2024.06 (io_trps.svl 2023.06)
