@<TRIPOS>MOLECULE
NONAME
56 59 1 0 0 
SMALL
USER_CHARGES


@<TRIPOS>ATOM
  1 S       -0.1280     0.5780    -2.7670 S.o2  1 <1>   1.4470 
  2 O        0.2470     1.9680    -2.9240 O.2   1 <1>  -0.6500 
  3 O       -0.3830    -0.2250    -3.9430 O.2   1 <1>  -0.6500 
  4 N       -1.5360     0.5460    -1.8210 N.am  1 <1>  -0.8490 
  5 C        1.0890    -0.2780    -1.7260 C.ar  1 <1>  -0.0090 
  6 C       -2.7170     0.8780    -2.6220 C.3   1 <1>   0.1960 
  7 C       -1.4450     1.4530    -0.6740 C.3   1 <1>   0.1960 
  8 C        0.8090    -1.5220    -1.1740 C.ar  1 <1>  -0.1500 
  9 C        2.3320     0.2810    -1.4550 C.ar  1 <1>  -0.1500 
 10 C       -3.9820     0.6670    -1.7880 C.3   1 <1>  -0.1600 
 11 C       -2.6570     1.2530     0.2400 C.3   1 <1>  -0.1600 
 12 C        1.7320    -2.1800    -0.3810 C.ar  1 <1>  -0.1500 
 13 C        3.2570    -0.3760    -0.6640 C.ar  1 <1>  -0.1500 
 14 C       -3.9790     1.5120    -0.5070 C.3   1 <1>   0.2800 
 15 C        2.9750    -1.6200    -0.1110 C.ar  1 <1>   0.0000 
 16 O       -3.9880     2.8400    -0.9420 O.3   1 <1>  -0.5600 
 17 C       -5.2360     1.1800     0.3430 C.3   1 <1>  -0.1600 
 18 C        3.9430    -2.3090     0.7130 C.ar  1 <1>   0.0000 
 19 C       -4.2040     3.9030    -0.0430 C.3   1 <1>   0.1200 
 20 C       -6.1080     2.3880     0.7250 C.3   1 <1>   0.2800 
 21 C        4.4680    -1.7130     1.8570 C.ar  1 <1>  -0.1500 
 22 C        4.3780    -3.5900     0.3860 C.ar  1 <1>  -0.1500 
 23 C       -5.2050     3.5880     1.0870 C.3   1 <1>   0.2000 
 24 O       -6.8840     2.7290    -0.3680 O.3   1 <1>  -0.6800 
 25 C       -7.1050     2.0320     1.8330 C.3   1 <1>  -0.2400 
 26 C        5.3940    -2.3710     2.6460 C.ar  1 <1>  -0.1500 
 27 C        5.3040    -4.2540     1.1710 C.ar  1 <1>  -0.1500 
 28 O       -4.4870     3.3220     2.2570 O.3   1 <1>  -0.6800 
 29 C        5.8130    -3.6450     2.3040 C.ar  1 <1>  -0.1500 
 30 H       -2.6590     1.9000    -2.9630 H     1 <1>   0.0800 
 31 H       -2.7660     0.2380    -3.4870 H     1 <1>   0.0800 
 32 H       -0.5480     1.2470    -0.1160 H     1 <1>   0.0800 
 33 H       -1.4030     2.4770    -1.0130 H     1 <1>   0.0800 
 34 H       -0.1470    -1.9780    -1.3720 H     1 <1>   0.1500 
 35 H        2.5810     1.2430    -1.8730 H     1 <1>   0.1500 
 36 H       -4.0500    -0.3770    -1.5390 H     1 <1>   0.0800 
 37 H       -4.8430     0.9200    -2.3790 H     1 <1>   0.0800 
 38 H       -2.5630     1.9000     1.0890 H     1 <1>   0.0800 
 39 H       -2.6380     0.2400     0.6000 H     1 <1>   0.0800 
 40 H        1.4880    -3.1410     0.0370 H     1 <1>   0.1500 
 41 H        4.2160     0.0760    -0.4750 H     1 <1>   0.1500 
 42 H       -5.8490     0.4480    -0.1520 H     1 <1>   0.0800 
 43 H       -4.9070     0.7040     1.2480 H     1 <1>   0.0800 
 44 H       -3.2560     4.2160     0.3570 H     1 <1>   0.0800 
 45 H       -4.6010     4.7090    -0.6330 H     1 <1>   0.0800 
 46 H        4.1440    -0.7250     2.1310 H     1 <1>   0.1500 
 47 H        3.9900    -4.0670    -0.4970 H     1 <1>   0.1500 
 48 H       -5.8080     4.4550     1.2910 H     1 <1>   0.0800 
 49 H       -7.4420     1.9750    -0.6280 H     1 <1>   0.4000 
 50 H       -6.5840     1.7510     2.7300 H     1 <1>   0.0800 
 51 H       -7.7310     1.2090     1.5380 H     1 <1>   0.0800 
 52 H       -7.7200     2.8830     2.0620 H     1 <1>   0.0800 
 53 H        5.7880    -1.8950     3.5270 H     1 <1>   0.1500 
 54 H        5.6290    -5.2440     0.9010 H     1 <1>   0.1500 
 55 H       -3.9400     2.5260     2.1310 H     1 <1>   0.4000 
 56 H        6.5330    -4.1590     2.9160 H     1 <1>   0.1500 
@<TRIPOS>BOND
  1   1   2  2   
  2   1   3  2   
  3   1   4  am  
  4   1   5  1   
  5   4   6  1   
  6   4   7  1   
  7   5   8  ar  
  8   5   9  ar  
  9   6  10  1   
 10   6  30  1   
 11   6  31  1   
 12   7  11  1   
 13   7  32  1   
 14   7  33  1   
 15   8  12  ar  
 16   8  34  1   
 17   9  13  ar  
 18   9  35  1   
 19  10  14  1   
 20  10  36  1   
 21  10  37  1   
 22  11  14  1   
 23  11  38  1   
 24  11  39  1   
 25  12  15  ar  
 26  12  40  1   
 27  13  15  ar  
 28  13  41  1   
 29  14  16  1   
 30  14  17  1   
 31  15  18  1   
 32  16  19  1   
 33  17  20  1   
 34  17  42  1   
 35  17  43  1   
 36  18  21  ar  
 37  18  22  ar  
 38  19  23  1   
 39  19  44  1   
 40  19  45  1   
 41  20  23  1   
 42  20  24  1   
 43  20  25  1   
 44  21  26  ar  
 45  21  46  1   
 46  22  27  ar  
 47  22  47  1   
 48  23  28  1   
 49  23  48  1   
 50  24  49  1   
 51  25  50  1   
 52  25  51  1   
 53  25  52  1   
 54  26  29  ar  
 55  26  53  1   
 56  27  29  ar  
 57  27  54  1   
 58  28  55  1   
 59  29  56  1   
@<TRIPOS>SUBSTRUCTURE
  1 ****   7 GROUP 4 **** **** 0

# MOE 2024.06 (io_trps.svl 2023.06)
