@<TRIPOS>MOLECULE
NONAME
39 41 1 0 0 
SMALL
USER_CHARGES


@<TRIPOS>ATOM
  1 O        0.9410    -4.2300    -0.1420 O.3   1 <1>  -0.2800 
  2 C        0.0480    -4.4850     0.7910 C.2   1 <1>  -0.0100 
  3 C        0.4090    -3.3630    -0.9780 C.2   1 <1>  -0.0100 
  4 C       -1.0920    -3.7970     0.5600 C.2   1 <1>  -0.1810 
  5 C       -0.8510    -3.0520    -0.6050 C.2   1 <1>  -0.1500 
  6 C       -2.3770    -3.8410     1.3540 C.3   1 <1>   0.5240 
  7 N       -3.2400    -4.8080     0.6550 N.4   1 <1>  -0.9590 
  8 C       -4.0430    -4.2960    -0.4900 C.3   1 <1>   0.3430 
  9 C       -4.1180    -5.6890     1.4510 C.3   1 <1>   0.3430 
 10 C       -5.1700    -5.3220    -0.6850 C.3   1 <1>   0.2000 
 11 C       -4.9730    -6.3960     0.3970 C.3   1 <1>  -0.0800 
 12 O       -6.3980    -4.7000    -0.4860 O.3   1 <1>  -0.6800 
 13 C       -4.2930    -7.6770    -0.1530 C.3   1 <1>   0.0210 
 14 C       -2.7960    -7.5540    -0.4150 C.2   1 <1>   0.1080 
 15 N       -2.2790    -6.6950    -1.2400 N.2   1 <1>  -0.7070 
 16 C       -1.8220    -8.3210     0.2130 C.2   1 <1>  -0.1500 
 17 N       -0.9450    -6.9170    -1.1840 N.pl3 1 <1>   0.3000 
 18 C       -0.6500    -7.8840    -0.2940 C.2   1 <1>  -0.3320 
 19 C        0.7640    -8.3480     0.0070 C.3   1 <1>  -0.0600 
 20 H        0.3110    -5.1780     1.5730 H     1 <1>   0.1500 
 21 H        0.9980    -3.0160    -1.8110 H     1 <1>   0.1500 
 22 H       -1.5320    -2.3720    -1.0880 H     1 <1>   0.1500 
 23 H       -2.8380    -2.8680     1.4060 H     1 <1>   0.0800 
 24 H       -2.1640    -4.1880     2.3520 H     1 <1>   0.0800 
 25 H       -2.5790    -5.4610     0.1760 H     1 <1>   0.4500 
 26 H       -4.4600    -3.3270    -0.2740 H     1 <1>   0.0800 
 27 H       -3.4300    -4.2450    -1.3750 H     1 <1>   0.0800 
 28 H       -3.5490    -6.3920     2.0380 H     1 <1>   0.0800 
 29 H       -4.7450    -5.0970     2.0980 H     1 <1>   0.0800 
 30 H       -5.1640    -5.7250    -1.6850 H     1 <1>   0.0800 
 31 H       -5.9200    -6.6900     0.8160 H     1 <1>   0.0800 
 32 H       -6.5680    -4.4650     0.4460 H     1 <1>   0.4000 
 33 H       -4.7760    -7.9820    -1.0660 H     1 <1>   0.0800 
 34 H       -4.4400    -8.4740     0.5540 H     1 <1>   0.0800 
 35 H       -1.9850    -9.1000     0.9390 H     1 <1>   0.1500 
 36 H       -0.2620    -6.3930    -1.7500 H     1 <1>   0.2700 
 37 H        0.7530    -9.1140     0.7620 H     1 <1>   0.0800 
 38 H        1.3630    -7.5260     0.3610 H     1 <1>   0.0800 
 39 H        1.2200    -8.7510    -0.8800 H     1 <1>   0.0800 
@<TRIPOS>BOND
  1   1   2  1   
  2   1   3  1   
  3   2   4  2   
  4   2  20  1   
  5   3   5  2   
  6   3  21  1   
  7   4   5  1   
  8   4   6  1   
  9   5  22  1   
 10   6   7  1   
 11   6  23  1   
 12   6  24  1   
 13   7   8  1   
 14   7   9  1   
 15   7  25  1   
 16   8  10  1   
 17   8  26  1   
 18   8  27  1   
 19   9  11  1   
 20   9  28  1   
 21   9  29  1   
 22  10  11  1   
 23  10  12  1   
 24  10  30  1   
 25  11  13  1   
 26  11  31  1   
 27  12  32  1   
 28  13  14  1   
 29  13  33  1   
 30  13  34  1   
 31  14  15  2   
 32  14  16  1   
 33  15  17  1   
 34  16  18  2   
 35  16  35  1   
 36  17  18  1   
 37  17  36  1   
 38  18  19  1   
 39  19  37  1   
 40  19  38  1   
 41  19  39  1   
@<TRIPOS>SUBSTRUCTURE
  1 ****   7 GROUP 4 **** **** 0

# MOE 2024.06 (io_trps.svl 2023.06)
