@<TRIPOS>MOLECULE
NONAME
27 28 1 0 0 
SMALL
USER_CHARGES


@<TRIPOS>ATOM
  1 F       -0.8190    -0.7060    -1.6980 F     1 <1>  -0.3400 
  2 C       -1.0990    -1.0360    -0.4420 C.3   1 <1>   1.1640 
  3 F       -0.0020    -1.6000     0.0480 F     1 <1>  -0.3400 
  4 F       -1.2530     0.1090     0.2130 F     1 <1>  -0.3400 
  5 C       -2.3180    -1.9580    -0.3250 C.ar  1 <1>  -0.1440 
  6 C       -3.1270    -1.9270     0.8070 C.ar  1 <1>  -0.1500 
  7 C       -2.6360    -2.8480    -1.3480 C.ar  1 <1>  -0.1500 
  8 C       -4.2290    -2.7570     0.9080 C.ar  1 <1>  -0.1500 
  9 C       -3.7400    -3.6760    -1.2420 C.ar  1 <1>  -0.1500 
 10 C       -4.5400    -3.6350    -0.1150 C.ar  1 <1>  -0.0320 
 11 C       -5.7640    -4.5280    -0.0120 C.3   1 <1>  -0.0630 
 12 C       -5.5700    -6.0040    -0.1710 C.3   1 <1>  -0.2000 
 13 C       -5.8780    -5.4270     1.1810 C.3   1 <1>  -0.2000 
 14 C       -7.0070    -3.8280    -0.5940 C.3   1 <1>  -0.1710 
 15 C       -8.2980    -4.6150    -0.5510 C.2   1 <1>   0.9060 
 16 O       -8.5910    -5.3270    -1.5180 O.co2 1 <1>  -0.9000 
 17 O       -9.0350    -4.4930     0.4330 O.co2 1 <1>  -0.9000 
 18 H       -2.9090    -1.2550     1.6200 H     1 <1>   0.1500 
 19 H       -2.0310    -2.9030    -2.2370 H     1 <1>   0.1500 
 20 H       -4.8580    -2.7240     1.7800 H     1 <1>   0.1500 
 21 H       -3.9890    -4.3550    -2.0380 H     1 <1>   0.1500 
 22 H       -4.5820    -6.3850    -0.3550 H     1 <1>   0.1000 
 23 H       -6.3330    -6.5760    -0.6730 H     1 <1>   0.1000 
 24 H       -6.8520    -5.6020     1.6060 H     1 <1>   0.1000 
 25 H       -5.1010    -5.4120     1.9230 H     1 <1>   0.1000 
 26 H       -6.8220    -3.5810    -1.6200 H     1 <1>   0.0800 
 27 H       -7.1770    -2.9140    -0.0600 H     1 <1>   0.0800 
@<TRIPOS>BOND
  1   1   2  1   
  2   2   3  1   
  3   2   4  1   
  4   2   5  1   
  5   5   6  ar  
  6   5   7  ar  
  7   6   8  ar  
  8   6  18  1   
  9   7   9  ar  
 10   7  19  1   
 11   8  10  ar  
 12   8  20  1   
 13   9  10  ar  
 14   9  21  1   
 15  10  11  1   
 16  11  12  1   
 17  11  13  1   
 18  11  14  1   
 19  12  13  1   
 20  12  22  1   
 21  12  23  1   
 22  13  24  1   
 23  13  25  1   
 24  14  15  1   
 25  14  26  1   
 26  14  27  1   
 27  15  16  ar  
 28  15  17  ar  
@<TRIPOS>SUBSTRUCTURE
  1 ****  10 GROUP 4 **** **** 0

# MOE 2024.06 (io_trps.svl 2023.06)
