@<TRIPOS>MOLECULE
NONAME
48 50 1 0 0 
SMALL
USER_CHARGES


@<TRIPOS>ATOM
  1 O       -0.7440     0.1830    -2.4970 O.2   1 <1>  -0.5700 
  2 C       -1.4870     0.8430    -1.8080 C.2   1 <1>   0.5690 
  3 N       -2.4910     0.2440    -1.0870 N.am  1 <1>  -0.6600 
  4 C       -1.3050     2.3720    -1.7990 C.3   1 <1>   0.1710 
  5 C       -3.5260     0.9110    -0.2590 C.3   1 <1>   0.1400 
  6 C       -2.6580    -1.2290    -1.0410 C.3   1 <1>   0.1400 
  7 N       -0.2480     2.9040    -0.8900 N.3   1 <1>  -0.8100 
  8 C       -4.3670    -0.2280     0.3240 C.3   1 <1>   0.2000 
  9 C       -3.5090    -1.4860     0.2020 C.3   1 <1>  -0.0800 
 10 C       -0.0200     4.3410    -1.1200 C.3   1 <1>   0.2530 
 11 C       -0.5020     2.6010     0.5260 C.3   1 <1>   0.0300 
 12 O       -4.6820     0.0020     1.6540 O.3   1 <1>  -0.6800 
 13 C       -4.3480    -2.7730     0.1390 C.3   1 <1>  -0.0170 
 14 C        1.2460     4.8210    -0.4220 C.ar  1 <1>  -0.1440 
 15 C       -3.4680    -4.0080     0.0300 C.ar  1 <1>   0.1670 
 16 C        2.4420     4.1420    -0.5420 C.ar  1 <1>  -0.1500 
 17 C        1.2700     5.9590     0.3600 C.ar  1 <1>  -0.1500 
 18 N       -3.0860    -4.3550    -1.1880 N.ar  1 <1>  -0.6200 
 19 C       -3.1000    -4.7040     1.1800 C.ar  1 <1>   0.1600 
 20 C        3.5700     4.6180     0.1040 C.ar  1 <1>   0.1600 
 21 C        2.4540     6.3510     0.9630 C.ar  1 <1>   0.1600 
 22 C       -2.3150    -5.4290    -1.1800 C.ar  1 <1>   0.1600 
 23 N       -2.3290    -5.7790     1.1910 N.ar  1 <1>  -0.6200 
 24 N        3.6060     5.7090     0.8540 N.ar  1 <1>  -0.6200 
 25 C       -1.9490    -6.1180    -0.0290 C.ar  1 <1>   0.1600 
 26 H       -2.2430     2.8420    -1.5700 H     1 <1>   0.0800 
 27 H       -1.0510     2.6470    -2.8070 H     1 <1>   0.0800 
 28 H       -3.0550     1.4760     0.5240 H     1 <1>   0.0800 
 29 H       -4.1360     1.5520    -0.8700 H     1 <1>   0.0800 
 30 H       -3.1670    -1.5530    -1.9330 H     1 <1>   0.0800 
 31 H       -1.7040    -1.7260    -0.9810 H     1 <1>   0.0800 
 32 H       -5.2850    -0.3220    -0.2320 H     1 <1>   0.0800 
 33 H       -2.8330    -1.5410     1.0380 H     1 <1>   0.0800 
 34 H        0.0990     4.5170    -2.1760 H     1 <1>   0.0800 
 35 H       -0.8710     4.9040    -0.7790 H     1 <1>   0.0800 
 36 H        0.3280     2.9290     1.1290 H     1 <1>   0.0800 
 37 H       -0.6030     1.5380     0.6620 H     1 <1>   0.0800 
 38 H       -1.3960     3.0940     0.8650 H     1 <1>   0.0800 
 39 H       -3.8710     0.0380     2.1960 H     1 <1>   0.4000 
 40 H       -5.0110    -2.7410    -0.7080 H     1 <1>   0.0800 
 41 H       -4.9570    -2.8440     1.0230 H     1 <1>   0.0800 
 42 H        2.4930     3.2430    -1.1300 H     1 <1>   0.1500 
 43 H        0.3820     6.5450     0.5060 H     1 <1>   0.1500 
 44 H       -3.4550    -4.3550     2.1330 H     1 <1>   0.1500 
 45 H        4.4910     4.0710    -0.0030 H     1 <1>   0.1500 
 46 H        2.4540     7.2410     1.5690 H     1 <1>   0.1500 
 47 H       -1.9540    -5.7820    -2.1300 H     1 <1>   0.1500 
 48 H       -1.3170    -6.9830    -0.1250 H     1 <1>   0.1500 
@<TRIPOS>BOND
  1   1   2  2   
  2   2   3  am  
  3   2   4  1   
  4   3   5  1   
  5   3   6  1   
  6   4   7  1   
  7   4  26  1   
  8   4  27  1   
  9   5   8  1   
 10   5  28  1   
 11   5  29  1   
 12   6   9  1   
 13   6  30  1   
 14   6  31  1   
 15   7  10  1   
 16   7  11  1   
 17   8   9  1   
 18   8  12  1   
 19   8  32  1   
 20   9  13  1   
 21   9  33  1   
 22  10  14  1   
 23  10  34  1   
 24  10  35  1   
 25  11  36  1   
 26  11  37  1   
 27  11  38  1   
 28  12  39  1   
 29  13  15  1   
 30  13  40  1   
 31  13  41  1   
 32  14  16  ar  
 33  14  17  ar  
 34  15  18  ar  
 35  15  19  ar  
 36  16  20  ar  
 37  16  42  1   
 38  17  21  ar  
 39  17  43  1   
 40  18  22  ar  
 41  19  23  ar  
 42  19  44  1   
 43  20  24  ar  
 44  20  45  1   
 45  21  24  ar  
 46  21  46  1   
 47  22  25  ar  
 48  22  47  1   
 49  23  25  ar  
 50  25  48  1   
@<TRIPOS>SUBSTRUCTURE
  1 ****   3 GROUP 4 **** **** 0

# MOE 2024.06 (io_trps.svl 2023.06)
