@<TRIPOS>MOLECULE
NONAME
51 54 1 0 0 
SMALL
USER_CHARGES


@<TRIPOS>ATOM
  1 N       -0.7160     1.2380     1.0830 N.ar  1 <1>  -0.6200 
  2 C       -0.5290     2.2890     0.3110 C.ar  1 <1>   0.4100 
  3 C        0.3390     0.8190     1.7480 C.ar  1 <1>   0.4760 
  4 N       -1.6230     2.7320    -0.3920 N.pl3 1 <1>  -0.8380 
  5 C        0.7080     2.9140     0.2100 C.ar  1 <1>  -0.1440 
  6 N        1.5580     1.3210     1.7350 N.ar  1 <1>  -0.6200 
  7 C        0.1260    -0.3810     2.6380 C.3   1 <1>  -0.0970 
  8 C       -2.8810     2.9730     0.3750 C.3   1 <1>   0.2090 
  9 C       -1.8780     2.1080    -1.7100 C.3   1 <1>   0.2090 
 10 C        1.7250     2.3720     0.9570 C.ar  1 <1>   0.1600 
 11 C        0.8690     4.1390    -0.6950 C.3   1 <1>  -0.0160 
 12 C       -3.7890     3.9580    -0.3840 C.3   1 <1>   0.1430 
 13 C       -2.7640     3.0370    -2.5490 C.3   1 <1>  -0.1600 
 14 C        2.2290     4.8480    -0.6030 C.3   1 <1>  -0.1600 
 15 C       -5.0950     4.1560     0.3610 C.ar  1 <1>   0.1670 
 16 C       -4.0620     3.4270    -1.8100 C.3   1 <1>  -0.1600 
 17 C       -3.1950     5.3940    -0.4050 C.3   1 <1>  -0.1600 
 18 C        2.2730     6.0850    -1.5070 C.3   1 <1>  -0.2400 
 19 N       -5.8590     3.1940     0.8220 N.ar  1 <1>  -0.6200 
 20 C       -5.3980     5.4780     0.5050 C.ar  1 <1>  -0.1440 
 21 C       -4.3540     6.3660    -0.1220 C.3   1 <1>  -0.0170 
 22 C       -6.9520     3.6210     1.4360 C.ar  1 <1>   0.7200 
 23 C       -6.5570     5.8000     1.1700 C.ar  1 <1>   0.1600 
 24 N       -7.3490     4.8680     1.6500 N.ar  1 <1>  -0.6200 
 25 N       -7.7440     2.6690     1.9290 N.pl3 1 <1>  -0.9000 
 26 H       -0.6560    -1.0010     2.2400 H     1 <1>   0.0800 
 27 H       -0.1520    -0.0470     3.6190 H     1 <1>   0.0800 
 28 H        1.0300    -0.9570     2.7020 H     1 <1>   0.0800 
 29 H       -2.6460     3.3610     1.3510 H     1 <1>   0.0800 
 30 H       -3.3950     2.0360     0.5090 H     1 <1>   0.0800 
 31 H       -2.3680     1.1610    -1.5620 H     1 <1>   0.0800 
 32 H       -0.9440     1.9290    -2.2160 H     1 <1>   0.0800 
 33 H        2.7120     2.7950     0.9340 H     1 <1>   0.1500 
 34 H        0.0960     4.8440    -0.4430 H     1 <1>   0.0800 
 35 H        0.7020     3.8310    -1.7130 H     1 <1>   0.0800 
 36 H       -3.0130     2.5450    -3.4720 H     1 <1>   0.0800 
 37 H       -2.1980     3.9170    -2.7960 H     1 <1>   0.0800 
 38 H        3.0110     4.1720    -0.9020 H     1 <1>   0.0800 
 39 H        2.4070     5.1510     0.4150 H     1 <1>   0.0800 
 40 H       -4.6070     4.1590    -2.3800 H     1 <1>   0.0800 
 41 H       -4.6840     2.5510    -1.7310 H     1 <1>   0.0800 
 42 H       -2.7030     5.6270    -1.3310 H     1 <1>   0.0800 
 43 H       -2.4730     5.4900     0.3870 H     1 <1>   0.0800 
 44 H        2.1150     5.8070    -2.5340 H     1 <1>   0.0800 
 45 H        3.2340     6.5630    -1.4280 H     1 <1>   0.0800 
 46 H        1.5160     6.7920    -1.2170 H     1 <1>   0.0800 
 47 H       -4.7350     6.7800    -1.0400 H     1 <1>   0.0800 
 48 H       -4.0520     7.1580     0.5410 H     1 <1>   0.0800 
 49 H       -6.8360     6.8300     1.3090 H     1 <1>   0.1500 
 50 H       -8.3900     2.9780     2.6490 H     1 <1>   0.4000 
 51 H       -7.3010     1.7660     2.0610 H     1 <1>   0.4000 
@<TRIPOS>BOND
  1   1   2  ar  
  2   1   3  ar  
  3   2   4  1   
  4   2   5  ar  
  5   3   6  ar  
  6   3   7  1   
  7   4   8  1   
  8   4   9  1   
  9   5  10  ar  
 10   5  11  1   
 11   6  10  ar  
 12   7  26  1   
 13   7  27  1   
 14   7  28  1   
 15   8  12  1   
 16   8  29  1   
 17   8  30  1   
 18   9  13  1   
 19   9  31  1   
 20   9  32  1   
 21  10  33  1   
 22  11  14  1   
 23  11  34  1   
 24  11  35  1   
 25  12  15  1   
 26  12  16  1   
 27  12  17  1   
 28  13  16  1   
 29  13  36  1   
 30  13  37  1   
 31  14  18  1   
 32  14  38  1   
 33  14  39  1   
 34  15  19  ar  
 35  15  20  ar  
 36  16  40  1   
 37  16  41  1   
 38  17  21  1   
 39  17  42  1   
 40  17  43  1   
 41  18  44  1   
 42  18  45  1   
 43  18  46  1   
 44  19  22  ar  
 45  20  21  1   
 46  20  23  ar  
 47  21  47  1   
 48  21  48  1   
 49  22  24  ar  
 50  22  25  1   
 51  23  24  ar  
 52  23  49  1   
 53  25  50  1   
 54  25  51  1   
@<TRIPOS>SUBSTRUCTURE
  1 ****   8 GROUP 4 **** **** 0

# MOE 2024.06 (io_trps.svl 2023.06)
