@<TRIPOS>MOLECULE
NONAME
50 52 1 0 0 
SMALL
USER_CHARGES


@<TRIPOS>ATOM
  1 F       -5.0790    -0.3920    -1.8800 F     1 <1>  -0.1900 
  2 C       -4.3980     0.3580    -1.0480 C.ar  1 <1>   0.1900 
  3 C       -3.5640    -0.2450    -0.1080 C.ar  1 <1>   0.0830 
  4 C       -4.5520     1.7270    -1.1340 C.ar  1 <1>  -0.1500 
  5 O       -3.4650    -1.5990    -0.0840 O.3   1 <1>  -0.3630 
  6 C       -2.8550     0.5640     0.7780 C.ar  1 <1>  -0.1500 
  7 C       -3.8360     2.4960    -0.2360 C.ar  1 <1>   0.1900 
  8 C       -3.3680    -2.2720     1.1620 C.3   1 <1>   0.1810 
  9 C       -2.9940     1.9430     0.7150 C.ar  1 <1>  -0.1500 
 10 F       -3.9590     3.7950    -0.2860 F     1 <1>  -0.1900 
 11 C       -3.6950    -3.7570     1.0100 C.2   1 <1>   0.5690 
 12 O       -2.9220    -4.5460     1.5010 O.2   1 <1>  -0.5700 
 13 N       -4.8310    -4.2030     0.3690 N.am  1 <1>  -0.6600 
 14 C       -4.9960    -5.6430     0.0310 C.3   1 <1>   0.1400 
 15 C       -5.9620    -3.3330    -0.0650 C.3   1 <1>   0.1400 
 16 C       -6.3030    -6.1890     0.6460 C.3   1 <1>   0.4230 
 17 C       -7.2590    -3.8630     0.5600 C.3   1 <1>  -0.1600 
 18 N       -6.4790    -7.6930     0.4770 N.4   1 <1>  -0.9590 
 19 C       -7.5500    -5.3540     0.2260 C.3   1 <1>   0.0000 
 20 C       -7.8860    -8.1720     0.6780 C.3   1 <1>   0.3430 
 21 C       -5.9220    -8.2700    -0.7920 C.3   1 <1>   0.2630 
 22 C       -8.7820    -5.8190     1.0560 C.3   1 <1>  -0.1600 
 23 C       -7.8230    -5.5210    -1.2970 C.3   1 <1>   0.1200 
 24 C       -8.6500    -7.2460     1.6230 C.3   1 <1>  -0.1600 
 25 O       -8.7990    -4.6450    -1.7410 O.3   1 <1>  -0.6800 
 26 H       -5.1990     2.1760    -1.8640 H     1 <1>   0.1500 
 27 H       -2.1910     0.1360     1.5070 H     1 <1>   0.1500 
 28 H       -2.3630    -2.1630     1.5250 H     1 <1>   0.0800 
 29 H       -4.0560    -1.8210     1.8540 H     1 <1>   0.0800 
 30 H       -2.4560     2.5870     1.3890 H     1 <1>   0.1500 
 31 H       -5.0020    -5.7350    -1.0390 H     1 <1>   0.0800 
 32 H       -4.1650    -6.2120     0.4110 H     1 <1>   0.0800 
 33 H       -5.8170    -2.3160     0.2540 H     1 <1>   0.0800 
 34 H       -6.0270    -3.3300    -1.1400 H     1 <1>   0.0800 
 35 H       -6.1990    -6.0180     1.7050 H     1 <1>   0.0800 
 36 H       -7.1770    -3.7340     1.6250 H     1 <1>   0.0800 
 37 H       -8.0740    -3.2370     0.2380 H     1 <1>   0.0800 
 38 H       -5.9300    -8.1020     1.2480 H     1 <1>   0.4500 
 39 H       -8.4020    -8.1940    -0.2680 H     1 <1>   0.0800 
 40 H       -7.8790    -9.1750     1.0750 H     1 <1>   0.0800 
 41 H       -6.4210    -7.8500    -1.6500 H     1 <1>   0.0800 
 42 H       -6.0570    -9.3400    -0.8070 H     1 <1>   0.0800 
 43 H       -4.8670    -8.0640    -0.8710 H     1 <1>   0.0800 
 44 H       -8.9480    -5.1590     1.8910 H     1 <1>   0.0800 
 45 H       -9.6740    -5.7650     0.4560 H     1 <1>   0.0800 
 46 H       -8.1540    -6.5160    -1.5330 H     1 <1>   0.0800 
 47 H       -6.9430    -5.3110    -1.8790 H     1 <1>   0.0800 
 48 H       -9.6330    -7.6490     1.7950 H     1 <1>   0.0800 
 49 H       -8.1480    -7.2240     2.5750 H     1 <1>   0.0800 
 50 H       -9.6640    -4.8020    -1.3140 H     1 <1>   0.4000 
@<TRIPOS>BOND
  1   1   2  1   
  2   2   3  ar  
  3   2   4  ar  
  4   3   5  1   
  5   3   6  ar  
  6   4   7  ar  
  7   4  26  1   
  8   5   8  1   
  9   6   9  ar  
 10   6  27  1   
 11   7   9  ar  
 12   7  10  1   
 13   8  11  1   
 14   8  28  1   
 15   8  29  1   
 16   9  30  1   
 17  11  12  2   
 18  11  13  am  
 19  13  14  1   
 20  13  15  1   
 21  14  16  1   
 22  14  31  1   
 23  14  32  1   
 24  15  17  1   
 25  15  33  1   
 26  15  34  1   
 27  16  18  1   
 28  16  19  1   
 29  16  35  1   
 30  17  19  1   
 31  17  36  1   
 32  17  37  1   
 33  18  20  1   
 34  18  21  1   
 35  18  38  1   
 36  19  22  1   
 37  19  23  1   
 38  20  24  1   
 39  20  39  1   
 40  20  40  1   
 41  21  41  1   
 42  21  42  1   
 43  21  43  1   
 44  22  24  1   
 45  22  44  1   
 46  22  45  1   
 47  23  25  1   
 48  23  46  1   
 49  23  47  1   
 50  24  48  1   
 51  24  49  1   
 52  25  50  1   
@<TRIPOS>SUBSTRUCTURE
  1 ****  15 GROUP 4 **** **** 0

# MOE 2024.06 (io_trps.svl 2023.06)
