@<TRIPOS>MOLECULE
NONAME
45 46 1 0 0 
SMALL
USER_CHARGES


@<TRIPOS>ATOM
  1 CL      -1.5910    -0.4490     2.2640 Cl    1 <1>  -0.1770 
  2 C       -2.7010    -1.2780     1.2020 C.ar  1 <1>   0.1770 
  3 C       -4.0550    -1.2400     1.4740 C.ar  1 <1>  -0.1500 
  4 C       -2.2080    -1.9620     0.1070 C.ar  1 <1>  -0.1500 
  5 C       -4.9330    -1.9010     0.6310 C.ar  1 <1>  -0.1500 
  6 C       -3.0910    -2.6200    -0.7320 C.ar  1 <1>  -0.1500 
  7 C       -4.4550    -2.5920    -0.4740 C.ar  1 <1>  -0.1430 
  8 C       -5.4170    -3.3240    -1.3940 C.3   1 <1>  -0.0160 
  9 C       -5.5120    -4.8000    -0.9930 C.3   1 <1>  -0.1600 
 10 C       -6.5140    -5.5670    -1.8710 C.3   1 <1>  -0.0990 
 11 C       -6.6020    -7.0350    -1.4760 C.2   1 <1>   0.5690 
 12 O       -5.8350    -7.7860    -2.0290 O.2   1 <1>  -0.5700 
 13 N       -7.4950    -7.4780    -0.5310 N.am  1 <1>  -0.6600 
 14 C       -7.5030    -8.9200    -0.1490 C.3   1 <1>   0.3200 
 15 C       -8.3950    -6.5750     0.2540 C.3   1 <1>   0.1400 
 16 C       -8.9170    -9.4650    -0.1470 C.2   1 <1>  -0.3320 
 17 C       -9.7380    -6.3610    -0.4550 C.3   1 <1>   0.1200 
 18 N       -9.6900    -9.5920     0.9480 N.pl3 1 <1>   0.0330 
 19 C       -9.6590    -9.9070    -1.1860 C.2   1 <1>   0.0770 
 20 O      -10.4560    -5.4030     0.2460 O.3   1 <1>  -0.6800 
 21 C      -10.8610   -10.0940     0.5000 C.2   1 <1>   0.0060 
 22 N      -10.8810   -10.2940    -0.7760 N.2   1 <1>  -0.5650 
 23 C      -12.0300   -10.3880     1.4140 C.3   1 <1>  -0.0600 
 24 H       -4.4130    -0.7020     2.3330 H     1 <1>   0.1500 
 25 H       -1.1500    -1.9770    -0.0820 H     1 <1>   0.1500 
 26 H       -5.9880    -1.8750     0.8400 H     1 <1>   0.1500 
 27 H       -2.7140    -3.1570    -1.5850 H     1 <1>   0.1500 
 28 H       -5.0750    -3.2410    -2.4110 H     1 <1>   0.0800 
 29 H       -6.3900    -2.8650    -1.3380 H     1 <1>   0.0800 
 30 H       -5.8030    -4.8670     0.0400 H     1 <1>   0.0800 
 31 H       -4.5410    -5.2560    -1.0870 H     1 <1>   0.0800 
 32 H       -6.1900    -5.5210    -2.8960 H     1 <1>   0.0800 
 33 H       -7.4820    -5.1080    -1.8260 H     1 <1>   0.0800 
 34 H       -7.0540    -9.0350     0.8220 H     1 <1>   0.0800 
 35 H       -6.9200    -9.4990    -0.8470 H     1 <1>   0.0800 
 36 H       -7.9200    -5.6220     0.3970 H     1 <1>   0.0800 
 37 H       -8.5700    -6.9980     1.2270 H     1 <1>   0.0800 
 38 H      -10.3200    -7.2650    -0.4760 H     1 <1>   0.0800 
 39 H       -9.5920    -6.0030    -1.4580 H     1 <1>   0.0800 
 40 H       -9.4570    -9.3600     1.9180 H     1 <1>   0.2700 
 41 H       -9.3740    -9.9610    -2.2240 H     1 <1>   0.1500 
 42 H      -11.3410    -5.2830    -0.1530 H     1 <1>   0.4000 
 43 H      -12.3490    -9.4890     1.9080 H     1 <1>   0.0800 
 44 H      -11.7510   -11.1220     2.1470 H     1 <1>   0.0800 
 45 H      -12.8520   -10.7740     0.8370 H     1 <1>   0.0800 
@<TRIPOS>BOND
  1   1   2  1   
  2   2   3  ar  
  3   2   4  ar  
  4   3   5  ar  
  5   3  24  1   
  6   4   6  ar  
  7   4  25  1   
  8   5   7  ar  
  9   5  26  1   
 10   6   7  ar  
 11   6  27  1   
 12   7   8  1   
 13   8   9  1   
 14   8  28  1   
 15   8  29  1   
 16   9  10  1   
 17   9  30  1   
 18   9  31  1   
 19  10  11  1   
 20  10  32  1   
 21  10  33  1   
 22  11  12  2   
 23  11  13  am  
 24  13  14  1   
 25  13  15  1   
 26  14  16  1   
 27  14  34  1   
 28  14  35  1   
 29  15  17  1   
 30  15  36  1   
 31  15  37  1   
 32  16  18  1   
 33  16  19  2   
 34  17  20  1   
 35  17  38  1   
 36  17  39  1   
 37  18  21  1   
 38  18  40  1   
 39  19  22  1   
 40  19  41  1   
 41  20  42  1   
 42  21  22  2   
 43  21  23  1   
 44  23  43  1   
 45  23  44  1   
 46  23  45  1   
@<TRIPOS>SUBSTRUCTURE
  1 ****  15 GROUP 4 **** **** 0

# MOE 2024.06 (io_trps.svl 2023.06)
