@<TRIPOS>MOLECULE
NONAME
24 24 1 0 0 
SMALL
USER_CHARGES


@<TRIPOS>ATOM
  1 BR       0.2440     0.0020    -0.4490 Br    1 <1>  -0.1110 
  2 C       -1.4300     0.9120    -0.1740 C.ar  1 <1>   0.1110 
  3 C       -1.6010     2.1690    -0.7170 C.ar  1 <1>  -0.1500 
  4 C       -2.4160     0.2840     0.5570 C.ar  1 <1>  -0.1500 
  5 C       -2.8050     2.8320    -0.5240 C.ar  1 <1>  -0.1440 
  6 C       -3.6130     0.9500     0.7470 C.ar  1 <1>  -0.1500 
  7 C       -3.8210     2.2230     0.2180 C.ar  1 <1>  -0.1430 
  8 C       -2.9800     4.2150    -1.1400 C.3   1 <1>  -0.0960 
  9 C       -5.1680     2.9250     0.4420 C.3   1 <1>   0.3440 
 10 O       -5.6760     2.6180     1.6890 O.3   1 <1>  -0.6800 
 11 C       -6.2010     2.5020    -0.5870 C.3   1 <1>  -0.2660 
 12 C       -7.4160     3.3610    -0.4270 C.2   1 <1>   0.9060 
 13 O       -7.7390     4.1060    -1.3520 O.co2 1 <1>  -0.9000 
 14 O       -8.0150     3.3230     0.6550 O.co2 1 <1>  -0.9000 
 15 H       -0.8020     2.6140    -1.2800 H     1 <1>   0.1500 
 16 H       -2.2550    -0.6950     0.9670 H     1 <1>   0.1500 
 17 H       -4.3980     0.4780     1.3140 H     1 <1>   0.1500 
 18 H       -2.1470     4.4670    -1.7690 H     1 <1>   0.0800 
 19 H       -3.0550     4.9540    -0.3630 H     1 <1>   0.0800 
 20 H       -3.8730     4.2460    -1.7390 H     1 <1>   0.0800 
 21 H       -5.0500     3.9940     0.4160 H     1 <1>   0.0800 
 22 H       -6.6450     2.8620     1.6400 H     1 <1>   0.4000 
 23 H       -6.4670     1.4710    -0.4630 H     1 <1>   0.0800 
 24 H       -5.8120     2.6440    -1.5750 H     1 <1>   0.0800 
@<TRIPOS>BOND
  1   1   2  1   
  2   2   3  ar  
  3   2   4  ar  
  4   3   5  ar  
  5   3  15  1   
  6   4   6  ar  
  7   4  16  1   
  8   5   7  ar  
  9   5   8  1   
 10   6   7  ar  
 11   6  17  1   
 12   7   9  1   
 13   8  18  1   
 14   8  19  1   
 15   8  20  1   
 16   9  10  1   
 17   9  11  1   
 18   9  21  1   
 19  10  22  1   
 20  11  12  1   
 21  11  23  1   
 22  11  24  1   
 23  12  13  ar  
 24  12  14  ar  
@<TRIPOS>SUBSTRUCTURE
  1 ****   7 GROUP 4 **** **** 0

# MOE 2024.06 (io_trps.svl 2023.06)
