@<TRIPOS>MOLECULE
NONAME
59 62 1 0 0 
SMALL
USER_CHARGES


@<TRIPOS>ATOM
  1 O       -1.5990    -0.7430    -1.5300 O.3   1 <1>  -0.3630 
  2 C       -1.9850    -0.2000    -0.3420 C.ar  1 <1>   0.0830 
  3 C       -1.4130     0.0540    -2.6810 C.3   1 <1>   0.0400 
  4 C       -1.8920    -0.9910     0.8090 C.ar  1 <1>  -0.0230 
  5 C       -2.4580     1.1060    -0.2470 C.ar  1 <1>  -0.1500 
  6 N       -1.4330    -2.3390     0.7560 N.pl3 1 <1>   0.5930 
  7 C       -2.2580    -0.4390     2.0330 C.ar  1 <1>  -0.1500 
  8 C       -2.8250     1.6330     0.9790 C.ar  1 <1>  -0.1500 
  9 N       -0.6410    -2.8980     1.7110 N.2   1 <1>  -0.7070 
 10 C       -1.7800    -3.3000    -0.1400 C.2   1 <1>  -0.3020 
 11 C       -2.7230     0.8600     2.1200 C.ar  1 <1>  -0.1500 
 12 C       -0.4840    -4.1360     1.3790 C.2   1 <1>   0.1390 
 13 C       -1.1880    -4.4580     0.2260 C.2   1 <1>  -0.1810 
 14 C       -1.2510    -5.8140    -0.4350 C.3   1 <1>   0.5240 
 15 N       -2.3190    -6.6070     0.2420 N.4   1 <1>  -0.9590 
 16 C       -2.2570    -8.0620    -0.1580 C.3   1 <1>   0.3430 
 17 C       -3.6560    -6.0000    -0.0470 C.3   1 <1>   0.3430 
 18 C       -3.4070    -8.9360     0.4410 C.3   1 <1>   0.4230 
 19 C       -4.7570    -6.8060     0.6480 C.3   1 <1>  -0.1600 
 20 N       -3.3570   -10.4230     0.0910 N.4   1 <1>  -0.9590 
 21 C       -4.8120    -8.2990     0.2250 C.3   1 <1>   0.0000 
 22 C       -4.6380   -11.1580     0.3780 C.3   1 <1>   0.3430 
 23 C       -2.9310   -10.7360    -1.3170 C.3   1 <1>   0.2630 
 24 C       -5.8290    -9.0270     1.1500 C.3   1 <1>  -0.1600 
 25 C       -5.3300    -8.4000    -1.2400 C.3   1 <1>   0.1200 
 26 C       -5.4300   -10.4770     1.4950 C.3   1 <1>  -0.1600 
 27 O       -4.3670    -7.9970    -2.1550 O.3   1 <1>  -0.6800 
 28 H       -1.0030    -0.5680    -3.4560 H     1 <1>   0.0800 
 29 H       -0.7260     0.8480    -2.4490 H     1 <1>   0.0800 
 30 H       -2.3650     0.4460    -2.9930 H     1 <1>   0.0800 
 31 H       -2.5500     1.7340    -1.1130 H     1 <1>   0.1500 
 32 H       -2.1750    -1.0300     2.9300 H     1 <1>   0.1500 
 33 H       -3.1890     2.6440     1.0460 H     1 <1>   0.1500 
 34 H       -2.4200    -3.0720    -0.9730 H     1 <1>   0.1500 
 35 H       -3.0020     1.2700     3.0760 H     1 <1>   0.1500 
 36 H        0.1280    -4.8130     1.9540 H     1 <1>   0.1500 
 37 H       -0.2940    -6.3010    -0.3390 H     1 <1>   0.0800 
 38 H       -1.4770    -5.6990    -1.4840 H     1 <1>   0.0800 
 39 H       -2.1470    -6.4890     1.2510 H     1 <1>   0.4500 
 40 H       -2.3040    -8.1230    -1.2320 H     1 <1>   0.0800 
 41 H       -1.3120    -8.4730     0.1570 H     1 <1>   0.0800 
 42 H       -3.6840    -4.9820     0.3110 H     1 <1>   0.0800 
 43 H       -3.8320    -5.9810    -1.1110 H     1 <1>   0.0800 
 44 H       -3.2540    -8.8870     1.5060 H     1 <1>   0.0800 
 45 H       -4.6060    -6.7180     1.7100 H     1 <1>   0.0800 
 46 H       -5.7030    -6.3370     0.4340 H     1 <1>   0.0800 
 47 H       -2.6590   -10.8550     0.7170 H     1 <1>   0.4500 
 48 H       -5.2520   -11.1840    -0.5070 H     1 <1>   0.0800 
 49 H       -4.4230   -12.1790     0.6550 H     1 <1>   0.0800 
 50 H       -3.6220   -10.3090    -2.0250 H     1 <1>   0.0800 
 51 H       -2.9050   -11.8030    -1.4700 H     1 <1>   0.0800 
 52 H       -1.9470   -10.3450    -1.5170 H     1 <1>   0.0800 
 53 H       -5.9490    -8.5020     2.0840 H     1 <1>   0.0800 
 54 H       -6.8040    -9.0300     0.6890 H     1 <1>   0.0800 
 55 H       -6.1980    -7.7740    -1.3740 H     1 <1>   0.0800 
 56 H       -5.6120    -9.4080    -1.4910 H     1 <1>   0.0800 
 57 H       -6.3210   -11.0490     1.6930 H     1 <1>   0.0800 
 58 H       -4.8450   -10.4960     2.4000 H     1 <1>   0.0800 
 59 H       -4.7670    -7.9150    -3.0530 H     1 <1>   0.4000 
@<TRIPOS>BOND
  1   1   2  1   
  2   1   3  1   
  3   2   4  ar  
  4   2   5  ar  
  5   3  28  1   
  6   3  29  1   
  7   3  30  1   
  8   4   6  1   
  9   4   7  ar  
 10   5   8  ar  
 11   5  31  1   
 12   6   9  1   
 13   6  10  1   
 14   7  11  ar  
 15   7  32  1   
 16   8  11  ar  
 17   8  33  1   
 18   9  12  2   
 19  10  13  2   
 20  10  34  1   
 21  11  35  1   
 22  12  13  1   
 23  12  36  1   
 24  13  14  1   
 25  14  15  1   
 26  14  37  1   
 27  14  38  1   
 28  15  16  1   
 29  15  17  1   
 30  15  39  1   
 31  16  18  1   
 32  16  40  1   
 33  16  41  1   
 34  17  19  1   
 35  17  42  1   
 36  17  43  1   
 37  18  20  1   
 38  18  21  1   
 39  18  44  1   
 40  19  21  1   
 41  19  45  1   
 42  19  46  1   
 43  20  22  1   
 44  20  23  1   
 45  20  47  1   
 46  21  24  1   
 47  21  25  1   
 48  22  26  1   
 49  22  48  1   
 50  22  49  1   
 51  23  50  1   
 52  23  51  1   
 53  23  52  1   
 54  24  26  1   
 55  24  53  1   
 56  24  54  1   
 57  25  27  1   
 58  25  55  1   
 59  25  56  1   
 60  26  57  1   
 61  26  58  1   
 62  27  59  1   
@<TRIPOS>SUBSTRUCTURE
  1 ****  17 GROUP 4 **** **** 0

# MOE 2024.06 (io_trps.svl 2023.06)
