@<TRIPOS>MOLECULE
NONAME
46 48 1 0 0 
SMALL
USER_CHARGES


@<TRIPOS>ATOM
  1 O       -4.4930     2.7720    -1.9060 O.2   1 <1>  -0.5700 
  2 C       -3.3580     2.3710    -1.8190 C.2   1 <1>   0.5690 
  3 N       -3.0010     1.1340    -2.2430 N.am  1 <1>  -0.7300 
  4 C       -2.2980     3.2430    -1.1750 C.3   1 <1>   0.0440 
  5 C       -3.9350     0.0460    -2.6050 C.3   1 <1>   0.2200 
  6 C       -1.7600     2.5690     0.0810 C.ar  1 <1>  -0.1440 
  7 C       -3.9350    -1.0350    -1.5300 C.3   1 <1>  -0.0800 
  8 C       -3.3530    -0.7290    -3.7790 C.3   1 <1>   0.1200 
  9 C       -0.6170     1.7850     0.0340 C.ar  1 <1>  -0.1500 
 10 C       -2.4380     2.7060     1.2830 C.ar  1 <1>  -0.1500 
 11 C       -2.7100    -1.8800    -1.8980 C.3   1 <1>   0.1200 
 12 C       -3.9420    -0.5410    -0.0690 C.3   1 <1>  -0.0160 
 13 O       -2.3870    -1.5710    -3.2240 O.3   1 <1>  -0.5600 
 14 C       -0.1580     1.1320     1.1660 C.ar  1 <1>   0.0820 
 15 C       -1.9820     2.0640     2.4210 C.ar  1 <1>  -0.1500 
 16 C       -3.8820    -1.7030     0.9090 C.ar  1 <1>  -0.1440 
 17 O        0.9540     0.3700     1.0220 O.3   1 <1>  -0.3630 
 18 C       -0.8460     1.2770     2.3680 C.ar  1 <1>  -0.1500 
 19 C       -2.7090    -2.0460     1.5500 C.ar  1 <1>  -0.1500 
 20 C       -4.9880    -2.4720     1.2060 C.ar  1 <1>  -0.1500 
 21 C        1.5820    -0.2270     2.1350 C.3   1 <1>   0.0400 
 22 C       -2.6980    -3.1160     2.4290 C.ar  1 <1>   0.1600 
 23 C       -4.8700    -3.5210     2.1030 C.ar  1 <1>   0.1600 
 24 N       -3.7500    -3.8630     2.7200 N.ar  1 <1>  -0.6200 
 25 H       -2.0370     0.8130    -2.1220 H     1 <1>   0.3700 
 26 H       -1.5060     3.4130    -1.8810 H     1 <1>   0.0800 
 27 H       -2.7280     4.1960    -0.9250 H     1 <1>   0.0800 
 28 H       -4.9170     0.4370    -2.8130 H     1 <1>   0.0800 
 29 H       -4.8040    -1.6510    -1.6800 H     1 <1>   0.0800 
 30 H       -2.8990    -0.0900    -4.5160 H     1 <1>   0.0800 
 31 H       -4.1040    -1.3460    -4.2390 H     1 <1>   0.0800 
 32 H       -0.0680     1.6650    -0.8820 H     1 <1>   0.1500 
 33 H       -3.3300     3.3080     1.3350 H     1 <1>   0.1500 
 34 H       -2.9120    -2.9340    -1.8200 H     1 <1>   0.0800 
 35 H       -1.8580    -1.6280    -1.2900 H     1 <1>   0.0800 
 36 H       -4.8310     0.0380     0.1110 H     1 <1>   0.0800 
 37 H       -3.1000     0.0980     0.1170 H     1 <1>   0.0800 
 38 H       -2.5160     2.1760     3.3490 H     1 <1>   0.1500 
 39 H       -0.5160     0.7870     3.2640 H     1 <1>   0.1500 
 40 H       -1.8050    -1.4910     1.3740 H     1 <1>   0.1500 
 41 H       -5.9390    -2.2640     0.7510 H     1 <1>   0.1500 
 42 H        2.4660    -0.7320     1.7880 H     1 <1>   0.0800 
 43 H        0.9070    -0.9360     2.5790 H     1 <1>   0.0800 
 44 H        1.8520     0.5420     2.8370 H     1 <1>   0.0800 
 45 H       -1.7740    -3.3700     2.9190 H     1 <1>   0.1500 
 46 H       -5.7430    -4.1100     2.3240 H     1 <1>   0.1500 
@<TRIPOS>BOND
  1   1   2  2   
  2   2   3  am  
  3   2   4  1   
  4   3   5  1   
  5   3  25  1   
  6   4   6  1   
  7   4  26  1   
  8   4  27  1   
  9   5   7  1   
 10   5   8  1   
 11   5  28  1   
 12   6   9  ar  
 13   6  10  ar  
 14   7  11  1   
 15   7  12  1   
 16   7  29  1   
 17   8  13  1   
 18   8  30  1   
 19   8  31  1   
 20   9  14  ar  
 21   9  32  1   
 22  10  15  ar  
 23  10  33  1   
 24  11  13  1   
 25  11  34  1   
 26  11  35  1   
 27  12  16  1   
 28  12  36  1   
 29  12  37  1   
 30  14  17  1   
 31  14  18  ar  
 32  15  18  ar  
 33  15  38  1   
 34  16  19  ar  
 35  16  20  ar  
 36  17  21  1   
 37  18  39  1   
 38  19  22  ar  
 39  19  40  1   
 40  20  23  ar  
 41  20  41  1   
 42  21  42  1   
 43  21  43  1   
 44  21  44  1   
 45  22  24  ar  
 46  22  45  1   
 47  23  24  ar  
 48  23  46  1   
@<TRIPOS>SUBSTRUCTURE
  1 ****  12 GROUP 4 **** **** 0

# MOE 2024.06 (io_trps.svl 2023.06)
