@<TRIPOS>MOLECULE
NONAME
52 55 1 0 0 
SMALL
USER_CHARGES


@<TRIPOS>ATOM
  1 O        2.0920     0.7700     1.5840 O.3   1 <1>  -0.6800 
  2 C        2.7170     1.8640     1.0060 C.3   1 <1>   0.2000 
  3 C        1.7220     2.6090     0.0950 C.3   1 <1>   0.2090 
  4 C        3.9300     1.3490     0.2260 C.3   1 <1>  -0.1600 
  5 N        2.4170     3.7000    -0.6670 N.pl3 1 <1>  -0.8380 
  6 C        4.5810     2.4930    -0.5670 C.3   1 <1>  -0.1600 
  7 C        2.1400     5.0250    -0.5470 C.ar  1 <1>   0.4100 
  8 C        3.5710     3.1960    -1.4790 C.3   1 <1>   0.2090 
  9 N        3.1360     5.8780    -0.6910 N.ar  1 <1>  -0.6200 
 10 C        0.8310     5.4750    -0.2840 C.ar  1 <1>  -0.1500 
 11 C        2.8840     7.1630    -0.5600 C.ar  1 <1>   0.7710 
 12 C        0.6000     6.8040    -0.1580 C.ar  1 <1>   0.2110 
 13 N        1.6560     7.6420    -0.2970 N.ar  1 <1>  -0.1790 
 14 N        3.9170     7.9900    -0.7030 N.pl3 1 <1>  -0.8690 
 15 C        4.1610     9.4480    -0.5850 C.3   1 <1>   0.3900 
 16 C        5.6680     9.6950    -0.6220 C.2   1 <1>   0.1080 
 17 N        6.5350     8.7320    -0.7650 N.2   1 <1>  -0.7070 
 18 C        6.2850    10.9410    -0.5100 C.2   1 <1>  -0.1810 
 19 N        7.7330     9.3470    -0.7450 N.pl3 1 <1>   0.3000 
 20 C        7.6050    10.6800    -0.5910 C.2   1 <1>  -0.3320 
 21 C        5.6500    12.3100    -0.3390 C.3   1 <1>   0.0210 
 22 C        8.7740    11.6440    -0.5290 C.3   1 <1>   0.0200 
 23 C        6.1920    13.0410     0.8960 C.3   1 <1>  -0.1600 
 24 C        8.7250    12.5060     0.7390 C.3   1 <1>  -0.1600 
 25 C        7.6240    13.5810     0.7340 C.3   1 <1>  -0.1600 
 26 H        1.5150     1.0450     2.3220 H     1 <1>   0.4000 
 27 H        3.0450     2.5170     1.7980 H     1 <1>   0.0800 
 28 H        0.9370     3.0120     0.7060 H     1 <1>   0.0800 
 29 H        1.2970     1.9130    -0.6070 H     1 <1>   0.0800 
 30 H        3.6130     0.5810    -0.4590 H     1 <1>   0.0800 
 31 H        4.6460     0.9270     0.9080 H     1 <1>   0.0800 
 32 H        5.3850     2.1030    -1.1660 H     1 <1>   0.0800 
 33 H        4.9990     3.2190     0.1080 H     1 <1>   0.0800 
 34 H        4.0560     3.9990    -2.0070 H     1 <1>   0.0800 
 35 H        3.2030     2.5000    -2.2140 H     1 <1>   0.0800 
 36 H        0.0360     4.7580    -0.2050 H     1 <1>   0.1500 
 37 H       -0.3780     7.2120     0.0400 H     1 <1>   0.1500 
 38 H        1.5720     8.6480    -0.2240 H     1 <1>   0.4570 
 39 H        4.8350     7.5380    -0.8620 H     1 <1>   0.4000 
 40 H        3.7690     9.8190     0.3450 H     1 <1>   0.0800 
 41 H        3.7050     9.9650    -1.4110 H     1 <1>   0.0800 
 42 H        8.6170     8.8310    -0.8350 H     1 <1>   0.2700 
 43 H        4.5860    12.2030    -0.2350 H     1 <1>   0.0800 
 44 H        5.8330    12.8980    -1.2210 H     1 <1>   0.0800 
 45 H        8.7710    12.2720    -1.4030 H     1 <1>   0.0800 
 46 H        9.6950    11.0870    -0.5300 H     1 <1>   0.0800 
 47 H        6.1430    12.3910     1.7520 H     1 <1>   0.0800 
 48 H        5.5460    13.8800     1.0930 H     1 <1>   0.0800 
 49 H        9.6730    13.0050     0.8340 H     1 <1>   0.0800 
 50 H        8.6100    11.8700     1.6000 H     1 <1>   0.0800 
 51 H        7.8160    14.2440     1.5610 H     1 <1>   0.0800 
 52 H        7.6940    14.1720    -0.1630 H     1 <1>   0.0800 
@<TRIPOS>BOND
  1   1   2  1   
  2   1  26  1   
  3   2   3  1   
  4   2   4  1   
  5   2  27  1   
  6   3   5  1   
  7   3  28  1   
  8   3  29  1   
  9   4   6  1   
 10   4  30  1   
 11   4  31  1   
 12   5   7  1   
 13   5   8  1   
 14   6   8  1   
 15   6  32  1   
 16   6  33  1   
 17   7   9  ar  
 18   7  10  ar  
 19   8  34  1   
 20   8  35  1   
 21   9  11  ar  
 22  10  12  ar  
 23  10  36  1   
 24  11  13  ar  
 25  11  14  1   
 26  12  13  ar  
 27  12  37  1   
 28  13  38  1   
 29  14  15  1   
 30  14  39  1   
 31  15  16  1   
 32  15  40  1   
 33  15  41  1   
 34  16  17  2   
 35  16  18  1   
 36  17  19  1   
 37  18  20  2   
 38  18  21  1   
 39  19  20  1   
 40  19  42  1   
 41  20  22  1   
 42  21  23  1   
 43  21  43  1   
 44  21  44  1   
 45  22  24  1   
 46  22  45  1   
 47  22  46  1   
 48  23  25  1   
 49  23  47  1   
 50  23  48  1   
 51  24  25  1   
 52  24  49  1   
 53  24  50  1   
 54  25  51  1   
 55  25  52  1   
@<TRIPOS>SUBSTRUCTURE
  1 ****  14 GROUP 4 **** **** 0

# MOE 2024.06 (io_trps.svl 2023.06)
