@<TRIPOS>MOLECULE
NONAME
56 59 1 0 0 
SMALL
USER_CHARGES


@<TRIPOS>ATOM
  1 O       -3.3990     1.3820    -2.6610 O.2   1 <1>  -0.5700 
  2 C       -2.6260     1.4670    -1.7330 C.2   1 <1>   0.5690 
  3 N       -1.9360     0.3730    -1.3150 N.am  1 <1>  -0.7300 
  4 C       -2.4500     2.8050    -0.9750 C.3   1 <1>   0.2040 
  5 C       -2.0120    -0.9790    -1.9080 C.3   1 <1>   0.2200 
  6 C       -1.0400     2.8690    -0.3290 C.ar  1 <1>  -0.1440 
  7 C       -2.6390     4.0550    -1.8570 C.3   1 <1>  -0.1600 
  8 C       -3.6130     2.9840     0.0220 C.3   1 <1>  -0.1600 
  9 C       -2.8020    -1.9260    -1.0150 C.3   1 <1>  -0.0800 
 10 C       -0.6340    -1.6240    -1.8550 C.3   1 <1>   0.1200 
 11 C       -0.8130     3.0270     1.0370 C.ar  1 <1>  -0.1500 
 12 C        0.0700     2.7480    -1.1600 C.ar  1 <1>  -0.1500 
 13 C       -3.0230     5.1780    -0.8900 C.3   1 <1>  -0.1600 
 14 C       -3.7480     4.4920     0.2730 C.3   1 <1>  -0.1600 
 15 C       -1.7520    -2.4050    -0.0080 C.3   1 <1>   0.1200 
 16 C       -4.0730    -1.3380    -0.3730 C.3   1 <1>  -0.0170 
 17 O       -0.4990    -2.1060    -0.5530 O.3   1 <1>  -0.5600 
 18 C        0.4720     3.0580     1.5510 C.ar  1 <1>  -0.1500 
 19 C        1.3550     2.7790    -0.6510 C.ar  1 <1>  -0.1500 
 20 C       -4.8170    -2.3940     0.4280 C.ar  1 <1>  -0.1430 
 21 C        1.5680     2.9320     0.7060 C.ar  1 <1>   0.0820 
 22 C       -4.6740    -2.5120     1.7960 C.ar  1 <1>  -0.1500 
 23 C       -5.6730    -3.2920    -0.1750 C.ar  1 <1>  -0.1500 
 24 O        2.8570     2.9480     1.1270 O.3   1 <1>  -0.3630 
 25 C       -5.3720    -3.4980     2.4740 C.ar  1 <1>   0.1600 
 26 C       -6.3250    -4.2400     0.5960 C.ar  1 <1>   0.1600 
 27 C        3.1800     3.0840     2.4930 C.3   1 <1>   0.0400 
 28 N       -6.1920    -4.3660     1.9060 N.ar  1 <1>  -0.6200 
 29 H       -1.2430     0.4740    -0.5640 H     1 <1>   0.3700 
 30 H       -2.4020    -0.9320    -2.9110 H     1 <1>   0.0800 
 31 H       -1.7650     4.3030    -2.4310 H     1 <1>   0.0800 
 32 H       -3.4580     3.9000    -2.5380 H     1 <1>   0.0800 
 33 H       -4.5190     2.6490    -0.4540 H     1 <1>   0.0800 
 34 H       -3.4950     2.4110     0.9220 H     1 <1>   0.0800 
 35 H       -3.0880    -2.7760    -1.6090 H     1 <1>   0.0800 
 36 H        0.1600    -0.9300    -2.0690 H     1 <1>   0.0800 
 37 H       -0.5800    -2.4640    -2.5240 H     1 <1>   0.0800 
 38 H       -1.6230     3.1330     1.7320 H     1 <1>   0.1500 
 39 H       -0.0590     2.6250    -2.2220 H     1 <1>   0.1500 
 40 H       -2.1300     5.6560    -0.5230 H     1 <1>   0.0800 
 41 H       -3.6420     5.9150    -1.3700 H     1 <1>   0.0800 
 42 H       -4.7860     4.7770     0.3030 H     1 <1>   0.0800 
 43 H       -3.2870     4.7700     1.2050 H     1 <1>   0.0800 
 44 H       -1.8170    -3.4650     0.1650 H     1 <1>   0.0800 
 45 H       -1.8300    -1.8780     0.9270 H     1 <1>   0.0800 
 46 H       -4.7170    -0.9540    -1.1460 H     1 <1>   0.0800 
 47 H       -3.8230    -0.5160     0.2740 H     1 <1>   0.0800 
 48 H        0.6000     3.1830     2.6090 H     1 <1>   0.1500 
 49 H        2.2030     2.6830    -1.3050 H     1 <1>   0.1500 
 50 H       -4.0290    -1.8490     2.3420 H     1 <1>   0.1500 
 51 H       -5.8410    -3.2620    -1.2360 H     1 <1>   0.1500 
 52 H       -5.2480    -3.5760     3.5410 H     1 <1>   0.1500 
 53 H       -6.9900    -4.9330     0.1080 H     1 <1>   0.1500 
 54 H        4.2510     3.0650     2.5860 H     1 <1>   0.0800 
 55 H        2.7520     2.2610     3.0370 H     1 <1>   0.0800 
 56 H        2.7990     4.0250     2.8490 H     1 <1>   0.0800 
@<TRIPOS>BOND
  1   1   2  2   
  2   2   3  am  
  3   2   4  1   
  4   3   5  1   
  5   3  29  1   
  6   4   6  1   
  7   4   7  1   
  8   4   8  1   
  9   5   9  1   
 10   5  10  1   
 11   5  30  1   
 12   6  11  ar  
 13   6  12  ar  
 14   7  13  1   
 15   7  31  1   
 16   7  32  1   
 17   8  14  1   
 18   8  33  1   
 19   8  34  1   
 20   9  15  1   
 21   9  16  1   
 22   9  35  1   
 23  10  17  1   
 24  10  36  1   
 25  10  37  1   
 26  11  18  ar  
 27  11  38  1   
 28  12  19  ar  
 29  12  39  1   
 30  13  14  1   
 31  13  40  1   
 32  13  41  1   
 33  14  42  1   
 34  14  43  1   
 35  15  17  1   
 36  15  44  1   
 37  15  45  1   
 38  16  20  1   
 39  16  46  1   
 40  16  47  1   
 41  18  21  ar  
 42  18  48  1   
 43  19  21  ar  
 44  19  49  1   
 45  20  22  ar  
 46  20  23  ar  
 47  21  24  1   
 48  22  25  ar  
 49  22  50  1   
 50  23  26  ar  
 51  23  51  1   
 52  24  27  1   
 53  25  28  ar  
 54  25  52  1   
 55  26  28  ar  
 56  26  53  1   
 57  27  54  1   
 58  27  55  1   
 59  27  56  1   
@<TRIPOS>SUBSTRUCTURE
  1 ****   3 GROUP 4 **** **** 0

# MOE 2024.06 (io_trps.svl 2023.06)
