@<TRIPOS>MOLECULE
NONAME
51 54 1 0 0 
SMALL
USER_CHARGES


@<TRIPOS>ATOM
  1 O       -0.7710     0.8400    -1.5950 O.2   1 <1>  -0.5700 
  2 C       -0.4430     1.7010    -0.8120 C.2   1 <1>   0.5690 
  3 N       -1.2620     2.7500    -0.4740 N.am  1 <1>  -0.5090 
  4 C        0.9690     1.6110    -0.2210 C.3   1 <1>   0.1810 
  5 C       -0.7740     3.8500     0.4150 C.3   1 <1>   0.3640 
  6 C       -2.6780     2.8360    -0.9080 C.3   1 <1>   0.0490 
  7 O        1.2030     2.4970     0.8490 O.3   1 <1>  -0.5600 
  8 C       -1.1470     5.2260    -0.1340 C.ar  1 <1>  -0.1440 
  9 C        0.7560     3.8120     0.6040 C.3   1 <1>   0.2610 
 10 C       -3.7470     2.9300     0.1380 C.3   1 <1>  -0.2000 
 11 C       -3.5970     1.6800    -0.6680 C.3   1 <1>  -0.2000 
 12 C       -1.7210     6.1670     0.7100 C.ar  1 <1>   0.1600 
 13 C       -0.8810     5.5850    -1.4430 C.ar  1 <1>  -0.1500 
 14 C        1.1480     4.7920     1.7210 C.2   1 <1>   0.5690 
 15 N       -2.0310     7.4060     0.3660 N.ar  1 <1>  -0.6200 
 16 C       -1.1850     6.8760    -1.8130 C.ar  1 <1>  -0.1500 
 17 O        0.5110     4.7590     2.7530 O.2   1 <1>  -0.5700 
 18 N        2.1210     5.7450     1.5220 N.am  1 <1>  -0.6600 
 19 C       -1.7460     7.7340    -0.8850 C.ar  1 <1>   0.1600 
 20 C        3.1140     5.7480     0.4180 C.3   1 <1>   0.1400 
 21 C        2.0920     7.0220     2.2820 C.3   1 <1>   0.1400 
 22 C        2.7190     6.8310    -0.5890 C.3   1 <1>  -0.1600 
 23 C        1.6840     8.1470     1.3240 C.3   1 <1>  -0.1600 
 24 C        2.5960     8.2180     0.0810 C.3   1 <1>  -0.0190 
 25 C        2.1080     9.2920    -0.8930 C.2   1 <1>   0.5690 
 26 O        1.3660     9.0190    -1.8020 O.2   1 <1>  -0.5700 
 27 N        2.5170    10.5640    -0.7290 N.am  1 <1>  -0.8000 
 28 H        1.6890     1.8170    -0.9920 H     1 <1>   0.0800 
 29 H        1.1350     0.6130     0.1430 H     1 <1>   0.0800 
 30 H       -1.2390     3.7150     1.3760 H     1 <1>   0.0800 
 31 H       -2.7990     3.3990    -1.8190 H     1 <1>   0.1000 
 32 H        1.2040     4.1350    -0.3140 H     1 <1>   0.0800 
 33 H       -3.4900     2.8840     1.1810 H     1 <1>   0.1000 
 34 H       -4.5980     3.5590    -0.0520 H     1 <1>   0.1000 
 35 H       -4.3400     1.4540    -1.4120 H     1 <1>   0.1000 
 36 H       -3.1970     0.7960    -0.2020 H     1 <1>   0.1000 
 37 H       -1.9270     5.8920     1.7320 H     1 <1>   0.1500 
 38 H       -0.4460     4.8970    -2.1490 H     1 <1>   0.1500 
 39 H       -0.9830     7.2260    -2.8090 H     1 <1>   0.1500 
 40 H       -1.9690     8.7430    -1.1880 H     1 <1>   0.1500 
 41 H        4.0870     5.9660     0.8250 H     1 <1>   0.0800 
 42 H        3.1730     4.7850    -0.0570 H     1 <1>   0.0800 
 43 H        1.3880     6.9680     3.0960 H     1 <1>   0.0800 
 44 H        3.0660     7.2130     2.6970 H     1 <1>   0.0800 
 45 H        3.4530     6.8760    -1.3750 H     1 <1>   0.0800 
 46 H        1.7800     6.5620    -1.0390 H     1 <1>   0.0800 
 47 H        0.6670     7.9810     1.0120 H     1 <1>   0.0800 
 48 H        1.7080     9.0850     1.8490 H     1 <1>   0.0800 
 49 H        3.5790     8.5030     0.4110 H     1 <1>   0.0800 
 50 H        2.1800    11.2790    -1.3750 H     1 <1>   0.3700 
 51 H        3.1210    10.8820     0.0270 H     1 <1>   0.3700 
@<TRIPOS>BOND
  1   1   2  2   
  2   2   3  am  
  3   2   4  1   
  4   3   5  1   
  5   3   6  1   
  6   4   7  1   
  7   4  28  1   
  8   4  29  1   
  9   5   8  1   
 10   5   9  1   
 11   5  30  1   
 12   6  10  1   
 13   6  11  1   
 14   6  31  1   
 15   7   9  1   
 16   8  12  ar  
 17   8  13  ar  
 18   9  14  1   
 19   9  32  1   
 20  10  11  1   
 21  10  33  1   
 22  10  34  1   
 23  11  35  1   
 24  11  36  1   
 25  12  15  ar  
 26  12  37  1   
 27  13  16  ar  
 28  13  38  1   
 29  14  17  2   
 30  14  18  am  
 31  15  19  ar  
 32  16  19  ar  
 33  16  39  1   
 34  18  20  1   
 35  18  21  1   
 36  19  40  1   
 37  20  22  1   
 38  20  41  1   
 39  20  42  1   
 40  21  23  1   
 41  21  43  1   
 42  21  44  1   
 43  22  24  1   
 44  22  45  1   
 45  22  46  1   
 46  23  24  1   
 47  23  47  1   
 48  23  48  1   
 49  24  25  1   
 50  24  49  1   
 51  25  26  2   
 52  25  27  am  
 53  27  50  1   
 54  27  51  1   
@<TRIPOS>SUBSTRUCTURE
  1 ****   8 GROUP 4 **** **** 0

# MOE 2024.06 (io_trps.svl 2023.06)
