@<TRIPOS>MOLECULE
NONAME
56 58 1 0 0 
SMALL
USER_CHARGES


@<TRIPOS>ATOM
  1 F       -0.7460     1.0760     2.1880 F     1 <1>  -0.1900 
  2 C       -1.9660     1.1820     1.7270 C.ar  1 <1>   0.1900 
  3 C       -2.2470     1.8040     0.5050 C.ar  1 <1>   0.0820 
  4 C       -2.9680     0.6470     2.5140 C.ar  1 <1>  -0.1500 
  5 O       -1.3510     2.3680    -0.3560 O.3   1 <1>  -0.3630 
  6 C       -3.5710     1.8630     0.1040 C.ar  1 <1>  -0.1500 
  7 C       -4.2800     0.7230     2.0830 C.ar  1 <1>  -0.1500 
  8 C        0.0350     2.4130    -0.1020 C.3   1 <1>   0.0400 
  9 C       -4.6080     1.3250     0.8680 C.ar  1 <1>   0.0530 
 10 C       -5.9680     1.4010     0.4010 C.2   1 <1>   0.0870 
 11 O       -6.4430     2.5330    -0.0490 O.3   1 <1>  -0.0190 
 12 C       -6.9580     0.4780     0.2810 C.2   1 <1>  -0.0860 
 13 N       -7.6800     2.4380    -0.4560 N.2   1 <1>  -0.4100 
 14 C       -8.0230     1.2110    -0.2620 C.2   1 <1>   0.3720 
 15 C       -6.9340    -0.9180     0.5930 C.2   1 <1>   0.7160 
 16 N       -9.2950     0.7090    -0.5920 N.pl3 1 <1>  -0.8210 
 17 O       -6.7080    -1.2630     1.7400 O.2   1 <1>  -0.5700 
 18 N       -7.1430    -1.8920    -0.3600 N.am  1 <1>  -0.6600 
 19 C      -10.1810     1.5950    -1.3970 C.3   1 <1>   0.1290 
 20 C      -10.0310    -0.0440     0.4660 C.3   1 <1>   0.1290 
 21 C       -7.4020    -3.3000     0.0380 C.3   1 <1>   0.3210 
 22 C       -7.3840    -1.5850    -1.7980 C.3   1 <1>   0.0600 
 23 C       -8.8980    -3.5200     0.1800 C.2   1 <1>  -0.1810 
 24 C       -9.6640    -3.4100     1.3390 C.2   1 <1>   0.1080 
 25 C       -9.7870    -3.8530    -0.7810 C.2   1 <1>  -0.3020 
 26 N      -10.9200    -3.6380     1.1160 N.2   1 <1>  -0.7070 
 27 C       -9.1570    -3.0700     2.7240 C.3   1 <1>  -0.0590 
 28 N      -10.9980    -3.9200    -0.1960 N.pl3 1 <1>   0.3140 
 29 C      -12.2800    -4.2460    -0.8510 C.3   1 <1>   0.0960 
 30 C      -12.4240    -5.7580    -1.0650 C.3   1 <1>  -0.2400 
 31 H       -2.7230     0.1790     3.4500 H     1 <1>   0.1500 
 32 H       -3.8040     2.3400    -0.8320 H     1 <1>   0.1500 
 33 H       -5.0610     0.3150     2.7010 H     1 <1>   0.1500 
 34 H        0.5100     2.9160    -0.9250 H     1 <1>   0.0800 
 35 H        0.4110     1.4080    -0.0240 H     1 <1>   0.0800 
 36 H        0.2080     2.9610     0.8080 H     1 <1>   0.0800 
 37 H       -9.6370     1.9890    -2.2390 H     1 <1>   0.0800 
 38 H      -10.5280     2.4150    -0.7920 H     1 <1>   0.0800 
 39 H      -11.0250     1.0380    -1.7630 H     1 <1>   0.0800 
 40 H       -9.4160    -0.1900     1.3350 H     1 <1>   0.0800 
 41 H      -10.3240    -1.0060     0.0840 H     1 <1>   0.0800 
 42 H      -10.9140     0.4920     0.7670 H     1 <1>   0.0800 
 43 H       -6.9010    -3.5350     0.9600 H     1 <1>   0.0800 
 44 H       -7.0130    -3.9600    -0.7170 H     1 <1>   0.0800 
 45 H       -6.9360    -0.6450    -2.0690 H     1 <1>   0.0800 
 46 H       -8.4440    -1.5280    -1.9810 H     1 <1>   0.0800 
 47 H       -6.9590    -2.3540    -2.4170 H     1 <1>   0.0800 
 48 H       -9.6320    -4.0390    -1.8270 H     1 <1>   0.1500 
 49 H       -8.1730    -3.4690     2.8770 H     1 <1>   0.0800 
 50 H       -9.8170    -3.4870     3.4620 H     1 <1>   0.0800 
 51 H       -9.1280    -2.0050     2.8490 H     1 <1>   0.0800 
 52 H      -12.3240    -3.7290    -1.7910 H     1 <1>   0.0800 
 53 H      -13.0760    -3.8870    -0.2230 H     1 <1>   0.0800 
 54 H      -11.6390    -6.1250    -1.7030 H     1 <1>   0.0800 
 55 H      -13.3710    -5.9730    -1.5250 H     1 <1>   0.0800 
 56 H      -12.3800    -6.2680    -0.1180 H     1 <1>   0.0800 
@<TRIPOS>BOND
  1   1   2  1   
  2   2   3  ar  
  3   2   4  ar  
  4   3   5  1   
  5   3   6  ar  
  6   4   7  ar  
  7   4  31  1   
  8   5   8  1   
  9   6   9  ar  
 10   6  32  1   
 11   7   9  ar  
 12   7  33  1   
 13   8  34  1   
 14   8  35  1   
 15   8  36  1   
 16   9  10  1   
 17  10  11  1   
 18  10  12  2   
 19  11  13  1   
 20  12  14  1   
 21  12  15  1   
 22  13  14  2   
 23  14  16  1   
 24  15  17  2   
 25  15  18  am  
 26  16  19  1   
 27  16  20  1   
 28  18  21  1   
 29  18  22  1   
 30  19  37  1   
 31  19  38  1   
 32  19  39  1   
 33  20  40  1   
 34  20  41  1   
 35  20  42  1   
 36  21  23  1   
 37  21  43  1   
 38  21  44  1   
 39  22  45  1   
 40  22  46  1   
 41  22  47  1   
 42  23  24  1   
 43  23  25  2   
 44  24  26  2   
 45  24  27  1   
 46  25  28  1   
 47  25  48  1   
 48  26  28  1   
 49  27  49  1   
 50  27  50  1   
 51  27  51  1   
 52  28  29  1   
 53  29  30  1   
 54  29  52  1   
 55  29  53  1   
 56  30  54  1   
 57  30  55  1   
 58  30  56  1   
@<TRIPOS>SUBSTRUCTURE
  1 ****  15 GROUP 4 **** **** 0

# MOE 2024.06 (io_trps.svl 2023.06)
