@<TRIPOS>MOLECULE
NONAME
60 62 1 0 0 
SMALL
USER_CHARGES


@<TRIPOS>ATOM
  1 O       -0.2750     1.7540    -1.5130 O.2   1 <1>  -0.5700 
  2 C       -0.5210     2.9210    -1.3120 C.2   1 <1>   0.5690 
  3 N       -1.2250     3.3720    -0.2280 N.am  1 <1>  -0.5090 
  4 C       -0.0460     3.9450    -2.3370 C.3   1 <1>   0.1810 
  5 C       -1.6910     4.7920    -0.1560 C.3   1 <1>   0.3640 
  6 C       -1.7160     2.4840     0.8510 C.3   1 <1>   0.0490 
  7 O        0.2020     5.1890    -1.7360 O.3   1 <1>  -0.5600 
  8 C       -3.1950     4.8680    -0.4370 C.ar  1 <1>  -0.1440 
  9 C       -0.9280     5.7700    -1.0940 C.3   1 <1>   0.2610 
 10 C       -1.2680     2.7560     2.2530 C.3   1 <1>  -0.2000 
 11 C       -0.7670     1.5480     1.5300 C.3   1 <1>  -0.2000 
 12 C       -3.8110     4.0660    -1.3920 C.ar  1 <1>  -0.1500 
 13 C       -3.9710     5.7750     0.2720 C.ar  1 <1>  -0.1500 
 14 C       -0.5030     6.9920    -0.2750 C.2   1 <1>   0.5690 
 15 C       -5.1710     4.1700    -1.6250 C.ar  1 <1>  -0.1500 
 16 C       -5.3310     5.8820     0.0400 C.ar  1 <1>  -0.1500 
 17 O       -1.3600     7.6980     0.2040 O.2   1 <1>  -0.5700 
 18 N        0.8250     7.2150    -0.0920 N.am  1 <1>  -0.7300 
 19 C       -5.9400     5.0760    -0.9160 C.ar  1 <1>   0.0830 
 20 C        1.5240     8.2650     0.6690 C.3   1 <1>   0.3000 
 21 O       -7.2640     5.1160    -1.2070 O.3   1 <1>  -0.3620 
 22 C        3.0560     7.9980     0.5930 C.3   1 <1>  -0.1600 
 23 C        1.0540     8.2380     2.1470 C.3   1 <1>  -0.1600 
 24 C        1.1740     9.6520     0.0690 C.3   1 <1>  -0.1600 
 25 C       -8.1310     6.0130    -0.5510 C.3   1 <1>   0.0400 
 26 C        3.5940     7.2610    -0.6530 C.3   1 <1>  -0.2400 
 27 C        1.0550     6.8630     2.8490 C.3   1 <1>  -0.2400 
 28 C        1.5270     9.8790    -1.4110 C.3   1 <1>  -0.2400 
 29 H       -0.7870     4.0700    -3.1060 H     1 <1>   0.0800 
 30 H        0.8710     3.6050    -2.7820 H     1 <1>   0.0800 
 31 H       -1.5350     5.1210     0.8570 H     1 <1>   0.0800 
 32 H       -2.7280     2.1530     0.6870 H     1 <1>   0.1000 
 33 H       -1.5910     6.1130    -1.8670 H     1 <1>   0.0800 
 34 H       -0.5670     3.5480     2.4490 H     1 <1>   0.1000 
 35 H       -1.9670     2.6100     3.0580 H     1 <1>   0.1000 
 36 H       -1.1300     0.5800     1.8260 H     1 <1>   0.1000 
 37 H        0.2540     1.5190     1.1910 H     1 <1>   0.1000 
 38 H       -3.2460     3.3480    -1.9600 H     1 <1>   0.1500 
 39 H       -3.5190     6.4140     1.0130 H     1 <1>   0.1500 
 40 H       -5.6460     3.5470    -2.3610 H     1 <1>   0.1500 
 41 H       -5.8940     6.5970     0.6080 H     1 <1>   0.1500 
 42 H        1.4580     6.5900    -0.5960 H     1 <1>   0.3700 
 43 H        3.5680     8.9400     0.6800 H     1 <1>   0.0800 
 44 H        3.3670     7.4280     1.4460 H     1 <1>   0.0800 
 45 H        1.6730     8.9110     2.7130 H     1 <1>   0.0800 
 46 H        0.0540     8.6300     2.2000 H     1 <1>   0.0800 
 47 H        0.1180     9.8210     0.1860 H     1 <1>   0.0800 
 48 H        1.6660    10.4120     0.6500 H     1 <1>   0.0800 
 49 H       -9.1210     5.8700    -0.9450 H     1 <1>   0.0800 
 50 H       -7.8030     7.0190    -0.7430 H     1 <1>   0.0800 
 51 H       -8.1230     5.7990     0.5030 H     1 <1>   0.0800 
 52 H        3.2570     7.7190    -1.5640 H     1 <1>   0.0800 
 53 H        3.2850     6.2300    -0.6500 H     1 <1>   0.0800 
 54 H        4.6690     7.2800    -0.6460 H     1 <1>   0.0800 
 55 H        2.0360     6.4260     2.8730 H     1 <1>   0.0800 
 56 H        0.3870     6.1820     2.3530 H     1 <1>   0.0800 
 57 H        0.7160     6.9790     3.8630 H     1 <1>   0.0800 
 58 H        1.0990     9.1090    -2.0280 H     1 <1>   0.0800 
 59 H        2.5920     9.8990    -1.5520 H     1 <1>   0.0800 
 60 H        1.1320    10.8260    -1.7340 H     1 <1>   0.0800 
@<TRIPOS>BOND
  1   1   2  2   
  2   2   3  am  
  3   2   4  1   
  4   3   5  1   
  5   3   6  1   
  6   4   7  1   
  7   4  29  1   
  8   4  30  1   
  9   5   8  1   
 10   5   9  1   
 11   5  31  1   
 12   6  10  1   
 13   6  11  1   
 14   6  32  1   
 15   7   9  1   
 16   8  12  ar  
 17   8  13  ar  
 18   9  14  1   
 19   9  33  1   
 20  10  11  1   
 21  10  34  1   
 22  10  35  1   
 23  11  36  1   
 24  11  37  1   
 25  12  15  ar  
 26  12  38  1   
 27  13  16  ar  
 28  13  39  1   
 29  14  17  2   
 30  14  18  am  
 31  15  19  ar  
 32  15  40  1   
 33  16  19  ar  
 34  16  41  1   
 35  18  20  1   
 36  18  42  1   
 37  19  21  1   
 38  20  22  1   
 39  20  23  1   
 40  20  24  1   
 41  21  25  1   
 42  22  26  1   
 43  22  43  1   
 44  22  44  1   
 45  23  27  1   
 46  23  45  1   
 47  23  46  1   
 48  24  28  1   
 49  24  47  1   
 50  24  48  1   
 51  25  49  1   
 52  25  50  1   
 53  25  51  1   
 54  26  52  1   
 55  26  53  1   
 56  26  54  1   
 57  27  55  1   
 58  27  56  1   
 59  27  57  1   
 60  28  58  1   
 61  28  59  1   
 62  28  60  1   
@<TRIPOS>SUBSTRUCTURE
  1 ****   5 GROUP 4 **** **** 0

# MOE 2024.06 (io_trps.svl 2023.06)
