@<TRIPOS>MOLECULE
NONAME
47 49 1 0 0 
SMALL
USER_CHARGES


@<TRIPOS>ATOM
  1 S       -0.2280     0.0500     0.9100 S.o2  1 <1>   1.4470 
  2 O        0.0770    -1.2490     1.4760 O.2   1 <1>  -0.6500 
  3 O       -0.8630     1.0010     1.7910 O.2   1 <1>  -0.6500 
  4 N       -1.3130    -0.2600    -0.3720 N.am  1 <1>  -0.8490 
  5 C        1.2080     0.7450     0.0690 C.ar  1 <1>  -0.0090 
  6 C       -1.4600    -1.6800    -0.7220 C.3   1 <1>   0.1960 
  7 C       -2.6120     0.4290    -0.2950 C.3   1 <1>   0.1960 
  8 C        1.4770     2.1040     0.0240 C.ar  1 <1>   0.1900 
  9 C        2.1090    -0.0570    -0.6140 C.ar  1 <1>   0.1900 
 10 C       -2.3590    -2.4310     0.3000 C.3   1 <1>   0.4230 
 11 C       -3.5540    -0.2680     0.7030 C.3   1 <1>  -0.1600 
 12 F        0.6670     2.9490     0.5980 F     1 <1>  -0.1900 
 13 C        2.5780     2.6420    -0.6230 C.ar  1 <1>  -0.1500 
 14 F        1.9160    -1.3470    -0.6670 F     1 <1>  -0.1900 
 15 C        3.2240     0.4360    -1.2730 C.ar  1 <1>  -0.1500 
 16 N       -2.3820    -3.9440     0.1240 N.4   1 <1>  -0.9590 
 17 C       -3.7670    -1.7810     0.4140 C.3   1 <1>   0.0000 
 18 C        3.4620     1.8000    -1.2750 C.ar  1 <1>  -0.1500 
 19 C       -3.5290    -4.6200     0.8120 C.3   1 <1>   0.3430 
 20 C       -2.2600    -4.4390    -1.2860 C.3   1 <1>   0.2630 
 21 C       -4.5330    -2.4200     1.6100 C.3   1 <1>  -0.1600 
 22 C       -4.5620    -1.9780    -0.9080 C.3   1 <1>   0.1200 
 23 C       -4.0020    -3.8090     2.0170 C.3   1 <1>  -0.1600 
 24 O       -5.7320    -1.2370    -0.9170 O.3   1 <1>  -0.6800 
 25 H       -1.8800    -1.7400    -1.7090 H     1 <1>   0.0800 
 26 H       -0.4880    -2.1410    -0.7560 H     1 <1>   0.0800 
 27 H       -2.4700     1.4600    -0.0110 H     1 <1>   0.0800 
 28 H       -3.0670     0.4350    -1.2720 H     1 <1>   0.0800 
 29 H       -1.9030    -2.2610     1.2600 H     1 <1>   0.0800 
 30 H       -3.1470    -0.1370     1.6900 H     1 <1>   0.0800 
 31 H       -4.4950     0.2540     0.7010 H     1 <1>   0.0800 
 32 H        2.7360     3.7070    -0.6160 H     1 <1>   0.1500 
 33 H        3.8930    -0.2390    -1.7790 H     1 <1>   0.1500 
 34 H       -1.5340    -4.2570     0.6240 H     1 <1>   0.4500 
 35 H        4.3250     2.2020    -1.7810 H     1 <1>   0.1500 
 36 H       -4.3550    -4.7250     0.1270 H     1 <1>   0.0800 
 37 H       -3.2350    -5.6080     1.1300 H     1 <1>   0.0800 
 38 H       -3.0950    -4.1020    -1.8790 H     1 <1>   0.0800 
 39 H       -2.2420    -5.5170    -1.3020 H     1 <1>   0.0800 
 40 H       -1.3480    -4.0810    -1.7360 H     1 <1>   0.0800 
 41 H       -4.4720    -1.7880     2.4810 H     1 <1>   0.0800 
 42 H       -5.5800    -2.5020     1.3780 H     1 <1>   0.0800 
 43 H       -4.8340    -3.0080    -1.0550 H     1 <1>   0.0800 
 44 H       -3.9970    -1.6520    -1.7620 H     1 <1>   0.0800 
 45 H       -4.7820    -4.3490     2.5260 H     1 <1>   0.0800 
 46 H       -3.1870    -3.7050     2.7140 H     1 <1>   0.0800 
 47 H       -6.3410    -1.4940    -0.1970 H     1 <1>   0.4000 
@<TRIPOS>BOND
  1   1   2  2   
  2   1   3  2   
  3   1   4  am  
  4   1   5  1   
  5   4   6  1   
  6   4   7  1   
  7   5   8  ar  
  8   5   9  ar  
  9   6  10  1   
 10   6  25  1   
 11   6  26  1   
 12   7  11  1   
 13   7  27  1   
 14   7  28  1   
 15   8  12  1   
 16   8  13  ar  
 17   9  14  1   
 18   9  15  ar  
 19  10  16  1   
 20  10  17  1   
 21  10  29  1   
 22  11  17  1   
 23  11  30  1   
 24  11  31  1   
 25  13  18  ar  
 26  13  32  1   
 27  15  18  ar  
 28  15  33  1   
 29  16  19  1   
 30  16  20  1   
 31  16  34  1   
 32  17  21  1   
 33  17  22  1   
 34  18  35  1   
 35  19  23  1   
 36  19  36  1   
 37  19  37  1   
 38  20  38  1   
 39  20  39  1   
 40  20  40  1   
 41  21  23  1   
 42  21  41  1   
 43  21  42  1   
 44  22  24  1   
 45  22  43  1   
 46  22  44  1   
 47  23  45  1   
 48  23  46  1   
 49  24  47  1   
@<TRIPOS>SUBSTRUCTURE
  1 ****   4 GROUP 4 **** **** 0

# MOE 2024.06 (io_trps.svl 2023.06)
