@<TRIPOS>MOLECULE
NONAME
42 43 1 0 0 
SMALL
USER_CHARGES


@<TRIPOS>ATOM
  1 O        1.4900    -0.7120    -1.2980 O.co2 1 <1>  -0.9000 
  2 C        1.1020    -0.7510    -0.1180 C.2   1 <1>   0.9060 
  3 O        0.0880    -0.1910     0.2940 O.co2 1 <1>  -0.9000 
  4 C        2.0050    -1.5200     0.8520 C.3   1 <1>   0.2370 
  5 N        3.2870    -1.9440     0.1530 N.4   1 <1>  -0.9590 
  6 C        3.5410    -3.4080     0.2610 C.3   1 <1>   0.5240 
  7 C        4.4870    -1.1180     0.4740 C.3   1 <1>   0.3430 
  8 C        2.3790    -4.2480    -0.2580 C.2   1 <1>   0.0460 
  9 C        4.4230     0.3390    -0.0270 C.3   1 <1>   0.0640 
 10 N        2.1360    -5.4550     0.2860 N.2   1 <1>  -0.5650 
 11 C        1.4800    -3.9730    -1.2300 C.2   1 <1>  -0.3020 
 12 C        5.8510     0.7930    -0.3090 C.ar  1 <1>  -0.1440 
 13 C        3.7530     1.3120     0.9590 C.3   1 <1>  -0.2400 
 14 C        1.0960    -5.8840    -0.3520 C.2   1 <1>   0.0060 
 15 N        0.6460    -5.0240    -1.2900 N.pl3 1 <1>   0.0330 
 16 C        6.2330     1.0950    -1.6080 C.ar  1 <1>  -0.1500 
 17 C        6.7890     0.9020     0.7110 C.ar  1 <1>  -0.1500 
 18 C        0.4340    -7.2190    -0.0830 C.3   1 <1>  -0.0600 
 19 C        7.5290     1.4910    -1.8870 C.ar  1 <1>  -0.1500 
 20 C        8.0860     1.2980     0.4330 C.ar  1 <1>  -0.1500 
 21 C        8.4570     1.5920    -0.8670 C.ar  1 <1>  -0.1500 
 22 H        1.4510    -2.3790     1.1850 H     1 <1>   0.0800 
 23 H        2.2130    -0.8930     1.6980 H     1 <1>   0.0800 
 24 H        3.0110    -1.7410    -0.8380 H     1 <1>   0.4500 
 25 H        3.7030    -3.6660     1.2940 H     1 <1>   0.0800 
 26 H        4.4250    -3.6730    -0.2930 H     1 <1>   0.0800 
 27 H        5.3420    -1.5730     0.0000 H     1 <1>   0.0800 
 28 H        4.6660    -1.1220     1.5360 H     1 <1>   0.0800 
 29 H        3.8740     0.3630    -0.9540 H     1 <1>   0.0800 
 30 H        1.3710    -3.1110    -1.8690 H     1 <1>   0.1500 
 31 H        4.1800     1.2330     1.9420 H     1 <1>   0.0800 
 32 H        2.6950     1.1400     1.0240 H     1 <1>   0.0800 
 33 H        3.8890     2.3220     0.6110 H     1 <1>   0.0800 
 34 H       -0.1630    -5.1400    -1.9080 H     1 <1>   0.2700 
 35 H        5.5230     1.0270    -2.4160 H     1 <1>   0.1500 
 36 H        6.5230     0.6850     1.7300 H     1 <1>   0.1500 
 37 H        0.9580    -7.7340     0.7020 H     1 <1>   0.0800 
 38 H        0.4550    -7.8270    -0.9680 H     1 <1>   0.0800 
 39 H       -0.5850    -7.0700     0.2240 H     1 <1>   0.0800 
 40 H        7.8150     1.7240    -2.8980 H     1 <1>   0.1500 
 41 H        8.8080     1.3830     1.2270 H     1 <1>   0.1500 
 42 H        9.4650     1.9020    -1.0830 H     1 <1>   0.1500 
@<TRIPOS>BOND
  1   1   2  ar  
  2   2   3  ar  
  3   2   4  1   
  4   4   5  1   
  5   4  22  1   
  6   4  23  1   
  7   5   6  1   
  8   5   7  1   
  9   5  24  1   
 10   6   8  1   
 11   6  25  1   
 12   6  26  1   
 13   7   9  1   
 14   7  27  1   
 15   7  28  1   
 16   8  10  1   
 17   8  11  2   
 18   9  12  1   
 19   9  13  1   
 20   9  29  1   
 21  10  14  2   
 22  11  15  1   
 23  11  30  1   
 24  12  16  ar  
 25  12  17  ar  
 26  13  31  1   
 27  13  32  1   
 28  13  33  1   
 29  14  15  1   
 30  14  18  1   
 31  15  34  1   
 32  16  19  ar  
 33  16  35  1   
 34  17  20  ar  
 35  17  36  1   
 36  18  37  1   
 37  18  38  1   
 38  18  39  1   
 39  19  21  ar  
 40  19  40  1   
 41  20  21  ar  
 42  20  41  1   
 43  21  42  1   
@<TRIPOS>SUBSTRUCTURE
  1 ****   5 GROUP 4 **** **** 0

# MOE 2024.06 (io_trps.svl 2023.06)
