@<TRIPOS>MOLECULE
NONAME
53 56 1 0 0 
SMALL
USER_CHARGES


@<TRIPOS>ATOM
  1 O       -0.6350     0.2620     0.7030 O.2   1 <1>  -0.5700 
  2 C       -1.6050     0.8180     0.2460 C.2   1 <1>   0.5690 
  3 N       -2.6830     0.1060    -0.1960 N.am  1 <1>  -0.6600 
  4 C       -1.6290     2.3370     0.1720 C.3   1 <1>  -0.0990 
  5 C       -3.9650     0.6460    -0.7160 C.3   1 <1>   0.1400 
  6 C       -2.7430    -1.3750    -0.1180 C.3   1 <1>   0.1400 
  7 C       -0.2790     2.9810     0.5100 C.3   1 <1>   0.0210 
  8 C       -4.9640    -0.4860    -0.4870 C.3   1 <1>   0.2000 
  9 C       -4.1230    -1.7560    -0.6760 C.3   1 <1>  -0.0800 
 10 C       -0.2440     4.5050     0.4190 C.2   1 <1>  -0.1810 
 11 O       -5.4030    -0.4050     0.8260 O.3   1 <1>  -0.6800 
 12 C       -4.7310    -3.0270    -0.0460 C.3   1 <1>  -0.0170 
 13 C       -1.1430     5.4720     0.1360 C.2   1 <1>  -0.0400 
 14 C        0.9250     5.2330     0.6580 C.2   1 <1>   0.1080 
 15 C       -4.0150    -4.3530    -0.3340 C.ar  1 <1>  -0.1440 
 16 O       -0.5270     6.6220     0.2110 O.3   1 <1>  -0.0190 
 17 C       -2.6160     5.5240    -0.2260 C.3   1 <1>  -0.0600 
 18 N        0.7240     6.4920     0.5260 N.2   1 <1>  -0.4100 
 19 C        2.2730     4.6490     1.0280 C.3   1 <1>  -0.0590 
 20 C       -4.4100    -5.5250     0.3580 C.ar  1 <1>   0.0000 
 21 C       -3.0040    -4.4850    -1.2450 C.ar  1 <1>  -0.1500 
 22 C       -3.7180    -6.7300     0.0770 C.ar  1 <1>   0.3100 
 23 C       -5.4570    -5.5770     1.3100 C.ar  1 <1>  -0.1500 
 24 C       -2.3890    -5.7260    -1.4500 C.ar  1 <1>   0.1600 
 25 N       -2.7120    -6.8130    -0.8270 N.ar  1 <1>  -0.6200 
 26 C       -4.0860    -7.9030     0.7560 C.ar  1 <1>  -0.1500 
 27 C       -5.7920    -6.7380     1.9530 C.ar  1 <1>  -0.1500 
 28 C       -5.0980    -7.9170     1.6760 C.ar  1 <1>  -0.1500 
 29 H       -1.9060     2.6220    -0.8260 H     1 <1>   0.0800 
 30 H       -2.3670     2.6910     0.8650 H     1 <1>   0.0800 
 31 H       -4.2670     1.5460    -0.2110 H     1 <1>   0.0800 
 32 H       -3.8630     0.8360    -1.7700 H     1 <1>   0.0800 
 33 H       -1.9420    -1.8120    -0.6880 H     1 <1>   0.0800 
 34 H       -2.6460    -1.6770     0.9120 H     1 <1>   0.0800 
 35 H        0.4660     2.5840    -0.1570 H     1 <1>   0.0800 
 36 H       -0.0020     2.6960     1.5110 H     1 <1>   0.0800 
 37 H       -5.8200    -0.4360    -1.1380 H     1 <1>   0.0800 
 38 H       -4.0260    -1.9070    -1.7360 H     1 <1>   0.0800 
 39 H       -4.6240    -0.3390     1.4160 H     1 <1>   0.4000 
 40 H       -5.7490    -3.1190    -0.3850 H     1 <1>   0.0800 
 41 H       -4.7590    -2.8890     1.0210 H     1 <1>   0.0800 
 42 H       -3.0630     4.5530    -0.2630 H     1 <1>   0.0800 
 43 H       -2.7290     5.9910    -1.1870 H     1 <1>   0.0800 
 44 H       -3.1400     6.1140     0.5040 H     1 <1>   0.0800 
 45 H        2.1880     4.0740     1.9320 H     1 <1>   0.0800 
 46 H        2.9840     5.4390     1.1870 H     1 <1>   0.0800 
 47 H        2.6280     4.0170     0.2350 H     1 <1>   0.0800 
 48 H       -2.6390    -3.6690    -1.8350 H     1 <1>   0.1500 
 49 H       -6.0110    -4.6860     1.5390 H     1 <1>   0.1500 
 50 H       -1.5940    -5.7790    -2.1740 H     1 <1>   0.1500 
 51 H       -3.5390    -8.7980     0.5240 H     1 <1>   0.1500 
 52 H       -6.5900    -6.7580     2.6750 H     1 <1>   0.1500 
 53 H       -5.3690    -8.8240     2.1890 H     1 <1>   0.1500 
@<TRIPOS>BOND
  1   1   2  2   
  2   2   3  am  
  3   2   4  1   
  4   3   5  1   
  5   3   6  1   
  6   4   7  1   
  7   4  29  1   
  8   4  30  1   
  9   5   8  1   
 10   5  31  1   
 11   5  32  1   
 12   6   9  1   
 13   6  33  1   
 14   6  34  1   
 15   7  10  1   
 16   7  35  1   
 17   7  36  1   
 18   8   9  1   
 19   8  11  1   
 20   8  37  1   
 21   9  12  1   
 22   9  38  1   
 23  10  13  2   
 24  10  14  1   
 25  11  39  1   
 26  12  15  1   
 27  12  40  1   
 28  12  41  1   
 29  13  16  1   
 30  13  17  1   
 31  14  18  2   
 32  14  19  1   
 33  15  20  ar  
 34  15  21  ar  
 35  16  18  1   
 36  17  42  1   
 37  17  43  1   
 38  17  44  1   
 39  19  45  1   
 40  19  46  1   
 41  19  47  1   
 42  20  22  ar  
 43  20  23  ar  
 44  21  24  ar  
 45  21  48  1   
 46  22  25  ar  
 47  22  26  ar  
 48  23  27  ar  
 49  23  49  1   
 50  24  25  ar  
 51  24  50  1   
 52  26  28  ar  
 53  26  51  1   
 54  27  28  ar  
 55  27  52  1   
 56  28  53  1   
@<TRIPOS>SUBSTRUCTURE
  1 ****   6 GROUP 4 **** **** 0

# MOE 2024.06 (io_trps.svl 2023.06)
