@<TRIPOS>MOLECULE
NONAME
51 53 1 0 0 
SMALL
USER_CHARGES


@<TRIPOS>ATOM
  1 O       -0.7800     0.2480    -1.2470 O.2   1 <1>  -0.5700 
  2 C       -1.7240     0.7680    -0.6970 C.2   1 <1>   0.5690 
  3 N       -2.8260     0.0530    -0.3190 N.am  1 <1>  -0.6600 
  4 C       -1.6170     2.2780    -0.4240 C.3   1 <1>   0.4040 
  5 C       -4.0580     0.5650     0.3400 C.3   1 <1>   0.1400 
  6 C       -2.9480    -1.4070    -0.5710 C.3   1 <1>   0.1400 
  7 N       -0.1860     2.7620    -0.3690 N.4   1 <1>  -0.9590 
  8 C       -4.9900    -0.6440     0.4450 C.3   1 <1>   0.2000 
  9 C       -4.0930    -1.8740     0.3300 C.3   1 <1>  -0.0800 
 10 C        0.4990     2.2600     0.8570 C.3   1 <1>   0.3430 
 11 C       -0.0890     4.2270    -0.6020 C.3   1 <1>   0.3430 
 12 O       -5.6630    -0.6530     1.6560 O.3   1 <1>  -0.6800 
 13 C       -4.8400    -3.1120    -0.1970 C.3   1 <1>  -0.0170 
 14 C        1.9860     2.0600     0.5710 C.3   1 <1>  -0.1600 
 15 C        1.3540     4.6860    -0.8240 C.3   1 <1>  -0.1600 
 16 C       -3.9230    -4.3200    -0.2940 C.ar  1 <1>   0.1670 
 17 C        2.8640     3.3100     0.7540 C.3   1 <1>  -0.1600 
 18 C        2.2010     4.6620     0.4570 C.3   1 <1>  -0.1600 
 19 N       -3.1430    -4.3790    -1.3620 N.ar  1 <1>  -0.6200 
 20 C       -3.9360    -5.2760     0.7110 C.ar  1 <1>  -0.1500 
 21 C       -2.3430    -5.4310    -1.4320 C.ar  1 <1>   0.1600 
 22 C       -3.0960    -6.3660     0.6260 C.ar  1 <1>  -0.1500 
 23 C       -2.2800    -6.4360    -0.4820 C.ar  1 <1>  -0.1500 
 24 H       -2.1160     2.5040     0.5020 H     1 <1>   0.0800 
 25 H       -2.1360     2.7830    -1.2200 H     1 <1>   0.0800 
 26 H       -3.8160     0.9390     1.3200 H     1 <1>   0.0800 
 27 H       -4.5170     1.3340    -0.2560 H     1 <1>   0.0800 
 28 H       -3.1900    -1.5680    -1.6090 H     1 <1>   0.0800 
 29 H       -2.0300    -1.9240    -0.3430 H     1 <1>   0.0800 
 30 H        0.2760     2.2690    -1.1530 H     1 <1>   0.4500 
 31 H       -5.7190    -0.6120    -0.3470 H     1 <1>   0.0800 
 32 H       -3.6650    -2.1030     1.2900 H     1 <1>   0.0800 
 33 H        0.3570     2.9340     1.6860 H     1 <1>   0.0800 
 34 H        0.0860     1.3000     1.1240 H     1 <1>   0.0800 
 35 H       -0.6610     4.4830    -1.4790 H     1 <1>   0.0800 
 36 H       -0.5090     4.7610     0.2350 H     1 <1>   0.0800 
 37 H       -5.0620    -0.8880     2.3890 H     1 <1>   0.4000 
 38 H       -5.2510    -2.9100    -1.1710 H     1 <1>   0.0800 
 39 H       -5.6620    -3.3360     0.4590 H     1 <1>   0.0800 
 40 H        2.3550     1.3060     1.2450 H     1 <1>   0.0800 
 41 H        2.1120     1.6630    -0.4220 H     1 <1>   0.0800 
 42 H        1.8230     4.1210    -1.6110 H     1 <1>   0.0800 
 43 H        1.3080     5.7070    -1.1590 H     1 <1>   0.0800 
 44 H        3.2230     3.3370     1.7700 H     1 <1>   0.0800 
 45 H        3.7330     3.2030     0.1270 H     1 <1>   0.0800 
 46 H        2.9870     5.3930     0.3620 H     1 <1>   0.0800 
 47 H        1.6000     4.9690     1.2980 H     1 <1>   0.0800 
 48 H       -4.5940    -5.1730     1.5540 H     1 <1>   0.1500 
 49 H       -1.7020    -5.4970    -2.2940 H     1 <1>   0.1500 
 50 H       -3.0790    -7.1260     1.3880 H     1 <1>   0.1500 
 51 H       -1.6010    -7.2580    -0.6110 H     1 <1>   0.1500 
@<TRIPOS>BOND
  1   1   2  2   
  2   2   3  am  
  3   2   4  1   
  4   3   5  1   
  5   3   6  1   
  6   4   7  1   
  7   4  24  1   
  8   4  25  1   
  9   5   8  1   
 10   5  26  1   
 11   5  27  1   
 12   6   9  1   
 13   6  28  1   
 14   6  29  1   
 15   7  10  1   
 16   7  11  1   
 17   7  30  1   
 18   8   9  1   
 19   8  12  1   
 20   8  31  1   
 21   9  13  1   
 22   9  32  1   
 23  10  14  1   
 24  10  33  1   
 25  10  34  1   
 26  11  15  1   
 27  11  35  1   
 28  11  36  1   
 29  12  37  1   
 30  13  16  1   
 31  13  38  1   
 32  13  39  1   
 33  14  17  1   
 34  14  40  1   
 35  14  41  1   
 36  15  18  1   
 37  15  42  1   
 38  15  43  1   
 39  16  19  ar  
 40  16  20  ar  
 41  17  18  1   
 42  17  44  1   
 43  17  45  1   
 44  18  46  1   
 45  18  47  1   
 46  19  21  ar  
 47  20  22  ar  
 48  20  48  1   
 49  21  23  ar  
 50  21  49  1   
 51  22  23  ar  
 52  22  50  1   
 53  23  51  1   
@<TRIPOS>SUBSTRUCTURE
  1 ****   3 GROUP 4 **** **** 0

# MOE 2024.06 (io_trps.svl 2023.06)
