@<TRIPOS>MOLECULE
NONAME
54 56 1 0 0 
SMALL
USER_CHARGES


@<TRIPOS>ATOM
  1 O        1.7010    -0.2920    -0.6020 O.3   1 <1>  -0.5600 
  2 C        2.0550     0.7970     0.1790 C.3   1 <1>   0.1200 
  3 C        1.1320    -1.3510     0.1040 C.3   1 <1>   0.0400 
  4 C        2.6330     1.8560    -0.7670 C.3   1 <1>   0.3430 
  5 N        3.0120     3.1280    -0.0660 N.4   1 <1>  -0.9590 
  6 C        3.3330     4.1990    -1.0810 C.3   1 <1>   0.3430 
  7 C        4.1800     2.9340     0.8740 C.3   1 <1>   0.3430 
  8 C        3.7660     5.5350    -0.4340 C.3   1 <1>   0.2090 
  9 C        4.6080     4.2480     1.5630 C.3   1 <1>   0.2090 
 10 N        4.8670     5.3250     0.5560 N.pl3 1 <1>  -0.8380 
 11 C        6.1340     5.7270     0.2910 C.ar  1 <1>   0.4100 
 12 N        7.0010     4.7650     0.0490 N.ar  1 <1>  -0.6200 
 13 C        6.4920     7.0970     0.2710 C.ar  1 <1>  -0.1440 
 14 C        8.2490     5.1130    -0.2420 C.ar  1 <1>   0.7710 
 15 C        7.7770     7.4180    -0.0360 C.ar  1 <1>   0.2180 
 16 C        5.4630     8.1800     0.6120 C.3   1 <1>  -0.0170 
 17 N        8.6310     6.4000    -0.2860 N.ar  1 <1>  -0.1790 
 18 N        9.1750     4.1480    -0.5050 N.pl3 1 <1>  -0.8380 
 19 C        8.3140     8.8460    -0.0910 C.3   1 <1>  -0.0170 
 20 C        6.1170     9.5260     0.9490 C.3   1 <1>  -0.1600 
 21 C        8.8800     2.6910    -0.2980 C.3   1 <1>   0.1290 
 22 C       10.5540     4.3560    -1.0540 C.3   1 <1>   0.1290 
 23 C        7.1880     9.8890    -0.0840 C.3   1 <1>  -0.1600 
 24 H        2.7860     0.4710     0.8970 H     1 <1>   0.0800 
 25 H        1.1700     1.1630     0.6700 H     1 <1>   0.0800 
 26 H        0.9000    -2.1340    -0.5970 H     1 <1>   0.0800 
 27 H        0.2270    -1.0190     0.5830 H     1 <1>   0.0800 
 28 H        1.8360    -1.7180     0.8320 H     1 <1>   0.0800 
 29 H        1.8870     2.0700    -1.5160 H     1 <1>   0.0800 
 30 H        3.4960     1.4430    -1.2630 H     1 <1>   0.0800 
 31 H        2.2050     3.4540     0.4830 H     1 <1>   0.4500 
 32 H        2.4760     4.3750    -1.7100 H     1 <1>   0.0800 
 33 H        4.1390     3.8600    -1.7120 H     1 <1>   0.0800 
 34 H        5.0260     2.5580     0.3240 H     1 <1>   0.0800 
 35 H        3.9300     2.2100     1.6310 H     1 <1>   0.0800 
 36 H        2.9250     5.9920     0.0580 H     1 <1>   0.0800 
 37 H        4.0960     6.2040    -1.2100 H     1 <1>   0.0800 
 38 H        5.4980     4.0690     2.1440 H     1 <1>   0.0800 
 39 H        3.8390     4.5720     2.2420 H     1 <1>   0.0800 
 40 H        4.8660     7.8700     1.4530 H     1 <1>   0.0800 
 41 H        4.8050     8.3130    -0.2280 H     1 <1>   0.0800 
 42 H        9.6110     6.5540    -0.4850 H     1 <1>   0.4570 
 43 H        8.9090     8.9890    -0.9760 H     1 <1>   0.0800 
 44 H        8.9440     9.0100     0.7660 H     1 <1>   0.0800 
 45 H        6.5630     9.4750     1.9290 H     1 <1>   0.0800 
 46 H        5.3620    10.2940     0.9760 H     1 <1>   0.0800 
 47 H        8.0460     2.5450     0.3660 H     1 <1>   0.0800 
 48 H        9.7340     2.1990     0.1370 H     1 <1>   0.0800 
 49 H        8.6570     2.2260    -1.2430 H     1 <1>   0.0800 
 50 H       10.6500     5.3040    -1.5540 H     1 <1>   0.0800 
 51 H       10.7800     3.5870    -1.7750 H     1 <1>   0.0800 
 52 H       11.2790     4.2960    -0.2580 H     1 <1>   0.0800 
 53 H        6.7350     9.9410    -1.0610 H     1 <1>   0.0800 
 54 H        7.5960    10.8610     0.1380 H     1 <1>   0.0800 
@<TRIPOS>BOND
  1   1   2  1   
  2   1   3  1   
  3   2   4  1   
  4   2  24  1   
  5   2  25  1   
  6   3  26  1   
  7   3  27  1   
  8   3  28  1   
  9   4   5  1   
 10   4  29  1   
 11   4  30  1   
 12   5   6  1   
 13   5   7  1   
 14   5  31  1   
 15   6   8  1   
 16   6  32  1   
 17   6  33  1   
 18   7   9  1   
 19   7  34  1   
 20   7  35  1   
 21   8  10  1   
 22   8  36  1   
 23   8  37  1   
 24   9  10  1   
 25   9  38  1   
 26   9  39  1   
 27  10  11  1   
 28  11  12  ar  
 29  11  13  ar  
 30  12  14  ar  
 31  13  15  ar  
 32  13  16  1   
 33  14  17  ar  
 34  14  18  1   
 35  15  17  ar  
 36  15  19  1   
 37  16  20  1   
 38  16  40  1   
 39  16  41  1   
 40  17  42  1   
 41  18  21  1   
 42  18  22  1   
 43  19  23  1   
 44  19  43  1   
 45  19  44  1   
 46  20  23  1   
 47  20  45  1   
 48  20  46  1   
 49  21  47  1   
 50  21  48  1   
 51  21  49  1   
 52  22  50  1   
 53  22  51  1   
 54  22  52  1   
 55  23  53  1   
 56  23  54  1   
@<TRIPOS>SUBSTRUCTURE
  1 ****  11 GROUP 4 **** **** 0

# MOE 2024.06 (io_trps.svl 2023.06)
