@<TRIPOS>MOLECULE
NONAME
49 51 1 0 0 
SMALL
USER_CHARGES


@<TRIPOS>ATOM
  1 O        0.7150     0.7200    -0.2470 O.2   1 <1>  -0.5700 
  2 C        0.4430     1.7110     0.3870 C.2   1 <1>   0.5690 
  3 N       -0.8050     2.2920     0.4510 N.am  1 <1>  -0.4770 
  4 C        1.5760     2.4170     1.1250 C.3   1 <1>   0.2700 
  5 C       -1.9440     1.7980    -0.2140 C.ar  1 <1>   0.1170 
  6 C       -0.9640     3.5000     1.3250 C.3   1 <1>   0.1400 
  7 N        1.5370     3.9010     0.8480 N.pl3 1 <1>  -0.8380 
  8 C       -2.3280     0.4700    -0.0700 C.ar  1 <1>  -0.1500 
  9 C       -2.7100     2.6310    -1.0250 C.ar  1 <1>  -0.1500 
 10 C        0.1930     4.5210     1.1660 C.3   1 <1>   0.2090 
 11 C        2.4840     4.6340     0.2060 C.ar  1 <1>   0.7710 
 12 C       -3.4600    -0.0170    -0.7120 C.ar  1 <1>   0.0820 
 13 C       -3.8410     2.1550    -1.6620 C.ar  1 <1>  -0.1500 
 14 N        2.3810     5.9510     0.2280 N.ar  1 <1>  -0.6200 
 15 N        3.4860     4.0130    -0.4420 N.ar  1 <1>  -0.1790 
 16 O       -3.8850    -1.3020    -0.6200 O.3   1 <1>  -0.3630 
 17 C       -4.2160     0.8330    -1.5030 C.ar  1 <1>  -0.1500 
 18 C        3.3140     6.6690    -0.3670 C.ar  1 <1>   0.4100 
 19 C        4.4400     4.7100    -1.1020 C.ar  1 <1>   0.2110 
 20 C       -3.0860    -2.2900    -0.0070 C.3   1 <1>   0.0400 
 21 N        3.1940     8.0170    -0.2570 N.pl3 1 <1>  -0.8380 
 22 C        4.3780     6.0640    -1.0840 C.ar  1 <1>  -0.1430 
 23 C        1.8690     8.6920    -0.3640 C.3   1 <1>   0.1290 
 24 C        4.2600     8.8750     0.3310 C.3   1 <1>   0.1290 
 25 C        5.4050     6.8910    -1.8560 C.3   1 <1>  -0.0970 
 26 H        2.5120     1.9760     0.8390 H     1 <1>   0.0800 
 27 H        1.4500     2.2500     2.1810 H     1 <1>   0.0800 
 28 H       -1.0000     3.1710     2.3490 H     1 <1>   0.0800 
 29 H       -1.9000     3.9900     1.1220 H     1 <1>   0.0800 
 30 H       -1.7280    -0.1690     0.5480 H     1 <1>   0.1500 
 31 H       -2.4190     3.6550    -1.1670 H     1 <1>   0.1500 
 32 H        0.2740     5.1080     2.0660 H     1 <1>   0.0800 
 33 H       -0.0780     5.1980     0.3720 H     1 <1>   0.0800 
 34 H       -4.4290     2.8060    -2.2850 H     1 <1>   0.1500 
 35 H        3.4510     3.0000    -0.4660 H     1 <1>   0.4570 
 36 H       -5.0930     0.4500    -1.9940 H     1 <1>   0.1500 
 37 H        5.2110     4.1690    -1.6280 H     1 <1>   0.1500 
 38 H       -3.5780    -3.2380    -0.1260 H     1 <1>   0.0800 
 39 H       -2.9860    -2.0600     1.0380 H     1 <1>   0.0800 
 40 H       -2.1260    -2.3130    -0.4920 H     1 <1>   0.0800 
 41 H        1.1640     8.0550    -0.8700 H     1 <1>   0.0800 
 42 H        1.9670     9.6070    -0.9220 H     1 <1>   0.0800 
 43 H        1.4920     8.9140     0.6200 H     1 <1>   0.0800 
 44 H        5.0740     8.2710     0.6920 H     1 <1>   0.0800 
 45 H        3.8640     9.4370     1.1600 H     1 <1>   0.0800 
 46 H        4.6290     9.5610    -0.4120 H     1 <1>   0.0800 
 47 H        4.9110     7.6740    -2.4050 H     1 <1>   0.0800 
 48 H        5.9480     6.2850    -2.5590 H     1 <1>   0.0800 
 49 H        6.1130     7.3390    -1.1810 H     1 <1>   0.0800 
@<TRIPOS>BOND
  1   1   2  2   
  2   2   3  am  
  3   2   4  1   
  4   3   5  1   
  5   3   6  1   
  6   4   7  1   
  7   4  26  1   
  8   4  27  1   
  9   5   8  ar  
 10   5   9  ar  
 11   6  10  1   
 12   6  28  1   
 13   6  29  1   
 14   7  10  1   
 15   7  11  1   
 16   8  12  ar  
 17   8  30  1   
 18   9  13  ar  
 19   9  31  1   
 20  10  32  1   
 21  10  33  1   
 22  11  14  ar  
 23  11  15  ar  
 24  12  16  1   
 25  12  17  ar  
 26  13  17  ar  
 27  13  34  1   
 28  14  18  ar  
 29  15  19  ar  
 30  15  35  1   
 31  16  20  1   
 32  17  36  1   
 33  18  21  1   
 34  18  22  ar  
 35  19  22  ar  
 36  19  37  1   
 37  20  38  1   
 38  20  39  1   
 39  20  40  1   
 40  21  23  1   
 41  21  24  1   
 42  22  25  1   
 43  23  41  1   
 44  23  42  1   
 45  23  43  1   
 46  24  44  1   
 47  24  45  1   
 48  24  46  1   
 49  25  47  1   
 50  25  48  1   
 51  25  49  1   
@<TRIPOS>SUBSTRUCTURE
  1 ****   7 GROUP 4 **** **** 0

# MOE 2024.06 (io_trps.svl 2023.06)
