@<TRIPOS>MOLECULE
NONAME
52 54 1 0 0 
SMALL
USER_CHARGES


@<TRIPOS>ATOM
  1 O       -0.3940     0.9980    -1.9400 O.3   1 <1>  -0.5600 
  2 C       -0.6350     1.5060    -0.6610 C.3   1 <1>   0.2000 
  3 C       -1.6090     0.6950    -2.5510 C.3   1 <1>   0.1200 
  4 C       -1.8820     2.3640    -0.8300 C.3   1 <1>  -0.1600 
  5 C        0.6150     2.2640    -0.1650 C.3   1 <1>   0.3430 
  6 C       -2.6320     1.6600    -1.9520 C.3   1 <1>  -0.1600 
  7 N        1.8360     1.6290    -0.7490 N.4   1 <1>  -0.9590 
  8 C        2.7030     2.6250    -1.4280 C.3   1 <1>   0.5240 
  9 C        2.5820     0.7670     0.1990 C.3   1 <1>   0.4810 
 10 C        3.3910     3.4880    -0.3900 C.2   1 <1>  -0.1810 
 11 C        1.6370    -0.2880     0.7210 C.2   1 <1>  -0.2880 
 12 C        4.6800     3.3180     0.1100 C.2   1 <1>   0.1080 
 13 C        2.9160     4.5770     0.2590 C.2   1 <1>  -0.3020 
 14 C        1.3620    -1.4500     0.1040 C.2   1 <1>  -0.1780 
 15 N        4.9650     4.2010     1.0070 N.2   1 <1>  -0.7070 
 16 C        5.7000     2.2700    -0.2830 C.3   1 <1>  -0.0590 
 17 N        3.8860     4.9910     1.0960 N.pl3 1 <1>   0.3140 
 18 C        0.4470    -2.4800     0.5430 C.ar  1 <1>   0.0280 
 19 C        3.8590     6.1460     2.0010 C.3   1 <1>   0.0160 
 20 C       -0.0480    -3.4050    -0.3730 C.ar  1 <1>  -0.1500 
 21 C        0.0240    -2.5890     1.8660 C.ar  1 <1>  -0.1500 
 22 C       -0.9360    -4.3930     0.0120 C.ar  1 <1>  -0.1500 
 23 C       -0.8640    -3.5750     2.2570 C.ar  1 <1>  -0.1500 
 24 C       -1.3470    -4.4790     1.3290 C.ar  1 <1>  -0.1500 
 25 H       -0.8500     0.6690    -0.0170 H     1 <1>   0.0800 
 26 H       -1.5060     0.8170    -3.6160 H     1 <1>   0.0800 
 27 H       -1.8580    -0.3280    -2.3200 H     1 <1>   0.0800 
 28 H       -2.4590     2.4150     0.0770 H     1 <1>   0.0800 
 29 H       -1.6150     3.3600    -1.1380 H     1 <1>   0.0800 
 30 H        0.6520     2.2660     0.9110 H     1 <1>   0.0800 
 31 H        0.5430     3.2860    -0.4950 H     1 <1>   0.0800 
 32 H       -2.9800     2.3590    -2.6930 H     1 <1>   0.0800 
 33 H       -3.4750     1.1070    -1.5760 H     1 <1>   0.0800 
 34 H        1.4260     1.0130    -1.4770 H     1 <1>   0.4500 
 35 H        3.4420     2.1250    -2.0320 H     1 <1>   0.0800 
 36 H        2.1070     3.2470    -2.0770 H     1 <1>   0.0800 
 37 H        3.3980     0.2890    -0.3170 H     1 <1>   0.0800 
 38 H        2.9840     1.3500     1.0130 H     1 <1>   0.0800 
 39 H        1.1840    -0.0040     1.6530 H     1 <1>   0.1500 
 40 H        1.9710     5.0830     0.1820 H     1 <1>   0.1500 
 41 H        1.8380    -1.6860    -0.8330 H     1 <1>   0.1500 
 42 H        5.4130     1.7460    -1.1740 H     1 <1>   0.0800 
 43 H        5.8270     1.5700     0.5220 H     1 <1>   0.0800 
 44 H        6.6450     2.7510    -0.4610 H     1 <1>   0.0800 
 45 H        2.8990     6.6250     1.9540 H     1 <1>   0.0800 
 46 H        4.6260     6.8370     1.7050 H     1 <1>   0.0800 
 47 H        4.0510     5.8090     3.0030 H     1 <1>   0.0800 
 48 H        0.2590    -3.3540    -1.4020 H     1 <1>   0.1500 
 49 H        0.3940    -1.9060     2.6070 H     1 <1>   0.1500 
 50 H       -1.3070    -5.0980    -0.7120 H     1 <1>   0.1500 
 51 H       -1.1790    -3.6430     3.2840 H     1 <1>   0.1500 
 52 H       -2.0380    -5.2470     1.6310 H     1 <1>   0.1500 
@<TRIPOS>BOND
  1   1   2  1   
  2   1   3  1   
  3   2   4  1   
  4   2   5  1   
  5   2  25  1   
  6   3   6  1   
  7   3  26  1   
  8   3  27  1   
  9   4   6  1   
 10   4  28  1   
 11   4  29  1   
 12   5   7  1   
 13   5  30  1   
 14   5  31  1   
 15   6  32  1   
 16   6  33  1   
 17   7   8  1   
 18   7   9  1   
 19   7  34  1   
 20   8  10  1   
 21   8  35  1   
 22   8  36  1   
 23   9  11  1   
 24   9  37  1   
 25   9  38  1   
 26  10  12  1   
 27  10  13  2   
 28  11  14  2   
 29  11  39  1   
 30  12  15  2   
 31  12  16  1   
 32  13  17  1   
 33  13  40  1   
 34  14  18  1   
 35  14  41  1   
 36  15  17  1   
 37  16  42  1   
 38  16  43  1   
 39  16  44  1   
 40  17  19  1   
 41  18  20  ar  
 42  18  21  ar  
 43  19  45  1   
 44  19  46  1   
 45  19  47  1   
 46  20  22  ar  
 47  20  48  1   
 48  21  23  ar  
 49  21  49  1   
 50  22  24  ar  
 51  22  50  1   
 52  23  24  ar  
 53  23  51  1   
 54  24  52  1   
@<TRIPOS>SUBSTRUCTURE
  1 ****   7 GROUP 4 **** **** 0

# MOE 2024.06 (io_trps.svl 2023.06)
