@<TRIPOS>MOLECULE
NONAME
53 55 1 0 0 
SMALL
USER_CHARGES


@<TRIPOS>ATOM
  1 F        0.9680     0.6760     1.3640 F     1 <1>  -0.1900 
  2 C        2.0380     1.3020     0.9440 C.ar  1 <1>   0.1900 
  3 C        2.3690     1.2310    -0.3960 C.ar  1 <1>  -0.1500 
  4 C        2.7980     2.0100     1.8560 C.ar  1 <1>  -0.1500 
  5 C        3.5020     1.8960    -0.8310 C.ar  1 <1>  -0.1500 
  6 C        3.9280     2.6690     1.4060 C.ar  1 <1>  -0.1500 
  7 C        4.2900     2.6180     0.0600 C.ar  1 <1>   0.1000 
  8 N        5.4220     3.2740    -0.4110 N.pl3 1 <1>  -0.8380 
  9 C        6.7360     2.7190     0.0210 C.3   1 <1>   0.2090 
 10 C        5.3600     4.7650    -0.4380 C.3   1 <1>   0.2090 
 11 C        7.8800     3.3050    -0.8350 C.3   1 <1>   0.3430 
 12 C        6.5140     5.3440    -1.2840 C.3   1 <1>   0.3430 
 13 N        7.8690     4.8140    -0.8670 N.4   1 <1>  -0.9590 
 14 C        8.9600     5.3530    -1.7170 C.3   1 <1>   0.5240 
 15 C        9.0870     6.8320    -1.4270 C.2   1 <1>  -0.1810 
 16 C        9.7790     7.5050    -0.4710 C.2   1 <1>  -0.0400 
 17 C        8.4360     7.8100    -2.1850 C.2   1 <1>  -0.1500 
 18 O        9.5590     8.7970    -0.6100 O.3   1 <1>  -0.2800 
 19 C       10.7130     7.0900     0.6800 C.3   1 <1>   0.1800 
 20 C        8.7510     9.0120    -1.6400 C.2   1 <1>   0.0550 
 21 C       10.0650     7.4830     2.0150 C.3   1 <1>  -0.2400 
 22 C       11.0060     5.5830     0.7070 C.3   1 <1>  -0.2400 
 23 C       12.0510     7.8290     0.5340 C.3   1 <1>  -0.2400 
 24 C        8.3430    10.3440    -2.0220 C.2   1 <1>   0.7150 
 25 O        7.5290    10.5230    -2.9030 O.2   1 <1>  -0.5700 
 26 N        8.8440    11.4420    -1.4140 N.am  1 <1>  -0.8000 
 27 H        1.7520     0.6700    -1.0740 H     1 <1>   0.1500 
 28 H        2.5050     2.0390     2.8900 H     1 <1>   0.1500 
 29 H        3.7840     1.8590    -1.8670 H     1 <1>   0.1500 
 30 H        4.5310     3.2240     2.1000 H     1 <1>   0.1500 
 31 H        6.7200     1.6470    -0.0890 H     1 <1>   0.0800 
 32 H        6.9020     2.9430     1.0600 H     1 <1>   0.0800 
 33 H        5.4120     5.1500     0.5650 H     1 <1>   0.0800 
 34 H        4.4180     5.0720    -0.8610 H     1 <1>   0.0800 
 35 H        7.7680     2.9240    -1.8370 H     1 <1>   0.0800 
 36 H        8.8210     2.9510    -0.4500 H     1 <1>   0.0800 
 37 H        6.4970     6.4180    -1.2010 H     1 <1>   0.0800 
 38 H        6.3290     5.0900    -2.3140 H     1 <1>   0.0800 
 39 H        8.0440     5.1670     0.0810 H     1 <1>   0.4500 
 40 H        8.7410     5.1970    -2.7610 H     1 <1>   0.0800 
 41 H        9.8890     4.8600    -1.4880 H     1 <1>   0.0800 
 42 H        7.8050     7.6570    -3.0460 H     1 <1>   0.1500 
 43 H        9.1190     6.9900     2.1380 H     1 <1>   0.0800 
 44 H        9.8970     8.5450     2.0500 H     1 <1>   0.0800 
 45 H       10.7020     7.2190     2.8400 H     1 <1>   0.0800 
 46 H       10.1100     5.0170     0.8640 H     1 <1>   0.0800 
 47 H       11.6810     5.3560     1.5150 H     1 <1>   0.0800 
 48 H       11.4810     5.2760    -0.2070 H     1 <1>   0.0800 
 49 H       11.9020     8.8930     0.5750 H     1 <1>   0.0800 
 50 H       12.5090     7.5920    -0.4100 H     1 <1>   0.0800 
 51 H       12.7290     7.5560     1.3230 H     1 <1>   0.0800 
 52 H        8.5530    12.3690    -1.7210 H     1 <1>   0.3700 
 53 H        9.5490    11.3790    -0.6790 H     1 <1>   0.3700 
@<TRIPOS>BOND
  1   1   2  1   
  2   2   3  ar  
  3   2   4  ar  
  4   3   5  ar  
  5   3  27  1   
  6   4   6  ar  
  7   4  28  1   
  8   5   7  ar  
  9   5  29  1   
 10   6   7  ar  
 11   6  30  1   
 12   7   8  1   
 13   8   9  1   
 14   8  10  1   
 15   9  11  1   
 16   9  31  1   
 17   9  32  1   
 18  10  12  1   
 19  10  33  1   
 20  10  34  1   
 21  11  13  1   
 22  11  35  1   
 23  11  36  1   
 24  12  13  1   
 25  12  37  1   
 26  12  38  1   
 27  13  14  1   
 28  13  39  1   
 29  14  15  1   
 30  14  40  1   
 31  14  41  1   
 32  15  16  2   
 33  15  17  1   
 34  16  18  1   
 35  16  19  1   
 36  17  20  2   
 37  17  42  1   
 38  18  20  1   
 39  19  21  1   
 40  19  22  1   
 41  19  23  1   
 42  20  24  1   
 43  21  43  1   
 44  21  44  1   
 45  21  45  1   
 46  22  46  1   
 47  22  47  1   
 48  22  48  1   
 49  23  49  1   
 50  23  50  1   
 51  23  51  1   
 52  24  25  2   
 53  24  26  am  
 54  26  52  1   
 55  26  53  1   
@<TRIPOS>SUBSTRUCTURE
  1 ****  12 GROUP 4 **** **** 0

# MOE 2024.06 (io_trps.svl 2023.06)
