@<TRIPOS>MOLECULE
NONAME
48 50 1 0 0 
SMALL
USER_CHARGES


@<TRIPOS>ATOM
  1 S       -0.9550    -1.4550    -0.9480 S.3   1 <1>  -0.0800 
  2 C       -1.9790    -2.7580    -1.5370 C.2   1 <1>  -0.1400 
  3 C       -2.2270    -0.2770    -1.2130 C.2   1 <1>  -0.1100 
  4 C       -3.1830    -2.2800    -1.9040 C.2   1 <1>  -0.1500 
  5 C       -1.3790    -4.1500    -1.5580 C.3   1 <1>   0.5230 
  6 C       -3.3250    -0.8690    -1.7160 C.2   1 <1>  -0.1500 
  7 N       -1.8350    -4.9530    -0.3910 N.4   1 <1>  -0.9590 
  8 C       -1.7840    -4.2540     0.9270 C.3   1 <1>   0.3430 
  9 C       -1.1980    -6.2870    -0.3340 C.3   1 <1>   0.3430 
 10 C       -3.0910    -4.4760     1.7090 C.3   1 <1>   0.1100 
 11 C       -2.1310    -7.3320     0.2820 C.3   1 <1>  -0.1600 
 12 N       -3.6160    -5.8590     1.6530 N.3   1 <1>  -0.8100 
 13 C       -2.6950    -7.0020     1.6720 C.3   1 <1>   0.1100 
 14 C       -5.0160    -6.0490     1.2030 C.3   1 <1>   0.2900 
 15 C       -5.1370    -6.0980    -0.3190 C.2   1 <1>   0.0060 
 16 N       -4.6220    -5.2170    -1.1100 N.2   1 <1>  -0.3380 
 17 N       -5.7680    -7.0610    -1.0080 N.pl3 1 <1>   0.0480 
 18 N       -4.8620    -5.6080    -2.3560 N.2   1 <1>  -0.3380 
 19 C       -5.5470    -6.6950    -2.2750 C.2   1 <1>   0.0360 
 20 C       -6.5120    -8.2500    -0.5080 C.3   1 <1>   0.1760 
 21 C       -5.5560    -9.4390    -0.3570 C.3   1 <1>  -0.2400 
 22 C       -7.6830    -8.6100    -1.4320 C.3   1 <1>  -0.2400 
 23 H       -2.0160     0.7490    -0.9640 H     1 <1>   0.1500 
 24 H       -3.9990    -2.8590    -2.3070 H     1 <1>   0.1500 
 25 H       -0.3040    -4.0720    -1.5610 H     1 <1>   0.0800 
 26 H       -1.6860    -4.6430    -2.4660 H     1 <1>   0.0800 
 27 H       -4.2450    -0.3700    -1.9700 H     1 <1>   0.1500 
 28 H       -2.8490    -5.1210    -0.5510 H     1 <1>   0.4500 
 29 H       -1.6490    -3.1950     0.7980 H     1 <1>   0.0800 
 30 H       -0.9540    -4.6210     1.5060 H     1 <1>   0.0800 
 31 H       -0.2860    -6.2280     0.2380 H     1 <1>   0.0800 
 32 H       -0.9460    -6.6090    -1.3310 H     1 <1>   0.0800 
 33 H       -3.8320    -3.7960     1.3230 H     1 <1>   0.0800 
 34 H       -2.9250    -4.2090     2.7390 H     1 <1>   0.0800 
 35 H       -1.5670    -8.2430     0.3730 H     1 <1>   0.0800 
 36 H       -2.9280    -7.5470    -0.4030 H     1 <1>   0.0800 
 37 H       -1.8880    -6.7980     2.3570 H     1 <1>   0.0800 
 38 H       -3.2210    -7.8620     2.0510 H     1 <1>   0.0800 
 39 H       -5.6210    -5.2400     1.5720 H     1 <1>   0.0800 
 40 H       -5.3930    -6.9560     1.6390 H     1 <1>   0.0800 
 41 H       -5.9060    -7.2520    -3.1220 H     1 <1>   0.1500 
 42 H       -6.9210    -8.0070     0.4560 H     1 <1>   0.0800 
 43 H       -5.1240    -9.7030    -1.3070 H     1 <1>   0.0800 
 44 H       -6.0900   -10.2930     0.0200 H     1 <1>   0.0800 
 45 H       -4.7710    -9.2050     0.3380 H     1 <1>   0.0800 
 46 H       -7.3350    -8.9430    -2.3940 H     1 <1>   0.0800 
 47 H       -8.3340    -7.7620    -1.5610 H     1 <1>   0.0800 
 48 H       -8.2600    -9.4070    -0.9960 H     1 <1>   0.0800 
@<TRIPOS>BOND
  1   1   2  1   
  2   1   3  1   
  3   2   4  2   
  4   2   5  1   
  5   3   6  2   
  6   3  23  1   
  7   4   6  1   
  8   4  24  1   
  9   5   7  1   
 10   5  25  1   
 11   5  26  1   
 12   6  27  1   
 13   7   8  1   
 14   7   9  1   
 15   7  28  1   
 16   8  10  1   
 17   8  29  1   
 18   8  30  1   
 19   9  11  1   
 20   9  31  1   
 21   9  32  1   
 22  10  12  1   
 23  10  33  1   
 24  10  34  1   
 25  11  13  1   
 26  11  35  1   
 27  11  36  1   
 28  12  13  1   
 29  12  14  1   
 30  13  37  1   
 31  13  38  1   
 32  14  15  1   
 33  14  39  1   
 34  14  40  1   
 35  15  16  2   
 36  15  17  1   
 37  16  18  1   
 38  17  19  1   
 39  17  20  1   
 40  18  19  2   
 41  19  41  1   
 42  20  21  1   
 43  20  22  1   
 44  20  42  1   
 45  21  43  1   
 46  21  44  1   
 47  21  45  1   
 48  22  46  1   
 49  22  47  1   
 50  22  48  1   
@<TRIPOS>SUBSTRUCTURE
  1 ****  16 GROUP 4 **** **** 0

# MOE 2024.06 (io_trps.svl 2023.06)
