@<TRIPOS>MOLECULE
NONAME
49 51 1 0 0 
SMALL
USER_CHARGES


@<TRIPOS>ATOM
  1 O       -0.5480     0.2780    -0.8410 O.2   1 <1>  -0.5700 
  2 C       -1.5840     0.7650    -0.4290 C.2   1 <1>   0.5440 
  3 N       -1.6840     2.1390    -0.3540 N.am  1 <1>  -0.6600 
  4 C       -2.6650    -0.1110    -0.0480 C.ar  1 <1>   0.0860 
  5 C       -2.9680     2.8990    -0.3070 C.3   1 <1>   0.1400 
  6 C       -0.4930     3.0230    -0.5310 C.3   1 <1>   0.1400 
  7 C       -3.0970    -1.1130    -0.9130 C.ar  1 <1>   0.1600 
  8 C       -3.3150    -0.0180     1.1790 C.ar  1 <1>  -0.1500 
  9 C       -2.8670     4.0650     0.6920 C.3   1 <1>   0.1200 
 10 C       -0.5310     4.1900     0.4700 C.3   1 <1>   0.1200 
 11 N       -4.0850    -1.9620    -0.6870 N.ar  1 <1>  -0.6200 
 12 C       -4.3400    -0.8970     1.4340 C.ar  1 <1>  -0.1500 
 13 O       -1.7560     4.8660     0.4040 O.3   1 <1>  -0.5600 
 14 C       -4.7000    -1.8480     0.4840 C.ar  1 <1>   0.4100 
 15 N       -5.7250    -2.7170     0.7500 N.pl3 1 <1>  -0.8690 
 16 C       -6.0710    -3.8470    -0.1340 C.3   1 <1>   0.2090 
 17 C       -7.3650    -4.4860     0.3630 C.3   1 <1>  -0.1600 
 18 C       -7.8030    -5.6370    -0.5490 C.3   1 <1>   0.0210 
 19 C       -9.0800    -6.2740    -0.0270 C.2   1 <1>  -0.1810 
 20 C       -9.2460    -7.3890     0.7030 C.2   1 <1>  -0.0400 
 21 C      -10.3870    -5.8140    -0.2040 C.2   1 <1>   0.1080 
 22 O      -10.5240    -7.5440     0.9180 O.3   1 <1>  -0.0190 
 23 C       -8.2750    -8.4030     1.2710 C.3   1 <1>  -0.0600 
 24 N      -11.2270    -6.5950     0.3740 N.2   1 <1>  -0.4100 
 25 C      -10.7980    -4.5730    -0.9660 C.3   1 <1>  -0.0590 
 26 H       -3.7900     2.2630    -0.0350 H     1 <1>   0.0800 
 27 H       -3.1730     3.2990    -1.2850 H     1 <1>   0.0800 
 28 H       -0.4860     3.4120    -1.5340 H     1 <1>   0.0800 
 29 H        0.4150     2.4630    -0.3850 H     1 <1>   0.0800 
 30 H       -2.5820    -1.2070    -1.8540 H     1 <1>   0.1500 
 31 H       -3.0120     0.7210     1.8990 H     1 <1>   0.1500 
 32 H       -2.7750     3.6970     1.6990 H     1 <1>   0.0800 
 33 H       -3.7430     4.6860     0.6280 H     1 <1>   0.0800 
 34 H        0.2470     4.8970     0.2450 H     1 <1>   0.0800 
 35 H       -0.3900     3.8290     1.4740 H     1 <1>   0.0800 
 36 H       -4.8730    -0.8610     2.3640 H     1 <1>   0.1500 
 37 H       -6.0150    -2.8230     1.7230 H     1 <1>   0.4000 
 38 H       -5.2660    -4.5640    -0.1270 H     1 <1>   0.0800 
 39 H       -6.1980    -3.4840    -1.1410 H     1 <1>   0.0800 
 40 H       -8.1380    -3.7400     0.3890 H     1 <1>   0.0800 
 41 H       -7.2180    -4.8660     1.3590 H     1 <1>   0.0800 
 42 H       -7.0260    -6.3800    -0.5910 H     1 <1>   0.0800 
 43 H       -7.9660    -5.2780    -1.5500 H     1 <1>   0.0800 
 44 H       -7.2620    -8.1360     1.0320 H     1 <1>   0.0800 
 45 H       -8.4870    -9.3740     0.8630 H     1 <1>   0.0800 
 46 H       -8.3810    -8.4440     2.3400 H     1 <1>   0.0800 
 47 H      -10.3710    -4.5870    -1.9510 H     1 <1>   0.0800 
 48 H      -10.4640    -3.6960    -0.4440 H     1 <1>   0.0800 
 49 H      -11.8680    -4.5360    -1.0540 H     1 <1>   0.0800 
@<TRIPOS>BOND
  1   1   2  2   
  2   2   3  am  
  3   2   4  1   
  4   3   5  1   
  5   3   6  1   
  6   4   7  ar  
  7   4   8  ar  
  8   5   9  1   
  9   5  26  1   
 10   5  27  1   
 11   6  10  1   
 12   6  28  1   
 13   6  29  1   
 14   7  11  ar  
 15   7  30  1   
 16   8  12  ar  
 17   8  31  1   
 18   9  13  1   
 19   9  32  1   
 20   9  33  1   
 21  10  13  1   
 22  10  34  1   
 23  10  35  1   
 24  11  14  ar  
 25  12  14  ar  
 26  12  36  1   
 27  14  15  1   
 28  15  16  1   
 29  15  37  1   
 30  16  17  1   
 31  16  38  1   
 32  16  39  1   
 33  17  18  1   
 34  17  40  1   
 35  17  41  1   
 36  18  19  1   
 37  18  42  1   
 38  18  43  1   
 39  19  20  2   
 40  19  21  1   
 41  20  22  1   
 42  20  23  1   
 43  21  24  2   
 44  21  25  1   
 45  22  24  1   
 46  23  44  1   
 47  23  45  1   
 48  23  46  1   
 49  25  47  1   
 50  25  48  1   
 51  25  49  1   
@<TRIPOS>SUBSTRUCTURE
  1 ****  14 GROUP 4 **** **** 0

# MOE 2024.06 (io_trps.svl 2023.06)
