@<TRIPOS>MOLECULE
NONAME
46 48 1 0 0 
SMALL
USER_CHARGES


@<TRIPOS>ATOM
  1 O       -0.4250     0.3500    -0.2550 O.2   1 <1>  -0.5700 
  2 C       -1.4820     0.7990     0.1460 C.2   1 <1>   0.5440 
  3 N       -1.5820     2.1580     0.3640 N.am  1 <1>  -0.6600 
  4 C       -2.5920    -0.0990     0.3640 C.ar  1 <1>   0.0860 
  5 C       -2.8560     2.9290     0.2370 C.3   1 <1>   0.1400 
  6 C       -0.3740     3.0360     0.4420 C.3   1 <1>   0.1400 
  7 C       -2.8480    -1.1340    -0.5320 C.ar  1 <1>   0.1600 
  8 C       -3.4440     0.0030     1.4600 C.ar  1 <1>  -0.1500 
  9 C       -2.7340     4.0050    -0.8570 C.3   1 <1>   0.1200 
 10 C       -0.3990     4.0940    -0.6720 C.3   1 <1>   0.1200 
 11 N       -3.8410    -2.0030    -0.4540 N.ar  1 <1>  -0.6200 
 12 C       -4.4770    -0.8960     1.5620 C.ar  1 <1>  -0.1500 
 13 O       -1.6060     4.8050    -0.6460 O.3   1 <1>  -0.5600 
 14 C       -4.6500    -1.8780     0.5900 C.ar  1 <1>   0.4100 
 15 N       -5.6940    -2.7560     0.7020 N.pl3 1 <1>  -0.8690 
 16 C       -6.1100    -3.6590    -0.4120 C.3   1 <1>   0.2890 
 17 C       -7.3790    -4.4210    -0.0760 C.3   1 <1>   0.2000 
 18 C       -5.1260    -4.7970    -0.6940 C.3   1 <1>   0.1200 
 19 O       -8.5150    -3.6580    -0.3760 O.3   1 <1>  -0.5600 
 20 C       -7.2490    -5.6620    -0.9510 C.3   1 <1>   0.1200 
 21 O       -5.8810    -5.9360    -1.0220 O.3   1 <1>  -0.5600 
 22 C       -9.7100    -4.1740     0.1100 C.3   1 <1>   0.1200 
 23 C      -10.8180    -3.2050    -0.2830 C.3   1 <1>  -0.2400 
 24 H       -3.6740     2.2770    -0.0120 H     1 <1>   0.0800 
 25 H       -3.0780     3.4050     1.1760 H     1 <1>   0.0800 
 26 H       -0.3590     3.5300     1.3970 H     1 <1>   0.0800 
 27 H        0.5280     2.4540     0.3610 H     1 <1>   0.0800 
 28 H       -2.1790    -1.2380    -1.3700 H     1 <1>   0.1500 
 29 H       -3.2860     0.7640     2.2040 H     1 <1>   0.1500 
 30 H       -3.5970     4.6470    -0.8450 H     1 <1>   0.0800 
 31 H       -2.6560     3.5500    -1.8290 H     1 <1>   0.0800 
 32 H       -0.2890     3.6280    -1.6360 H     1 <1>   0.0800 
 33 H        0.4010     4.7980    -0.5340 H     1 <1>   0.0800 
 34 H       -5.1570    -0.8590     2.3910 H     1 <1>   0.1500 
 35 H       -6.5050    -2.4070     1.2160 H     1 <1>   0.4000 
 36 H       -6.2520    -3.0900    -1.3150 H     1 <1>   0.0800 
 37 H       -7.3850    -4.6970     0.9640 H     1 <1>   0.0800 
 38 H       -4.5450    -5.0250     0.1820 H     1 <1>   0.0800 
 39 H       -4.4780    -4.5580    -1.5170 H     1 <1>   0.0800 
 40 H       -7.5960    -5.4640    -1.9500 H     1 <1>   0.0800 
 41 H       -7.7510    -6.5140    -0.5320 H     1 <1>   0.0800 
 42 H       -9.8830    -5.1420    -0.3290 H     1 <1>   0.0800 
 43 H       -9.6450    -4.2590     1.1820 H     1 <1>   0.0800 
 44 H      -10.8660    -3.1150    -1.3530 H     1 <1>   0.0800 
 45 H      -10.6340    -2.2380     0.1490 H     1 <1>   0.0800 
 46 H      -11.7640    -3.5670     0.0750 H     1 <1>   0.0800 
@<TRIPOS>BOND
  1   1   2  2   
  2   2   3  am  
  3   2   4  1   
  4   3   5  1   
  5   3   6  1   
  6   4   7  ar  
  7   4   8  ar  
  8   5   9  1   
  9   5  24  1   
 10   5  25  1   
 11   6  10  1   
 12   6  26  1   
 13   6  27  1   
 14   7  11  ar  
 15   7  28  1   
 16   8  12  ar  
 17   8  29  1   
 18   9  13  1   
 19   9  30  1   
 20   9  31  1   
 21  10  13  1   
 22  10  32  1   
 23  10  33  1   
 24  11  14  ar  
 25  12  14  ar  
 26  12  34  1   
 27  14  15  1   
 28  15  16  1   
 29  15  35  1   
 30  16  17  1   
 31  16  18  1   
 32  16  36  1   
 33  17  19  1   
 34  17  20  1   
 35  17  37  1   
 36  18  21  1   
 37  18  38  1   
 38  18  39  1   
 39  19  22  1   
 40  20  21  1   
 41  20  40  1   
 42  20  41  1   
 43  22  23  1   
 44  22  42  1   
 45  22  43  1   
 46  23  44  1   
 47  23  45  1   
 48  23  46  1   
@<TRIPOS>SUBSTRUCTURE
  1 ****  14 GROUP 4 **** **** 0

# MOE 2024.06 (io_trps.svl 2023.06)
