@<TRIPOS>MOLECULE
NONAME
57 60 1 0 0 
SMALL
USER_CHARGES


@<TRIPOS>ATOM
  1 O       -0.7930    -0.3660     0.2230 O.3   1 <1>  -0.5600 
  2 C        0.0510    -1.3720     0.6940 C.3   1 <1>   0.2800 
  3 C       -1.5730    -0.5830    -0.9230 C.3   1 <1>   0.1200 
  4 C       -0.7980    -2.6390     1.0690 C.3   1 <1>   0.2000 
  5 C        0.6850    -0.7670     1.9530 C.3   1 <1>  -0.1600 
  6 C        1.1680    -1.5730    -0.3580 C.3   1 <1>  -0.1600 
  7 C       -2.0140    -2.0460    -1.0990 C.3   1 <1>  -0.1600 
  8 O        0.0010    -3.7930     1.0500 O.3   1 <1>  -0.6800 
  9 C       -2.0990    -2.8120     0.2230 C.3   1 <1>   0.2800 
 10 C        1.8220    -1.6360     2.4730 C.3   1 <1>   0.3430 
 11 C        2.3760    -2.3390     0.1760 C.3   1 <1>   0.3430 
 12 O       -3.1350    -2.2610     0.9480 O.3   1 <1>  -0.6800 
 13 C       -2.5210    -4.2680    -0.0190 C.3   1 <1>  -0.2400 
 14 N        2.8870    -1.7280     1.4390 N.4   1 <1>  -0.9590 
 15 C        4.0570    -2.4810     1.9560 C.3   1 <1>   0.5240 
 16 C        5.2190    -2.2880     1.0080 C.2   1 <1>  -0.1810 
 17 C        5.5420    -3.1290    -0.0630 C.2   1 <1>   0.2350 
 18 C        6.1400    -1.3020     0.9810 C.2   1 <1>  -0.3020 
 19 N        6.5750    -2.6650    -0.7120 N.2   1 <1>  -0.7070 
 20 C        4.8210    -4.3230    -0.4410 C.ar  1 <1>   0.0540 
 21 N        6.9510    -1.5570    -0.0630 N.pl3 1 <1>   0.3140 
 22 C        4.6000    -5.3650     0.4590 C.ar  1 <1>  -0.1500 
 23 C        4.2940    -4.4500    -1.7240 C.ar  1 <1>  -0.1500 
 24 C        8.1100    -0.7640    -0.4930 C.3   1 <1>   0.0160 
 25 C        3.8440    -6.4670     0.1060 C.ar  1 <1>  -0.1500 
 26 C        3.5380    -5.5500    -2.0840 C.ar  1 <1>  -0.1500 
 27 C        3.3050    -6.5580    -1.1660 C.ar  1 <1>  -0.1500 
 28 H       -2.4420     0.0450    -0.8200 H     1 <1>   0.0800 
 29 H       -1.0160    -0.2490    -1.7810 H     1 <1>   0.0800 
 30 H       -1.1160    -2.5400     2.0930 H     1 <1>   0.0800 
 31 H        1.0630     0.2170     1.7380 H     1 <1>   0.0800 
 32 H       -0.0620    -0.6670     2.7200 H     1 <1>   0.0800 
 33 H        0.7970    -2.1150    -1.2050 H     1 <1>   0.0800 
 34 H        1.5060    -0.6130    -0.7060 H     1 <1>   0.0800 
 35 H       -1.3130    -2.5420    -1.7440 H     1 <1>   0.0800 
 36 H       -2.9580    -2.0730    -1.6130 H     1 <1>   0.0800 
 37 H       -0.5660    -4.5740     1.2250 H     1 <1>   0.4000 
 38 H        1.4470    -2.6210     2.7030 H     1 <1>   0.0800 
 39 H        2.2190    -1.2010     3.3760 H     1 <1>   0.0800 
 40 H        3.1490    -2.3250    -0.5750 H     1 <1>   0.0800 
 41 H        2.1090    -3.3680     0.3500 H     1 <1>   0.0800 
 42 H       -3.9640    -2.3050     0.4370 H     1 <1>   0.4000 
 43 H       -1.7840    -4.7790    -0.6120 H     1 <1>   0.0800 
 44 H       -3.4530    -4.3080    -0.5540 H     1 <1>   0.0800 
 45 H       -2.6360    -4.7880     0.9150 H     1 <1>   0.0800 
 46 H        3.2200    -0.7830     1.2110 H     1 <1>   0.4500 
 47 H        4.3360    -2.1030     2.9260 H     1 <1>   0.0800 
 48 H        3.8170    -3.5260     2.0520 H     1 <1>   0.0800 
 49 H        6.2760    -0.4480     1.6200 H     1 <1>   0.1500 
 50 H        5.0370    -5.3190     1.4410 H     1 <1>   0.1500 
 51 H        4.4900    -3.6740    -2.4440 H     1 <1>   0.1500 
 52 H        8.7840    -0.6410     0.3340 H     1 <1>   0.0800 
 53 H        7.7740     0.1950    -0.8410 H     1 <1>   0.0800 
 54 H        8.6120    -1.2800    -1.2910 H     1 <1>   0.0800 
 55 H        3.6800    -7.2630     0.8130 H     1 <1>   0.1500 
 56 H        3.1380    -5.6280    -3.0810 H     1 <1>   0.1500 
 57 H        2.7190    -7.4170    -1.4450 H     1 <1>   0.1500 
@<TRIPOS>BOND
  1   1   2  1   
  2   1   3  1   
  3   2   4  1   
  4   2   5  1   
  5   2   6  1   
  6   3   7  1   
  7   3  28  1   
  8   3  29  1   
  9   4   8  1   
 10   4   9  1   
 11   4  30  1   
 12   5  10  1   
 13   5  31  1   
 14   5  32  1   
 15   6  11  1   
 16   6  33  1   
 17   6  34  1   
 18   7   9  1   
 19   7  35  1   
 20   7  36  1   
 21   8  37  1   
 22   9  12  1   
 23   9  13  1   
 24  10  14  1   
 25  10  38  1   
 26  10  39  1   
 27  11  14  1   
 28  11  40  1   
 29  11  41  1   
 30  12  42  1   
 31  13  43  1   
 32  13  44  1   
 33  13  45  1   
 34  14  15  1   
 35  14  46  1   
 36  15  16  1   
 37  15  47  1   
 38  15  48  1   
 39  16  17  1   
 40  16  18  2   
 41  17  19  2   
 42  17  20  1   
 43  18  21  1   
 44  18  49  1   
 45  19  21  1   
 46  20  22  ar  
 47  20  23  ar  
 48  21  24  1   
 49  22  25  ar  
 50  22  50  1   
 51  23  26  ar  
 52  23  51  1   
 53  24  52  1   
 54  24  53  1   
 55  24  54  1   
 56  25  27  ar  
 57  25  55  1   
 58  26  27  ar  
 59  26  56  1   
 60  27  57  1   
@<TRIPOS>SUBSTRUCTURE
  1 ****  11 GROUP 4 **** **** 0

# MOE 2024.06 (io_trps.svl 2023.06)
