@<TRIPOS>MOLECULE
NONAME
48 51 1 0 0 
SMALL
USER_CHARGES


@<TRIPOS>ATOM
  1 S        1.1870     1.5700    -2.8210 S.3   1 <1>  -0.0800 
  2 C        2.4300     1.6750    -1.5650 C.2   1 <1>  -0.0450 
  3 C        1.3670     3.2810    -3.2020 C.2   1 <1>  -0.1100 
  4 C        2.9140     0.6500    -0.7140 C.2   1 <1>   0.8660 
  5 C        2.9010     2.9400    -1.4980 C.2   1 <1>   0.0830 
  6 C        2.3040     3.8530    -2.4200 C.2   1 <1>  -0.1500 
  7 O        2.4950    -0.4980    -0.7580 O.2   1 <1>  -0.5700 
  8 N        3.8930     0.9550     0.2040 N.2   1 <1>  -0.6610 
  9 N        3.8740     3.1710    -0.5620 N.pl3 1 <1>  -0.5330 
 10 C        4.3300     2.1680     0.2490 C.2   1 <1>   0.4390 
 11 C        5.4200     2.5670     1.2470 C.3   1 <1>   0.2700 
 12 N        5.3610     4.0370     1.6060 N.pl3 1 <1>  -0.8380 
 13 C        6.5540     4.7240     1.7380 C.ar  1 <1>   0.4100 
 14 C        4.3220     4.3460     2.6300 C.3   1 <1>   0.1290 
 15 N        7.6090     4.0370     2.1560 N.ar  1 <1>  -0.6200 
 16 C        6.5970     6.0800     1.4470 C.ar  1 <1>  -0.1500 
 17 C        8.7270     4.7260     2.3010 C.ar  1 <1>   0.1600 
 18 C        7.7670     6.8010     1.5800 C.ar  1 <1>   0.0860 
 19 C        8.8580     6.0740     2.0360 C.ar  1 <1>  -0.1500 
 20 C        7.8350     8.2160     1.2760 C.2   1 <1>   0.5440 
 21 O        7.0380     8.9650     1.8090 O.2   1 <1>  -0.5700 
 22 N        8.7670     8.7330     0.3990 N.am  1 <1>  -0.6600 
 23 C        9.5190     7.9140    -0.5940 C.3   1 <1>   0.1400 
 24 C        8.9590    10.2030     0.2420 C.3   1 <1>   0.1400 
 25 C        9.1140     8.3240    -2.0150 C.3   1 <1>  -0.1600 
 26 C        8.5450    10.6310    -1.1700 C.3   1 <1>  -0.1600 
 27 C        9.2940     9.8310    -2.2450 C.3   1 <1>  -0.1600 
 28 H        0.7430     3.6790    -3.9820 H     1 <1>   0.1500 
 29 H        2.6050     4.8850    -2.4520 H     1 <1>   0.1500 
 30 H        4.2710     4.1010    -0.3790 H     1 <1>   0.4000 
 31 H        6.3680     2.3380     0.7940 H     1 <1>   0.0800 
 32 H        5.3300     1.9690     2.1360 H     1 <1>   0.0800 
 33 H        3.3480     4.0730     2.2640 H     1 <1>   0.0800 
 34 H        4.3220     5.3980     2.8600 H     1 <1>   0.0800 
 35 H        4.5270     3.7980     3.5340 H     1 <1>   0.0800 
 36 H        5.7050     6.5750     1.1160 H     1 <1>   0.1500 
 37 H        9.5870     4.1820     2.6540 H     1 <1>   0.1500 
 38 H        9.8000     6.5680     2.1850 H     1 <1>   0.1500 
 39 H        9.3190     6.8650    -0.4650 H     1 <1>   0.0800 
 40 H       10.5740     8.0760    -0.4540 H     1 <1>   0.0800 
 41 H        9.9970    10.4390     0.4050 H     1 <1>   0.0800 
 42 H        8.3790    10.7450     0.9690 H     1 <1>   0.0800 
 43 H        8.0840     8.0550    -2.1720 H     1 <1>   0.0800 
 44 H        9.7070     7.7770    -2.7260 H     1 <1>   0.0800 
 45 H        8.7430    11.6810    -1.2950 H     1 <1>   0.0800 
 46 H        7.4840    10.4830    -1.2760 H     1 <1>   0.0800 
 47 H        8.9230    10.0970    -3.2200 H     1 <1>   0.0800 
 48 H       10.3410    10.0760    -2.2080 H     1 <1>   0.0800 
@<TRIPOS>BOND
  1   1   2  1   
  2   1   3  1   
  3   2   4  1   
  4   2   5  2   
  5   3   6  2   
  6   3  28  1   
  7   4   7  2   
  8   4   8  1   
  9   5   6  1   
 10   5   9  1   
 11   6  29  1   
 12   8  10  2   
 13   9  10  1   
 14   9  30  1   
 15  10  11  1   
 16  11  12  1   
 17  11  31  1   
 18  11  32  1   
 19  12  13  1   
 20  12  14  1   
 21  13  15  ar  
 22  13  16  ar  
 23  14  33  1   
 24  14  34  1   
 25  14  35  1   
 26  15  17  ar  
 27  16  18  ar  
 28  16  36  1   
 29  17  19  ar  
 30  17  37  1   
 31  18  19  ar  
 32  18  20  1   
 33  19  38  1   
 34  20  21  2   
 35  20  22  am  
 36  22  23  1   
 37  22  24  1   
 38  23  25  1   
 39  23  39  1   
 40  23  40  1   
 41  24  26  1   
 42  24  41  1   
 43  24  42  1   
 44  25  27  1   
 45  25  43  1   
 46  25  44  1   
 47  26  27  1   
 48  26  45  1   
 49  26  46  1   
 50  27  47  1   
 51  27  48  1   
@<TRIPOS>SUBSTRUCTURE
  1 ****  13 GROUP 4 **** **** 0

# MOE 2024.06 (io_trps.svl 2023.06)
