@<TRIPOS>MOLECULE
NONAME
54 58 1 0 0 
SMALL
USER_CHARGES


@<TRIPOS>ATOM
  1 O       -2.4450     0.7880    -2.2610 O.2   1 <1>  -0.5700 
  2 C       -2.2800     1.1950    -1.1300 C.2   1 <1>   0.5440 
  3 N       -2.4740     0.2960    -0.1050 N.am  1 <1>  -0.6600 
  4 C       -2.0010     2.5930    -0.8960 C.ar  1 <1>   0.0860 
  5 C       -3.3650     0.6180     1.0500 C.3   1 <1>   0.1400 
  6 C       -2.3530    -1.1700    -0.3700 C.3   1 <1>   0.1400 
  7 C       -1.0560     3.0860    -0.0060 C.ar  1 <1>   0.1660 
  8 C       -2.7200     3.5570    -1.5750 C.ar  1 <1>   0.1600 
  9 C       -4.7700    -0.0130     0.8650 C.3   1 <1>   0.4230 
 10 C       -3.7460    -1.7770    -0.6100 C.3   1 <1>   0.3430 
 11 N       -0.9090     4.3700     0.2180 N.ar  1 <1>  -0.6200 
 12 C       -0.1100     2.1850     0.7700 C.3   1 <1>  -0.0960 
 13 N       -2.5850     4.8440    -1.3680 N.ar  1 <1>  -0.6200 
 14 N       -4.6950    -1.4950     0.5350 N.4   1 <1>  -0.9590 
 15 C       -5.5750     0.7500    -0.2150 C.3   1 <1>   0.1200 
 16 C       -1.6750     5.2240    -0.4680 C.ar  1 <1>   0.6200 
 17 C       -6.0800    -2.0180     0.2870 C.3   1 <1>   0.5180 
 18 O       -6.8460     0.1830    -0.3650 O.3   1 <1>  -0.5600 
 19 C       -1.5100     6.6450    -0.2200 C.ar  1 <1>   0.0000 
 20 C       -6.0180    -3.4970    -0.1100 C.3   1 <1>  -0.1950 
 21 C       -6.8460    -1.1650    -0.7490 C.3   1 <1>   0.1200 
 22 C       -0.3430     7.1530     0.3600 C.ar  1 <1>   0.1600 
 23 C       -2.4920     7.5790    -0.5430 C.ar  1 <1>  -0.1500 
 24 C       -7.0470    -4.4560     0.4040 C.3   1 <1>  -0.2000 
 25 C       -5.6240    -4.5610     0.8710 C.3   1 <1>  -0.2000 
 26 N       -0.0920     8.4250     0.6300 N.ar  1 <1>  -0.6200 
 27 C       -2.2520     8.9070    -0.2720 C.ar  1 <1>  -0.1500 
 28 C       -1.0520     9.2740     0.3080 C.ar  1 <1>   0.1600 
 29 H       -2.9190     0.2420     1.9550 H     1 <1>   0.0800 
 30 H       -3.4630     1.6850     1.1620 H     1 <1>   0.0800 
 31 H       -1.7360    -1.3390    -1.2370 H     1 <1>   0.0800 
 32 H       -1.8760    -1.6520     0.4660 H     1 <1>   0.0800 
 33 H       -3.4400     3.2450    -2.3150 H     1 <1>   0.1500 
 34 H       -5.3040     0.1110     1.7930 H     1 <1>   0.0800 
 35 H       -3.6410    -2.8400    -0.7500 H     1 <1>   0.0800 
 36 H       -4.1380    -1.3600    -1.5240 H     1 <1>   0.0800 
 37 H        0.0980     1.2790     0.2320 H     1 <1>   0.0800 
 38 H       -0.5340     1.9450     1.7270 H     1 <1>   0.0800 
 39 H        0.8260     2.6920     0.9320 H     1 <1>   0.0800 
 40 H       -4.3420    -1.9960     1.3570 H     1 <1>   0.4500 
 41 H       -5.0770     0.7340    -1.1690 H     1 <1>   0.0800 
 42 H       -5.7140     1.7760     0.0790 H     1 <1>   0.0800 
 43 H       -6.6330    -1.9570     1.2110 H     1 <1>   0.0800 
 44 H       -5.7490    -3.6390    -1.1430 H     1 <1>   0.1000 
 45 H       -7.8710    -1.4880    -0.8040 H     1 <1>   0.0800 
 46 H       -6.4100    -1.2470    -1.7290 H     1 <1>   0.0800 
 47 H        0.4380     6.4580     0.6190 H     1 <1>   0.1500 
 48 H       -3.4200     7.2720    -0.9960 H     1 <1>   0.1500 
 49 H       -7.7900    -4.1300     1.1130 H     1 <1>   0.1000 
 50 H       -7.4240    -5.2240    -0.2520 H     1 <1>   0.1000 
 51 H       -5.0470    -5.4060     0.5330 H     1 <1>   0.1000 
 52 H       -5.4290    -4.3250     1.9040 H     1 <1>   0.1000 
 53 H       -2.9870     9.6560    -0.5080 H     1 <1>   0.1500 
 54 H       -0.8720    10.3150     0.5170 H     1 <1>   0.1500 
@<TRIPOS>BOND
  1   1   2  2   
  2   2   3  am  
  3   2   4  1   
  4   3   5  1   
  5   3   6  1   
  6   4   7  ar  
  7   4   8  ar  
  8   5   9  1   
  9   5  29  1   
 10   5  30  1   
 11   6  10  1   
 12   6  31  1   
 13   6  32  1   
 14   7  11  ar  
 15   7  12  1   
 16   8  13  ar  
 17   8  33  1   
 18   9  14  1   
 19   9  15  1   
 20   9  34  1   
 21  10  14  1   
 22  10  35  1   
 23  10  36  1   
 24  11  16  ar  
 25  12  37  1   
 26  12  38  1   
 27  12  39  1   
 28  13  16  ar  
 29  14  17  1   
 30  14  40  1   
 31  15  18  1   
 32  15  41  1   
 33  15  42  1   
 34  16  19  1   
 35  17  20  1   
 36  17  21  1   
 37  17  43  1   
 38  18  21  1   
 39  19  22  ar  
 40  19  23  ar  
 41  20  24  1   
 42  20  25  1   
 43  20  44  1   
 44  21  45  1   
 45  21  46  1   
 46  22  26  ar  
 47  22  47  1   
 48  23  27  ar  
 49  23  48  1   
 50  24  25  1   
 51  24  49  1   
 52  24  50  1   
 53  25  51  1   
 54  25  52  1   
 55  26  28  ar  
 56  27  28  ar  
 57  27  53  1   
 58  28  54  1   
@<TRIPOS>SUBSTRUCTURE
  1 ****   4 GROUP 4 **** **** 0

# MOE 2024.06 (io_trps.svl 2023.06)
