@<TRIPOS>MOLECULE
NONAME
52 54 1 0 0 
SMALL
USER_CHARGES


@<TRIPOS>ATOM
  1 S        1.1350     1.1840    -0.5840 S.3   1 <1>  -0.4600 
  2 C        0.3180    -0.2790     0.1070 C.3   1 <1>   0.1500 
  3 C        2.7250     1.2400     0.2770 C.3   1 <1>   0.0700 
  4 C        0.9570    -1.5320    -0.5050 C.3   1 <1>  -0.1600 
  5 C       -1.1730    -0.1760    -0.2270 C.3   1 <1>  -0.1600 
  6 C        3.4290     2.5290    -0.1440 C.3   1 <1>  -0.1600 
  7 C        0.2050    -2.7990    -0.0700 C.3   1 <1>  -0.1600 
  8 C       -1.9230    -1.4430     0.2100 C.3   1 <1>  -0.1600 
  9 C        4.7930     2.6520     0.5280 C.3   1 <1>   0.2090 
 10 C       -1.2910    -2.7000    -0.4040 C.3   1 <1>  -0.1600 
 11 N        5.4090     3.9270     0.1130 N.pl3 1 <1>  -0.8690 
 12 C        5.6450     4.9250     1.0210 C.ar  1 <1>   0.4100 
 13 N        5.1600     6.0900     0.6520 N.ar  1 <1>  -0.6200 
 14 C        6.3360     4.7240     2.2250 C.ar  1 <1>   0.1600 
 15 C        5.3720     7.0730     1.5470 C.ar  1 <1>   0.3960 
 16 N        6.5550     5.6570     3.1270 N.ar  1 <1>  -0.6200 
 17 C        4.8980     8.4400     1.3100 C.2   1 <1>   0.5440 
 18 C        6.0490     6.8240     2.7470 C.ar  1 <1>   0.1600 
 19 O        4.6160     9.1370     2.2720 O.2   1 <1>  -0.5700 
 20 N        4.7720     9.0200     0.0590 N.am  1 <1>  -0.6600 
 21 C        4.3930    10.4380    -0.1310 C.3   1 <1>   0.1400 
 22 C        5.1360     8.3980    -1.2360 C.3   1 <1>   0.1400 
 23 C        4.8970    10.7900    -1.5250 C.3   1 <1>  -0.1600 
 24 C        4.8610     9.4690    -2.2870 C.3   1 <1>  -0.1600 
 25 H        0.4630    -0.2550     1.1730 H     1 <1>   0.0800 
 26 H        3.2830     0.3670    -0.0150 H     1 <1>   0.0800 
 27 H        2.5210     1.2230     1.3330 H     1 <1>   0.0800 
 28 H        1.9850    -1.6050    -0.2020 H     1 <1>   0.0800 
 29 H        0.9260    -1.4540    -1.5780 H     1 <1>   0.0800 
 30 H       -1.2890    -0.0450    -1.2890 H     1 <1>   0.0800 
 31 H       -1.5930     0.6840     0.2640 H     1 <1>   0.0800 
 32 H        2.8160     3.3690     0.1360 H     1 <1>   0.0800 
 33 H        3.5540     2.5260    -1.2130 H     1 <1>   0.0800 
 34 H        0.3240    -2.9380     0.9910 H     1 <1>   0.0800 
 35 H        0.6280    -3.6560    -0.5640 H     1 <1>   0.0800 
 36 H       -2.9540    -1.3730    -0.0930 H     1 <1>   0.0800 
 37 H       -1.9000    -1.5190     1.2830 H     1 <1>   0.0800 
 38 H        5.4300     1.8370     0.2270 H     1 <1>   0.0800 
 39 H        4.6760     2.6240     1.5990 H     1 <1>   0.0800 
 40 H       -1.8000    -3.5750    -0.0370 H     1 <1>   0.0800 
 41 H       -1.4140    -2.6730    -1.4730 H     1 <1>   0.0800 
 42 H        4.9610     4.3120    -0.7240 H     1 <1>   0.4000 
 43 H        6.7150     3.7400     2.4240 H     1 <1>   0.1500 
 44 H        6.1800     7.6460     3.4300 H     1 <1>   0.1500 
 45 H        4.8400    11.0660     0.6230 H     1 <1>   0.0800 
 46 H        3.3210    10.5220    -0.0810 H     1 <1>   0.0800 
 47 H        4.5410     7.5200    -1.4210 H     1 <1>   0.0800 
 48 H        6.1800     8.1350    -1.2240 H     1 <1>   0.0800 
 49 H        5.9100    11.1430    -1.4490 H     1 <1>   0.0800 
 50 H        4.2930    11.5500    -1.9880 H     1 <1>   0.0800 
 51 H        3.8780     9.3100    -2.6950 H     1 <1>   0.0800 
 52 H        5.5800     9.4370    -3.0870 H     1 <1>   0.0800 
@<TRIPOS>BOND
  1   1   2  1   
  2   1   3  1   
  3   2   4  1   
  4   2   5  1   
  5   2  25  1   
  6   3   6  1   
  7   3  26  1   
  8   3  27  1   
  9   4   7  1   
 10   4  28  1   
 11   4  29  1   
 12   5   8  1   
 13   5  30  1   
 14   5  31  1   
 15   6   9  1   
 16   6  32  1   
 17   6  33  1   
 18   7  10  1   
 19   7  34  1   
 20   7  35  1   
 21   8  10  1   
 22   8  36  1   
 23   8  37  1   
 24   9  11  1   
 25   9  38  1   
 26   9  39  1   
 27  10  40  1   
 28  10  41  1   
 29  11  12  1   
 30  11  42  1   
 31  12  13  ar  
 32  12  14  ar  
 33  13  15  ar  
 34  14  16  ar  
 35  14  43  1   
 36  15  17  1   
 37  15  18  ar  
 38  16  18  ar  
 39  17  19  2   
 40  17  20  am  
 41  18  44  1   
 42  20  21  1   
 43  20  22  1   
 44  21  23  1   
 45  21  45  1   
 46  21  46  1   
 47  22  24  1   
 48  22  47  1   
 49  22  48  1   
 50  23  24  1   
 51  23  49  1   
 52  23  50  1   
 53  24  51  1   
 54  24  52  1   
@<TRIPOS>SUBSTRUCTURE
  1 ****   6 GROUP 4 **** **** 0

# MOE 2024.06 (io_trps.svl 2023.06)
