@<TRIPOS>MOLECULE
NONAME
44 47 1 0 0 
SMALL
USER_CHARGES


@<TRIPOS>ATOM
  1 O       -0.8550     0.0450    -0.6760 O.2   1 <1>  -0.5700 
  2 C       -1.8480     0.4640    -0.1420 C.2   1 <1>   0.4230 
  3 C       -3.1240    -0.1840    -0.2690 C.ar  1 <1>   0.0860 
  4 C       -1.6790     1.6840     0.7420 C.3   1 <1>  -0.1790 
  5 C       -4.3520     0.4400    -0.4710 C.ar  1 <1>   0.1660 
  6 C       -3.1840    -1.5640    -0.1880 C.ar  1 <1>   0.1600 
  7 N       -5.4770    -0.2250    -0.5120 N.ar  1 <1>  -0.6200 
  8 C       -4.4890     1.9380    -0.6880 C.3   1 <1>  -0.0960 
  9 N       -4.2970    -2.2500    -0.2380 N.ar  1 <1>  -0.6200 
 10 C       -5.4220    -1.5530    -0.3900 C.ar  1 <1>   0.7200 
 11 N       -6.6120    -2.2380    -0.4220 N.pl3 1 <1>  -0.8380 
 12 C       -6.6430    -3.6860    -0.7800 C.3   1 <1>   0.2890 
 13 C       -7.8690    -1.5050    -0.0850 C.3   1 <1>   0.2090 
 14 C       -6.7790    -4.5360     0.4890 C.3   1 <1>  -0.1600 
 15 C       -7.6960    -4.0150    -1.8550 C.3   1 <1>  -0.1600 
 16 C       -9.0950    -2.3350     0.3360 C.3   1 <1>  -0.0800 
 17 C       -8.2250    -4.6860     0.9820 C.3   1 <1>  -0.0800 
 18 C       -9.1190    -4.2750    -1.3260 C.3   1 <1>  -0.0800 
 19 C       -8.8130    -3.3480     1.4670 C.3   1 <1>  -0.1600 
 20 C       -9.8000    -2.9820    -0.8680 C.3   1 <1>  -0.1600 
 21 C       -9.0810    -5.2640    -0.1530 C.3   1 <1>  -0.1600 
 22 H       -2.4870     1.7640     1.4450 H     1 <1>   0.0800 
 23 H       -1.6340     2.5700     0.1370 H     1 <1>   0.0800 
 24 H       -0.7590     1.6000     1.2900 H     1 <1>   0.0800 
 25 H       -2.2650    -2.1130    -0.0690 H     1 <1>   0.1500 
 26 H       -3.6510     2.3270    -1.2360 H     1 <1>   0.0800 
 27 H       -4.5720     2.4410     0.2580 H     1 <1>   0.0800 
 28 H       -5.3770     2.1450    -1.2590 H     1 <1>   0.0800 
 29 H       -5.6950    -3.9370    -1.2240 H     1 <1>   0.0800 
 30 H       -8.1350    -0.8920    -0.9280 H     1 <1>   0.0800 
 31 H       -7.6480    -0.8350     0.7290 H     1 <1>   0.0800 
 32 H       -6.1550    -4.1250     1.2630 H     1 <1>   0.0800 
 33 H       -6.3990    -5.5170     0.2670 H     1 <1>   0.0800 
 34 H       -7.3710    -4.9150    -2.3440 H     1 <1>   0.0800 
 35 H       -7.7010    -3.2390    -2.6000 H     1 <1>   0.0800 
 36 H       -9.7880    -1.6150     0.7350 H     1 <1>   0.0800 
 37 H       -8.2280    -5.3770     1.8080 H     1 <1>   0.0800 
 38 H       -9.7060    -4.7000    -2.1220 H     1 <1>   0.0800 
 39 H       -9.7440    -3.5600     1.9630 H     1 <1>   0.0800 
 40 H       -8.1580    -2.9050     2.1970 H     1 <1>   0.0800 
 41 H       -9.8520    -2.2860    -1.6870 H     1 <1>   0.0800 
 42 H      -10.8120    -3.2150    -0.5860 H     1 <1>   0.0800 
 43 H      -10.0800    -5.4480     0.2030 H     1 <1>   0.0800 
 44 H       -8.6730    -6.2040    -0.4790 H     1 <1>   0.0800 
@<TRIPOS>BOND
  1   1   2  2   
  2   2   3  1   
  3   2   4  1   
  4   3   5  ar  
  5   3   6  ar  
  6   4  22  1   
  7   4  23  1   
  8   4  24  1   
  9   5   7  ar  
 10   5   8  1   
 11   6   9  ar  
 12   6  25  1   
 13   7  10  ar  
 14   8  26  1   
 15   8  27  1   
 16   8  28  1   
 17   9  10  ar  
 18  10  11  1   
 19  11  12  1   
 20  11  13  1   
 21  12  14  1   
 22  12  15  1   
 23  12  29  1   
 24  13  16  1   
 25  13  30  1   
 26  13  31  1   
 27  14  17  1   
 28  14  32  1   
 29  14  33  1   
 30  15  18  1   
 31  15  34  1   
 32  15  35  1   
 33  16  19  1   
 34  16  20  1   
 35  16  36  1   
 36  17  19  1   
 37  17  21  1   
 38  17  37  1   
 39  18  20  1   
 40  18  21  1   
 41  18  38  1   
 42  19  39  1   
 43  19  40  1   
 44  20  41  1   
 45  20  42  1   
 46  21  43  1   
 47  21  44  1   
@<TRIPOS>SUBSTRUCTURE
  1 ****  10 GROUP 4 **** **** 0

# MOE 2024.06 (io_trps.svl 2023.06)
