@<TRIPOS>MOLECULE
NONAME
49 51 1 0 0 
SMALL
USER_CHARGES


@<TRIPOS>ATOM
  1 S        0.3510    -0.1180     1.5270 S.o2  1 <1>   1.4470 
  2 O        1.0920    -1.1980     2.1450 O.2   1 <1>  -0.6500 
  3 O       -0.2910     0.8310     2.4140 O.2   1 <1>  -0.6500 
  4 N        1.4970     0.7760     0.6470 N.am  1 <1>  -0.8490 
  5 C       -0.8670    -0.6500     0.2900 C.ar  1 <1>  -0.0090 
  6 C        2.2540     1.6660     1.5520 C.3   1 <1>   0.1960 
  7 C        2.3330    -0.0820    -0.2050 C.3   1 <1>   0.1960 
  8 C       -0.7760    -1.8690    -0.3800 C.ar  1 <1>   0.0820 
  9 C       -1.9330     0.1860    -0.0270 C.ar  1 <1>  -0.1500 
 10 C        3.4010     2.4840     0.9170 C.3   1 <1>   0.2200 
 11 C        3.1560     0.6500    -1.2880 C.3   1 <1>  -0.0190 
 12 O        0.2720    -2.6800    -0.1100 O.3   1 <1>  -0.3620 
 13 C       -1.7340    -2.2330    -1.3210 C.ar  1 <1>  -0.1500 
 14 C       -2.8920    -0.1690    -0.9600 C.ar  1 <1>  -0.1430 
 15 N        3.0050     2.9920    -0.4350 N.am  1 <1>  -0.6600 
 16 C        4.7380     1.6920     0.9380 C.3   1 <1>   0.1200 
 17 C        2.8140     2.1190    -1.4740 C.2   1 <1>   0.5690 
 18 C        4.6720     0.4550    -1.1070 C.3   1 <1>   0.1200 
 19 C        0.1250    -4.0810    -0.1300 C.3   1 <1>   0.1200 
 20 C       -2.7880    -1.3870    -1.6070 C.ar  1 <1>  -0.1500 
 21 C       -4.0370     0.7760    -1.2720 C.3   1 <1>  -0.0960 
 22 C        2.7320     4.4470    -0.5550 C.3   1 <1>   0.0600 
 23 O        5.2750     1.4450    -0.3280 O.3   1 <1>  -0.5600 
 24 O        2.3980     2.4740    -2.5550 O.2   1 <1>  -0.5700 
 25 C        1.3370    -4.6830     0.5730 C.3   1 <1>  -0.2400 
 26 H        1.5620     2.3790     1.9660 H     1 <1>   0.0800 
 27 H        2.6400     1.0950     2.3800 H     1 <1>   0.0800 
 28 H        2.9730    -0.6880     0.4150 H     1 <1>   0.0800 
 29 H        1.6870    -0.7590    -0.7330 H     1 <1>   0.0800 
 30 H       -2.0100     1.1380     0.4720 H     1 <1>   0.1500 
 31 H        3.5530     3.3310     1.5620 H     1 <1>   0.0800 
 32 H        2.9140     0.1570    -2.2110 H     1 <1>   0.0800 
 33 H       -1.6650    -3.1670    -1.8470 H     1 <1>   0.1500 
 34 H        4.6400     0.7550     1.4580 H     1 <1>   0.0800 
 35 H        5.4690     2.2760     1.4680 H     1 <1>   0.0800 
 36 H        5.1450     0.5090    -2.0720 H     1 <1>   0.0800 
 37 H        4.9000    -0.5050    -0.6780 H     1 <1>   0.0800 
 38 H       -0.7830    -4.3370     0.3900 H     1 <1>   0.0800 
 39 H        0.0760    -4.4090    -1.1530 H     1 <1>   0.0800 
 40 H       -3.5230    -1.6770    -2.3380 H     1 <1>   0.1500 
 41 H       -4.8790     0.2370    -1.6680 H     1 <1>   0.0800 
 42 H       -3.7200     1.5050    -1.9970 H     1 <1>   0.0800 
 43 H       -4.3520     1.2890    -0.3810 H     1 <1>   0.0800 
 44 H        3.6120     5.0050    -0.2880 H     1 <1>   0.0800 
 45 H        1.9200     4.7190     0.0970 H     1 <1>   0.0800 
 46 H        2.4600     4.6990    -1.5660 H     1 <1>   0.0800 
 47 H        1.3920    -4.3190     1.5850 H     1 <1>   0.0800 
 48 H        2.2380    -4.4210     0.0500 H     1 <1>   0.0800 
 49 H        1.2510    -5.7540     0.5970 H     1 <1>   0.0800 
@<TRIPOS>BOND
  1   1   2  2   
  2   1   3  2   
  3   1   4  am  
  4   1   5  1   
  5   4   6  1   
  6   4   7  1   
  7   5   8  ar  
  8   5   9  ar  
  9   6  10  1   
 10   6  26  1   
 11   6  27  1   
 12   7  11  1   
 13   7  28  1   
 14   7  29  1   
 15   8  12  1   
 16   8  13  ar  
 17   9  14  ar  
 18   9  30  1   
 19  10  15  1   
 20  10  16  1   
 21  10  31  1   
 22  11  17  1   
 23  11  18  1   
 24  11  32  1   
 25  12  19  1   
 26  13  20  ar  
 27  13  33  1   
 28  14  20  ar  
 29  14  21  1   
 30  15  17  am  
 31  15  22  1   
 32  16  23  1   
 33  16  34  1   
 34  16  35  1   
 35  17  24  2   
 36  18  23  1   
 37  18  36  1   
 38  18  37  1   
 39  19  25  1   
 40  19  38  1   
 41  19  39  1   
 42  20  40  1   
 43  21  41  1   
 44  21  42  1   
 45  21  43  1   
 46  22  44  1   
 47  22  45  1   
 48  22  46  1   
 49  25  47  1   
 50  25  48  1   
 51  25  49  1   
@<TRIPOS>SUBSTRUCTURE
  1 ****   4 GROUP 4 **** **** 0

# MOE 2024.06 (io_trps.svl 2023.06)
