@<TRIPOS>MOLECULE
NONAME
58 61 1 0 0 
SMALL
USER_CHARGES


@<TRIPOS>ATOM
  1 CL       8.1830    -3.8740     0.3290 Cl    1 <1>  -0.1770 
  2 C        6.5130    -4.1760    -0.0780 C.ar  1 <1>   0.1770 
  3 C        5.5610    -4.1930     0.9240 C.ar  1 <1>  -0.1500 
  4 C        6.1680    -4.3920    -1.3980 C.ar  1 <1>  -0.1500 
  5 C        4.2380    -4.4340     0.5940 C.ar  1 <1>  -0.1500 
  6 C        4.8430    -4.6330    -1.7220 C.ar  1 <1>  -0.1500 
  7 C        3.8730    -4.6610    -0.7260 C.ar  1 <1>  -0.1430 
  8 C        2.4150    -4.9430    -1.0630 C.3   1 <1>   0.2840 
  9 N        2.0390    -6.3230    -0.6310 N.am  1 <1>  -0.6600 
 10 C        1.1690    -6.5060     0.4140 C.2   1 <1>   0.5690 
 11 C        2.6880    -7.4230    -1.4090 C.3   1 <1>   0.1400 
 12 O        0.7520    -5.5620     1.0410 O.2   1 <1>  -0.5700 
 13 C        0.6330    -7.8590     0.8540 C.3   1 <1>  -0.0990 
 14 C        3.4200    -8.4960    -0.5520 C.3   1 <1>   0.2800 
 15 C        1.2240    -9.1240     0.2320 C.3   1 <1>   0.1200 
 16 O        2.6030    -9.1190     0.4060 O.3   1 <1>  -0.5600 
 17 C        4.5660    -7.8490     0.2460 C.3   1 <1>  -0.1600 
 18 C        3.9620    -9.6050    -1.4750 C.3   1 <1>  -0.1600 
 19 C        5.4480    -8.8800     0.9470 C.3   1 <1>   0.1400 
 20 C        4.8780   -10.5880    -0.7400 C.3   1 <1>   0.1400 
 21 N        5.9630    -9.8180    -0.0820 N.am  1 <1>  -0.6600 
 22 C        7.2270    -9.7190    -0.6270 C.2   1 <1>   0.5440 
 23 O        7.4620   -10.2700    -1.6870 O.2   1 <1>  -0.5700 
 24 C        8.2630    -8.9370     0.0150 C.ar  1 <1>   0.0860 
 25 C        8.7660    -9.2850     1.2680 C.ar  1 <1>  -0.1500 
 26 C        8.7750    -7.7930    -0.5950 C.ar  1 <1>  -0.1500 
 27 C        9.7240    -8.5090     1.8940 C.ar  1 <1>  -0.1500 
 28 C        9.7320    -7.0120     0.0250 C.ar  1 <1>  -0.1500 
 29 C       10.2100    -7.3640     1.2850 C.ar  1 <1>   0.0830 
 30 O       11.1330    -6.6500     1.9670 O.3   1 <1>  -0.3620 
 31 C       11.6300    -5.4240     1.4780 C.3   1 <1>   0.0400 
 32 H        5.8520    -4.0200     1.9440 H     1 <1>   0.1500 
 33 H        6.9270    -4.3700    -2.1590 H     1 <1>   0.1500 
 34 H        3.4850    -4.4550     1.3670 H     1 <1>   0.1500 
 35 H        4.5730    -4.8000    -2.7500 H     1 <1>   0.1500 
 36 H        2.2530    -4.8490    -2.1230 H     1 <1>   0.0800 
 37 H        1.7950    -4.2070    -0.5810 H     1 <1>   0.0800 
 38 H        3.4190    -6.9960    -2.0710 H     1 <1>   0.0800 
 39 H        1.9550    -7.8850    -2.0450 H     1 <1>   0.0800 
 40 H       -0.4250    -7.8590     0.6730 H     1 <1>   0.0800 
 41 H        0.7650    -7.9250     1.9180 H     1 <1>   0.0800 
 42 H        0.9720    -9.2400    -0.8060 H     1 <1>   0.0800 
 43 H        0.8460    -9.9820     0.7590 H     1 <1>   0.0800 
 44 H        4.1560    -7.1810     0.9800 H     1 <1>   0.0800 
 45 H        5.1870    -7.2680    -0.4120 H     1 <1>   0.0800 
 46 H        4.5330    -9.1640    -2.2720 H     1 <1>   0.0800 
 47 H        3.1460   -10.1420    -1.9210 H     1 <1>   0.0800 
 48 H        4.8700    -9.4280     1.6730 H     1 <1>   0.0800 
 49 H        6.2470    -8.3800     1.4650 H     1 <1>   0.0800 
 50 H        5.2880   -11.3040    -1.4330 H     1 <1>   0.0800 
 51 H        4.3220   -11.1270     0.0080 H     1 <1>   0.0800 
 52 H        8.3940   -10.1720     1.7490 H     1 <1>   0.1500 
 53 H        8.4080    -7.5220    -1.5690 H     1 <1>   0.1500 
 54 H       10.1020    -8.7840     2.8630 H     1 <1>   0.1500 
 55 H       10.0930    -6.1360    -0.4800 H     1 <1>   0.1500 
 56 H       12.3210    -5.0310     2.2010 H     1 <1>   0.0800 
 57 H       10.8090    -4.7410     1.3490 H     1 <1>   0.0800 
 58 H       12.1360    -5.5990     0.5450 H     1 <1>   0.0800 
@<TRIPOS>BOND
  1   1   2  1   
  2   2   3  ar  
  3   2   4  ar  
  4   3   5  ar  
  5   3  32  1   
  6   4   6  ar  
  7   4  33  1   
  8   5   7  ar  
  9   5  34  1   
 10   6   7  ar  
 11   6  35  1   
 12   7   8  1   
 13   8   9  1   
 14   8  36  1   
 15   8  37  1   
 16   9  10  am  
 17   9  11  1   
 18  10  12  2   
 19  10  13  1   
 20  11  14  1   
 21  11  38  1   
 22  11  39  1   
 23  13  15  1   
 24  13  40  1   
 25  13  41  1   
 26  14  16  1   
 27  14  17  1   
 28  14  18  1   
 29  15  16  1   
 30  15  42  1   
 31  15  43  1   
 32  17  19  1   
 33  17  44  1   
 34  17  45  1   
 35  18  20  1   
 36  18  46  1   
 37  18  47  1   
 38  19  21  1   
 39  19  48  1   
 40  19  49  1   
 41  20  21  1   
 42  20  50  1   
 43  20  51  1   
 44  21  22  am  
 45  22  23  2   
 46  22  24  1   
 47  24  25  ar  
 48  24  26  ar  
 49  25  27  ar  
 50  25  52  1   
 51  26  28  ar  
 52  26  53  1   
 53  27  29  ar  
 54  27  54  1   
 55  28  29  ar  
 56  28  55  1   
 57  29  30  1   
 58  30  31  1   
 59  31  56  1   
 60  31  57  1   
 61  31  58  1   
@<TRIPOS>SUBSTRUCTURE
  1 ****  17 GROUP 4 **** **** 0

# MOE 2024.06 (io_trps.svl 2023.06)
