@<TRIPOS>MOLECULE
NONAME
48 50 1 0 0 
SMALL
USER_CHARGES


@<TRIPOS>ATOM
  1 F        2.1370     0.4130     0.4600 F     1 <1>  -0.3400 
  2 C        1.5610     1.4900    -0.0680 C.3   1 <1>   1.1640 
  3 F        2.1120     1.6210    -1.2700 F     1 <1>  -0.3400 
  4 F        0.2920     1.1430    -0.2550 F     1 <1>  -0.3400 
  5 C        1.7330     2.7230     0.8260 C.ar  1 <1>  -0.1430 
  6 C        1.1760     3.9490     0.4010 C.ar  1 <1>   0.3100 
  7 C        2.4190     2.6490     2.0190 C.ar  1 <1>  -0.1500 
  8 N        0.5040     3.9990    -0.7780 N.ar  1 <1>  -0.6200 
  9 C        1.3380     5.0970     1.2180 C.ar  1 <1>   0.0000 
 10 C        2.5770     3.7760     2.8230 C.ar  1 <1>  -0.1500 
 11 C        0.0080     5.1410    -1.1510 C.ar  1 <1>   0.1600 
 12 C        0.7910     6.3270     0.7720 C.ar  1 <1>   0.1000 
 13 C        2.0490     4.9720     2.4290 C.ar  1 <1>  -0.1500 
 14 C        0.1220     6.3170    -0.4220 C.ar  1 <1>  -0.1500 
 15 N        0.9230     7.4940     1.5020 N.pl3 1 <1>  -0.8690 
 16 C        1.5480     8.6970     0.9060 C.3   1 <1>   0.2890 
 17 C        3.0810     8.5800     0.9530 C.3   1 <1>   0.1400 
 18 C        1.0330     9.9420     1.6450 C.3   1 <1>  -0.1600 
 19 N        3.7560     9.7990     0.3920 N.am  1 <1>  -0.6600 
 20 C        2.0860    11.0630     1.7450 C.3   1 <1>  -0.1600 
 21 C        5.0050     9.6720    -0.1690 C.2   1 <1>   0.5690 
 22 C        3.0260    11.0950     0.5340 C.3   1 <1>   0.1400 
 23 O        5.6040     8.6210    -0.1120 O.2   1 <1>  -0.5700 
 24 C        5.6900    10.8550    -0.8780 C.3   1 <1>  -0.0190 
 25 C        6.4670    10.4160    -2.1320 C.3   1 <1>  -0.2400 
 26 C        6.6360    11.6000     0.0790 C.3   1 <1>  -0.2400 
 27 H        2.8530     1.7260     2.3680 H     1 <1>   0.1500 
 28 H        3.1190     3.6910     3.7500 H     1 <1>   0.1500 
 29 H       -0.5270     5.1730    -2.0850 H     1 <1>   0.1500 
 30 H        2.1830     5.8350     3.0520 H     1 <1>   0.1500 
 31 H       -0.3280     7.2140    -0.8020 H     1 <1>   0.1500 
 32 H        1.1590     7.3870     2.4920 H     1 <1>   0.4000 
 33 H        1.2660     8.7650    -0.1310 H     1 <1>   0.0800 
 34 H        3.3770     7.7120     0.3890 H     1 <1>   0.0800 
 35 H        3.4020     8.4500     1.9710 H     1 <1>   0.0800 
 36 H        0.7160     9.6860     2.6400 H     1 <1>   0.0800 
 37 H        0.1740    10.3080     1.1120 H     1 <1>   0.0800 
 38 H        2.6830    10.9200     2.6300 H     1 <1>   0.0800 
 39 H        1.5900    12.0130     1.8430 H     1 <1>   0.0800 
 40 H        2.4580    11.2790    -0.3620 H     1 <1>   0.0800 
 41 H        3.7270    11.9010     0.6650 H     1 <1>   0.0800 
 42 H        4.9350    11.5400    -1.2140 H     1 <1>   0.0800 
 43 H        7.2710     9.7530    -1.8620 H     1 <1>   0.0800 
 44 H        6.8780    11.2690    -2.6420 H     1 <1>   0.0800 
 45 H        5.8120     9.8940    -2.8060 H     1 <1>   0.0800 
 46 H        7.4220    10.9410     0.4050 H     1 <1>   0.0800 
 47 H        6.1010    11.9420     0.9460 H     1 <1>   0.0800 
 48 H        7.0770    12.4490    -0.4110 H     1 <1>   0.0800 
@<TRIPOS>BOND
  1   1   2  1   
  2   2   3  1   
  3   2   4  1   
  4   2   5  1   
  5   5   6  ar  
  6   5   7  ar  
  7   6   8  ar  
  8   6   9  ar  
  9   7  10  ar  
 10   7  27  1   
 11   8  11  ar  
 12   9  12  ar  
 13   9  13  ar  
 14  10  13  ar  
 15  10  28  1   
 16  11  14  ar  
 17  11  29  1   
 18  12  14  ar  
 19  12  15  1   
 20  13  30  1   
 21  14  31  1   
 22  15  16  1   
 23  15  32  1   
 24  16  17  1   
 25  16  18  1   
 26  16  33  1   
 27  17  19  1   
 28  17  34  1   
 29  17  35  1   
 30  18  20  1   
 31  18  36  1   
 32  18  37  1   
 33  19  21  am  
 34  19  22  1   
 35  20  22  1   
 36  20  38  1   
 37  20  39  1   
 38  21  23  2   
 39  21  24  1   
 40  22  40  1   
 41  22  41  1   
 42  24  25  1   
 43  24  26  1   
 44  24  42  1   
 45  25  43  1   
 46  25  44  1   
 47  25  45  1   
 48  26  46  1   
 49  26  47  1   
 50  26  48  1   
@<TRIPOS>SUBSTRUCTURE
  1 ****  12 GROUP 4 **** **** 0

# MOE 2024.06 (io_trps.svl 2023.06)
