@<TRIPOS>MOLECULE
NONAME
43 45 1 0 0 
SMALL
USER_CHARGES


@<TRIPOS>ATOM
  1 CL       2.8170    -0.6420    -3.8890 Cl    1 <1>  -0.1400 
  2 C        2.5990    -1.1800    -2.2380 C.2   1 <1>   0.1400 
  3 C        2.4160    -0.2830    -1.2310 C.2   1 <1>  -0.0410 
  4 C        2.6160    -2.5640    -1.9830 C.2   1 <1>  -0.1500 
  5 N        2.2490    -0.7430     0.0540 N.am  1 <1>  -0.5390 
  6 C        2.4400    -3.0280    -0.7000 C.2   1 <1>   0.0290 
  7 C        2.2610    -2.0810     0.3620 C.2   1 <1>   0.6160 
  8 C        2.4520    -4.4280    -0.3930 C.2   1 <1>   0.6160 
  9 O        2.1110    -2.3700     1.5390 O.2   1 <1>  -0.5700 
 10 O        3.4620    -5.0710    -0.6190 O.2   1 <1>  -0.5700 
 11 N        1.3400    -5.0900     0.0720 N.am  1 <1>  -0.6600 
 12 C       -0.0060    -4.4960     0.2420 C.3   1 <1>   0.1400 
 13 C        1.3030    -6.5530     0.2740 C.3   1 <1>   0.1400 
 14 C       -0.8940    -5.6300     0.7760 C.3   1 <1>  -0.0800 
 15 C       -0.1790    -6.9250     0.3430 C.3   1 <1>  -0.0800 
 16 C       -2.4070    -5.5560     0.4010 C.3   1 <1>   0.2800 
 17 C       -0.7240    -7.4290    -1.0010 C.3   1 <1>  -0.1600 
 18 O       -2.5770    -4.8820    -0.7940 O.3   1 <1>  -0.6800 
 19 C       -2.9690    -6.9730     0.1820 C.3   1 <1>  -0.1600 
 20 C       -3.2490    -4.8110     1.4610 C.3   1 <1>  -0.1600 
 21 C       -2.2240    -7.7700    -0.9110 C.3   1 <1>  -0.1600 
 22 C       -2.8520    -3.3470     1.7180 C.3   1 <1>  -0.2400 
 23 H        2.4000     0.7800    -1.4070 H     1 <1>   0.1500 
 24 H        2.7710    -3.2420    -2.8040 H     1 <1>   0.1500 
 25 H        2.1200    -0.1240     0.8580 H     1 <1>   0.3700 
 26 H        0.0210    -3.6780     0.9390 H     1 <1>   0.0800 
 27 H       -0.3360    -4.1380    -0.7160 H     1 <1>   0.0800 
 28 H        1.8110    -7.0640    -0.5270 H     1 <1>   0.0800 
 29 H        1.7920    -6.7820     1.2060 H     1 <1>   0.0800 
 30 H       -0.8200    -5.6010     1.8480 H     1 <1>   0.0800 
 31 H       -0.3150    -7.6990     1.0790 H     1 <1>   0.0800 
 32 H       -0.5850    -6.6580    -1.7410 H     1 <1>   0.0800 
 33 H       -0.1760    -8.2950    -1.3280 H     1 <1>   0.0800 
 34 H       -3.5150    -4.9180    -1.0520 H     1 <1>   0.4000 
 35 H       -2.8770    -7.5100     1.1100 H     1 <1>   0.0800 
 36 H       -4.0180    -6.9340    -0.0500 H     1 <1>   0.0800 
 37 H       -4.2830    -4.8380     1.1660 H     1 <1>   0.0800 
 38 H       -3.1800    -5.3460     2.3920 H     1 <1>   0.0800 
 39 H       -2.3430    -8.8210    -0.7130 H     1 <1>   0.0800 
 40 H       -2.6730    -7.5700    -1.8690 H     1 <1>   0.0800 
 41 H       -2.8560    -2.7830     0.8020 H     1 <1>   0.0800 
 42 H       -1.8750    -3.2860     2.1600 H     1 <1>   0.0800 
 43 H       -3.5530    -2.8930     2.3970 H     1 <1>   0.0800 
@<TRIPOS>BOND
  1   1   2  1   
  2   2   3  2   
  3   2   4  1   
  4   3   5  1   
  5   3  23  1   
  6   4   6  2   
  7   4  24  1   
  8   5   7  am  
  9   5  25  1   
 10   6   7  1   
 11   6   8  1   
 12   7   9  2   
 13   8  10  2   
 14   8  11  am  
 15  11  12  1   
 16  11  13  1   
 17  12  14  1   
 18  12  26  1   
 19  12  27  1   
 20  13  15  1   
 21  13  28  1   
 22  13  29  1   
 23  14  15  1   
 24  14  16  1   
 25  14  30  1   
 26  15  17  1   
 27  15  31  1   
 28  16  18  1   
 29  16  19  1   
 30  16  20  1   
 31  17  21  1   
 32  17  32  1   
 33  17  33  1   
 34  18  34  1   
 35  19  21  1   
 36  19  35  1   
 37  19  36  1   
 38  20  22  1   
 39  20  37  1   
 40  20  38  1   
 41  21  39  1   
 42  21  40  1   
 43  22  41  1   
 44  22  42  1   
 45  22  43  1   
@<TRIPOS>SUBSTRUCTURE
  1 ****  12 GROUP 4 **** **** 0

# MOE 2024.06 (io_trps.svl 2023.06)
