@<TRIPOS>MOLECULE
NONAME
46 48 1 0 0 
SMALL
USER_CHARGES


@<TRIPOS>ATOM
  1 CL       4.4870    -0.2720    -2.1200 Cl    1 <1>  -0.1770 
  2 C        3.2110    -0.1550    -0.9290 C.ar  1 <1>   0.1770 
  3 C        2.8430     1.0720    -0.3660 C.ar  1 <1>   0.0860 
  4 C        2.5830    -1.3390    -0.5870 C.ar  1 <1>  -0.1500 
  5 C        3.4790     2.3390    -0.6790 C.2   1 <1>   0.5440 
  6 C        1.7930     1.0420     0.5560 C.ar  1 <1>  -0.1500 
  7 C        1.5520    -1.3330     0.3350 C.ar  1 <1>  -0.1500 
  8 O        2.8250     3.3640    -0.6860 O.2   1 <1>  -0.5700 
  9 N        4.8190     2.4400    -0.9280 N.am  1 <1>  -0.7300 
 10 C        1.1570    -0.1370     0.9050 C.ar  1 <1>  -0.1500 
 11 C        5.5150     3.6870    -1.3430 C.3   1 <1>   0.1400 
 12 C        5.5680     4.7030    -0.1960 C.3   1 <1>   0.2090 
 13 N        6.4220     5.8580    -0.5780 N.pl3 1 <1>  -0.8690 
 14 C        7.3960     6.3320     0.2600 C.ar  1 <1>   0.4100 
 15 N        7.3620     7.6380     0.4090 N.ar  1 <1>  -0.6200 
 16 C        8.3400     5.5090     0.8940 C.ar  1 <1>   0.1600 
 17 C        8.3070     8.1120     1.2420 C.ar  1 <1>   0.3960 
 18 N        9.2740     5.9370     1.7180 N.ar  1 <1>  -0.6200 
 19 C        8.4150     9.5440     1.5330 C.2   1 <1>   0.5440 
 20 C        9.2170     7.2540     1.8690 C.ar  1 <1>   0.1600 
 21 O        8.8520     9.8930     2.6190 O.2   1 <1>  -0.5700 
 22 N        8.0790    10.5480     0.6420 N.am  1 <1>  -0.6600 
 23 C        8.1800    11.9850     0.9800 C.3   1 <1>   0.1400 
 24 C        7.6490    10.3640    -0.7620 C.3   1 <1>   0.1400 
 25 C        7.5750    12.7130    -0.2150 C.3   1 <1>  -0.1600 
 26 C        7.7570    11.7510    -1.3860 C.3   1 <1>  -0.1600 
 27 H        2.8980    -2.2610    -1.0430 H     1 <1>   0.1500 
 28 H        1.4710     1.9670     1.0060 H     1 <1>   0.1500 
 29 H        1.0590    -2.2520     0.6060 H     1 <1>   0.1500 
 30 H        5.3440     1.5730    -1.0770 H     1 <1>   0.3700 
 31 H        0.3520    -0.1220     1.6200 H     1 <1>   0.1500 
 32 H        4.9920     4.1210    -2.1780 H     1 <1>   0.0800 
 33 H        6.5170     3.4430    -1.6490 H     1 <1>   0.0800 
 34 H        5.9580     4.2270     0.6880 H     1 <1>   0.0800 
 35 H        4.5750     5.0580     0.0200 H     1 <1>   0.0800 
 36 H        5.8660     6.6360    -0.9480 H     1 <1>   0.4000 
 37 H        8.3010     4.4560     0.6910 H     1 <1>   0.1500 
 38 H        9.9440     7.6900     2.5330 H     1 <1>   0.1500 
 39 H        9.2180    12.2440     1.0990 H     1 <1>   0.0800 
 40 H        7.6480    12.2020     1.8910 H     1 <1>   0.0800 
 41 H        6.6260    10.0270    -0.7730 H     1 <1>   0.0800 
 42 H        8.2740     9.6510    -1.2710 H     1 <1>   0.0800 
 43 H        8.0490    13.6630    -0.3860 H     1 <1>   0.0800 
 44 H        6.5270    12.8720    -0.0310 H     1 <1>   0.0800 
 45 H        7.0240    11.9000    -2.1580 H     1 <1>   0.0800 
 46 H        8.7400    11.8680    -1.8060 H     1 <1>   0.0800 
@<TRIPOS>BOND
  1   1   2  1   
  2   2   3  ar  
  3   2   4  ar  
  4   3   5  1   
  5   3   6  ar  
  6   4   7  ar  
  7   4  27  1   
  8   5   8  2   
  9   5   9  am  
 10   6  10  ar  
 11   6  28  1   
 12   7  10  ar  
 13   7  29  1   
 14   9  11  1   
 15   9  30  1   
 16  10  31  1   
 17  11  12  1   
 18  11  32  1   
 19  11  33  1   
 20  12  13  1   
 21  12  34  1   
 22  12  35  1   
 23  13  14  1   
 24  13  36  1   
 25  14  15  ar  
 26  14  16  ar  
 27  15  17  ar  
 28  16  18  ar  
 29  16  37  1   
 30  17  19  1   
 31  17  20  ar  
 32  18  20  ar  
 33  19  21  2   
 34  19  22  am  
 35  20  38  1   
 36  22  23  1   
 37  22  24  1   
 38  23  25  1   
 39  23  39  1   
 40  23  40  1   
 41  24  26  1   
 42  24  41  1   
 43  24  42  1   
 44  25  26  1   
 45  25  43  1   
 46  25  44  1   
 47  26  45  1   
 48  26  46  1   
@<TRIPOS>SUBSTRUCTURE
  1 ****  12 GROUP 4 **** **** 0

# MOE 2024.06 (io_trps.svl 2023.06)
