@<TRIPOS>MOLECULE
NONAME
52 55 1 0 0 
SMALL
USER_CHARGES


@<TRIPOS>ATOM
  1 O       -2.7680     0.5480    -1.7230 O.2   1 <1>  -0.5700 
  2 C       -2.2540     0.5360    -0.6290 C.2   1 <1>   0.5770 
  3 N       -2.0010    -0.6370     0.0060 N.am  1 <1>  -0.7300 
  4 C       -1.8660     1.8560     0.0270 C.3   1 <1>   0.0530 
  5 C       -2.4150    -1.9620    -0.5020 C.3   1 <1>   0.2200 
  6 C       -3.0460     2.8720     0.0790 C.3   1 <1>   0.0000 
  7 C       -1.8870     1.8420     1.5880 C.3   1 <1>   0.0000 
  8 C       -0.5780     2.3930    -0.6280 C.3   1 <1>   0.1200 
  9 C       -3.8120    -2.2660     0.0070 C.3   1 <1>  -0.0800 
 10 C       -1.5940    -3.0600     0.1620 C.3   1 <1>   0.1200 
 11 C       -2.6790     3.1750     1.5550 C.3   1 <1>   0.0000 
 12 O       -0.1230     3.5550    -0.0060 O.3   1 <1>  -0.5600 
 13 C       -3.5380    -2.8730     1.3870 C.3   1 <1>   0.1200 
 14 C       -4.5540    -3.2390    -0.9290 C.3   1 <1>  -0.0160 
 15 O       -2.2090    -3.3120     1.3900 O.3   1 <1>  -0.5600 
 16 C        1.0040     4.1110    -0.6000 C.3   1 <1>   0.0400 
 17 C       -6.0030    -3.4340    -0.4930 C.ar  1 <1>  -0.1440 
 18 C       -6.9960    -2.4490    -0.7100 C.ar  1 <1>   0.0000 
 19 C       -6.3830    -4.5860     0.1300 C.ar  1 <1>  -0.1500 
 20 C       -8.3060    -2.7230    -0.2470 C.ar  1 <1>   0.3100 
 21 C       -6.7690    -1.2110    -1.3590 C.ar  1 <1>  -0.1500 
 22 C       -7.7100    -4.7600     0.5420 C.ar  1 <1>   0.1600 
 23 N       -8.6450    -3.8800     0.3750 N.ar  1 <1>  -0.6200 
 24 C       -9.3100    -1.7600    -0.4370 C.ar  1 <1>  -0.1500 
 25 C       -7.7700    -0.2940    -1.5280 C.ar  1 <1>  -0.1500 
 26 C       -9.0570    -0.5680    -1.0610 C.ar  1 <1>  -0.1500 
 27 H       -1.6480    -0.6420     0.9660 H     1 <1>   0.3700 
 28 H       -2.3370    -1.9850    -1.5770 H     1 <1>   0.0800 
 29 H       -2.9320     3.7180    -0.5760 H     1 <1>   0.0000 
 30 H       -4.0110     2.4010    -0.0020 H     1 <1>   0.0000 
 31 H       -2.4830     1.0490     2.0070 H     1 <1>   0.0000 
 32 H       -0.9180     1.9260     2.0470 H     1 <1>   0.0000 
 33 H       -0.7680     2.6110    -1.6660 H     1 <1>   0.0800 
 34 H        0.2000     1.6510    -0.5600 H     1 <1>   0.0800 
 35 H       -4.3910    -1.3650     0.1050 H     1 <1>   0.0800 
 36 H       -0.5690    -2.7760     0.3210 H     1 <1>   0.0800 
 37 H       -1.6350    -3.9670    -0.4150 H     1 <1>   0.0800 
 38 H       -3.5290     3.1850     2.2140 H     1 <1>   0.0000 
 39 H       -2.0500     4.0420     1.6630 H     1 <1>   0.0000 
 40 H       -4.1810    -3.7040     1.6160 H     1 <1>   0.0800 
 41 H       -3.6330    -2.1260     2.1560 H     1 <1>   0.0800 
 42 H       -4.0480    -4.1890    -0.9410 H     1 <1>   0.0800 
 43 H       -4.5410    -2.8640    -1.9370 H     1 <1>   0.0800 
 44 H        1.2720     4.9940    -0.0460 H     1 <1>   0.0800 
 45 H        0.7750     4.3780    -1.6170 H     1 <1>   0.0800 
 46 H        1.8130     3.4010    -0.5650 H     1 <1>   0.0800 
 47 H       -5.6860    -5.3810     0.3230 H     1 <1>   0.1500 
 48 H       -5.7880    -0.9760    -1.7310 H     1 <1>   0.1500 
 49 H       -7.9670    -5.6840     1.0310 H     1 <1>   0.1500 
 50 H      -10.2920    -1.9930    -0.0710 H     1 <1>   0.1500 
 51 H       -7.5790     0.6440    -2.0210 H     1 <1>   0.1500 
 52 H       -9.8370     0.1610    -1.2000 H     1 <1>   0.1500 
@<TRIPOS>BOND
  1   1   2  2   
  2   2   3  am  
  3   2   4  1   
  4   3   5  1   
  5   3  27  1   
  6   4   6  1   
  7   4   7  1   
  8   4   8  1   
  9   5   9  1   
 10   5  10  1   
 11   5  28  1   
 12   6  11  1   
 13   6  29  1   
 14   6  30  1   
 15   7  11  1   
 16   7  31  1   
 17   7  32  1   
 18   8  12  1   
 19   8  33  1   
 20   8  34  1   
 21   9  13  1   
 22   9  14  1   
 23   9  35  1   
 24  10  15  1   
 25  10  36  1   
 26  10  37  1   
 27  11  38  1   
 28  11  39  1   
 29  12  16  1   
 30  13  15  1   
 31  13  40  1   
 32  13  41  1   
 33  14  17  1   
 34  14  42  1   
 35  14  43  1   
 36  16  44  1   
 37  16  45  1   
 38  16  46  1   
 39  17  18  ar  
 40  17  19  ar  
 41  18  20  ar  
 42  18  21  ar  
 43  19  22  ar  
 44  19  47  1   
 45  20  23  ar  
 46  20  24  ar  
 47  21  25  ar  
 48  21  48  1   
 49  22  23  ar  
 50  22  49  1   
 51  24  26  ar  
 52  24  50  1   
 53  25  26  ar  
 54  25  51  1   
 55  26  52  1   
@<TRIPOS>SUBSTRUCTURE
  1 ****   9 GROUP 4 **** **** 0

# MOE 2024.06 (io_trps.svl 2023.06)
