@<TRIPOS>MOLECULE
NONAME
40 41 1 0 0 
SMALL
USER_CHARGES


@<TRIPOS>ATOM
  1 S        0.0850    -0.1750    -0.3820 S.3   1 <1>  -0.0800 
  2 C       -1.5130    -0.8300    -0.2400 C.2   1 <1>   0.4420 
  3 C       -0.6100     1.3900    -0.1390 C.2   1 <1>   0.1980 
  4 N       -2.3920     0.0820    -0.0330 N.2   1 <1>  -0.3380 
  5 N       -1.6270    -2.1990    -0.3520 N.am  1 <1>  -0.4940 
  6 N       -1.8700     1.3450     0.0220 N.2   1 <1>  -0.3380 
  7 C        0.3240     2.5840    -0.1460 C.3   1 <1>   0.0200 
  8 C       -2.7510    -2.9860    -0.3850 C.2   1 <1>   0.6160 
  9 C       -0.4370     3.8910     0.0680 C.3   1 <1>   0.1200 
 10 O       -3.8470    -2.4800    -0.4770 O.2   1 <1>  -0.5700 
 11 C       -2.6110    -4.4300    -0.3430 C.2   1 <1>   0.0140 
 12 O        0.4820     4.9340     0.0510 O.3   1 <1>  -0.5600 
 13 C       -1.5340    -5.0770     0.2040 C.2   1 <1>  -0.1360 
 14 C       -3.6370    -5.2590    -0.8890 C.2   1 <1>  -0.1500 
 15 C       -0.0870     6.1850     0.2360 C.3   1 <1>   0.1200 
 16 C       -1.4140    -6.4890     0.2120 C.2   1 <1>   0.6160 
 17 C       -3.5380    -6.6130    -0.8800 C.2   1 <1>  -0.0410 
 18 C        1.0380     7.2120     0.1920 C.3   1 <1>  -0.2400 
 19 O       -0.4220    -7.0250     0.6920 O.2   1 <1>  -0.5700 
 20 N       -2.4350    -7.2430    -0.3400 N.am  1 <1>  -0.4690 
 21 C       -2.3630    -8.7260    -0.3410 C.3   1 <1>   0.1400 
 22 C       -3.0440    -9.2750     0.9110 C.3   1 <1>  -0.2400 
 23 H       -0.7460    -2.6900    -0.4610 H     1 <1>   0.3700 
 24 H        0.8320     2.6250    -1.0920 H     1 <1>   0.0800 
 25 H        1.0490     2.4660     0.6380 H     1 <1>   0.0800 
 26 H       -0.9390     3.8830     1.0220 H     1 <1>   0.0800 
 27 H       -1.1550     4.0430    -0.7210 H     1 <1>   0.0800 
 28 H       -0.7220    -4.5550     0.6670 H     1 <1>   0.1500 
 29 H       -4.5030    -4.7750    -1.3100 H     1 <1>   0.1500 
 30 H       -0.5820     6.2050     1.1930 H     1 <1>   0.0800 
 31 H       -0.7980     6.3660    -0.5520 H     1 <1>   0.0800 
 32 H       -4.3160    -7.2360    -1.2900 H     1 <1>   0.1500 
 33 H        1.7490     7.0140     0.9740 H     1 <1>   0.0800 
 34 H        0.6370     8.1980     0.3320 H     1 <1>   0.0800 
 35 H        1.5340     7.1730    -0.7620 H     1 <1>   0.0800 
 36 H       -1.3330    -9.0430    -0.3690 H     1 <1>   0.0800 
 37 H       -2.8490    -9.1070    -1.2220 H     1 <1>   0.0800 
 38 H       -2.5410    -8.9160     1.7910 H     1 <1>   0.0800 
 39 H       -2.9960   -10.3490     0.9070 H     1 <1>   0.0800 
 40 H       -4.0760    -8.9770     0.9410 H     1 <1>   0.0800 
@<TRIPOS>BOND
  1   1   2  1   
  2   1   3  1   
  3   2   4  2   
  4   2   5  1   
  5   3   6  2   
  6   3   7  1   
  7   4   6  1   
  8   5   8  am  
  9   5  23  1   
 10   7   9  1   
 11   7  24  1   
 12   7  25  1   
 13   8  10  2   
 14   8  11  1   
 15   9  12  1   
 16   9  26  1   
 17   9  27  1   
 18  11  13  2   
 19  11  14  1   
 20  12  15  1   
 21  13  16  1   
 22  13  28  1   
 23  14  17  2   
 24  14  29  1   
 25  15  18  1   
 26  15  30  1   
 27  15  31  1   
 28  16  19  2   
 29  16  20  am  
 30  17  20  1   
 31  17  32  1   
 32  18  33  1   
 33  18  34  1   
 34  18  35  1   
 35  20  21  1   
 36  21  22  1   
 37  21  36  1   
 38  21  37  1   
 39  22  38  1   
 40  22  39  1   
 41  22  40  1   
@<TRIPOS>SUBSTRUCTURE
  1 ****   5 GROUP 4 **** **** 0

# MOE 2024.06 (io_trps.svl 2023.06)
