@<TRIPOS>MOLECULE
NONAME
56 59 1 0 0 
SMALL
USER_CHARGES


@<TRIPOS>ATOM
  1 O       -0.6440     0.4630    -1.0370 O.2   1 <1>  -0.5700 
  2 C       -1.0300     1.2000    -0.1640 C.2   1 <1>   0.5690 
  3 N       -2.0180     0.9460     0.7150 N.am  1 <1>  -0.6600 
  4 C       -0.4530     2.5680     0.0640 C.3   1 <1>  -0.0990 
  5 C       -2.2770     2.0850     1.6140 C.3   1 <1>   0.1400 
  6 C       -2.9440    -0.2070     0.6430 C.3   1 <1>   0.2840 
  7 C       -1.0280     2.9660     1.4400 C.3   1 <1>  -0.0190 
  8 C       -4.3250     0.2760     0.2310 C.ar  1 <1>  -0.1440 
  9 C       -1.3170     4.4480     1.6380 C.2   1 <1>   0.5690 
 10 C       -5.3470     0.3860     1.1620 C.ar  1 <1>  -0.1500 
 11 C       -4.5720     0.6160    -1.0890 C.ar  1 <1>  -0.1500 
 12 O       -2.2130     4.7590     2.3840 O.2   1 <1>  -0.5700 
 13 N       -0.5270     5.3620     0.9900 N.am  1 <1>  -0.4940 
 14 C       -6.5990     0.8320     0.7740 C.ar  1 <1>  -0.1500 
 15 C       -5.8240     1.0610    -1.4750 C.ar  1 <1>  -0.1500 
 16 C       -0.5940     6.7810     1.0140 C.2   1 <1>  -0.0880 
 17 C       -6.8450     1.1740    -0.5460 C.ar  1 <1>  -0.1430 
 18 N        0.2580     7.6280     0.3670 N.pl3 1 <1>   0.3140 
 19 C       -1.4890     7.5700     1.6550 C.2   1 <1>  -0.1500 
 20 C       -8.2190     1.6650    -0.9700 C.3   1 <1>  -0.0170 
 21 N       -0.0840     8.9240     0.5780 N.2   1 <1>  -0.7070 
 22 C        1.4160     7.2410    -0.4920 C.3   1 <1>   0.1760 
 23 C       -1.1240     8.8720     1.3490 C.2   1 <1>   0.1390 
 24 C       -9.1060     0.4890    -1.3850 C.3   1 <1>  -0.2400 
 25 C        2.7080     7.9930    -0.1670 C.3   1 <1>  -0.1600 
 26 C        1.1820     7.5360    -1.9740 C.3   1 <1>  -0.1600 
 27 C        3.5630     7.8390    -1.4250 C.3   1 <1>  -0.1600 
 28 C        2.5800     7.6700    -2.5910 C.3   1 <1>  -0.1600 
 29 H       -0.8110     3.2090    -0.7210 H     1 <1>   0.0800 
 30 H        0.6210     2.5320     0.0640 H     1 <1>   0.0800 
 31 H       -2.3950     1.7620     2.6340 H     1 <1>   0.0800 
 32 H       -3.1670     2.6000     1.2890 H     1 <1>   0.0800 
 33 H       -2.9840    -0.6930     1.6010 H     1 <1>   0.0800 
 34 H       -2.5810    -0.9190    -0.0790 H     1 <1>   0.0800 
 35 H       -0.3280     2.6710     2.2000 H     1 <1>   0.0800 
 36 H       -5.1740     0.1290     2.1920 H     1 <1>   0.1500 
 37 H       -3.7840     0.5360    -1.8190 H     1 <1>   0.1500 
 38 H        0.2050     4.9600     0.4090 H     1 <1>   0.3700 
 39 H       -7.3830     0.9130     1.5060 H     1 <1>   0.1500 
 40 H       -5.9990     1.3200    -2.5050 H     1 <1>   0.1500 
 41 H       -2.3180     7.2770     2.2740 H     1 <1>   0.1500 
 42 H       -8.1210     2.3510    -1.7920 H     1 <1>   0.0800 
 43 H       -8.6810     2.1960    -0.1560 H     1 <1>   0.0800 
 44 H        1.6040     6.1910    -0.3750 H     1 <1>   0.0800 
 45 H       -1.6410     9.7470     1.7060 H     1 <1>   0.1500 
 46 H       -8.6590    -0.0380    -2.2090 H     1 <1>   0.0800 
 47 H      -10.0770     0.8430    -1.6840 H     1 <1>   0.0800 
 48 H       -9.2240    -0.1940    -0.5630 H     1 <1>   0.0800 
 49 H        3.1980     7.5960     0.7050 H     1 <1>   0.0800 
 50 H        2.4970     9.0390    -0.0160 H     1 <1>   0.0800 
 51 H        0.6660     8.4770    -2.0750 H     1 <1>   0.0800 
 52 H        0.6080     6.7620    -2.4500 H     1 <1>   0.0800 
 53 H        4.1750     6.9570    -1.3410 H     1 <1>   0.0800 
 54 H        4.2040     8.6920    -1.5670 H     1 <1>   0.0800 
 55 H        2.6150     8.5240    -3.2470 H     1 <1>   0.0800 
 56 H        2.8300     6.7890    -3.1580 H     1 <1>   0.0800 
@<TRIPOS>BOND
  1   1   2  2   
  2   2   3  am  
  3   2   4  1   
  4   3   5  1   
  5   3   6  1   
  6   4   7  1   
  7   4  29  1   
  8   4  30  1   
  9   5   7  1   
 10   5  31  1   
 11   5  32  1   
 12   6   8  1   
 13   6  33  1   
 14   6  34  1   
 15   7   9  1   
 16   7  35  1   
 17   8  10  ar  
 18   8  11  ar  
 19   9  12  2   
 20   9  13  am  
 21  10  14  ar  
 22  10  36  1   
 23  11  15  ar  
 24  11  37  1   
 25  13  16  1   
 26  13  38  1   
 27  14  17  ar  
 28  14  39  1   
 29  15  17  ar  
 30  15  40  1   
 31  16  18  1   
 32  16  19  2   
 33  17  20  1   
 34  18  21  1   
 35  18  22  1   
 36  19  23  1   
 37  19  41  1   
 38  20  24  1   
 39  20  42  1   
 40  20  43  1   
 41  21  23  2   
 42  22  25  1   
 43  22  26  1   
 44  22  44  1   
 45  23  45  1   
 46  24  46  1   
 47  24  47  1   
 48  24  48  1   
 49  25  27  1   
 50  25  49  1   
 51  25  50  1   
 52  26  28  1   
 53  26  51  1   
 54  26  52  1   
 55  27  28  1   
 56  27  53  1   
 57  27  54  1   
 58  28  55  1   
 59  28  56  1   
@<TRIPOS>SUBSTRUCTURE
  1 ****   9 GROUP 4 **** **** 0

# MOE 2024.06 (io_trps.svl 2023.06)
