@<TRIPOS>MOLECULE
NONAME
32 33 1 0 0 
SMALL
USER_CHARGES


@<TRIPOS>ATOM
  1 F        0.2530    -1.2360    -1.5830 F     1 <1>  -0.3400 
  2 C       -0.3430    -1.7190    -0.4960 C.3   1 <1>   1.1640 
  3 F       -1.5960    -1.2720    -0.5280 F     1 <1>  -0.3400 
  4 F        0.2300    -1.0950     0.5310 F     1 <1>  -0.3400 
  5 C       -0.2590    -3.2710    -0.3930 C.ar  1 <1>   0.1660 
  6 N       -0.7700    -4.0090    -1.3870 N.ar  1 <1>  -0.6200 
  7 C        0.3380    -3.8550     0.7240 C.ar  1 <1>  -0.1500 
  8 C       -0.6780    -5.3220    -1.2650 C.ar  1 <1>   0.1600 
  9 C        0.4180    -5.2270     0.8400 C.ar  1 <1>  -0.1500 
 10 C       -0.1110    -5.9790    -0.1870 C.ar  1 <1>  -0.1440 
 11 C       -0.0890    -7.4980    -0.1470 C.3   1 <1>   0.2540 
 12 N       -1.4520    -8.0350    -0.3450 N.3   1 <1>  -0.8100 
 13 C       -2.3890    -7.6090     0.7200 C.3   1 <1>   0.1100 
 14 C       -1.4430    -9.5010    -0.5130 C.3   1 <1>   0.1100 
 15 C       -3.8180    -8.1050     0.4280 C.3   1 <1>   0.3430 
 16 C       -2.8600   -10.0320    -0.8170 C.3   1 <1>   0.3430 
 17 N       -3.8520    -9.5910     0.2200 N.4   1 <1>  -0.9060 
 18 H        0.7460    -3.2480     1.5130 H     1 <1>   0.1500 
 19 H       -1.0860    -5.9110    -2.0700 H     1 <1>   0.1500 
 20 H        0.8780    -5.6810     1.7010 H     1 <1>   0.1500 
 21 H        0.3110    -7.8410     0.7930 H     1 <1>   0.0800 
 22 H        0.5560    -7.8500    -0.9350 H     1 <1>   0.0800 
 23 H       -2.4160    -6.5340     0.7740 H     1 <1>   0.0800 
 24 H       -2.0580    -7.9780     1.6760 H     1 <1>   0.0800 
 25 H       -1.0570    -9.9750     0.3740 H     1 <1>   0.0800 
 26 H       -0.7960    -9.7600    -1.3350 H     1 <1>   0.0800 
 27 H       -4.1720    -7.6060    -0.4600 H     1 <1>   0.0800 
 28 H       -4.4670    -7.8290     1.2430 H     1 <1>   0.0800 
 29 H       -2.8350   -11.1080    -0.8730 H     1 <1>   0.0800 
 30 H       -3.1590    -9.6580    -1.7840 H     1 <1>   0.0800 
 31 H       -4.7990    -9.8810    -0.0560 H     1 <1>   0.4500 
 32 H       -3.6340   -10.0550     1.1090 H     1 <1>   0.4500 
@<TRIPOS>BOND
  1   1   2  1   
  2   2   3  1   
  3   2   4  1   
  4   2   5  1   
  5   5   6  ar  
  6   5   7  ar  
  7   6   8  ar  
  8   7   9  ar  
  9   7  18  1   
 10   8  10  ar  
 11   8  19  1   
 12   9  10  ar  
 13   9  20  1   
 14  10  11  1   
 15  11  12  1   
 16  11  21  1   
 17  11  22  1   
 18  12  13  1   
 19  12  14  1   
 20  13  15  1   
 21  13  23  1   
 22  13  24  1   
 23  14  16  1   
 24  14  25  1   
 25  14  26  1   
 26  15  17  1   
 27  15  27  1   
 28  15  28  1   
 29  16  17  1   
 30  16  29  1   
 31  16  30  1   
 32  17  31  1   
 33  17  32  1   
@<TRIPOS>SUBSTRUCTURE
  1 ****  10 GROUP 4 **** **** 0

# MOE 2024.06 (io_trps.svl 2023.06)
