@<TRIPOS>MOLECULE
NONAME
49 51 1 0 0 
SMALL
USER_CHARGES


@<TRIPOS>ATOM
  1 O       -3.2180     2.2950    -1.2170 O.2   1 <1>  -0.5700 
  2 C       -2.8050     1.9050    -0.1500 C.2   1 <1>   0.5690 
  3 N       -2.7530     0.5800     0.1460 N.am  1 <1>  -0.7300 
  4 C       -2.3130     2.9260     0.8860 C.3   1 <1>   0.1710 
  5 C       -3.0790    -0.5180    -0.7880 C.3   1 <1>   0.2200 
  6 N       -0.8460     3.1890     0.8980 N.3   1 <1>  -0.8100 
  7 C       -4.0860    -1.4510    -0.1340 C.3   1 <1>  -0.0800 
  8 C       -1.8650    -1.4270    -0.9270 C.3   1 <1>   0.1200 
  9 C       -0.4000     3.7260    -0.4030 C.3   1 <1>   0.2530 
 10 C       -0.0630     2.0130     1.3100 C.3   1 <1>   0.0300 
 11 C       -3.1880    -2.3900     0.6860 C.3   1 <1>   0.1200 
 12 C       -4.9170    -2.2100    -1.1870 C.3   1 <1>  -0.0160 
 13 O       -1.8830    -2.2440     0.2030 O.3   1 <1>  -0.5600 
 14 C        1.0420     4.2100    -0.3330 C.ar  1 <1>  -0.1440 
 15 C       -5.9320    -3.1370    -0.5360 C.ar  1 <1>  -0.1440 
 16 C        2.0000     3.7940    -1.2370 C.ar  1 <1>  -0.1500 
 17 C        1.4680     5.0910     0.6400 C.ar  1 <1>  -0.1500 
 18 C       -5.7610    -4.5070    -0.5030 C.ar  1 <1>  -0.1500 
 19 C       -7.0830    -2.6540     0.0540 C.ar  1 <1>  -0.1500 
 20 C        3.2970     4.2660    -1.1250 C.ar  1 <1>   0.1600 
 21 C        2.7890     5.5020     0.6640 C.ar  1 <1>   0.1600 
 22 C       -6.7160    -5.3030     0.1060 C.ar  1 <1>   0.1600 
 23 C       -7.9770    -3.5370     0.6370 C.ar  1 <1>   0.1600 
 24 N        3.7160     5.1100    -0.1960 N.ar  1 <1>  -0.6200 
 25 N       -7.8200    -4.8500     0.6790 N.ar  1 <1>  -0.6200 
 26 H       -2.3130     0.2680     1.0140 H     1 <1>   0.3700 
 27 H       -2.6140     2.5930     1.8630 H     1 <1>   0.0800 
 28 H       -2.8250     3.8530     0.7010 H     1 <1>   0.0800 
 29 H       -3.4100    -0.1280    -1.7370 H     1 <1>   0.0800 
 30 H       -4.7580    -0.9070     0.5070 H     1 <1>   0.0800 
 31 H       -0.9390    -0.8810    -0.9680 H     1 <1>   0.0800 
 32 H       -1.9550    -2.0590    -1.7930 H     1 <1>   0.0800 
 33 H       -0.4980     2.9720    -1.1650 H     1 <1>   0.0800 
 34 H       -1.0250     4.5590    -0.6780 H     1 <1>   0.0800 
 35 H        0.9680     2.2910     1.4570 H     1 <1>   0.0800 
 36 H       -0.1070     1.2420     0.5600 H     1 <1>   0.0800 
 37 H       -0.4370     1.6280     2.2420 H     1 <1>   0.0800 
 38 H       -3.4730    -3.4240     0.6000 H     1 <1>   0.0800 
 39 H       -3.1840    -2.1090     1.7250 H     1 <1>   0.0800 
 40 H       -4.2720    -2.7790    -1.8330 H     1 <1>   0.0800 
 41 H       -5.4450    -1.5010    -1.8010 H     1 <1>   0.0800 
 42 H        1.7500     3.1080    -2.0250 H     1 <1>   0.1500 
 43 H        0.7750     5.4510     1.3800 H     1 <1>   0.1500 
 44 H       -4.8950    -4.9650    -0.9450 H     1 <1>   0.1500 
 45 H       -7.2940    -1.6010     0.0660 H     1 <1>   0.1500 
 46 H        4.0300     3.9300    -1.8390 H     1 <1>   0.1500 
 47 H        3.1000     6.1880     1.4330 H     1 <1>   0.1500 
 48 H       -6.5650    -6.3690     0.1230 H     1 <1>   0.1500 
 49 H       -8.8690    -3.1420     1.0930 H     1 <1>   0.1500 
@<TRIPOS>BOND
  1   1   2  2   
  2   2   3  am  
  3   2   4  1   
  4   3   5  1   
  5   3  26  1   
  6   4   6  1   
  7   4  27  1   
  8   4  28  1   
  9   5   7  1   
 10   5   8  1   
 11   5  29  1   
 12   6   9  1   
 13   6  10  1   
 14   7  11  1   
 15   7  12  1   
 16   7  30  1   
 17   8  13  1   
 18   8  31  1   
 19   8  32  1   
 20   9  14  1   
 21   9  33  1   
 22   9  34  1   
 23  10  35  1   
 24  10  36  1   
 25  10  37  1   
 26  11  13  1   
 27  11  38  1   
 28  11  39  1   
 29  12  15  1   
 30  12  40  1   
 31  12  41  1   
 32  14  16  ar  
 33  14  17  ar  
 34  15  18  ar  
 35  15  19  ar  
 36  16  20  ar  
 37  16  42  1   
 38  17  21  ar  
 39  17  43  1   
 40  18  22  ar  
 41  18  44  1   
 42  19  23  ar  
 43  19  45  1   
 44  20  24  ar  
 45  20  46  1   
 46  21  24  ar  
 47  21  47  1   
 48  22  25  ar  
 49  22  48  1   
 50  23  25  ar  
 51  23  49  1   
@<TRIPOS>SUBSTRUCTURE
  1 ****   3 GROUP 4 **** **** 0

# MOE 2024.06 (io_trps.svl 2023.06)
