@<TRIPOS>MOLECULE
NONAME
42 44 1 0 0 
SMALL
USER_CHARGES


@<TRIPOS>ATOM
  1 O       -0.8970     0.5180    -0.9030 O.2   1 <1>  -0.5700 
  2 C       -1.5390     1.5380    -0.8800 C.2   1 <1>   0.5690 
  3 N       -2.8180     1.6800    -1.2790 N.am  1 <1>  -0.6600 
  4 C       -0.9980     2.8380    -0.3590 C.3   1 <1>  -0.0990 
  5 C       -3.3380     3.0390    -1.0460 C.3   1 <1>   0.1400 
  6 C       -3.6830     0.5890    -1.7770 C.3   1 <1>   0.2840 
  7 C       -2.2720     3.6810    -0.1390 C.3   1 <1>  -0.0190 
  8 C       -4.6920     0.2240    -0.7030 C.ar  1 <1>  -0.1440 
  9 C       -2.0810     5.1750    -0.3670 C.2   1 <1>   0.5690 
 10 C       -6.0300     0.5560    -0.7950 C.ar  1 <1>  -0.1500 
 11 C       -4.3090    -0.4600     0.4330 C.ar  1 <1>  -0.1500 
 12 O       -2.8650     5.7620    -1.0740 O.2   1 <1>  -0.5700 
 13 N       -1.0330     5.7830     0.2610 N.am  1 <1>  -0.4930 
 14 C       -6.8930     0.1980     0.2270 C.ar  1 <1>   0.1600 
 15 C       -5.2540    -0.7710     1.3960 C.ar  1 <1>   0.1600 
 16 C       -0.6360     7.1460     0.2240 C.2   1 <1>   0.0630 
 17 N       -6.5370    -0.4560     1.3200 N.ar  1 <1>  -0.6200 
 18 C        0.4610     7.7190     0.8750 C.2   1 <1>   0.1080 
 19 C       -1.2090     8.1770    -0.4280 C.2   1 <1>  -0.3020 
 20 N        0.5600     8.9910     0.6480 N.2   1 <1>  -0.7070 
 21 C        1.4480     6.9830     1.7530 C.3   1 <1>  -0.0590 
 22 N       -0.4750     9.2750    -0.1610 N.pl3 1 <1>   0.3140 
 23 C       -0.7260    10.6330    -0.6530 C.3   1 <1>   0.0160 
 24 H       -0.3640     3.2670    -1.1140 H     1 <1>   0.0800 
 25 H       -0.4480     2.6840     0.5500 H     1 <1>   0.0800 
 26 H       -4.2980     3.0140    -0.5580 H     1 <1>   0.0800 
 27 H       -3.4210     3.5480    -1.9910 H     1 <1>   0.0800 
 28 H       -3.0790    -0.2710    -2.0140 H     1 <1>   0.0800 
 29 H       -4.1810     0.9090    -2.6760 H     1 <1>   0.0800 
 30 H       -2.6010     3.5450     0.8750 H     1 <1>   0.0800 
 31 H       -6.4080     1.0900    -1.6480 H     1 <1>   0.1500 
 32 H       -3.2820    -0.7490     0.5720 H     1 <1>   0.1500 
 33 H       -0.4440     5.1940     0.8440 H     1 <1>   0.3700 
 34 H       -7.9330     0.4640     0.1400 H     1 <1>   0.1500 
 35 H       -4.9360    -1.3050     2.2750 H     1 <1>   0.1500 
 36 H       -2.0820     8.1830    -1.0540 H     1 <1>   0.1500 
 37 H        1.9290     6.2050     1.1910 H     1 <1>   0.0800 
 38 H        0.9400     6.5610     2.6000 H     1 <1>   0.0800 
 39 H        2.1980     7.6680     2.1070 H     1 <1>   0.0800 
 40 H       -1.0380    10.5880    -1.6790 H     1 <1>   0.0800 
 41 H        0.1780    11.2070    -0.5740 H     1 <1>   0.0800 
 42 H       -1.4940    11.0850    -0.0550 H     1 <1>   0.0800 
@<TRIPOS>BOND
  1   1   2  2   
  2   2   3  am  
  3   2   4  1   
  4   3   5  1   
  5   3   6  1   
  6   4   7  1   
  7   4  24  1   
  8   4  25  1   
  9   5   7  1   
 10   5  26  1   
 11   5  27  1   
 12   6   8  1   
 13   6  28  1   
 14   6  29  1   
 15   7   9  1   
 16   7  30  1   
 17   8  10  ar  
 18   8  11  ar  
 19   9  12  2   
 20   9  13  am  
 21  10  14  ar  
 22  10  31  1   
 23  11  15  ar  
 24  11  32  1   
 25  13  16  1   
 26  13  33  1   
 27  14  17  ar  
 28  14  34  1   
 29  15  17  ar  
 30  15  35  1   
 31  16  18  1   
 32  16  19  2   
 33  18  20  2   
 34  18  21  1   
 35  19  22  1   
 36  19  36  1   
 37  20  22  1   
 38  21  37  1   
 39  21  38  1   
 40  21  39  1   
 41  22  23  1   
 42  23  40  1   
 43  23  41  1   
 44  23  42  1   
@<TRIPOS>SUBSTRUCTURE
  1 ****   7 GROUP 4 **** **** 0

# MOE 2024.06 (io_trps.svl 2023.06)
