@<TRIPOS>MOLECULE
NONAME
34 36 1 0 0 
SMALL
USER_CHARGES


@<TRIPOS>ATOM
  1 S       -0.0170     0.0690    -0.0380 S.o2  1 <1>   1.0900 
  2 O        1.0780     0.3040     0.8750 O.2   1 <1>  -0.6500 
  3 O       -0.2680     0.9360    -1.1650 O.2   1 <1>  -0.6500 
  4 C        0.0630    -1.6160    -0.5980 C.3   1 <1>  -0.0550 
  5 C       -1.5330    -0.1170     0.8880 C.3   1 <1>  -0.0550 
  6 C       -1.3270    -2.1940    -0.3830 C.3   1 <1>   0.2890 
  7 C       -1.8740    -1.6100     0.9210 C.3   1 <1>  -0.1600 
  8 N       -1.2660    -3.6660    -0.2920 N.pl3 1 <1>  -0.8690 
  9 C       -2.3200    -4.4840    -0.6330 C.ar  1 <1>   0.4100 
 10 N       -3.3980    -3.9140    -1.1520 N.ar  1 <1>  -0.6200 
 11 C       -2.2120    -5.8500    -0.4140 C.ar  1 <1>  -0.1500 
 12 C       -4.3880    -4.7320    -1.4640 C.ar  1 <1>   0.1600 
 13 C       -3.2450    -6.7130    -0.7340 C.ar  1 <1>   0.0530 
 14 C       -4.3660    -6.0990    -1.2810 C.ar  1 <1>  -0.1500 
 15 C       -3.1540    -8.1380    -0.5130 C.2   1 <1>   0.4250 
 16 O       -4.1320    -8.9400    -0.8380 O.3   1 <1>  -0.0190 
 17 N       -2.1780    -8.8030     0.0000 N.2   1 <1>  -0.5650 
 18 N       -3.8270   -10.1500    -0.5500 N.2   1 <1>  -0.4100 
 19 C       -2.6570   -10.0480    -0.0510 C.2   1 <1>   0.3350 
 20 C       -1.8380   -11.2110     0.4560 C.3   1 <1>  -0.0590 
 21 H        0.7710    -2.1550    -0.0010 H     1 <1>   0.0800 
 22 H        0.3440    -1.6720    -1.6310 H     1 <1>   0.0800 
 23 H       -2.3200     0.4110     0.3820 H     1 <1>   0.0800 
 24 H       -1.4380     0.2810     1.8810 H     1 <1>   0.0800 
 25 H       -1.9560    -1.8890    -1.2050 H     1 <1>   0.0800 
 26 H       -2.9360    -1.7690     0.9990 H     1 <1>   0.0800 
 27 H       -1.3800    -2.0690     1.7600 H     1 <1>   0.0800 
 28 H       -0.6270    -4.0370     0.4120 H     1 <1>   0.4000 
 29 H       -1.3060    -6.2400     0.0070 H     1 <1>   0.1500 
 30 H       -5.2680    -4.2810    -1.8910 H     1 <1>   0.1500 
 31 H       -5.2220    -6.6860    -1.5650 H     1 <1>   0.1500 
 32 H       -1.6170   -11.0690     1.4970 H     1 <1>   0.0800 
 33 H       -0.9180   -11.2700    -0.0960 H     1 <1>   0.0800 
 34 H       -2.3830   -12.1290     0.3330 H     1 <1>   0.0800 
@<TRIPOS>BOND
  1   1   2  2   
  2   1   3  2   
  3   1   4  1   
  4   1   5  1   
  5   4   6  1   
  6   4  21  1   
  7   4  22  1   
  8   5   7  1   
  9   5  23  1   
 10   5  24  1   
 11   6   7  1   
 12   6   8  1   
 13   6  25  1   
 14   7  26  1   
 15   7  27  1   
 16   8   9  1   
 17   8  28  1   
 18   9  10  ar  
 19   9  11  ar  
 20  10  12  ar  
 21  11  13  ar  
 22  11  29  1   
 23  12  14  ar  
 24  12  30  1   
 25  13  14  ar  
 26  13  15  1   
 27  14  31  1   
 28  15  16  1   
 29  15  17  2   
 30  16  18  1   
 31  17  19  1   
 32  18  19  2   
 33  19  20  1   
 34  20  32  1   
 35  20  33  1   
 36  20  34  1   
@<TRIPOS>SUBSTRUCTURE
  1 ****   9 GROUP 4 **** **** 0

# MOE 2024.06 (io_trps.svl 2023.06)
