@<TRIPOS>MOLECULE
NONAME
49 51 1 0 0 
SMALL
USER_CHARGES


@<TRIPOS>ATOM
  1 O       -0.5980    -1.3970     1.8560 O.2   1 <1>  -0.5700 
  2 C        0.5090    -1.4230     1.3420 C.2   1 <1>   0.5440 
  3 N        1.3050    -2.5340     1.4880 N.am  1 <1>  -0.4200 
  4 C        1.0160    -0.3240     0.5700 C.ar  1 <1>   0.0860 
  5 C        2.5360    -2.5740     0.8770 C.2   1 <1>   0.4500 
  6 C        0.8460    -3.7310     2.2570 C.3   1 <1>   0.2010 
  7 C        2.2880    -0.4690     0.0040 C.ar  1 <1>   0.1790 
  8 C        0.3120     0.8650     0.3570 C.ar  1 <1>  -0.1500 
  9 N        3.0280    -1.6220     0.1790 N.2   1 <1>  -0.6290 
 10 C        0.7670    -4.9780     1.3810 C.2   1 <1>   0.5690 
 11 C        2.8210     0.5680    -0.7540 C.ar  1 <1>  -0.1500 
 12 C        0.8540     1.8850    -0.3980 C.ar  1 <1>  -0.1500 
 13 O        1.6310    -5.8070     1.5520 O.2   1 <1>  -0.5700 
 14 N       -0.2190    -5.1250     0.4370 N.am  1 <1>  -0.6600 
 15 C        2.1150     1.7360    -0.9570 C.ar  1 <1>  -0.1500 
 16 C       -0.2330    -6.2900    -0.5060 C.3   1 <1>   0.1400 
 17 C       -1.3400    -4.1540     0.2140 C.3   1 <1>   0.1400 
 18 C       -1.5050    -7.1710    -0.3390 C.3   1 <1>  -0.1060 
 19 C       -2.5960    -4.8550    -0.3240 C.3   1 <1>  -0.1600 
 20 C       -1.8430    -7.7450    -1.7310 C.2   1 <1>   0.9060 
 21 C       -2.6490    -6.2770     0.2280 C.3   1 <1>   0.2000 
 22 C       -1.2550    -8.3140     0.6900 C.3   1 <1>  -0.1600 
 23 O       -3.0070    -8.0840    -1.9950 O.co2 1 <1>  -0.9000 
 24 O       -0.9510    -7.8650    -2.5800 O.co2 1 <1>  -0.9000 
 25 O       -3.9020    -6.8020    -0.0060 O.3   1 <1>  -0.6800 
 26 C       -0.2570    -9.4000     0.2480 C.3   1 <1>  -0.1600 
 27 C       -0.0850   -10.4590     1.3390 C.3   1 <1>  -0.2400 
 28 H        3.1080    -3.4770     1.0100 H     1 <1>   0.0600 
 29 H        1.5470    -3.9170     3.0490 H     1 <1>   0.0800 
 30 H       -0.1100    -3.5590     2.7140 H     1 <1>   0.0800 
 31 H       -0.6660     0.9790     0.7930 H     1 <1>   0.1500 
 32 H        3.7990     0.4400    -1.1820 H     1 <1>   0.1500 
 33 H        0.3030     2.7970    -0.5560 H     1 <1>   0.1500 
 34 H        2.5390     2.5300    -1.5470 H     1 <1>   0.1500 
 35 H       -0.2080    -5.8800    -1.5020 H     1 <1>   0.0800 
 36 H        0.6590    -6.8790    -0.4030 H     1 <1>   0.0800 
 37 H       -1.5980    -3.6830     1.1450 H     1 <1>   0.0800 
 38 H       -1.0250    -3.3900    -0.4760 H     1 <1>   0.0800 
 39 H       -2.5670    -4.8850    -1.3990 H     1 <1>   0.0800 
 40 H       -3.4670    -4.3030    -0.0220 H     1 <1>   0.0800 
 41 H       -2.5530    -6.2140     1.2990 H     1 <1>   0.0800 
 42 H       -0.9120    -7.8810     1.6130 H     1 <1>   0.0800 
 43 H       -2.1980    -8.7960     0.8870 H     1 <1>   0.0800 
 44 H       -3.8140    -7.3620    -0.8440 H     1 <1>   0.4000 
 45 H       -0.6130    -9.8770    -0.6510 H     1 <1>   0.0800 
 46 H        0.7020    -8.9670     0.0290 H     1 <1>   0.0800 
 47 H       -1.0280   -10.9290     1.5550 H     1 <1>   0.0800 
 48 H        0.2980   -10.0100     2.2390 H     1 <1>   0.0800 
 49 H        0.6070   -11.2140     1.0090 H     1 <1>   0.0800 
@<TRIPOS>BOND
  1   1   2  2   
  2   2   3  am  
  3   2   4  1   
  4   3   5  1   
  5   3   6  1   
  6   4   7  ar  
  7   4   8  ar  
  8   5   9  2   
  9   5  28  1   
 10   6  10  1   
 11   6  29  1   
 12   6  30  1   
 13   7   9  1   
 14   7  11  ar  
 15   8  12  ar  
 16   8  31  1   
 17  10  13  2   
 18  10  14  am  
 19  11  15  ar  
 20  11  32  1   
 21  12  15  ar  
 22  12  33  1   
 23  14  16  1   
 24  14  17  1   
 25  15  34  1   
 26  16  18  1   
 27  16  35  1   
 28  16  36  1   
 29  17  19  1   
 30  17  37  1   
 31  17  38  1   
 32  18  20  1   
 33  18  21  1   
 34  18  22  1   
 35  19  21  1   
 36  19  39  1   
 37  19  40  1   
 38  20  23  ar  
 39  20  24  ar  
 40  21  25  1   
 41  21  41  1   
 42  22  26  1   
 43  22  42  1   
 44  22  43  1   
 45  25  44  1   
 46  26  27  1   
 47  26  45  1   
 48  26  46  1   
 49  27  47  1   
 50  27  48  1   
 51  27  49  1   
@<TRIPOS>SUBSTRUCTURE
  1 ****  14 GROUP 4 **** **** 0

# MOE 2024.06 (io_trps.svl 2023.06)
