@<TRIPOS>MOLECULE
NONAME
50 54 1 0 0 
SMALL
USER_CHARGES


@<TRIPOS>ATOM
  1 O        1.0380     2.4930    -3.3170 O.2   1 <1>  -0.5700 
  2 C        0.4510     3.0590    -2.4230 C.2   1 <1>   0.5690 
  3 N       -0.7850     2.6300    -1.9980 N.am  1 <1>  -0.6600 
  4 C        1.1450     4.2630    -1.8210 C.3   1 <1>   0.1570 
  5 C       -1.5830     3.3140    -0.9180 C.3   1 <1>   0.1400 
  6 C       -1.3530     1.3570    -2.5420 C.3   1 <1>   0.1400 
  7 N        1.3920     4.0660    -0.3870 N.pl3 1 <1>   0.3140 
  8 C       -3.0970     3.0920    -1.0950 C.3   1 <1>   0.1440 
  9 C       -2.2740     0.6800    -1.5200 C.3   1 <1>  -0.1600 
 10 N        0.9230     4.9480     0.5270 N.2   1 <1>  -0.7070 
 11 C        2.0450     3.0210     0.2080 C.ar  1 <1>  -0.1520 
 12 C       -3.8800     3.8300    -0.0240 C.ar  1 <1>   0.1670 
 13 C       -3.4350     1.5810    -1.0530 C.3   1 <1>  -0.1600 
 14 C       -3.6230     3.7590    -2.3980 C.3   1 <1>  -0.1600 
 15 C        1.2670     4.4610     1.6730 C.2   1 <1>   0.1390 
 16 C        1.9730     3.2530     1.5650 C.ar  1 <1>   0.0000 
 17 C        2.6910     1.8830    -0.2940 C.ar  1 <1>  -0.1500 
 18 N       -3.6270     3.7900     1.2650 N.ar  1 <1>  -0.6200 
 19 C       -4.9020     4.5590    -0.5540 C.ar  1 <1>  -0.1440 
 20 C       -4.9680     4.4240    -2.0540 C.3   1 <1>  -0.0170 
 21 C        2.5500     2.3440     2.4630 C.ar  1 <1>  -0.1500 
 22 C        3.2540     0.9960     0.5920 C.ar  1 <1>  -0.1500 
 23 C       -4.4460     4.5190     2.0080 C.ar  1 <1>   0.4770 
 24 C       -5.6920     5.2770     0.3090 C.ar  1 <1>   0.1600 
 25 C        3.1830     1.2260     1.9740 C.ar  1 <1>  -0.1500 
 26 N       -5.4690     5.2640     1.6070 N.ar  1 <1>  -0.6200 
 27 C       -4.1730     4.4990     3.4920 C.3   1 <1>  -0.0970 
 28 H        0.5370     5.1360    -1.9560 H     1 <1>   0.0800 
 29 H        2.0870     4.4180    -2.3080 H     1 <1>   0.0800 
 30 H       -1.3850     4.3710    -0.9130 H     1 <1>   0.0800 
 31 H       -1.2810     2.9220     0.0390 H     1 <1>   0.0800 
 32 H       -0.5530     0.6820    -2.7950 H     1 <1>   0.0800 
 33 H       -1.8990     1.5740    -3.4440 H     1 <1>   0.0800 
 34 H       -1.6740     0.4060    -0.6690 H     1 <1>   0.0800 
 35 H       -2.6680    -0.2290    -1.9370 H     1 <1>   0.0800 
 36 H       -4.3100     1.3890    -1.6480 H     1 <1>   0.0800 
 37 H       -3.6790     1.3000    -0.0430 H     1 <1>   0.0800 
 38 H       -3.7230     3.0620    -3.2100 H     1 <1>   0.0800 
 39 H       -2.9390     4.5310    -2.7040 H     1 <1>   0.0800 
 40 H        1.0380     4.9280     2.6150 H     1 <1>   0.1500 
 41 H        2.7420     1.7090    -1.3550 H     1 <1>   0.1500 
 42 H       -5.7900     3.7840    -2.3230 H     1 <1>   0.0800 
 43 H       -5.0730     5.3800    -2.5370 H     1 <1>   0.0800 
 44 H        2.4860     2.5350     3.5180 H     1 <1>   0.1500 
 45 H        3.7550     0.1140     0.2340 H     1 <1>   0.1500 
 46 H       -6.5120     5.8670    -0.0620 H     1 <1>   0.1500 
 47 H        3.6330     0.5150     2.6450 H     1 <1>   0.1500 
 48 H       -4.0990     3.4820     3.8290 H     1 <1>   0.0800 
 49 H       -4.9640     4.9900     4.0280 H     1 <1>   0.0800 
 50 H       -3.2470     5.0040     3.6880 H     1 <1>   0.0800 
@<TRIPOS>BOND
  1   1   2  2   
  2   2   3  am  
  3   2   4  1   
  4   3   5  1   
  5   3   6  1   
  6   4   7  1   
  7   4  28  1   
  8   4  29  1   
  9   5   8  1   
 10   5  30  1   
 11   5  31  1   
 12   6   9  1   
 13   6  32  1   
 14   6  33  1   
 15   7  10  1   
 16   7  11  1   
 17   8  12  1   
 18   8  13  1   
 19   8  14  1   
 20   9  13  1   
 21   9  34  1   
 22   9  35  1   
 23  10  15  2   
 24  11  16  ar  
 25  11  17  ar  
 26  12  18  ar  
 27  12  19  ar  
 28  13  36  1   
 29  13  37  1   
 30  14  20  1   
 31  14  38  1   
 32  14  39  1   
 33  15  16  1   
 34  15  40  1   
 35  16  21  ar  
 36  17  22  ar  
 37  17  41  1   
 38  18  23  ar  
 39  19  20  1   
 40  19  24  ar  
 41  20  42  1   
 42  20  43  1   
 43  21  25  ar  
 44  21  44  1   
 45  22  25  ar  
 46  22  45  1   
 47  23  26  ar  
 48  23  27  1   
 49  24  26  ar  
 50  24  46  1   
 51  25  47  1   
 52  27  48  1   
 53  27  49  1   
 54  27  50  1   
@<TRIPOS>SUBSTRUCTURE
  1 ****   5 GROUP 4 **** **** 0

# MOE 2024.06 (io_trps.svl 2023.06)
