@<TRIPOS>MOLECULE
NONAME
55 58 1 0 0 
SMALL
USER_CHARGES


@<TRIPOS>ATOM
  1 O        2.0520     1.4510    -0.2570 O.2   1 <1>  -0.5700 
  2 C        2.4650     0.3640     0.0520 C.2   1 <1>   0.5690 
  3 N        1.8660    -0.3860     1.0000 N.am  1 <1>  -0.7300 
  4 C        3.6840    -0.2230    -0.6230 C.3   1 <1>  -0.0990 
  5 C        2.3580    -1.7170     1.4080 C.3   1 <1>   0.1400 
  6 C        3.4380    -1.7040    -0.9750 C.3   1 <1>  -0.0800 
  7 C        2.7640    -2.5250     0.1540 C.3   1 <1>  -0.0800 
  8 C        4.7250    -2.4450    -1.3550 C.3   1 <1>  -0.1600 
  9 C        3.7160    -3.6910     0.4580 C.3   1 <1>  -0.1600 
 10 C        4.5260    -3.8600    -0.8270 C.3   1 <1>   0.4230 
 11 N        5.8040    -4.6420    -0.7170 N.4   1 <1>  -0.9590 
 12 C        6.6300    -4.5080     0.5340 C.3   1 <1>   0.4860 
 13 C        5.5130    -6.0900    -0.9610 C.3   1 <1>   0.2630 
 14 C        7.1860    -3.1130     0.7020 C.ar  1 <1>  -0.1440 
 15 C        6.8130    -2.3280     1.7700 C.ar  1 <1>   0.1600 
 16 C        8.0760    -2.5590    -0.1920 C.ar  1 <1>   0.1600 
 17 N        7.2350    -1.1010     1.9140 N.ar  1 <1>  -0.6200 
 18 N        8.5050    -1.3290    -0.0750 N.ar  1 <1>  -0.6200 
 19 C        8.0600    -0.6570     0.9800 C.ar  1 <1>   0.7200 
 20 N        8.4570     0.6150     1.1560 N.pl3 1 <1>  -0.8690 
 21 C        8.6130     1.5660     0.0450 C.3   1 <1>   0.3530 
 22 C        7.4320     2.5170     0.0990 C.ar  1 <1>  -0.1440 
 23 C        7.4680     3.6360     0.9190 C.ar  1 <1>  -0.1500 
 24 C        6.2950     2.2620    -0.6540 C.ar  1 <1>  -0.1500 
 25 C        6.3780     4.4860     0.9890 C.ar  1 <1>  -0.1500 
 26 C        5.2030     3.1100    -0.5810 C.ar  1 <1>  -0.1500 
 27 C        5.2440     4.2220     0.2400 C.ar  1 <1>  -0.1500 
 28 H        1.0730     0.0290     1.4970 H     1 <1>   0.3700 
 29 H        3.9040     0.3390    -1.5110 H     1 <1>   0.0800 
 30 H        4.5090    -0.1200     0.0590 H     1 <1>   0.0800 
 31 H        3.2040    -1.5740     2.0590 H     1 <1>   0.0800 
 32 H        1.5890    -2.2370     1.9540 H     1 <1>   0.0800 
 33 H        2.7690    -1.7210    -1.8220 H     1 <1>   0.0800 
 34 H        1.8560    -2.9380    -0.2560 H     1 <1>   0.0800 
 35 H        5.5540    -1.9570    -0.8860 H     1 <1>   0.0800 
 36 H        4.8680    -2.4360    -2.4220 H     1 <1>   0.0800 
 37 H        3.1660    -4.5830     0.7030 H     1 <1>   0.0800 
 38 H        4.3400    -3.4140     1.2830 H     1 <1>   0.0800 
 39 H        3.8830    -4.3540    -1.5390 H     1 <1>   0.0800 
 40 H        6.3900    -4.3110    -1.4950 H     1 <1>   0.4500 
 41 H        6.0340    -4.7670     1.3940 H     1 <1>   0.0800 
 42 H        7.4570    -5.1990     0.4930 H     1 <1>   0.0800 
 43 H        4.8840    -6.4840    -0.1790 H     1 <1>   0.0800 
 44 H        6.4280    -6.6610    -0.9880 H     1 <1>   0.0800 
 45 H        5.0060    -6.2170    -1.9040 H     1 <1>   0.0800 
 46 H        6.1490    -2.7030     2.5320 H     1 <1>   0.1500 
 47 H        8.4430    -3.1240    -1.0320 H     1 <1>   0.1500 
 48 H        7.9770     1.0390     1.9480 H     1 <1>   0.4000 
 49 H        9.5350     2.1080     0.1670 H     1 <1>   0.0800 
 50 H        8.6440     1.0580    -0.9030 H     1 <1>   0.0800 
 51 H        8.3420     3.8470     1.5110 H     1 <1>   0.1500 
 52 H        6.2570     1.4000    -1.2940 H     1 <1>   0.1500 
 53 H        6.4080     5.3510     1.6270 H     1 <1>   0.1500 
 54 H        4.3150     2.9080    -1.1570 H     1 <1>   0.1500 
 55 H        4.3920     4.8760     0.2970 H     1 <1>   0.1500 
@<TRIPOS>BOND
  1   1   2  2   
  2   2   3  am  
  3   2   4  1   
  4   3   5  1   
  5   3  28  1   
  6   4   6  1   
  7   4  29  1   
  8   4  30  1   
  9   5   7  1   
 10   5  31  1   
 11   5  32  1   
 12   6   7  1   
 13   6   8  1   
 14   6  33  1   
 15   7   9  1   
 16   7  34  1   
 17   8  10  1   
 18   8  35  1   
 19   8  36  1   
 20   9  10  1   
 21   9  37  1   
 22   9  38  1   
 23  10  11  1   
 24  10  39  1   
 25  11  12  1   
 26  11  13  1   
 27  11  40  1   
 28  12  14  1   
 29  12  41  1   
 30  12  42  1   
 31  13  43  1   
 32  13  44  1   
 33  13  45  1   
 34  14  15  ar  
 35  14  16  ar  
 36  15  17  ar  
 37  15  46  1   
 38  16  18  ar  
 39  16  47  1   
 40  17  19  ar  
 41  18  19  ar  
 42  19  20  1   
 43  20  21  1   
 44  20  48  1   
 45  21  22  1   
 46  21  49  1   
 47  21  50  1   
 48  22  23  ar  
 49  22  24  ar  
 50  23  25  ar  
 51  23  51  1   
 52  24  26  ar  
 53  24  52  1   
 54  25  27  ar  
 55  25  53  1   
 56  26  27  ar  
 57  26  54  1   
 58  27  55  1   
@<TRIPOS>SUBSTRUCTURE
  1 ****   4 GROUP 4 **** **** 0

# MOE 2024.06 (io_trps.svl 2023.06)
