@<TRIPOS>MOLECULE
NONAME
53 55 1 0 0 
SMALL
USER_CHARGES


@<TRIPOS>ATOM
  1 O       -2.2060     1.6800    -1.9670 O.2   1 <1>  -0.5700 
  2 C       -1.4080     1.9970    -1.1160 C.2   1 <1>   0.5690 
  3 N       -1.7510     2.0670     0.2080 N.am  1 <1>  -0.6600 
  4 C        0.0020     2.3320    -1.5690 C.3   1 <1>  -0.0990 
  5 C       -0.8210     2.5050     1.2800 C.3   1 <1>   0.1400 
  6 C       -3.1210     1.6830     0.6510 C.3   1 <1>   0.1400 
  7 C        0.3610     3.8140    -1.3740 C.3   1 <1>  -0.1600 
  8 C       -0.4060     3.9680     1.0890 C.3   1 <1>  -0.1600 
  9 C       -4.0560     2.8890     0.5430 C.3   1 <1>  -0.0990 
 10 C        0.7300     4.1690     0.0730 C.3   1 <1>  -0.1600 
 11 C       -5.4700     2.5590     0.9880 C.2   1 <1>   0.5690 
 12 O       -5.6240     1.6280     1.7450 O.2   1 <1>  -0.5700 
 13 N       -6.5340     3.3030     0.5430 N.am  1 <1>  -0.6600 
 14 C       -7.9380     2.8560     0.7850 C.3   1 <1>   0.1400 
 15 C       -6.4560     4.5400    -0.2820 C.3   1 <1>   0.1400 
 16 C       -8.6520     2.5470    -0.5570 C.3   1 <1>   0.0000 
 17 C       -7.1230     4.2890    -1.6390 C.3   1 <1>  -0.1600 
 18 C      -10.1120     2.0940    -0.3470 C.3   1 <1>   0.2000 
 19 C       -8.5700     3.7870    -1.4760 C.3   1 <1>  -0.1600 
 20 C       -8.0370     1.2990    -1.2170 C.3   1 <1>  -0.1600 
 21 O      -10.7440     2.7590     0.6900 O.3   1 <1>  -0.6800 
 22 C      -10.0740     0.5910    -0.0620 C.3   1 <1>  -0.1600 
 23 C       -8.6910     0.1060    -0.5170 C.3   1 <1>  -0.1600 
 24 H        0.7040     1.6990    -1.0590 H     1 <1>   0.0800 
 25 H        0.0700     2.1020    -2.6170 H     1 <1>   0.0800 
 26 H       -1.3090     2.4080     2.2350 H     1 <1>   0.0800 
 27 H        0.0460     1.8660     1.2930 H     1 <1>   0.0800 
 28 H       -3.4940     0.8880     0.0260 H     1 <1>   0.0800 
 29 H       -3.0950     1.3150     1.6630 H     1 <1>   0.0800 
 30 H        1.2060     4.0440    -2.0000 H     1 <1>   0.0800 
 31 H       -0.4610     4.4280    -1.7050 H     1 <1>   0.0800 
 32 H       -1.2640     4.5590     0.8170 H     1 <1>   0.0800 
 33 H       -0.0570     4.3340     2.0390 H     1 <1>   0.0800 
 34 H       -4.0700     3.1930    -0.4860 H     1 <1>   0.0800 
 35 H       -3.6880     3.6920     1.1520 H     1 <1>   0.0800 
 36 H        1.0250     5.2040     0.0990 H     1 <1>   0.0800 
 37 H        1.5850     3.5880     0.3750 H     1 <1>   0.0800 
 38 H       -7.9560     1.9880     1.4200 H     1 <1>   0.0800 
 39 H       -8.4550     3.6470     1.2990 H     1 <1>   0.0800 
 40 H       -6.9750     5.3300     0.2320 H     1 <1>   0.0800 
 41 H       -5.4400     4.8590    -0.4240 H     1 <1>   0.0800 
 42 H       -7.1240     5.2020    -2.2060 H     1 <1>   0.0800 
 43 H       -6.5420     3.5670    -2.1860 H     1 <1>   0.0800 
 44 H      -10.6790     2.2730    -1.2460 H     1 <1>   0.0800 
 45 H       -8.9840     3.5620    -2.4430 H     1 <1>   0.0800 
 46 H       -9.1650     4.5750    -1.0450 H     1 <1>   0.0800 
 47 H       -8.3010     1.2740    -2.2600 H     1 <1>   0.0800 
 48 H       -6.9650     1.2630    -1.1390 H     1 <1>   0.0800 
 49 H      -10.3740     2.4660     1.5430 H     1 <1>   0.4000 
 50 H      -10.2060     0.3780     0.9840 H     1 <1>   0.0800 
 51 H      -10.8460     0.0980    -0.6250 H     1 <1>   0.0800 
 52 H       -8.1020    -0.1690     0.3420 H     1 <1>   0.0800 
 53 H       -8.7600    -0.7440    -1.1750 H     1 <1>   0.0800 
@<TRIPOS>BOND
  1   1   2  2   
  2   2   3  am  
  3   2   4  1   
  4   3   5  1   
  5   3   6  1   
  6   4   7  1   
  7   4  24  1   
  8   4  25  1   
  9   5   8  1   
 10   5  26  1   
 11   5  27  1   
 12   6   9  1   
 13   6  28  1   
 14   6  29  1   
 15   7  10  1   
 16   7  30  1   
 17   7  31  1   
 18   8  10  1   
 19   8  32  1   
 20   8  33  1   
 21   9  11  1   
 22   9  34  1   
 23   9  35  1   
 24  10  36  1   
 25  10  37  1   
 26  11  12  2   
 27  11  13  am  
 28  13  14  1   
 29  13  15  1   
 30  14  16  1   
 31  14  38  1   
 32  14  39  1   
 33  15  17  1   
 34  15  40  1   
 35  15  41  1   
 36  16  18  1   
 37  16  19  1   
 38  16  20  1   
 39  17  19  1   
 40  17  42  1   
 41  17  43  1   
 42  18  21  1   
 43  18  22  1   
 44  18  44  1   
 45  19  45  1   
 46  19  46  1   
 47  20  23  1   
 48  20  47  1   
 49  20  48  1   
 50  21  49  1   
 51  22  23  1   
 52  22  50  1   
 53  22  51  1   
 54  23  52  1   
 55  23  53  1   
@<TRIPOS>SUBSTRUCTURE
  1 ****  11 GROUP 4 **** **** 0

# MOE 2024.06 (io_trps.svl 2023.06)
