@<TRIPOS>MOLECULE
NONAME
47 49 1 0 0 
SMALL
USER_CHARGES


@<TRIPOS>ATOM
  1 O       -5.8100    -0.4420     3.9140 O.2   1 <1>  -0.5700 
  2 C       -5.6670    -1.0710     2.8800 C.2   1 <1>   0.6900 
  3 N       -6.2370    -2.2540     2.5840 N.am  1 <1>  -0.5390 
  4 N       -4.8970    -0.6980     1.8370 N.am  1 <1>  -0.5390 
  5 C       -5.8090    -2.6660     1.3130 C.2   1 <1>   0.1230 
  6 C       -4.9740    -1.6870     0.8790 C.2   1 <1>  -0.0410 
  7 C       -6.2190    -3.9210     0.7130 C.2   1 <1>   0.6160 
  8 O       -6.5380    -4.8430     1.4450 O.2   1 <1>  -0.5700 
  9 N       -6.2570    -4.1330    -0.6550 N.am  1 <1>  -0.6600 
 10 C       -6.2570    -5.5300    -1.1840 C.3   1 <1>   0.1400 
 11 C       -6.4890    -3.0520    -1.6490 C.3   1 <1>   0.1400 
 12 C       -7.6840    -6.0770    -1.3410 C.3   1 <1>   0.1400 
 13 C       -7.8450    -3.1910    -2.3470 C.3   1 <1>  -0.1600 
 14 N       -8.4210    -5.6210    -2.5700 N.am  1 <1>  -0.6600 
 15 C       -7.9350    -4.4000    -3.2820 C.3   1 <1>   0.1400 
 16 C       -9.5620    -6.2610    -3.0080 C.2   1 <1>   0.5690 
 17 O      -10.1410    -5.9110    -4.0110 O.2   1 <1>  -0.5700 
 18 C      -10.1510    -7.4570    -2.2660 C.3   1 <1>   0.0440 
 19 C      -10.5930    -7.1370    -0.8410 C.ar  1 <1>  -0.1430 
 20 C      -11.3960    -6.0360    -0.5910 C.ar  1 <1>  -0.1500 
 21 C      -10.1950    -7.9380     0.2190 C.ar  1 <1>  -0.1500 
 22 C      -11.7850    -5.7310     0.7020 C.ar  1 <1>  -0.1500 
 23 C      -10.5840    -7.6330     1.5110 C.ar  1 <1>  -0.1500 
 24 C      -11.3790    -6.5260     1.7610 C.ar  1 <1>  -0.1430 
 25 C      -11.7990    -6.1930     3.1800 C.3   1 <1>  -0.0970 
 26 H       -6.8020    -2.8030     3.2320 H     1 <1>   0.3700 
 27 H       -4.3510     0.1640     1.8590 H     1 <1>   0.3700 
 28 H       -4.4210    -1.6370    -0.0440 H     1 <1>   0.1500 
 29 H       -5.7360    -6.1600    -0.4830 H     1 <1>   0.0800 
 30 H       -5.7240    -5.5860    -2.1160 H     1 <1>   0.0800 
 31 H       -5.6960    -3.0650    -2.3770 H     1 <1>   0.0800 
 32 H       -6.4750    -2.0930    -1.1640 H     1 <1>   0.0800 
 33 H       -8.2520    -5.8110    -0.4650 H     1 <1>   0.0800 
 34 H       -7.6130    -7.1490    -1.3670 H     1 <1>   0.0800 
 35 H       -7.9800    -2.3110    -2.9490 H     1 <1>   0.0800 
 36 H       -8.6460    -3.2080    -1.6280 H     1 <1>   0.0800 
 37 H       -6.9830    -4.6010    -3.7410 H     1 <1>   0.0800 
 38 H       -8.6160    -4.1490    -4.0780 H     1 <1>   0.0800 
 39 H       -9.4300    -8.2510    -2.2700 H     1 <1>   0.0800 
 40 H      -11.0090    -7.8070    -2.8110 H     1 <1>   0.0800 
 41 H      -11.7200    -5.4060    -1.4020 H     1 <1>   0.1500 
 42 H       -9.5780    -8.8030     0.0490 H     1 <1>   0.1500 
 43 H      -12.4050    -4.8710     0.8780 H     1 <1>   0.1500 
 44 H      -10.2650    -8.2610     2.3240 H     1 <1>   0.1500 
 45 H      -12.0260    -5.1460     3.2710 H     1 <1>   0.0800 
 46 H      -11.0070    -6.4290     3.8680 H     1 <1>   0.0800 
 47 H      -12.6720    -6.7630     3.4440 H     1 <1>   0.0800 
@<TRIPOS>BOND
  1   1   2  2   
  2   2   3  am  
  3   2   4  am  
  4   3   5  1   
  5   3  26  1   
  6   4   6  1   
  7   4  27  1   
  8   5   6  2   
  9   5   7  1   
 10   6  28  1   
 11   7   8  2   
 12   7   9  am  
 13   9  10  1   
 14   9  11  1   
 15  10  12  1   
 16  10  29  1   
 17  10  30  1   
 18  11  13  1   
 19  11  31  1   
 20  11  32  1   
 21  12  14  1   
 22  12  33  1   
 23  12  34  1   
 24  13  15  1   
 25  13  35  1   
 26  13  36  1   
 27  14  15  1   
 28  14  16  am  
 29  15  37  1   
 30  15  38  1   
 31  16  17  2   
 32  16  18  1   
 33  18  19  1   
 34  18  39  1   
 35  18  40  1   
 36  19  20  ar  
 37  19  21  ar  
 38  20  22  ar  
 39  20  41  1   
 40  21  23  ar  
 41  21  42  1   
 42  22  24  ar  
 43  22  43  1   
 44  23  24  ar  
 45  23  44  1   
 46  24  25  1   
 47  25  45  1   
 48  25  46  1   
 49  25  47  1   
@<TRIPOS>SUBSTRUCTURE
  1 ****  12 GROUP 4 **** **** 0

# MOE 2024.06 (io_trps.svl 2023.06)
