@<TRIPOS>MOLECULE
NONAME
40 42 1 0 0 
SMALL
USER_CHARGES


@<TRIPOS>ATOM
  1 O       -0.3450     0.1690     0.5360 O.2   1 <1>  -0.5700 
  2 C       -1.3780     0.8220     0.5200 C.2   1 <1>   0.7160 
  3 N       -2.5580     0.1120     0.3850 N.am  1 <1>  -0.6600 
  4 C       -1.3250     2.2840     0.6250 C.2   1 <1>   0.1410 
  5 C       -3.8990     0.7000     0.1500 C.3   1 <1>   0.1400 
  6 C       -2.6080    -1.3670     0.2960 C.3   1 <1>   0.1400 
  7 N       -2.3550     3.0500     1.1100 N.2   1 <1>  -0.5650 
  8 C       -0.2940     3.1280     0.2950 C.2   1 <1>  -0.3320 
  9 C       -4.7530    -0.4660    -0.3450 C.3   1 <1>   0.2000 
 10 C       -4.0950    -1.7190     0.2300 C.3   1 <1>  -0.0800 
 11 C       -1.9300     4.2650     1.0690 C.2   1 <1>   0.0360 
 12 N       -0.6810     4.3780     0.5830 N.pl3 1 <1>   0.0330 
 13 C        1.0800     2.8370    -0.2920 C.3   1 <1>  -0.0600 
 14 O       -6.0640    -0.3670     0.0930 O.3   1 <1>  -0.6800 
 15 C       -4.3960    -2.9830    -0.5890 C.3   1 <1>   0.0210 
 16 C       -3.6570    -4.1850    -0.0330 C.2   1 <1>   0.1080 
 17 N       -3.9430    -4.7160     1.1150 N.2   1 <1>  -0.7070 
 18 C       -2.6070    -4.8390    -0.6680 C.2   1 <1>  -0.1500 
 19 N       -3.0740    -5.7360     1.2430 N.pl3 1 <1>   0.3000 
 20 C       -2.2530    -5.8300     0.1760 C.2   1 <1>  -0.3320 
 21 C       -1.1650    -6.8770     0.0270 C.3   1 <1>  -0.0600 
 22 H       -4.2780     1.0890     1.0790 H     1 <1>   0.0800 
 23 H       -3.8480     1.4820    -0.5870 H     1 <1>   0.0800 
 24 H       -2.0940    -1.6810    -0.5970 H     1 <1>   0.0800 
 25 H       -2.1360    -1.8190     1.1530 H     1 <1>   0.0800 
 26 H       -4.7540    -0.4800    -1.4210 H     1 <1>   0.0800 
 27 H       -4.4280    -1.8700     1.2420 H     1 <1>   0.0800 
 28 H       -2.4990     5.1210     1.3860 H     1 <1>   0.1500 
 29 H       -0.1460     5.2430     0.4650 H     1 <1>   0.2700 
 30 H        1.1640     1.8090    -0.5950 H     1 <1>   0.0800 
 31 H        1.8430     3.0350     0.4400 H     1 <1>   0.0800 
 32 H        1.2550     3.4530    -1.1560 H     1 <1>   0.0800 
 33 H       -6.0960    -0.4240     1.0680 H     1 <1>   0.4000 
 34 H       -4.1130    -2.8360    -1.6160 H     1 <1>   0.0800 
 35 H       -5.4520    -3.1850    -0.5600 H     1 <1>   0.0800 
 36 H       -2.1870    -4.5860    -1.6250 H     1 <1>   0.1500 
 37 H       -3.0680    -6.3480     2.0680 H     1 <1>   0.2700 
 38 H       -0.6490    -6.7440    -0.9080 H     1 <1>   0.0800 
 39 H       -1.5920    -7.8640     0.0440 H     1 <1>   0.0800 
 40 H       -0.4510    -6.7890     0.8270 H     1 <1>   0.0800 
@<TRIPOS>BOND
  1   1   2  2   
  2   2   3  am  
  3   2   4  1   
  4   3   5  1   
  5   3   6  1   
  6   4   7  1   
  7   4   8  2   
  8   5   9  1   
  9   5  22  1   
 10   5  23  1   
 11   6  10  1   
 12   6  24  1   
 13   6  25  1   
 14   7  11  2   
 15   8  12  1   
 16   8  13  1   
 17   9  10  1   
 18   9  14  1   
 19   9  26  1   
 20  10  15  1   
 21  10  27  1   
 22  11  12  1   
 23  11  28  1   
 24  12  29  1   
 25  13  30  1   
 26  13  31  1   
 27  13  32  1   
 28  14  33  1   
 29  15  16  1   
 30  15  34  1   
 31  15  35  1   
 32  16  17  2   
 33  16  18  1   
 34  17  19  1   
 35  18  20  2   
 36  18  36  1   
 37  19  20  1   
 38  19  37  1   
 39  20  21  1   
 40  21  38  1   
 41  21  39  1   
 42  21  40  1   
@<TRIPOS>SUBSTRUCTURE
  1 ****   6 GROUP 4 **** **** 0

# MOE 2024.06 (io_trps.svl 2023.06)
