@<TRIPOS>MOLECULE
NONAME
44 45 1 0 0 
SMALL
USER_CHARGES


@<TRIPOS>ATOM
  1 S        0.2660    -0.0090     0.6060 S.o2  1 <1>   1.3330 
  2 O       -0.6520     0.1240     1.7150 O.2   1 <1>  -0.6500 
  3 O        1.6910    -0.0150     0.8490 O.2   1 <1>  -0.6500 
  4 N       -0.1220    -1.4270    -0.2430 N.am  1 <1>  -0.8490 
  5 C       -0.1190     1.2810    -0.5750 C.3   1 <1>  -0.0550 
  6 C       -0.5420    -2.5120     0.6490 C.3   1 <1>   0.1160 
  7 C        0.9560    -1.8940    -1.1220 C.3   1 <1>   0.1160 
  8 C        0.0380     2.6990     0.0010 C.3   1 <1>  -0.0800 
  9 C       -0.3880     3.7760    -0.9940 C.3   1 <1>   0.2000 
 10 C        1.4750     3.0790     0.3660 C.3   1 <1>   0.1400 
 11 O       -1.7600     3.9520    -0.9420 O.3   1 <1>  -0.6800 
 12 C        0.3640     5.0410    -0.5810 C.3   1 <1>   0.1400 
 13 N        1.5350     4.5500     0.1880 N.am  1 <1>  -0.6600 
 14 C        2.4940     5.3370     0.7820 C.2   1 <1>   0.5440 
 15 O        3.3230     4.8100     1.4960 O.2   1 <1>  -0.5700 
 16 C        2.5130     6.7730     0.6210 C.ar  1 <1>   0.0860 
 17 C        2.7770     7.3880    -0.5990 C.ar  1 <1>   0.1900 
 18 C        2.2730     7.6160     1.7090 C.ar  1 <1>  -0.1500 
 19 F        3.0280     6.6500    -1.6500 F     1 <1>  -0.1900 
 20 C        2.7810     8.7670    -0.7270 C.ar  1 <1>   0.1900 
 21 C        2.2790     8.9970     1.5830 C.ar  1 <1>  -0.1500 
 22 F        3.0240     9.3040    -1.8970 F     1 <1>  -0.1900 
 23 C        2.5310     9.5960     0.3570 C.ar  1 <1>  -0.1440 
 24 C        2.5370    11.1120     0.2160 C.3   1 <1>  -0.0970 
 25 H        0.5070     1.1750    -1.4390 H     1 <1>   0.0800 
 26 H       -1.1370     1.1570    -0.8930 H     1 <1>   0.0800 
 27 H       -0.7950    -3.3890     0.0790 H     1 <1>   0.0800 
 28 H       -1.4130    -2.2120     1.2090 H     1 <1>   0.0800 
 29 H        0.2480    -2.7530     1.3420 H     1 <1>   0.0800 
 30 H        0.6220    -2.7400    -1.6990 H     1 <1>   0.0800 
 31 H        1.8170    -2.1830    -0.5410 H     1 <1>   0.0800 
 32 H        1.2460    -1.1120    -1.8030 H     1 <1>   0.0800 
 33 H       -0.5510     2.7880     0.8980 H     1 <1>   0.0800 
 34 H       -0.1180     3.5100    -2.0020 H     1 <1>   0.0800 
 35 H        2.1840     2.6190    -0.3020 H     1 <1>   0.0800 
 36 H        1.7140     2.8010     1.3800 H     1 <1>   0.0800 
 37 H       -2.0510     4.1190    -0.0240 H     1 <1>   0.4000 
 38 H       -0.2430     5.6630     0.0520 H     1 <1>   0.0800 
 39 H        0.6820     5.5870    -1.4510 H     1 <1>   0.0800 
 40 H        2.0850     7.1690     2.6710 H     1 <1>   0.1500 
 41 H        2.0870     9.6060     2.4510 H     1 <1>   0.1500 
 42 H        2.3200    11.5900     1.1550 H     1 <1>   0.0800 
 43 H        1.7970    11.4170    -0.5020 H     1 <1>   0.0800 
 44 H        3.5030    11.4450    -0.1220 H     1 <1>   0.0800 
@<TRIPOS>BOND
  1   1   2  2   
  2   1   3  2   
  3   1   4  am  
  4   1   5  1   
  5   4   6  1   
  6   4   7  1   
  7   5   8  1   
  8   5  25  1   
  9   5  26  1   
 10   6  27  1   
 11   6  28  1   
 12   6  29  1   
 13   7  30  1   
 14   7  31  1   
 15   7  32  1   
 16   8   9  1   
 17   8  10  1   
 18   8  33  1   
 19   9  11  1   
 20   9  12  1   
 21   9  34  1   
 22  10  13  1   
 23  10  35  1   
 24  10  36  1   
 25  11  37  1   
 26  12  13  1   
 27  12  38  1   
 28  12  39  1   
 29  13  14  am  
 30  14  15  2   
 31  14  16  1   
 32  16  17  ar  
 33  16  18  ar  
 34  17  19  1   
 35  17  20  ar  
 36  18  21  ar  
 37  18  40  1   
 38  20  22  1   
 39  20  23  ar  
 40  21  23  ar  
 41  21  41  1   
 42  23  24  1   
 43  24  42  1   
 44  24  43  1   
 45  24  44  1   
@<TRIPOS>SUBSTRUCTURE
  1 ****  13 GROUP 4 **** **** 0

# MOE 2024.06 (io_trps.svl 2023.06)
