@<TRIPOS>MOLECULE
NONAME
51 53 1 0 0 
SMALL
USER_CHARGES


@<TRIPOS>ATOM
  1 O        0.1950    -0.2300    -1.1550 O.2   1 <1>  -0.5700 
  2 C       -0.6320     0.4940    -0.6600 C.2   1 <1>   0.5690 
  3 N       -0.3290     1.7010    -0.1310 N.am  1 <1>  -0.7300 
  4 C       -2.0640     0.0270    -0.6350 C.3   1 <1>  -0.0990 
  5 C        1.0190     2.2930    -0.0880 C.3   1 <1>   0.2200 
  6 C       -2.0760    -1.4950    -0.5140 C.3   1 <1>   0.3430 
  7 C        1.3470     2.6560     1.3540 C.3   1 <1>  -0.1600 
  8 C        0.9800     3.6450    -0.7880 C.3   1 <1>  -0.1600 
  9 N       -3.4680    -2.0270    -0.5210 N.4   1 <1>  -0.9590 
 10 C        0.6480     3.9950     1.6170 C.3   1 <1>  -0.1600 
 11 C        0.4170     4.6330     0.2400 C.3   1 <1>  -0.1600 
 12 C       -4.2010    -1.8990    -1.8120 C.3   1 <1>   0.3430 
 13 C       -3.5500    -3.4730    -0.1590 C.3   1 <1>   0.3430 
 14 C       -5.3740    -2.8630    -1.6470 C.3   1 <1>   0.2000 
 15 C       -4.7130    -4.0690    -0.9700 C.3   1 <1>  -0.0800 
 16 O       -6.2790    -2.2690    -0.7710 O.3   1 <1>  -0.6800 
 17 C       -5.6440    -4.9700    -0.1340 C.3   1 <1>   0.0200 
 18 C       -4.8860    -6.1640     0.4150 C.2   1 <1>  -0.0400 
 19 O       -3.9360    -5.9840     1.2930 O.3   1 <1>  -0.0190 
 20 C       -4.9800    -7.4810     0.1760 C.2   1 <1>  -0.1500 
 21 N       -3.3770    -7.1030     1.6410 N.2   1 <1>  -0.4100 
 22 C       -3.9910    -8.0260     0.9900 C.2   1 <1>   0.1080 
 23 C       -3.6720    -9.5010     1.1010 C.3   1 <1>  -0.0590 
 24 H       -1.0460     2.3150     0.2560 H     1 <1>   0.3700 
 25 H       -2.5700     0.4680     0.2030 H     1 <1>   0.0800 
 26 H       -2.5280     0.3420    -1.5500 H     1 <1>   0.0800 
 27 H        1.7490     1.6270    -0.5210 H     1 <1>   0.0800 
 28 H       -1.5830    -1.7740     0.4040 H     1 <1>   0.0800 
 29 H       -1.5140    -1.9240    -1.3300 H     1 <1>   0.0800 
 30 H        1.0540     1.8870     2.0480 H     1 <1>   0.0800 
 31 H        2.4110     2.7980     1.4340 H     1 <1>   0.0800 
 32 H        1.9900     3.9310    -1.0280 H     1 <1>   0.0800 
 33 H        0.4090     3.6180    -1.7000 H     1 <1>   0.0800 
 34 H       -4.0510    -1.5300     0.1720 H     1 <1>   0.4500 
 35 H       -0.2970     3.8280     2.1040 H     1 <1>   0.0800 
 36 H        1.2540     4.6260     2.2450 H     1 <1>   0.0800 
 37 H        0.9100     5.5870     0.1620 H     1 <1>   0.0800 
 38 H       -0.6370     4.7760     0.0770 H     1 <1>   0.0800 
 39 H       -4.5450    -0.8930    -1.9880 H     1 <1>   0.0800 
 40 H       -3.5750    -2.2200    -2.6280 H     1 <1>   0.0800 
 41 H       -2.6340    -3.9860    -0.4060 H     1 <1>   0.0800 
 42 H       -3.7300    -3.5770     0.9000 H     1 <1>   0.0800 
 43 H       -5.8690    -3.0900    -2.5770 H     1 <1>   0.0800 
 44 H       -4.2740    -4.6790    -1.7400 H     1 <1>   0.0800 
 45 H       -7.1600    -2.6970    -0.8190 H     1 <1>   0.4000 
 46 H       -6.4520    -5.3260    -0.7490 H     1 <1>   0.0800 
 47 H       -6.0670    -4.4260     0.6930 H     1 <1>   0.0800 
 48 H       -5.6400    -8.0260    -0.4740 H     1 <1>   0.1500 
 49 H       -3.3660    -9.8830     0.1440 H     1 <1>   0.0800 
 50 H       -4.5400   -10.0380     1.4360 H     1 <1>   0.0800 
 51 H       -2.8760    -9.6540     1.8070 H     1 <1>   0.0800 
@<TRIPOS>BOND
  1   1   2  2   
  2   2   3  am  
  3   2   4  1   
  4   3   5  1   
  5   3  24  1   
  6   4   6  1   
  7   4  25  1   
  8   4  26  1   
  9   5   7  1   
 10   5   8  1   
 11   5  27  1   
 12   6   9  1   
 13   6  28  1   
 14   6  29  1   
 15   7  10  1   
 16   7  30  1   
 17   7  31  1   
 18   8  11  1   
 19   8  32  1   
 20   8  33  1   
 21   9  12  1   
 22   9  13  1   
 23   9  34  1   
 24  10  11  1   
 25  10  35  1   
 26  10  36  1   
 27  11  37  1   
 28  11  38  1   
 29  12  14  1   
 30  12  39  1   
 31  12  40  1   
 32  13  15  1   
 33  13  41  1   
 34  13  42  1   
 35  14  15  1   
 36  14  16  1   
 37  14  43  1   
 38  15  17  1   
 39  15  44  1   
 40  16  45  1   
 41  17  18  1   
 42  17  46  1   
 43  17  47  1   
 44  18  19  1   
 45  18  20  2   
 46  19  21  1   
 47  20  22  1   
 48  20  48  1   
 49  21  22  2   
 50  22  23  1   
 51  23  49  1   
 52  23  50  1   
 53  23  51  1   
@<TRIPOS>SUBSTRUCTURE
  1 ****   6 GROUP 4 **** **** 0

# MOE 2024.06 (io_trps.svl 2023.06)
