@<TRIPOS>MOLECULE
NONAME
34 34 1 0 0 
SMALL
USER_CHARGES


@<TRIPOS>ATOM
  1 CL       2.8530     0.8010    -2.3080 Cl    1 <1>  -0.1240 
  2 C        2.2530     1.9650    -1.1560 C.2   1 <1>   0.1640 
  3 S        2.1260     3.6220    -1.7080 S.3   1 <1>  -0.0800 
  4 C        1.8570     1.8250     0.1200 C.2   1 <1>  -0.1500 
  5 C        1.5110     4.1200    -0.1330 C.2   1 <1>  -0.1400 
  6 C        1.4320     3.0630     0.7010 C.2   1 <1>  -0.1500 
  7 C        1.1730     5.5910     0.0560 C.3   1 <1>   0.0200 
  8 C       -0.3290     5.8390     0.2480 C.3   1 <1>   0.1140 
  9 N       -0.6040     7.2890    -0.0080 N.am  1 <1>  -0.7300 
 10 C       -0.7820     5.4790     1.6760 C.2   1 <1>   0.9060 
 11 C       -1.1760     7.8200    -1.1100 C.2   1 <1>   0.7800 
 12 O       -1.1370     4.3300     1.9600 O.co2 1 <1>  -0.9000 
 13 O       -0.8050     6.3970     2.5150 O.co2 1 <1>  -0.9000 
 14 O       -1.1340     7.2650    -2.1860 O.2   1 <1>  -0.5700 
 15 O       -1.8110     8.9920    -1.0410 O.3   1 <1>  -0.4300 
 16 C       -2.2300     9.7150     0.0970 C.3   1 <1>   0.2800 
 17 C       -3.0130    10.9030    -0.4630 C.3   1 <1>  -0.2400 
 18 C       -1.0200    10.2400     0.8820 C.3   1 <1>  -0.2400 
 19 C       -3.1670     8.8610     0.9600 C.3   1 <1>  -0.2400 
 20 H        1.8380     0.9090     0.6790 H     1 <1>   0.1500 
 21 H        1.0740     3.1050     1.7180 H     1 <1>   0.1500 
 22 H        1.7030     5.9670     0.9120 H     1 <1>   0.0800 
 23 H        1.5080     6.1320    -0.8120 H     1 <1>   0.0800 
 24 H       -0.8890     5.2410    -0.4480 H     1 <1>   0.0800 
 25 H       -0.7910     7.7420     0.8950 H     1 <1>   0.3700 
 26 H       -3.3830    11.5200     0.3350 H     1 <1>   0.0800 
 27 H       -3.8500    10.5560    -1.0420 H     1 <1>   0.0800 
 28 H       -2.3790    11.5030    -1.0920 H     1 <1>   0.0800 
 29 H       -1.3460    10.9520     1.6180 H     1 <1>   0.0800 
 30 H       -0.3290    10.7280     0.2190 H     1 <1>   0.0800 
 31 H       -0.5120     9.4550     1.4090 H     1 <1>   0.0800 
 32 H       -3.6100     9.4660     1.7300 H     1 <1>   0.0800 
 33 H       -2.6430     8.0610     1.4500 H     1 <1>   0.0800 
 34 H       -3.9540     8.4450     0.3580 H     1 <1>   0.0800 
@<TRIPOS>BOND
  1   1   2  1   
  2   2   3  1   
  3   2   4  2   
  4   3   5  1   
  5   4   6  1   
  6   4  20  1   
  7   5   6  2   
  8   5   7  1   
  9   6  21  1   
 10   7   8  1   
 11   7  22  1   
 12   7  23  1   
 13   8   9  1   
 14   8  10  1   
 15   8  24  1   
 16   9  11  am  
 17   9  25  1   
 18  10  12  ar  
 19  10  13  ar  
 20  11  14  2   
 21  11  15  1   
 22  15  16  1   
 23  16  17  1   
 24  16  18  1   
 25  16  19  1   
 26  17  26  1   
 27  17  27  1   
 28  17  28  1   
 29  18  29  1   
 30  18  30  1   
 31  18  31  1   
 32  19  32  1   
 33  19  33  1   
 34  19  34  1   
@<TRIPOS>SUBSTRUCTURE
  1 ****   8 GROUP 4 **** **** 0

# MOE 2024.06 (io_trps.svl 2023.06)
