@<TRIPOS>MOLECULE
NONAME
51 53 1 0 0 
SMALL
USER_CHARGES


@<TRIPOS>ATOM
  1 CL      -3.3880    -1.2220     3.4570 Cl    1 <1>  -0.1770 
  2 C       -3.3730    -1.5240     1.7330 C.ar  1 <1>   0.1770 
  3 C       -2.5250    -0.7990     0.9020 C.ar  1 <1>   0.0820 
  4 C       -4.2170    -2.4960     1.2380 C.ar  1 <1>  -0.1500 
  5 O       -1.7150     0.1350     1.4580 O.3   1 <1>  -0.3630 
  6 C       -2.5520    -1.0720    -0.4640 C.ar  1 <1>  -0.1500 
  7 C       -4.2350    -2.7910    -0.1240 C.ar  1 <1>   0.0860 
  8 C       -0.8160     0.9000     0.6890 C.3   1 <1>   0.1200 
  9 C       -3.3970    -2.0500    -0.9580 C.ar  1 <1>  -0.1500 
 10 C       -5.0820    -3.8350    -0.6640 C.2   1 <1>   0.5440 
 11 C       -0.0560     1.8320     1.6320 C.3   1 <1>  -0.1600 
 12 O       -5.9510    -3.5270    -1.4580 O.2   1 <1>  -0.5700 
 13 N       -4.9490    -5.1640    -0.3100 N.am  1 <1>  -0.6600 
 14 C        0.9500     2.7010     0.8700 C.3   1 <1>  -0.2400 
 15 C       -3.7790    -5.6800     0.4980 C.3   1 <1>   0.3640 
 16 C       -6.0520    -6.1200    -0.6380 C.3   1 <1>   0.1400 
 17 C       -2.4720    -5.2170    -0.1560 C.ar  1 <1>  -0.1430 
 18 C       -3.7140    -7.2290     0.6920 C.3   1 <1>   0.2000 
 19 C       -5.5760    -7.5700    -0.6840 C.3   1 <1>   0.1200 
 20 C       -2.2390    -5.4270    -1.5090 C.ar  1 <1>  -0.1500 
 21 C       -1.5020    -4.5690     0.5980 C.ar  1 <1>  -0.1500 
 22 O       -4.9450    -7.8750     0.5150 O.3   1 <1>  -0.5600 
 23 C       -3.2250    -7.6330     2.0930 C.3   1 <1>   0.1200 
 24 C       -1.0600    -5.0000    -2.0960 C.ar  1 <1>  -0.1500 
 25 C       -0.3240    -4.1400     0.0130 C.ar  1 <1>  -0.1500 
 26 O       -2.0180    -7.0220     2.4170 O.3   1 <1>  -0.6800 
 27 C       -0.1020    -4.3560    -1.3340 C.ar  1 <1>  -0.1500 
 28 H       -4.8630    -3.0300     1.9090 H     1 <1>   0.1500 
 29 H       -1.9250    -0.5400    -1.1530 H     1 <1>   0.1500 
 30 H       -0.1380     0.2280     0.1910 H     1 <1>   0.0800 
 31 H       -1.3810     1.4650    -0.0320 H     1 <1>   0.0800 
 32 H       -3.4110    -2.2610    -2.0140 H     1 <1>   0.1500 
 33 H       -0.7600     2.4680     2.1420 H     1 <1>   0.0800 
 34 H        0.4670     1.2430     2.3650 H     1 <1>   0.0800 
 35 H        0.4450     3.3130     0.1420 H     1 <1>   0.0800 
 36 H        1.6750     2.0860     0.3660 H     1 <1>   0.0800 
 37 H        1.4690     3.3470     1.5560 H     1 <1>   0.0800 
 38 H       -3.8480    -5.2380     1.4760 H     1 <1>   0.0800 
 39 H       -6.8250    -6.0270     0.1040 H     1 <1>   0.0800 
 40 H       -6.4820    -5.8710    -1.5930 H     1 <1>   0.0800 
 41 H       -3.0410    -7.6500    -0.0340 H     1 <1>   0.0800 
 42 H       -4.8960    -7.7330    -1.5020 H     1 <1>   0.0800 
 43 H       -6.4180    -8.2310    -0.7920 H     1 <1>   0.0800 
 44 H       -2.9820    -5.9180    -2.1140 H     1 <1>   0.1500 
 45 H       -1.6590    -4.3930     1.6500 H     1 <1>   0.1500 
 46 H       -3.0850    -8.6980     2.1460 H     1 <1>   0.0800 
 47 H       -3.9470    -7.3320     2.8330 H     1 <1>   0.0800 
 48 H       -0.8910    -5.1670    -3.1450 H     1 <1>   0.1500 
 49 H        0.4170    -3.6370     0.6090 H     1 <1>   0.1500 
 50 H       -1.3090    -7.2870     1.7960 H     1 <1>   0.4000 
 51 H        0.8150    -4.0230    -1.7900 H     1 <1>   0.1500 
@<TRIPOS>BOND
  1   1   2  1   
  2   2   3  ar  
  3   2   4  ar  
  4   3   5  1   
  5   3   6  ar  
  6   4   7  ar  
  7   4  28  1   
  8   5   8  1   
  9   6   9  ar  
 10   6  29  1   
 11   7   9  ar  
 12   7  10  1   
 13   8  11  1   
 14   8  30  1   
 15   8  31  1   
 16   9  32  1   
 17  10  12  2   
 18  10  13  am  
 19  11  14  1   
 20  11  33  1   
 21  11  34  1   
 22  13  15  1   
 23  13  16  1   
 24  14  35  1   
 25  14  36  1   
 26  14  37  1   
 27  15  17  1   
 28  15  18  1   
 29  15  38  1   
 30  16  19  1   
 31  16  39  1   
 32  16  40  1   
 33  17  20  ar  
 34  17  21  ar  
 35  18  22  1   
 36  18  23  1   
 37  18  41  1   
 38  19  22  1   
 39  19  42  1   
 40  19  43  1   
 41  20  24  ar  
 42  20  44  1   
 43  21  25  ar  
 44  21  45  1   
 45  23  26  1   
 46  23  46  1   
 47  23  47  1   
 48  24  27  ar  
 49  24  48  1   
 50  25  27  ar  
 51  25  49  1   
 52  26  50  1   
 53  27  51  1   
@<TRIPOS>SUBSTRUCTURE
  1 ****   7 GROUP 4 **** **** 0

# MOE 2024.06 (io_trps.svl 2023.06)
