@<TRIPOS>MOLECULE
NONAME
43 45 1 0 0 
SMALL
USER_CHARGES


@<TRIPOS>ATOM
  1 S       -0.5120     0.2960     0.2760 S.3   1 <1>  -0.0800 
  2 C       -0.9500    -1.3790    -0.0330 C.2   1 <1>  -0.1400 
  3 C        0.3520     0.3970    -1.2480 C.2   1 <1>  -0.1100 
  4 C       -0.4550    -1.7830    -1.2180 C.2   1 <1>  -0.1500 
  5 C       -1.7780    -2.0920     1.0170 C.3   1 <1>   0.3200 
  6 C        0.2870    -0.7720    -1.9100 C.2   1 <1>  -0.1500 
  7 N       -3.0910    -1.4410     1.0920 N.am  1 <1>  -0.7300 
  8 C       -4.2430    -2.0770     1.3960 C.2   1 <1>   0.6900 
  9 O       -4.2030    -3.2450     1.7360 O.2   1 <1>  -0.5700 
 10 N       -5.4340    -1.4050     1.3000 N.am  1 <1>  -0.6600 
 11 C       -5.5770     0.0620     1.0960 C.3   1 <1>   0.1400 
 12 C       -6.7370    -2.1070     1.4640 C.3   1 <1>   0.1400 
 13 C       -6.4030     0.3080    -0.1680 C.3   1 <1>  -0.1600 
 14 C       -7.5940    -1.8750     0.2170 C.3   1 <1>  -0.1600 
 15 C       -7.7710    -0.3840    -0.0860 C.3   1 <1>   0.4180 
 16 O       -8.5010     0.1510     0.9930 O.3   1 <1>  -0.5600 
 17 C       -8.5470    -0.2140    -1.3900 C.2   1 <1>  -0.2880 
 18 C       -9.1690     1.3640     0.7840 C.3   1 <1>   0.1200 
 19 C       -9.6760     0.4900    -1.5050 C.2   1 <1>  -0.2760 
 20 C      -10.2480     1.2080    -0.2970 C.3   1 <1>  -0.0220 
 21 C      -10.4760     0.6310    -2.7880 C.3   1 <1>  -0.1020 
 22 H        0.8240     1.3330    -1.4890 H     1 <1>   0.1500 
 23 H       -0.5800    -2.7630    -1.6470 H     1 <1>   0.1500 
 24 H       -1.2920    -2.0340     1.9760 H     1 <1>   0.0800 
 25 H       -1.8970    -3.1290     0.7520 H     1 <1>   0.0800 
 26 H        0.7340    -0.9740    -2.8670 H     1 <1>   0.1500 
 27 H       -3.1410    -0.5350     0.6380 H     1 <1>   0.3700 
 28 H       -4.6190     0.5410     1.0080 H     1 <1>   0.0800 
 29 H       -6.0810     0.4840     1.9490 H     1 <1>   0.0800 
 30 H       -7.2400    -1.7190     2.3340 H     1 <1>   0.0800 
 31 H       -6.5890    -3.1640     1.6080 H     1 <1>   0.0800 
 32 H       -5.8620    -0.0800    -1.0110 H     1 <1>   0.0800 
 33 H       -6.5280     1.3610    -0.3290 H     1 <1>   0.0800 
 34 H       -8.5600    -2.3260     0.3480 H     1 <1>   0.0800 
 35 H       -7.1180    -2.3590    -0.6170 H     1 <1>   0.0800 
 36 H       -8.0920    -0.7320    -2.2140 H     1 <1>   0.1500 
 37 H       -8.4510     2.1090     0.4950 H     1 <1>   0.0800 
 38 H       -9.6160     1.6580     1.7170 H     1 <1>   0.0800 
 39 H      -10.5960     2.1870    -0.5750 H     1 <1>   0.0800 
 40 H      -11.0800     0.6530     0.0970 H     1 <1>   0.0800 
 41 H      -11.4720     0.2480    -2.6470 H     1 <1>   0.0800 
 42 H      -10.0100     0.0800    -3.5850 H     1 <1>   0.0800 
 43 H      -10.5370     1.6640    -3.0780 H     1 <1>   0.0800 
@<TRIPOS>BOND
  1   1   2  1   
  2   1   3  1   
  3   2   4  2   
  4   2   5  1   
  5   3   6  2   
  6   3  22  1   
  7   4   6  1   
  8   4  23  1   
  9   5   7  1   
 10   5  24  1   
 11   5  25  1   
 12   6  26  1   
 13   7   8  am  
 14   7  27  1   
 15   8   9  2   
 16   8  10  am  
 17  10  11  1   
 18  10  12  1   
 19  11  13  1   
 20  11  28  1   
 21  11  29  1   
 22  12  14  1   
 23  12  30  1   
 24  12  31  1   
 25  13  15  1   
 26  13  32  1   
 27  13  33  1   
 28  14  15  1   
 29  14  34  1   
 30  14  35  1   
 31  15  16  1   
 32  15  17  1   
 33  16  18  1   
 34  17  19  2   
 35  17  36  1   
 36  18  20  1   
 37  18  37  1   
 38  18  38  1   
 39  19  20  1   
 40  19  21  1   
 41  20  39  1   
 42  20  40  1   
 43  21  41  1   
 44  21  42  1   
 45  21  43  1   
@<TRIPOS>SUBSTRUCTURE
  1 ****  11 GROUP 4 **** **** 0

# MOE 2024.06 (io_trps.svl 2023.06)
