@<TRIPOS>MOLECULE
NONAME
37 38 1 0 0 
SMALL
USER_CHARGES


@<TRIPOS>ATOM
  1 S       -1.0690     1.0500     1.1940 S.o2  1 <1>   1.4470 
  2 O       -1.7590     2.3150     1.3460 O.2   1 <1>  -0.6500 
  3 O       -1.0020     0.1600     2.3330 O.2   1 <1>  -0.6500 
  4 N       -1.8050     0.2510    -0.1120 N.am  1 <1>  -0.8490 
  5 C        0.6120     1.3940     0.5920 C.ar  1 <1>  -0.0090 
  6 C       -1.1810    -1.0160    -0.5440 C.3   1 <1>   0.1960 
  7 C       -3.2670     0.1700    -0.0360 C.3   1 <1>   0.1960 
  8 C        1.6620     0.5190     0.8520 C.ar  1 <1>  -0.1500 
  9 C        0.8830     2.5260    -0.1720 C.ar  1 <1>  -0.1500 
 10 C       -1.6080    -2.2240     0.2970 C.3   1 <1>  -0.1860 
 11 C       -3.7370    -0.9940     0.8410 C.3   1 <1>  -0.1600 
 12 C        2.9380     0.7610     0.3740 C.ar  1 <1>  -0.1500 
 13 C        2.1550     2.7830    -0.6530 C.ar  1 <1>  -0.1500 
 14 C       -1.0080    -3.4890    -0.2800 C.2   1 <1>   0.9060 
 15 C       -3.1330    -2.2990     0.3340 C.3   1 <1>   0.2000 
 16 C        3.1850     1.9010    -0.3730 C.ar  1 <1>   0.0820 
 17 O       -0.0480    -3.3990    -1.0520 O.co2 1 <1>  -0.9000 
 18 O       -1.4960    -4.5810     0.0400 O.co2 1 <1>  -0.9000 
 19 O       -3.5130    -3.3170     1.1770 O.3   1 <1>  -0.6800 
 20 O        4.4230     2.1410    -0.8500 O.3   1 <1>  -0.3630 
 21 C        5.3180     2.8480    -0.0180 C.3   1 <1>   1.3000 
 22 F        4.8500     4.0530     0.2870 F     1 <1>  -0.3400 
 23 F        5.5520     2.1930     1.1130 F     1 <1>  -0.3400 
 24 F        6.4790     3.0110    -0.6360 F     1 <1>  -0.3400 
 25 H       -1.4640    -1.2020    -1.5670 H     1 <1>   0.0800 
 26 H       -0.1080    -0.9320    -0.5360 H     1 <1>   0.0800 
 27 H       -3.6730     1.0960     0.3360 H     1 <1>   0.0800 
 28 H       -3.6510     0.0280    -1.0320 H     1 <1>   0.0800 
 29 H        1.4740    -0.3720     1.4320 H     1 <1>   0.1500 
 30 H        0.0810     3.2110    -0.3920 H     1 <1>   0.1500 
 31 H       -1.2250    -2.1240     1.2920 H     1 <1>   0.0800 
 32 H       -4.8080    -1.0600     0.8020 H     1 <1>   0.0800 
 33 H       -3.4430    -0.8240     1.8610 H     1 <1>   0.0800 
 34 H        3.7310     0.0640     0.5780 H     1 <1>   0.1500 
 35 H        2.3440     3.6620    -1.2440 H     1 <1>   0.1500 
 36 H       -3.5100    -2.5340    -0.6480 H     1 <1>   0.0800 
 37 H       -2.9110    -4.0840     0.9460 H     1 <1>   0.4000 
@<TRIPOS>BOND
  1   1   2  2   
  2   1   3  2   
  3   1   4  am  
  4   1   5  1   
  5   4   6  1   
  6   4   7  1   
  7   5   8  ar  
  8   5   9  ar  
  9   6  10  1   
 10   6  25  1   
 11   6  26  1   
 12   7  11  1   
 13   7  27  1   
 14   7  28  1   
 15   8  12  ar  
 16   8  29  1   
 17   9  13  ar  
 18   9  30  1   
 19  10  14  1   
 20  10  15  1   
 21  10  31  1   
 22  11  15  1   
 23  11  32  1   
 24  11  33  1   
 25  12  16  ar  
 26  12  34  1   
 27  13  16  ar  
 28  13  35  1   
 29  14  17  ar  
 30  14  18  ar  
 31  15  19  1   
 32  15  36  1   
 33  16  20  1   
 34  19  37  1   
 35  20  21  1   
 36  21  22  1   
 37  21  23  1   
 38  21  24  1   
@<TRIPOS>SUBSTRUCTURE
  1 ****   5 GROUP 4 **** **** 0

# MOE 2024.06 (io_trps.svl 2023.06)
