@<TRIPOS>MOLECULE
NONAME
55 57 1 0 0 
SMALL
USER_CHARGES


@<TRIPOS>ATOM
  1 O       -0.2480     2.0510     1.7640 O.2   1 <1>  -0.5700 
  2 C       -0.0920     2.8050     0.8310 C.2   1 <1>   0.5690 
  3 N       -1.1560     3.3830     0.1840 N.am  1 <1>  -0.6600 
  4 C        1.3280     3.1010     0.3720 C.3   1 <1>  -0.0990 
  5 C       -2.5650     3.0890     0.5920 C.3   1 <1>   0.1400 
  6 C       -1.0710     4.2790    -1.0010 C.3   1 <1>   0.1400 
  7 C        2.4150     2.3910     1.1910 C.3   1 <1>  -0.0160 
  8 C       -3.3380     2.3990    -0.5600 C.3   1 <1>   0.0000 
  9 C       -1.7970     3.6300    -2.1850 C.3   1 <1>  -0.1600 
 10 C        3.7900     2.7490     0.6520 C.ar  1 <1>  -0.1440 
 11 C       -4.8000     2.1230    -0.1650 C.3   1 <1>   0.2000 
 12 C       -3.2510     3.2700    -1.8330 C.3   1 <1>  -0.1600 
 13 C       -2.8040     0.9740    -0.7870 C.3   1 <1>  -0.1600 
 14 C        4.3760     1.9760    -0.3370 C.ar  1 <1>  -0.1500 
 15 C        4.4640     3.8580     1.1380 C.ar  1 <1>  -0.1500 
 16 O       -5.3470     3.1910     0.5490 O.3   1 <1>  -0.5600 
 17 C       -4.7670     0.8420     0.6760 C.3   1 <1>  -0.1600 
 18 C       -3.4770     0.1090     0.2830 C.3   1 <1>  -0.1600 
 19 C        5.6250     2.3030    -0.8390 C.ar  1 <1>  -0.1440 
 20 C        5.7130     4.1950     0.6440 C.ar  1 <1>  -0.1440 
 21 C       -6.7320     3.1570     0.6870 C.3   1 <1>   0.0400 
 22 C        6.2860     3.4160    -0.3460 C.ar  1 <1>  -0.1500 
 23 C        6.2620     1.4540    -1.9240 C.3   1 <1>  -0.0970 
 24 C        6.4450     5.4120     1.1790 C.3   1 <1>  -0.0970 
 25 H        1.4220     2.8000    -0.6540 H     1 <1>   0.0800 
 26 H        1.4910     4.1610     0.4330 H     1 <1>   0.0800 
 27 H       -2.5850     2.4720     1.4730 H     1 <1>   0.0800 
 28 H       -3.0440     4.0180     0.8450 H     1 <1>   0.0800 
 29 H       -1.5410     5.2170    -0.7590 H     1 <1>   0.0800 
 30 H       -0.0510     4.4830    -1.2730 H     1 <1>   0.0800 
 31 H        2.2700     1.3260     1.1430 H     1 <1>   0.0800 
 32 H        2.3410     2.6820     2.2250 H     1 <1>   0.0800 
 33 H       -1.7890     4.3090    -3.0190 H     1 <1>   0.0800 
 34 H       -1.2610     2.7460    -2.4800 H     1 <1>   0.0800 
 35 H       -5.3810     1.9610    -1.0570 H     1 <1>   0.0800 
 36 H       -3.7100     2.7650    -2.6640 H     1 <1>   0.0800 
 37 H       -3.8010     4.1810    -1.6630 H     1 <1>   0.0800 
 38 H       -3.1090     0.6230    -1.7580 H     1 <1>   0.0800 
 39 H       -1.7320     0.9140    -0.7240 H     1 <1>   0.0800 
 40 H        3.8570     1.1150    -0.7180 H     1 <1>   0.1500 
 41 H        4.0130     4.4610     1.9060 H     1 <1>   0.1500 
 42 H       -4.7350     1.0860     1.7240 H     1 <1>   0.0800 
 43 H       -5.6300     0.2350     0.4710 H     1 <1>   0.0800 
 44 H       -2.8310     0.0320     1.1420 H     1 <1>   0.0800 
 45 H       -3.6780    -0.8810    -0.0900 H     1 <1>   0.0800 
 46 H       -7.0340     4.0350     1.2310 H     1 <1>   0.0800 
 47 H       -7.0180     2.2770     1.2360 H     1 <1>   0.0800 
 48 H       -7.1870     3.1610    -0.2880 H     1 <1>   0.0800 
 49 H        7.2540     3.6760    -0.7360 H     1 <1>   0.1500 
 50 H        7.3310     1.4410    -1.8080 H     1 <1>   0.0800 
 51 H        6.0200     1.8580    -2.8900 H     1 <1>   0.0800 
 52 H        5.9030     0.4420    -1.8690 H     1 <1>   0.0800 
 53 H        7.5080     5.2550     1.1460 H     1 <1>   0.0800 
 54 H        6.1630     5.6020     2.1990 H     1 <1>   0.0800 
 55 H        6.2010     6.2730     0.5840 H     1 <1>   0.0800 
@<TRIPOS>BOND
  1   1   2  2   
  2   2   3  am  
  3   2   4  1   
  4   3   5  1   
  5   3   6  1   
  6   4   7  1   
  7   4  25  1   
  8   4  26  1   
  9   5   8  1   
 10   5  27  1   
 11   5  28  1   
 12   6   9  1   
 13   6  29  1   
 14   6  30  1   
 15   7  10  1   
 16   7  31  1   
 17   7  32  1   
 18   8  11  1   
 19   8  12  1   
 20   8  13  1   
 21   9  12  1   
 22   9  33  1   
 23   9  34  1   
 24  10  14  ar  
 25  10  15  ar  
 26  11  16  1   
 27  11  17  1   
 28  11  35  1   
 29  12  36  1   
 30  12  37  1   
 31  13  18  1   
 32  13  38  1   
 33  13  39  1   
 34  14  19  ar  
 35  14  40  1   
 36  15  20  ar  
 37  15  41  1   
 38  16  21  1   
 39  17  18  1   
 40  17  42  1   
 41  17  43  1   
 42  18  44  1   
 43  18  45  1   
 44  19  22  ar  
 45  19  23  1   
 46  20  22  ar  
 47  20  24  1   
 48  21  46  1   
 49  21  47  1   
 50  21  48  1   
 51  22  49  1   
 52  23  50  1   
 53  23  51  1   
 54  23  52  1   
 55  24  53  1   
 56  24  54  1   
 57  24  55  1   
@<TRIPOS>SUBSTRUCTURE
  1 ****   2 GROUP 4 **** **** 0

# MOE 2024.06 (io_trps.svl 2023.06)
