@<TRIPOS>MOLECULE
NONAME
46 48 1 0 0 
SMALL
USER_CHARGES


@<TRIPOS>ATOM
  1 O       -1.5690    -2.5130    -0.6540 O.co2 1 <1>  -0.9000 
  2 C       -1.2690    -2.7900     0.5190 C.2   1 <1>   1.0330 
  3 O       -2.2240    -2.9690     1.3020 O.co2 1 <1>  -0.9000 
  4 C        0.0740    -3.0980     0.9100 C.2   1 <1>  -0.2330 
  5 C        0.3870    -4.0840     1.8450 C.2   1 <1>   0.3720 
  6 C        1.2970    -2.6390     0.5290 C.2   1 <1>   0.0870 
  7 N        1.6540    -4.2240     1.9940 N.2   1 <1>  -0.4100 
  8 N       -0.5600    -4.8200     2.5420 N.pl3 1 <1>  -0.8520 
  9 O        2.1880    -3.3400     1.1930 O.3   1 <1>  -0.0190 
 10 C        1.7610    -1.6100    -0.3700 C.ar  1 <1>   0.0530 
 11 C       -0.6210    -6.2850     2.2520 C.3   1 <1>   0.2090 
 12 C        1.1830    -1.3770    -1.6170 C.ar  1 <1>  -0.1500 
 13 C        2.8440    -0.8060    -0.0110 C.ar  1 <1>  -0.1500 
 14 C       -1.0880    -6.6620     0.8160 C.3   1 <1>   0.1900 
 15 C        1.6540    -0.3870    -2.4610 C.ar  1 <1>  -0.1500 
 16 C        3.3240     0.1840    -0.8480 C.ar  1 <1>  -0.1500 
 17 N       -0.0670    -6.3450    -0.2260 N.3   1 <1>  -0.8100 
 18 C       -2.4530    -5.9610     0.5750 C.3   1 <1>   0.3430 
 19 C        2.7280     0.3970    -2.0780 C.ar  1 <1>  -0.1500 
 20 C       -0.5880    -6.3860    -1.5970 C.3   1 <1>   0.1100 
 21 C        1.1890    -7.0990    -0.1000 C.3   1 <1>   0.0300 
 22 N       -2.9150    -5.7970    -0.8520 N.4   1 <1>  -0.9590 
 23 C       -1.7730    -5.4260    -1.7500 C.3   1 <1>   0.3430 
 24 C       -3.8990    -4.6690    -0.8810 C.3   1 <1>   0.2630 
 25 H       -1.4610    -4.3210     2.4070 H     1 <1>   0.4000 
 26 H       -1.3060    -6.7210     2.9570 H     1 <1>   0.0800 
 27 H        0.3420    -6.7180     2.4560 H     1 <1>   0.0800 
 28 H        0.3540    -1.9810    -1.9340 H     1 <1>   0.1500 
 29 H        3.3110    -0.9630     0.9450 H     1 <1>   0.1500 
 30 H       -1.2580    -7.7230     0.7960 H     1 <1>   0.0800 
 31 H        1.1820    -0.2280    -3.4140 H     1 <1>   0.1500 
 32 H        4.1590     0.7890    -0.5430 H     1 <1>   0.1500 
 33 H       -2.3800    -4.9900     1.0070 H     1 <1>   0.0800 
 34 H       -3.2110    -6.4750     1.1400 H     1 <1>   0.0800 
 35 H        3.0950     1.1670    -2.7330 H     1 <1>   0.1500 
 36 H       -0.8800    -7.3880    -1.8600 H     1 <1>   0.0800 
 37 H        0.1880    -6.0700    -2.2740 H     1 <1>   0.0800 
 38 H        1.6740    -6.8670     0.8320 H     1 <1>   0.0800 
 39 H        1.8670    -6.8170    -0.8880 H     1 <1>   0.0800 
 40 H        1.0060    -8.1580    -0.1550 H     1 <1>   0.0800 
 41 H       -3.3370    -6.6690    -1.1820 H     1 <1>   0.4500 
 42 H       -2.1010    -5.4190    -2.7750 H     1 <1>   0.0800 
 43 H       -1.4220    -4.4390    -1.5150 H     1 <1>   0.0800 
 44 H       -3.4400    -3.7630    -0.5170 H     1 <1>   0.0800 
 45 H       -4.7470    -4.8890    -0.2550 H     1 <1>   0.0800 
 46 H       -4.2410    -4.4910    -1.8860 H     1 <1>   0.0800 
@<TRIPOS>BOND
  1   1   2  ar  
  2   2   3  ar  
  3   2   4  1   
  4   4   5  1   
  5   4   6  2   
  6   5   7  2   
  7   5   8  1   
  8   6   9  1   
  9   6  10  1   
 10   7   9  1   
 11   8  11  1   
 12   8  25  1   
 13  10  12  ar  
 14  10  13  ar  
 15  11  14  1   
 16  11  26  1   
 17  11  27  1   
 18  12  15  ar  
 19  12  28  1   
 20  13  16  ar  
 21  13  29  1   
 22  14  17  1   
 23  14  18  1   
 24  14  30  1   
 25  15  19  ar  
 26  15  31  1   
 27  16  19  ar  
 28  16  32  1   
 29  17  20  1   
 30  17  21  1   
 31  18  22  1   
 32  18  33  1   
 33  18  34  1   
 34  19  35  1   
 35  20  23  1   
 36  20  36  1   
 37  20  37  1   
 38  21  38  1   
 39  21  39  1   
 40  21  40  1   
 41  22  23  1   
 42  22  24  1   
 43  22  41  1   
 44  23  42  1   
 45  23  43  1   
 46  24  44  1   
 47  24  45  1   
 48  24  46  1   
@<TRIPOS>SUBSTRUCTURE
  1 ****   4 GROUP 4 **** **** 0

# MOE 2024.06 (io_trps.svl 2023.06)
