@<TRIPOS>MOLECULE
NONAME
59 64 1 0 0 
SMALL
USER_CHARGES


@<TRIPOS>ATOM
  1 O       -1.3480    -0.1080     1.0720 O.2   1 <1>  -0.5700 
  2 C       -1.5560     0.6640     0.1650 C.2   1 <1>   0.5690 
  3 N       -2.2860     0.2910    -0.9250 N.am  1 <1>  -0.7300 
  4 C       -1.0030     2.1040     0.2230 C.3   1 <1>   0.0610 
  5 C       -2.9090    -1.0360    -1.1890 C.3   1 <1>   0.2200 
  6 C       -0.1880     2.3570     1.5200 C.3   1 <1>  -0.1600 
  7 C       -0.0690     2.3750    -0.9850 C.3   1 <1>  -0.1600 
  8 C       -2.1650     3.1300     0.1850 C.3   1 <1>  -0.1600 
  9 C       -3.8610    -1.4730    -0.0700 C.3   1 <1>  -0.0800 
 10 C       -1.8810    -2.1680    -1.2750 C.3   1 <1>   0.1200 
 11 C        0.3560     3.7960     1.5660 C.3   1 <1>  -0.0800 
 12 C        0.4730     3.8160    -0.9520 C.3   1 <1>  -0.0800 
 13 C       -1.6300     4.5740     0.2210 C.3   1 <1>  -0.0800 
 14 C       -3.2020    -2.7560     0.4450 C.3   1 <1>   0.1200 
 15 C       -5.2810    -1.7370    -0.6070 C.3   1 <1>  -0.0170 
 16 O       -2.4750    -3.2470    -0.6300 O.3   1 <1>  -0.5600 
 17 C        1.2680     4.0290     0.3490 C.3   1 <1>  -0.1600 
 18 C       -0.8240     4.7830     1.5160 C.3   1 <1>  -0.1600 
 19 C       -0.7090     4.8030    -0.9920 C.3   1 <1>  -0.1600 
 20 C       -6.3420    -2.1250     0.4320 C.ar  1 <1>  -0.1440 
 21 C       -7.6170    -2.5730     0.0060 C.ar  1 <1>   0.0000 
 22 C       -6.1320    -2.0530     1.7820 C.ar  1 <1>  -0.1500 
 23 C       -8.5640    -2.9290     0.9980 C.ar  1 <1>   0.3100 
 24 C       -8.0120    -2.6850    -1.3490 C.ar  1 <1>  -0.1500 
 25 C       -7.1400    -2.4250     2.6790 C.ar  1 <1>   0.1600 
 26 N       -8.3110    -2.8490     2.3270 N.ar  1 <1>  -0.6200 
 27 C       -9.8310    -3.3840     0.6000 C.ar  1 <1>  -0.1500 
 28 C       -9.2560    -3.1310    -1.7030 C.ar  1 <1>  -0.1500 
 29 C      -10.1800    -3.4870    -0.7190 C.ar  1 <1>  -0.1500 
 30 H       -2.4270     0.9850    -1.6590 H     1 <1>   0.3700 
 31 H       -3.4330    -0.9850    -2.1270 H     1 <1>   0.0800 
 32 H       -0.8120     2.1820     2.3800 H     1 <1>   0.0800 
 33 H        0.6310     1.6610     1.5740 H     1 <1>   0.0800 
 34 H        0.7540     1.6800    -0.9640 H     1 <1>   0.0800 
 35 H       -0.5980     2.2210    -1.9080 H     1 <1>   0.0800 
 36 H       -2.7520     2.9970    -0.7060 H     1 <1>   0.0800 
 37 H       -2.8150     2.9660     1.0280 H     1 <1>   0.0800 
 38 H       -3.9020    -0.7340     0.7090 H     1 <1>   0.0800 
 39 H       -0.9750    -1.9270    -0.7460 H     1 <1>   0.0800 
 40 H       -1.6630    -2.4480    -2.2890 H     1 <1>   0.0800 
 41 H        0.9160     3.9440     2.4740 H     1 <1>   0.0800 
 42 H        1.1160     3.9840    -1.8000 H     1 <1>   0.0800 
 43 H       -2.4520     5.2690     0.1900 H     1 <1>   0.0800 
 44 H       -3.9070    -3.5040     0.7650 H     1 <1>   0.0800 
 45 H       -2.5090    -2.5380     1.2420 H     1 <1>   0.0800 
 46 H       -5.2110    -2.5270    -1.3360 H     1 <1>   0.0800 
 47 H       -5.6260    -0.8520    -1.1120 H     1 <1>   0.0800 
 48 H        2.1020     3.3500     0.3830 H     1 <1>   0.0800 
 49 H        1.6610     5.0310     0.3750 H     1 <1>   0.0800 
 50 H       -0.4550     5.7930     1.5560 H     1 <1>   0.0800 
 51 H       -1.4600     4.6340     2.3710 H     1 <1>   0.0800 
 52 H       -1.2650     4.6730    -1.9040 H     1 <1>   0.0800 
 53 H       -0.3380     5.8130    -0.9800 H     1 <1>   0.0800 
 54 H       -5.2080    -1.7170     2.2110 H     1 <1>   0.1500 
 55 H       -7.3230    -2.4150    -2.1260 H     1 <1>   0.1500 
 56 H       -6.9250    -2.3540     3.7320 H     1 <1>   0.1500 
 57 H      -10.5250    -3.6510     1.3760 H     1 <1>   0.1500 
 58 H       -9.5400    -3.2120    -2.7390 H     1 <1>   0.1500 
 59 H      -11.1550    -3.8380    -1.0090 H     1 <1>   0.1500 
@<TRIPOS>BOND
  1   1   2  2   
  2   2   3  am  
  3   2   4  1   
  4   3   5  1   
  5   3  30  1   
  6   4   6  1   
  7   4   7  1   
  8   4   8  1   
  9   5   9  1   
 10   5  10  1   
 11   5  31  1   
 12   6  11  1   
 13   6  32  1   
 14   6  33  1   
 15   7  12  1   
 16   7  34  1   
 17   7  35  1   
 18   8  13  1   
 19   8  36  1   
 20   8  37  1   
 21   9  14  1   
 22   9  15  1   
 23   9  38  1   
 24  10  16  1   
 25  10  39  1   
 26  10  40  1   
 27  11  17  1   
 28  11  18  1   
 29  11  41  1   
 30  12  17  1   
 31  12  19  1   
 32  12  42  1   
 33  13  18  1   
 34  13  19  1   
 35  13  43  1   
 36  14  16  1   
 37  14  44  1   
 38  14  45  1   
 39  15  20  1   
 40  15  46  1   
 41  15  47  1   
 42  17  48  1   
 43  17  49  1   
 44  18  50  1   
 45  18  51  1   
 46  19  52  1   
 47  19  53  1   
 48  20  21  ar  
 49  20  22  ar  
 50  21  23  ar  
 51  21  24  ar  
 52  22  25  ar  
 53  22  54  1   
 54  23  26  ar  
 55  23  27  ar  
 56  24  28  ar  
 57  24  55  1   
 58  25  26  ar  
 59  25  56  1   
 60  27  29  ar  
 61  27  57  1   
 62  28  29  ar  
 63  28  58  1   
 64  29  59  1   
@<TRIPOS>SUBSTRUCTURE
  1 ****   9 GROUP 4 **** **** 0

# MOE 2024.06 (io_trps.svl 2023.06)
