@<TRIPOS>MOLECULE
NONAME
52 54 1 0 0 
SMALL
USER_CHARGES


@<TRIPOS>ATOM
  1 O       -0.5870     0.7920     0.1090 O.2   1 <1>  -0.5700 
  2 C       -1.7640     1.1040     0.0970 C.2   1 <1>   0.5440 
  3 N       -2.7000     0.1070    -0.1650 N.am  1 <1>  -0.6600 
  4 C       -2.0960     2.4910     0.3770 C.ar  1 <1>   0.0860 
  5 C       -4.1140     0.2470    -0.6400 C.3   1 <1>   0.2200 
  6 C       -2.2710    -1.3230    -0.0850 C.3   1 <1>   0.0600 
  7 C       -1.7180     3.5460    -0.4700 C.ar  1 <1>  -0.1440 
  8 C       -2.7780     2.8180     1.5500 C.ar  1 <1>  -0.1500 
  9 C       -4.3610     1.3470    -1.6750 C.3   1 <1>  -0.1600 
 10 C       -5.0890     0.4580     0.5170 C.3   1 <1>  -0.1600 
 11 C       -2.0820     4.8510    -0.1780 C.ar  1 <1>  -0.1500 
 12 C       -0.8830     3.2790    -1.7190 C.3   1 <1>  -0.0970 
 13 C       -3.1500     4.1170     1.8400 C.ar  1 <1>  -0.1500 
 14 C       -5.6600     2.0630    -1.2780 C.3   1 <1>  -0.0800 
 15 C       -6.1460     1.4670     0.0450 C.3   1 <1>  -0.0800 
 16 C       -2.8190     5.1300     0.9610 C.ar  1 <1>   0.0830 
 17 C       -5.5050     3.5730    -1.0520 C.3   1 <1>  -0.1600 
 18 C       -6.3840     2.6380     1.0150 C.3   1 <1>  -0.1600 
 19 O       -3.2140     6.3790     1.2250 O.3   1 <1>  -0.5330 
 20 C       -6.2930     3.9340     0.2090 C.3   1 <1>   0.4230 
 21 N       -7.6590     4.4730    -0.0830 N.4   1 <1>  -0.9590 
 22 C       -8.4930     3.6220    -0.9910 C.3   1 <1>   0.2630 
 23 C       -7.5710     5.8730    -0.6010 C.3   1 <1>   0.2630 
 24 H       -4.3970    -0.6760    -1.1210 H     1 <1>   0.0800 
 25 H       -3.0480    -1.9200     0.3580 H     1 <1>   0.0800 
 26 H       -1.3860    -1.4250     0.5210 H     1 <1>   0.0800 
 27 H       -2.0560    -1.6900    -1.0730 H     1 <1>   0.0800 
 28 H       -3.0020     2.0350     2.2520 H     1 <1>   0.1500 
 29 H       -3.5380     2.0230    -1.7540 H     1 <1>   0.0800 
 30 H       -4.4860     0.8900    -2.6410 H     1 <1>   0.0800 
 31 H       -5.5590    -0.4770     0.7650 H     1 <1>   0.0800 
 32 H       -4.5670     0.7960     1.3870 H     1 <1>   0.0800 
 33 H       -1.7920     5.6510    -0.8350 H     1 <1>   0.1500 
 34 H       -0.8340     4.1470    -2.3510 H     1 <1>   0.0800 
 35 H       -1.2940     2.4670    -2.2910 H     1 <1>   0.0800 
 36 H        0.1190     3.0120    -1.4300 H     1 <1>   0.0800 
 37 H       -3.6770     4.3510     2.7470 H     1 <1>   0.1500 
 38 H       -6.4060     1.8870    -2.0360 H     1 <1>   0.0800 
 39 H       -7.0720     0.9450    -0.1310 H     1 <1>   0.0800 
 40 H       -5.7880     4.1430    -1.9170 H     1 <1>   0.0800 
 41 H       -4.4780     3.7930    -0.8440 H     1 <1>   0.0800 
 42 H       -5.6070     2.6680     1.7550 H     1 <1>   0.0800 
 43 H       -7.3200     2.5380     1.5360 H     1 <1>   0.0800 
 44 H       -2.7400     7.0550     0.7040 H     1 <1>   0.4500 
 45 H       -5.7420     4.6670     0.7780 H     1 <1>   0.0800 
 46 H       -8.1390     4.5150     0.8270 H     1 <1>   0.4500 
 47 H       -8.0400     3.5570    -1.9660 H     1 <1>   0.0800 
 48 H       -9.4800     4.0440    -1.0980 H     1 <1>   0.0800 
 49 H       -8.5880     2.6270    -0.5890 H     1 <1>   0.0800 
 50 H       -7.0810     5.8880    -1.5610 H     1 <1>   0.0800 
 51 H       -7.0080     6.4890     0.0820 H     1 <1>   0.0800 
 52 H       -8.5570     6.2950    -0.7110 H     1 <1>   0.0800 
@<TRIPOS>BOND
  1   1   2  2   
  2   2   3  am  
  3   2   4  1   
  4   3   5  1   
  5   3   6  1   
  6   4   7  ar  
  7   4   8  ar  
  8   5   9  1   
  9   5  10  1   
 10   5  24  1   
 11   6  25  1   
 12   6  26  1   
 13   6  27  1   
 14   7  11  ar  
 15   7  12  1   
 16   8  13  ar  
 17   8  28  1   
 18   9  14  1   
 19   9  29  1   
 20   9  30  1   
 21  10  15  1   
 22  10  31  1   
 23  10  32  1   
 24  11  16  ar  
 25  11  33  1   
 26  12  34  1   
 27  12  35  1   
 28  12  36  1   
 29  13  16  ar  
 30  13  37  1   
 31  14  15  1   
 32  14  17  1   
 33  14  38  1   
 34  15  18  1   
 35  15  39  1   
 36  16  19  1   
 37  17  20  1   
 38  17  40  1   
 39  17  41  1   
 40  18  20  1   
 41  18  42  1   
 42  18  43  1   
 43  19  44  1   
 44  20  21  1   
 45  20  45  1   
 46  21  22  1   
 47  21  23  1   
 48  21  46  1   
 49  22  47  1   
 50  22  48  1   
 51  22  49  1   
 52  23  50  1   
 53  23  51  1   
 54  23  52  1   
@<TRIPOS>SUBSTRUCTURE
  1 ****  17 GROUP 4 **** **** 0

# MOE 2024.06 (io_trps.svl 2023.06)
