@<TRIPOS>MOLECULE
NONAME
37 38 1 0 0 
SMALL
USER_CHARGES


@<TRIPOS>ATOM
  1 CL      -0.7670    -0.2690    -3.0920 Cl    1 <1>  -0.1770 
  2 C       -1.5730     0.3730    -1.6920 C.ar  1 <1>   0.4870 
  3 N       -2.8840     0.3450    -1.6920 N.ar  1 <1>  -0.6200 
  4 C       -0.8200     0.8660    -0.6650 C.ar  1 <1>  -0.1500 
  5 C       -3.4590     0.8550    -0.6120 C.ar  1 <1>   0.4760 
  6 C       -1.5320     1.3340     0.4020 C.ar  1 <1>   0.4870 
  7 N       -2.8410     1.3320     0.4640 N.ar  1 <1>  -0.6200 
  8 C       -5.0050     0.8720    -0.6160 C.3   1 <1>   0.3640 
  9 CL      -0.6750     1.9690     1.7730 Cl    1 <1>  -0.1770 
 10 N       -5.6210     2.1350    -0.1280 N.am  1 <1>  -0.6600 
 11 C       -5.6070    -0.2080     0.2920 C.3   1 <1>  -0.1600 
 12 C       -5.2850     3.3580    -0.6220 C.2   1 <1>   0.7800 
 13 C       -6.5870     1.8950     0.9560 C.3   1 <1>   0.1400 
 14 C       -6.8880     0.4040     0.8590 C.3   1 <1>  -0.1600 
 15 O       -4.5540     3.4840    -1.5850 O.2   1 <1>  -0.5700 
 16 O       -5.8090     4.4170    -0.0010 O.3   1 <1>  -0.4300 
 17 C       -5.5750     5.7770    -0.2930 C.3   1 <1>   0.2800 
 18 C       -6.3950     6.5530     0.7390 C.3   1 <1>  -0.2400 
 19 C       -4.0890     6.1100    -0.1110 C.3   1 <1>  -0.2400 
 20 C       -6.0850     6.1140    -1.6990 C.3   1 <1>  -0.2400 
 21 H        0.2500     0.8800    -0.6920 H     1 <1>   0.1500 
 22 H       -5.3470     0.7160    -1.6250 H     1 <1>   0.0800 
 23 H       -4.9260    -0.4180     1.0980 H     1 <1>   0.0800 
 24 H       -5.7910    -1.1180    -0.2500 H     1 <1>   0.0800 
 25 H       -7.4720     2.4940     0.8290 H     1 <1>   0.0800 
 26 H       -6.1190     2.1280     1.8980 H     1 <1>   0.0800 
 27 H       -7.1550    -0.0120     1.8150 H     1 <1>   0.0800 
 28 H       -7.7030     0.2560     0.1720 H     1 <1>   0.0800 
 29 H       -6.0670     6.3080     1.7340 H     1 <1>   0.0800 
 30 H       -7.4380     6.3120     0.6440 H     1 <1>   0.0800 
 31 H       -6.2760     7.6110     0.5940 H     1 <1>   0.0800 
 32 H       -3.7510     5.7890     0.8570 H     1 <1>   0.0800 
 33 H       -3.9380     7.1710    -0.1920 H     1 <1>   0.0800 
 34 H       -3.4910     5.6390    -0.8680 H     1 <1>   0.0800 
 35 H       -7.1060     5.8000    -1.8120 H     1 <1>   0.0800 
 36 H       -5.4840     5.6410    -2.4530 H     1 <1>   0.0800 
 37 H       -6.0340     7.1750    -1.8630 H     1 <1>   0.0800 
@<TRIPOS>BOND
  1   1   2  1   
  2   2   3  ar  
  3   2   4  ar  
  4   3   5  ar  
  5   4   6  ar  
  6   4  21  1   
  7   5   7  ar  
  8   5   8  1   
  9   6   7  ar  
 10   6   9  1   
 11   8  10  1   
 12   8  11  1   
 13   8  22  1   
 14  10  12  am  
 15  10  13  1   
 16  11  14  1   
 17  11  23  1   
 18  11  24  1   
 19  12  15  2   
 20  12  16  1   
 21  13  14  1   
 22  13  25  1   
 23  13  26  1   
 24  14  27  1   
 25  14  28  1   
 26  16  17  1   
 27  17  18  1   
 28  17  19  1   
 29  17  20  1   
 30  18  29  1   
 31  18  30  1   
 32  18  31  1   
 33  19  32  1   
 34  19  33  1   
 35  19  34  1   
 36  20  35  1   
 37  20  36  1   
 38  20  37  1   
@<TRIPOS>SUBSTRUCTURE
  1 ****  12 GROUP 4 **** **** 0

# MOE 2024.06 (io_trps.svl 2023.06)
