@<TRIPOS>MOLECULE
NONAME
44 46 1 0 0 
SMALL
USER_CHARGES


@<TRIPOS>ATOM
  1 O        1.5480     0.5870    -1.1790 O.3   1 <1>  -0.6800 
  2 C        1.5120     0.2560     0.1610 C.3   1 <1>   0.2800 
  3 C        2.9650     0.2160     0.7010 C.3   1 <1>  -0.0800 
  4 C        0.8720    -1.1380     0.2820 C.3   1 <1>  -0.1600 
  5 C        0.6240     1.3040     0.8690 C.3   1 <1>  -0.1600 
  6 C        3.7170    -1.1170     0.4980 C.3   1 <1>  -0.0800 
  7 C        3.8790     1.2560     0.0670 C.3   1 <1>   0.3430 
  8 C        1.6380    -2.2610    -0.4460 C.3   1 <1>  -0.1600 
  9 C        1.0880     2.7690     0.7820 C.3   1 <1>  -0.2400 
 10 C        3.1340    -1.9650    -0.6450 C.3   1 <1>  -0.1600 
 11 C        5.1710    -0.7380     0.1960 C.3   1 <1>   0.3430 
 12 N        5.2550     0.7430     0.2970 N.4   1 <1>  -0.9590 
 13 C        6.2500     1.3480    -0.6290 C.3   1 <1>   0.4860 
 14 C        6.3230     2.8370    -0.3670 C.ar  1 <1>  -0.1440 
 15 C        7.1060     3.3210     0.6710 C.ar  1 <1>   0.1600 
 16 C        5.6170     3.7350    -1.1450 C.ar  1 <1>  -0.1500 
 17 N        7.2180     4.5940     0.9990 N.ar  1 <1>  -0.6200 
 18 C        5.7330     5.0700    -0.8190 C.ar  1 <1>  -0.1500 
 19 C        6.5340     5.4420     0.2470 C.ar  1 <1>   0.1600 
 20 H        0.6450     0.5240    -1.5490 H     1 <1>   0.4000 
 21 H        2.9320     0.4060     1.7590 H     1 <1>   0.0800 
 22 H        0.8340    -1.3900     1.3280 H     1 <1>   0.0800 
 23 H       -0.1470    -1.1170    -0.0630 H     1 <1>   0.0800 
 24 H       -0.3700     1.2420     0.4610 H     1 <1>   0.0800 
 25 H        0.5400     1.0410     1.9100 H     1 <1>   0.0800 
 26 H        3.6770    -1.6970     1.4050 H     1 <1>   0.0800 
 27 H        3.7420     2.2340     0.4990 H     1 <1>   0.0800 
 28 H        3.6850     1.3090    -0.9920 H     1 <1>   0.0800 
 29 H        1.5220    -3.1750     0.1130 H     1 <1>   0.0800 
 30 H        1.1940    -2.4250    -1.4140 H     1 <1>   0.0800 
 31 H        1.2590     3.0600    -0.2400 H     1 <1>   0.0800 
 32 H        1.9820     2.9290     1.3550 H     1 <1>   0.0800 
 33 H        0.3240     3.4100     1.1860 H     1 <1>   0.0800 
 34 H        3.2510    -1.4340    -1.5750 H     1 <1>   0.0800 
 35 H        3.6690    -2.8950    -0.7360 H     1 <1>   0.0800 
 36 H        5.4180    -1.0550    -0.8050 H     1 <1>   0.0800 
 37 H        5.8460    -1.2130     0.8900 H     1 <1>   0.0800 
 38 H        5.5080     0.9970     1.2590 H     1 <1>   0.4500 
 39 H        7.2210     0.9070    -0.4690 H     1 <1>   0.0800 
 40 H        5.9600     1.1710    -1.6520 H     1 <1>   0.0800 
 41 H        7.6740     2.6320     1.2750 H     1 <1>   0.1500 
 42 H        5.0000     3.4280    -1.9730 H     1 <1>   0.1500 
 43 H        5.2120     5.8220    -1.3840 H     1 <1>   0.1500 
 44 H        6.6170     6.4880     0.4940 H     1 <1>   0.1500 
@<TRIPOS>BOND
  1   1   2  1   
  2   1  20  1   
  3   2   3  1   
  4   2   4  1   
  5   2   5  1   
  6   3   6  1   
  7   3   7  1   
  8   3  21  1   
  9   4   8  1   
 10   4  22  1   
 11   4  23  1   
 12   5   9  1   
 13   5  24  1   
 14   5  25  1   
 15   6  10  1   
 16   6  11  1   
 17   6  26  1   
 18   7  12  1   
 19   7  27  1   
 20   7  28  1   
 21   8  10  1   
 22   8  29  1   
 23   8  30  1   
 24   9  31  1   
 25   9  32  1   
 26   9  33  1   
 27  10  34  1   
 28  10  35  1   
 29  11  12  1   
 30  11  36  1   
 31  11  37  1   
 32  12  13  1   
 33  12  38  1   
 34  13  14  1   
 35  13  39  1   
 36  13  40  1   
 37  14  15  ar  
 38  14  16  ar  
 39  15  17  ar  
 40  15  41  1   
 41  16  18  ar  
 42  16  42  1   
 43  17  19  ar  
 44  18  19  ar  
 45  18  43  1   
 46  19  44  1   
@<TRIPOS>SUBSTRUCTURE
  1 ****   7 GROUP 4 **** **** 0

# MOE 2024.06 (io_trps.svl 2023.06)
