@<TRIPOS>MOLECULE
NONAME
44 47 1 0 0 
SMALL
USER_CHARGES


@<TRIPOS>ATOM
  1 S       -0.1900    -0.1060    -1.1760 S.o2  1 <1>   1.5760 
  2 O        0.0410    -1.4310    -1.7050 O.2   1 <1>  -0.6500 
  3 O       -0.4160     1.0040    -2.0760 O.2   1 <1>  -0.6500 
  4 N       -1.4360    -0.1440    -0.0330 N.am  1 <1>  -0.8490 
  5 N        1.1040     0.2990    -0.1740 N.am  1 <1>  -0.8490 
  6 C       -2.7800     0.0240    -0.5840 C.3   1 <1>   0.1960 
  7 C       -1.3510    -1.2120     0.9720 C.3   1 <1>   0.1960 
  8 C        1.0180     1.6330     0.3890 C.3   1 <1>   0.1960 
  9 C        2.3760     0.2490    -0.8640 C.3   1 <1>   0.1960 
 10 C       -3.3170    -1.2850    -1.1670 C.3   1 <1>  -0.1600 
 11 C       -1.9160    -2.5500     0.4770 C.3   1 <1>  -0.1600 
 12 C        2.4290     1.9210     0.8860 C.3   1 <1>  -0.1600 
 13 C        3.3310     1.0190     0.0410 C.3   1 <1>  -0.1600 
 14 C       -3.3190    -2.3910    -0.1070 C.3   1 <1>   0.4600 
 15 O       -4.1520    -1.9980     0.9690 O.3   1 <1>  -0.5600 
 16 C       -3.8400    -3.7110    -0.6650 C.2   1 <1>  -0.1400 
 17 C       -5.5390    -2.2070     0.8450 C.3   1 <1>   0.1200 
 18 S       -2.9880    -4.6260    -1.8980 S.3   1 <1>  -0.0800 
 19 C       -4.9730    -4.3330    -0.3120 C.2   1 <1>  -0.1810 
 20 C       -5.8740    -3.7070     0.7280 C.3   1 <1>   0.0210 
 21 C       -4.2310    -5.8710    -1.8790 C.2   1 <1>  -0.1100 
 22 C       -5.2010    -5.5700    -0.9940 C.2   1 <1>  -0.1500 
 23 H       -2.7780     0.7920    -1.3400 H     1 <1>   0.0800 
 24 H       -3.4350     0.3540     0.2060 H     1 <1>   0.0800 
 25 H       -1.9140    -0.9040     1.8370 H     1 <1>   0.0800 
 26 H       -0.3280    -1.3430     1.2850 H     1 <1>   0.0800 
 27 H        0.2910     1.6710     1.1830 H     1 <1>   0.0800 
 28 H        0.7530     2.3480    -0.3740 H     1 <1>   0.0800 
 29 H        2.2960     0.7460    -1.8190 H     1 <1>   0.0800 
 30 H        2.6910    -0.7710    -1.0160 H     1 <1>   0.0800 
 31 H       -2.7030    -1.5850    -1.9960 H     1 <1>   0.0800 
 32 H       -4.3090    -1.1390    -1.5480 H     1 <1>   0.0800 
 33 H       -1.9520    -3.2500     1.2900 H     1 <1>   0.0800 
 34 H       -1.2590    -2.9650    -0.2620 H     1 <1>   0.0800 
 35 H        2.5040     1.6530     1.9260 H     1 <1>   0.0800 
 36 H        2.6710     2.9620     0.7710 H     1 <1>   0.0800 
 37 H        4.0360     1.5840    -0.5430 H     1 <1>   0.0800 
 38 H        3.8660     0.3310     0.6710 H     1 <1>   0.0800 
 39 H       -5.8870    -1.6780    -0.0240 H     1 <1>   0.0800 
 40 H       -6.0130    -1.7890     1.7150 H     1 <1>   0.0800 
 41 H       -6.9040    -3.8210     0.4430 H     1 <1>   0.0800 
 42 H       -5.7260    -4.1900     1.6770 H     1 <1>   0.0800 
 43 H       -4.0990    -6.7070    -2.5410 H     1 <1>   0.1500 
 44 H       -6.0720    -6.1690    -0.7910 H     1 <1>   0.1500 
@<TRIPOS>BOND
  1   1   2  2   
  2   1   3  2   
  3   1   4  am  
  4   1   5  am  
  5   4   6  1   
  6   4   7  1   
  7   5   8  1   
  8   5   9  1   
  9   6  10  1   
 10   6  23  1   
 11   6  24  1   
 12   7  11  1   
 13   7  25  1   
 14   7  26  1   
 15   8  12  1   
 16   8  27  1   
 17   8  28  1   
 18   9  13  1   
 19   9  29  1   
 20   9  30  1   
 21  10  14  1   
 22  10  31  1   
 23  10  32  1   
 24  11  14  1   
 25  11  33  1   
 26  11  34  1   
 27  12  13  1   
 28  12  35  1   
 29  12  36  1   
 30  13  37  1   
 31  13  38  1   
 32  14  15  1   
 33  14  16  1   
 34  15  17  1   
 35  16  18  1   
 36  16  19  2   
 37  17  20  1   
 38  17  39  1   
 39  17  40  1   
 40  18  21  1   
 41  19  20  1   
 42  19  22  1   
 43  20  41  1   
 44  20  42  1   
 45  21  22  2   
 46  21  43  1   
 47  22  44  1   
@<TRIPOS>SUBSTRUCTURE
  1 ****  11 GROUP 4 **** **** 0

# MOE 2024.06 (io_trps.svl 2023.06)
