@<TRIPOS>MOLECULE
NONAME
46 49 1 0 0 
SMALL
USER_CHARGES


@<TRIPOS>ATOM
  1 S       -0.8260    -0.9980    -1.0140 S.3   1 <1>  -0.2420 
  2 C       -1.9560    -1.5830     0.2070 C.2   1 <1>   0.6510 
  3 C       -0.9800     0.6720    -0.4380 C.2   1 <1>  -0.0370 
  4 N       -2.2980    -2.8280     0.3140 N.2   1 <1>  -0.6210 
  5 N       -2.3880    -0.5300     0.9660 N.am  1 <1>  -0.2290 
  6 C       -1.8330     0.7140     0.5930 C.2   1 <1>  -0.0410 
  7 C       -0.1650     1.7190    -1.1680 C.3   1 <1>  -0.1020 
  8 C       -3.1890    -3.1150     1.3150 C.2   1 <1>   0.0330 
  9 C       -3.2930    -0.7940     1.9640 C.2   1 <1>   0.6160 
 10 C       -3.6900    -2.1460     2.1260 C.2   1 <1>  -0.1360 
 11 C       -3.5830    -4.5850     1.4490 C.3   1 <1>   0.4810 
 12 O       -3.7340     0.1000     2.6670 O.2   1 <1>  -0.5700 
 13 N       -3.8210    -5.1310     0.0840 N.4   1 <1>  -0.9590 
 14 C       -5.1340    -4.6620    -0.4560 C.3   1 <1>   0.3430 
 15 C       -3.8500    -6.6250     0.0820 C.3   1 <1>   0.3430 
 16 C       -6.1130    -5.8040    -0.1780 C.3   1 <1>   0.2000 
 17 C       -5.2410    -7.0390    -0.4150 C.3   1 <1>  -0.0800 
 18 O       -6.4900    -5.7380     1.1620 O.3   1 <1>  -0.6800 
 19 C       -5.7360    -8.3580     0.2080 C.3   1 <1>  -0.0170 
 20 C       -4.7110    -9.4580    -0.0100 C.ar  1 <1>  -0.1430 
 21 C       -3.9390    -9.9540     1.0220 C.ar  1 <1>  -0.1500 
 22 C       -4.4950   -10.0160    -1.2550 C.ar  1 <1>  -0.1500 
 23 C       -3.0020   -10.9410     0.7630 C.ar  1 <1>   0.1600 
 24 C       -3.5320   -11.0000    -1.4070 C.ar  1 <1>   0.1600 
 25 N       -2.7760   -11.4670    -0.4280 N.ar  1 <1>  -0.6200 
 26 H       -2.1270     1.5900     1.1510 H     1 <1>   0.1500 
 27 H        0.8820     1.4840    -1.0960 H     1 <1>   0.0800 
 28 H       -0.3340     2.6890    -0.7370 H     1 <1>   0.0800 
 29 H       -0.4450     1.7450    -2.2050 H     1 <1>   0.0800 
 30 H       -4.3930    -2.3380     2.9160 H     1 <1>   0.1500 
 31 H       -4.4630    -4.6930     2.0630 H     1 <1>   0.0800 
 32 H       -2.7680    -5.1150     1.9120 H     1 <1>   0.0800 
 33 H       -3.0470    -4.7420    -0.4830 H     1 <1>   0.4500 
 34 H       -5.4610    -3.7420    -0.0020 H     1 <1>   0.0800 
 35 H       -5.0510    -4.5210    -1.5210 H     1 <1>   0.0800 
 36 H       -3.0830    -7.0320    -0.5590 H     1 <1>   0.0800 
 37 H       -3.7000    -6.9980     1.0820 H     1 <1>   0.0800 
 38 H       -6.9930    -5.7580    -0.7980 H     1 <1>   0.0800 
 39 H       -5.1620    -7.1840    -1.4780 H     1 <1>   0.0800 
 40 H       -7.2990    -6.2680     1.3270 H     1 <1>   0.4000 
 41 H       -6.6710    -8.6490    -0.2410 H     1 <1>   0.0800 
 42 H       -5.9050    -8.2420     1.2650 H     1 <1>   0.0800 
 43 H       -4.0530    -9.5940     2.0280 H     1 <1>   0.1500 
 44 H       -5.0650    -9.7040    -2.1110 H     1 <1>   0.1500 
 45 H       -2.4080   -11.3190     1.5790 H     1 <1>   0.1500 
 46 H       -3.3760   -11.4270    -2.3840 H     1 <1>   0.1500 
@<TRIPOS>BOND
  1   1   2  1   
  2   1   3  1   
  3   2   4  2   
  4   2   5  1   
  5   3   6  2   
  6   3   7  1   
  7   4   8  1   
  8   5   6  1   
  9   5   9  am  
 10   6  26  1   
 11   7  27  1   
 12   7  28  1   
 13   7  29  1   
 14   8  10  2   
 15   8  11  1   
 16   9  10  1   
 17   9  12  2   
 18  10  30  1   
 19  11  13  1   
 20  11  31  1   
 21  11  32  1   
 22  13  14  1   
 23  13  15  1   
 24  13  33  1   
 25  14  16  1   
 26  14  34  1   
 27  14  35  1   
 28  15  17  1   
 29  15  36  1   
 30  15  37  1   
 31  16  17  1   
 32  16  18  1   
 33  16  38  1   
 34  17  19  1   
 35  17  39  1   
 36  18  40  1   
 37  19  20  1   
 38  19  41  1   
 39  19  42  1   
 40  20  21  ar  
 41  20  22  ar  
 42  21  23  ar  
 43  21  43  1   
 44  22  24  ar  
 45  22  44  1   
 46  23  25  ar  
 47  23  45  1   
 48  24  25  ar  
 49  24  46  1   
@<TRIPOS>SUBSTRUCTURE
  1 ****  13 GROUP 4 **** **** 0

# MOE 2024.06 (io_trps.svl 2023.06)
