@<TRIPOS>MOLECULE
NONAME
45 47 1 0 0 
SMALL
USER_CHARGES


@<TRIPOS>ATOM
  1 O       -0.2590    -1.7410    -2.2180 O.3   1 <1>  -0.6800 
  2 C        0.6760    -2.4490    -1.4810 C.3   1 <1>   0.1200 
  3 C        1.0900    -1.6440    -0.2120 C.3   1 <1>   0.0000 
  4 C        2.2960    -2.3210     0.5010 C.3   1 <1>   0.4230 
  5 C        1.5130    -0.1980    -0.5990 C.3   1 <1>  -0.1600 
  6 C       -0.1050    -1.5540     0.7820 C.3   1 <1>  -0.1600 
  7 N        1.9920    -3.7180     1.0340 N.4   1 <1>  -0.9590 
  8 C        3.5940    -2.2160    -0.3440 C.3   1 <1>   0.2090 
  9 C        2.7780    -0.1390    -1.4620 C.3   1 <1>   0.2090 
 10 C       -0.0500    -2.5890     1.9210 C.3   1 <1>  -0.1600 
 11 C        0.5660    -3.9100     1.4670 C.3   1 <1>   0.3430 
 12 C        2.4060    -4.8640     0.1570 C.3   1 <1>   0.2630 
 13 N        3.8990    -0.7800    -0.7020 N.pl3 1 <1>  -0.8380 
 14 C        5.0300    -0.1570    -0.2580 C.ar  1 <1>   0.7710 
 15 N        5.7520    -0.7550     0.6820 N.ar  1 <1>  -0.6200 
 16 N        5.3860     1.0400    -0.7700 N.ar  1 <1>  -0.1790 
 17 C        6.8310    -0.1420     1.1110 C.ar  1 <1>   0.4100 
 18 C        6.4950     1.6970    -0.3450 C.ar  1 <1>   0.2110 
 19 N        7.5330    -0.7700     2.0540 N.pl3 1 <1>  -0.9000 
 20 C        7.2410     1.1060     0.6170 C.ar  1 <1>  -0.1500 
 21 H       -0.6120    -2.2620    -2.9710 H     1 <1>   0.4000 
 22 H        0.2270    -3.3890    -1.2150 H     1 <1>   0.0800 
 23 H        1.5110    -2.6360    -2.1310 H     1 <1>   0.0800 
 24 H        2.4830    -1.7090     1.3680 H     1 <1>   0.0800 
 25 H        1.6930     0.3820     0.2900 H     1 <1>   0.0800 
 26 H        0.7120     0.2950    -1.1240 H     1 <1>   0.0800 
 27 H       -0.1540    -0.5780     1.2370 H     1 <1>   0.0800 
 28 H       -1.0330    -1.6710     0.2460 H     1 <1>   0.0800 
 29 H        2.5480    -3.7970     1.9000 H     1 <1>   0.4500 
 30 H        3.4890    -2.7730    -1.2580 H     1 <1>   0.0800 
 31 H        4.4010    -2.6620     0.2090 H     1 <1>   0.0800 
 32 H        2.9860     0.8910    -1.6930 H     1 <1>   0.0800 
 33 H        2.6200    -0.6570    -2.3940 H     1 <1>   0.0800 
 34 H       -1.0500    -2.7690     2.2790 H     1 <1>   0.0800 
 35 H        0.5150    -2.2010     2.7520 H     1 <1>   0.0800 
 36 H       -0.0180    -4.2920     0.6460 H     1 <1>   0.0800 
 37 H        0.5190    -4.6290     2.2690 H     1 <1>   0.0800 
 38 H        1.8760    -4.8350    -0.7800 H     1 <1>   0.0800 
 39 H        2.1880    -5.8020     0.6430 H     1 <1>   0.0800 
 40 H        3.4660    -4.8290    -0.0410 H     1 <1>   0.0800 
 41 H        4.7990     1.4080    -1.5110 H     1 <1>   0.4570 
 42 H        6.7460     2.6520    -0.7790 H     1 <1>   0.1500 
 43 H        7.2440    -1.6860     2.4050 H     1 <1>   0.4000 
 44 H        8.3960    -0.4160     2.4790 H     1 <1>   0.4000 
 45 H        8.1350     1.5550     1.0120 H     1 <1>   0.1500 
@<TRIPOS>BOND
  1   1   2  1   
  2   1  21  1   
  3   2   3  1   
  4   2  22  1   
  5   2  23  1   
  6   3   4  1   
  7   3   5  1   
  8   3   6  1   
  9   4   7  1   
 10   4   8  1   
 11   4  24  1   
 12   5   9  1   
 13   5  25  1   
 14   5  26  1   
 15   6  10  1   
 16   6  27  1   
 17   6  28  1   
 18   7  11  1   
 19   7  12  1   
 20   7  29  1   
 21   8  13  1   
 22   8  30  1   
 23   8  31  1   
 24   9  13  1   
 25   9  32  1   
 26   9  33  1   
 27  10  11  1   
 28  10  34  1   
 29  10  35  1   
 30  11  36  1   
 31  11  37  1   
 32  12  38  1   
 33  12  39  1   
 34  12  40  1   
 35  13  14  1   
 36  14  15  ar  
 37  14  16  ar  
 38  15  17  ar  
 39  16  18  ar  
 40  16  41  1   
 41  17  19  1   
 42  17  20  ar  
 43  18  20  ar  
 44  18  42  1   
 45  19  43  1   
 46  19  44  1   
 47  20  45  1   
@<TRIPOS>SUBSTRUCTURE
  1 ****   8 GROUP 4 **** **** 0

# MOE 2024.06 (io_trps.svl 2023.06)
