@<TRIPOS>MOLECULE
NONAME
51 54 1 0 0 
SMALL
USER_CHARGES


@<TRIPOS>ATOM
  1 O       -0.4640     0.5730     1.1290 O.co2 1 <1>  -0.9000 
  2 C       -1.4240     1.0450     0.5050 C.2   1 <1>   0.9790 
  3 O       -2.3670     0.3090     0.1780 O.co2 1 <1>  -0.9000 
  4 C       -1.4980     2.4590     0.2040 C.ar  1 <1>  -0.1790 
  5 C       -0.3600     3.2220    -0.2300 C.ar  1 <1>   0.0000 
  6 C       -2.7000     3.1050     0.3320 C.ar  1 <1>  -0.1500 
  7 C       -0.5330     4.5990    -0.4550 C.ar  1 <1>   0.3610 
  8 C        0.9180     2.6890    -0.4670 C.ar  1 <1>  -0.1500 
  9 C       -2.8690     4.4890     0.1120 C.ar  1 <1>   0.4610 
 10 N       -1.7810     5.1600    -0.2630 N.ar  1 <1>  -0.1790 
 11 C        0.5420     5.3920    -0.8740 C.ar  1 <1>  -0.1500 
 12 C        1.9650     3.4750    -0.8830 C.ar  1 <1>  -0.1500 
 13 N       -4.0380     5.1530     0.2750 N.pl3 1 <1>  -0.8380 
 14 C        1.7800     4.8380    -1.0870 C.ar  1 <1>  -0.1500 
 15 C       -4.3030     6.5480    -0.2240 C.3   1 <1>   0.2090 
 16 C       -5.2130     4.5040     0.9580 C.3   1 <1>   0.2090 
 17 C       -5.7830     6.7300    -0.5460 C.3   1 <1>  -0.1600 
 18 C       -6.0560     5.5490     1.6900 C.3   1 <1>  -0.1600 
 19 C       -6.6410     6.6100     0.7300 C.3   1 <1>   0.2800 
 20 O       -6.4760     7.8470     1.3890 O.3   1 <1>  -0.5600 
 21 C       -8.1410     6.3090     0.4240 C.3   1 <1>   0.2000 
 22 C       -7.6000     8.6370     1.6620 C.3   1 <1>   0.1200 
 23 O       -8.2980     5.1410    -0.3320 O.3   1 <1>  -0.6800 
 24 C       -8.9100     7.5130    -0.1960 C.3   1 <1>   0.2800 
 25 C       -8.3910     8.8480     0.3690 C.3   1 <1>  -0.1600 
 26 O      -10.2280     7.3800     0.1980 O.3   1 <1>  -0.6800 
 27 C       -8.9550     7.5540    -1.7300 C.3   1 <1>  -0.2400 
 28 H       -3.5560     2.5150     0.6070 H     1 <1>   0.1500 
 29 H        1.0900     1.6350    -0.3190 H     1 <1>   0.1500 
 30 H       -1.8880     6.1570    -0.3760 H     1 <1>   0.4570 
 31 H        0.4050     6.4450    -1.0370 H     1 <1>   0.1500 
 32 H        2.9340     3.0350    -1.0510 H     1 <1>   0.1500 
 33 H        2.6140     5.4400    -1.4100 H     1 <1>   0.1500 
 34 H       -4.0160     7.2630     0.5310 H     1 <1>   0.0800 
 35 H       -3.7380     6.7380    -1.1200 H     1 <1>   0.0800 
 36 H       -5.8180     3.9910     0.2280 H     1 <1>   0.0800 
 37 H       -4.8750     3.7830     1.6840 H     1 <1>   0.0800 
 38 H       -6.0650     5.9860    -1.2690 H     1 <1>   0.0800 
 39 H       -5.9350     7.6930    -0.9960 H     1 <1>   0.0800 
 40 H       -5.4310     6.0170     2.4300 H     1 <1>   0.0800 
 41 H       -6.8450     5.0410     2.2120 H     1 <1>   0.0800 
 42 H       -8.6060     6.1000     1.3720 H     1 <1>   0.0800 
 43 H       -8.1940     8.1510     2.4180 H     1 <1>   0.0800 
 44 H       -7.2500     9.5780     2.0500 H     1 <1>   0.0800 
 45 H       -9.2560     5.0010    -0.4780 H     1 <1>   0.4000 
 46 H       -7.7280     9.3170    -0.3360 H     1 <1>   0.0800 
 47 H       -9.2030     9.5310     0.5450 H     1 <1>   0.0800 
 48 H      -10.7690     8.0690    -0.2300 H     1 <1>   0.4000 
 49 H       -7.9630     7.5930    -2.1360 H     1 <1>   0.0800 
 50 H       -9.4860     8.4240    -2.0720 H     1 <1>   0.0800 
 51 H       -9.4360     6.6760    -2.1240 H     1 <1>   0.0800 
@<TRIPOS>BOND
  1   1   2  ar  
  2   2   3  ar  
  3   2   4  1   
  4   4   5  ar  
  5   4   6  ar  
  6   5   7  ar  
  7   5   8  ar  
  8   6   9  ar  
  9   6  28  1   
 10   7  10  ar  
 11   7  11  ar  
 12   8  12  ar  
 13   8  29  1   
 14   9  10  ar  
 15   9  13  1   
 16  10  30  1   
 17  11  14  ar  
 18  11  31  1   
 19  12  14  ar  
 20  12  32  1   
 21  13  15  1   
 22  13  16  1   
 23  14  33  1   
 24  15  17  1   
 25  15  34  1   
 26  15  35  1   
 27  16  18  1   
 28  16  36  1   
 29  16  37  1   
 30  17  19  1   
 31  17  38  1   
 32  17  39  1   
 33  18  19  1   
 34  18  40  1   
 35  18  41  1   
 36  19  20  1   
 37  19  21  1   
 38  20  22  1   
 39  21  23  1   
 40  21  24  1   
 41  21  42  1   
 42  22  25  1   
 43  22  43  1   
 44  22  44  1   
 45  23  45  1   
 46  24  25  1   
 47  24  26  1   
 48  24  27  1   
 49  25  46  1   
 50  25  47  1   
 51  26  48  1   
 52  27  49  1   
 53  27  50  1   
 54  27  51  1   
@<TRIPOS>SUBSTRUCTURE
  1 ****  13 GROUP 4 **** **** 0

# MOE 2024.06 (io_trps.svl 2023.06)
