@<TRIPOS>MOLECULE
NONAME
43 45 1 0 0 
SMALL
USER_CHARGES


@<TRIPOS>ATOM
  1 CL      -0.1270     0.3090     0.0220 Cl    1 <1>  -0.1770 
  2 C        0.1110     2.0040     0.3640 C.ar  1 <1>   0.1770 
  3 C       -0.7820     2.9510    -0.1190 C.ar  1 <1>  -0.1440 
  4 C        1.2060     2.3740     1.1230 C.ar  1 <1>  -0.1500 
  5 C       -0.5530     4.2860     0.1730 C.ar  1 <1>  -0.1500 
  6 C       -1.9910     2.5390    -0.9460 C.3   1 <1>  -0.0960 
  7 C        1.4190     3.7110     1.4030 C.ar  1 <1>  -0.1500 
  8 C        0.5480     4.6910     0.9300 C.ar  1 <1>   0.0860 
  9 C        0.7960     6.0900     1.2080 C.2   1 <1>   0.5440 
 10 O        0.6270     6.5100     2.3370 O.2   1 <1>  -0.5700 
 11 N        1.2540     6.9640     0.2350 N.am  1 <1>  -0.6600 
 12 C        1.5340     8.3860     0.6170 C.3   1 <1>   0.1400 
 13 C        1.8060     6.4690    -1.0670 C.3   1 <1>   0.1400 
 14 C        3.0290     8.6660     0.9280 C.3   1 <1>   0.4230 
 15 C        3.2890     6.8270    -1.3160 C.3   1 <1>  -0.0800 
 16 N        3.8210     9.0810    -0.2890 N.4   1 <1>  -0.9590 
 17 C        3.7680     7.5230     1.6780 C.3   1 <1>   0.1200 
 18 C        4.3010     6.2190    -0.3190 C.3   1 <1>   0.1200 
 19 C        3.4770     8.3310    -1.5330 C.3   1 <1>   0.3430 
 20 C        3.7340    10.5550    -0.5240 C.3   1 <1>   0.2630 
 21 O        3.8670     6.2920     1.0020 O.3   1 <1>  -0.5600 
 22 H        1.8800     1.6200     1.4880 H     1 <1>   0.1500 
 23 H       -1.2340     5.0400    -0.1820 H     1 <1>   0.1500 
 24 H       -2.5730     3.3950    -1.2360 H     1 <1>   0.0800 
 25 H       -2.6200     1.8800    -0.3730 H     1 <1>   0.0800 
 26 H       -1.6720     2.0250    -1.8350 H     1 <1>   0.0800 
 27 H        2.2680     4.0120     1.9940 H     1 <1>   0.1500 
 28 H        1.1800     9.0420    -0.1570 H     1 <1>   0.0800 
 29 H        0.9670     8.6350     1.4970 H     1 <1>   0.0800 
 30 H        1.7170     5.3980    -1.1230 H     1 <1>   0.0800 
 31 H        1.2000     6.8700    -1.8620 H     1 <1>   0.0800 
 32 H        3.0340     9.5040     1.6040 H     1 <1>   0.0800 
 33 H        3.5220     6.3860    -2.2680 H     1 <1>   0.0800 
 34 H        4.7980     8.8480    -0.0640 H     1 <1>   0.4500 
 35 H        3.2400     7.3200     2.5940 H     1 <1>   0.0800 
 36 H        4.7620     7.8340     1.9420 H     1 <1>   0.0800 
 37 H        5.2740     6.6740    -0.3940 H     1 <1>   0.0800 
 38 H        4.4120     5.1700    -0.5350 H     1 <1>   0.0800 
 39 H        2.5720     8.7310    -1.9610 H     1 <1>   0.0800 
 40 H        4.2660     8.4780    -2.2530 H     1 <1>   0.0800 
 41 H        2.7200    10.8400    -0.7540 H     1 <1>   0.0800 
 42 H        4.3670    10.8420    -1.3480 H     1 <1>   0.0800 
 43 H        4.0530    11.0950     0.3540 H     1 <1>   0.0800 
@<TRIPOS>BOND
  1   1   2  1   
  2   2   3  ar  
  3   2   4  ar  
  4   3   5  ar  
  5   3   6  1   
  6   4   7  ar  
  7   4  22  1   
  8   5   8  ar  
  9   5  23  1   
 10   6  24  1   
 11   6  25  1   
 12   6  26  1   
 13   7   8  ar  
 14   7  27  1   
 15   8   9  1   
 16   9  10  2   
 17   9  11  am  
 18  11  12  1   
 19  11  13  1   
 20  12  14  1   
 21  12  28  1   
 22  12  29  1   
 23  13  15  1   
 24  13  30  1   
 25  13  31  1   
 26  14  16  1   
 27  14  17  1   
 28  14  32  1   
 29  15  18  1   
 30  15  19  1   
 31  15  33  1   
 32  16  19  1   
 33  16  20  1   
 34  16  34  1   
 35  17  21  1   
 36  17  35  1   
 37  17  36  1   
 38  18  21  1   
 39  18  37  1   
 40  18  38  1   
 41  19  39  1   
 42  19  40  1   
 43  20  41  1   
 44  20  42  1   
 45  20  43  1   
@<TRIPOS>SUBSTRUCTURE
  1 ****  11 GROUP 4 **** **** 0

# MOE 2024.06 (io_trps.svl 2023.06)
