@<TRIPOS>MOLECULE
NONAME
50 54 1 0 0 
SMALL
USER_CHARGES


@<TRIPOS>ATOM
  1 O       -0.0820    -0.3190     0.2570 O.2   1 <1>  -0.5700 
  2 C       -1.0870     0.3080    -0.0110 C.2   1 <1>   0.7160 
  3 N       -2.0960    -0.3440    -0.6370 N.am  1 <1>  -0.7300 
  4 C       -1.2470     1.6910     0.3240 C.2   1 <1>  -0.0860 
  5 C       -2.2530    -1.8130    -0.7120 C.3   1 <1>   0.3200 
  6 C       -2.4800     2.3430     0.4690 C.2   1 <1>   0.3720 
  7 C       -0.3440     2.6760     0.5870 C.2   1 <1>   0.0870 
  8 C       -3.7290    -2.1760    -0.7530 C.2   1 <1>   0.2980 
  9 N       -2.3230     3.5790     0.7790 N.2   1 <1>  -0.4100 
 10 N       -3.7350     1.7340     0.3300 N.pl3 1 <1>  -0.8210 
 11 O       -1.0320     3.7590     0.8490 O.3   1 <1>  -0.0190 
 12 C        1.0970     2.7300     0.6110 C.ar  1 <1>   0.0530 
 13 O       -4.4260    -1.7990    -1.7960 O.3   1 <1>  -0.0190 
 14 N       -4.3830    -2.7980     0.1460 N.2   1 <1>  -0.5650 
 15 C       -4.7610     2.5580    -0.3840 C.3   1 <1>   0.2090 
 16 C       -4.2900     1.2590     1.6360 C.3   1 <1>   0.2090 
 17 C        1.8840     1.9910    -0.2720 C.ar  1 <1>  -0.1500 
 18 C        1.7600     3.5500     1.5250 C.ar  1 <1>  -0.1500 
 19 N       -5.6270    -2.2170    -1.5390 N.2   1 <1>  -0.4100 
 20 C       -5.5870    -2.8030    -0.4090 C.2   1 <1>   0.4300 
 21 C       -6.0890     1.7870    -0.5060 C.3   1 <1>   0.1200 
 22 C       -5.6460     0.5570     1.4410 C.3   1 <1>   0.1200 
 23 C        3.2650     2.0600    -0.2410 C.ar  1 <1>  -0.1500 
 24 C        3.1400     3.6260     1.5610 C.ar  1 <1>  -0.1500 
 25 C       -6.7710    -3.4490     0.2930 C.3   1 <1>  -0.0140 
 26 O       -6.5440     1.3840     0.7570 O.3   1 <1>  -0.5600 
 27 C        3.8970     2.8780     0.6770 C.ar  1 <1>  -0.1500 
 28 C       -6.9440    -4.9380     0.2740 C.3   1 <1>  -0.2000 
 29 C       -7.9030    -4.0640    -0.4760 C.3   1 <1>  -0.2000 
 30 H       -2.9800     0.1890    -0.6540 H     1 <1>   0.3700 
 31 H       -1.7950    -2.2720     0.1480 H     1 <1>   0.0800 
 32 H       -1.7650    -2.1800    -1.5970 H     1 <1>   0.0800 
 33 H       -4.3980     2.8070    -1.3660 H     1 <1>   0.0800 
 34 H       -4.9340     3.4760     0.1510 H     1 <1>   0.0800 
 35 H       -4.4170     2.0960     2.3020 H     1 <1>   0.0800 
 36 H       -3.5980     0.5720     2.0930 H     1 <1>   0.0800 
 37 H        1.4120     1.3520    -0.9960 H     1 <1>   0.1500 
 38 H        1.1840     4.1360     2.2190 H     1 <1>   0.1500 
 39 H       -5.9660     0.9140    -1.1230 H     1 <1>   0.0800 
 40 H       -6.8450     2.4170    -0.9400 H     1 <1>   0.0800 
 41 H       -6.0810     0.3180     2.3950 H     1 <1>   0.0800 
 42 H       -5.5210    -0.3510     0.8810 H     1 <1>   0.0800 
 43 H        3.8480     1.4760    -0.9310 H     1 <1>   0.1500 
 44 H        3.6270     4.2650     2.2770 H     1 <1>   0.1500 
 45 H       -7.0180    -2.9360     1.2050 H     1 <1>   0.1000 
 46 H        4.9710     2.9330     0.7030 H     1 <1>   0.1500 
 47 H       -7.2760    -5.4280     1.1720 H     1 <1>   0.1000 
 48 H       -6.2380    -5.5290    -0.2830 H     1 <1>   0.1000 
 49 H       -7.8610    -4.0540    -1.5520 H     1 <1>   0.1000 
 50 H       -8.9040    -3.9450    -0.1010 H     1 <1>   0.1000 
@<TRIPOS>BOND
  1   1   2  2   
  2   2   3  am  
  3   2   4  1   
  4   3   5  1   
  5   3  30  1   
  6   4   6  1   
  7   4   7  2   
  8   5   8  1   
  9   5  31  1   
 10   5  32  1   
 11   6   9  2   
 12   6  10  1   
 13   7  11  1   
 14   7  12  1   
 15   8  13  1   
 16   8  14  2   
 17   9  11  1   
 18  10  15  1   
 19  10  16  1   
 20  12  17  ar  
 21  12  18  ar  
 22  13  19  1   
 23  14  20  1   
 24  15  21  1   
 25  15  33  1   
 26  15  34  1   
 27  16  22  1   
 28  16  35  1   
 29  16  36  1   
 30  17  23  ar  
 31  17  37  1   
 32  18  24  ar  
 33  18  38  1   
 34  19  20  2   
 35  20  25  1   
 36  21  26  1   
 37  21  39  1   
 38  21  40  1   
 39  22  26  1   
 40  22  41  1   
 41  22  42  1   
 42  23  27  ar  
 43  23  43  1   
 44  24  27  ar  
 45  24  44  1   
 46  25  28  1   
 47  25  29  1   
 48  25  45  1   
 49  27  46  1   
 50  28  29  1   
 51  28  47  1   
 52  28  48  1   
 53  29  49  1   
 54  29  50  1   
@<TRIPOS>SUBSTRUCTURE
  1 ****   3 GROUP 4 **** **** 0

# MOE 2024.06 (io_trps.svl 2023.06)
