@<TRIPOS>MOLECULE
NONAME
51 53 1 0 0 
SMALL
USER_CHARGES


@<TRIPOS>ATOM
  1 S       -1.2640    -1.6720    -1.8480 S.3   1 <1>  -0.0800 
  2 C       -1.0230    -1.6640    -0.1050 C.2   1 <1>  -0.1400 
  3 C       -1.7280     0.0190    -1.8350 C.2   1 <1>  -0.1100 
  4 C       -1.2880    -0.4450     0.4030 C.2   1 <1>  -0.1500 
  5 C       -0.5860    -2.9650     0.5300 C.3   1 <1>   0.5230 
  6 C       -1.6900     0.5120    -0.5840 C.2   1 <1>  -0.1500 
  7 N       -1.5880    -4.0120     0.1500 N.4   1 <1>  -0.9590 
  8 C       -2.9330    -3.6860     0.7650 C.3   1 <1>   0.3430 
  9 C       -1.0880    -5.3630     0.5210 C.3   1 <1>   0.3430 
 10 C       -4.1550    -4.4670     0.1970 C.3   1 <1>   0.3430 
 11 C       -1.5800    -6.4410    -0.4480 C.3   1 <1>  -0.1600 
 12 N       -3.9930    -5.9650     0.0570 N.4   1 <1>  -0.9590 
 13 C       -3.0010    -6.3180    -1.0040 C.3   1 <1>   0.3430 
 14 C       -5.3270    -6.5750    -0.2590 C.3   1 <1>   0.3430 
 15 C       -5.3110    -8.0690     0.0600 C.3   1 <1>  -0.1600 
 16 C       -6.6770    -8.7040    -0.2050 C.3   1 <1>   0.1200 
 17 O       -6.5590   -10.0680     0.1040 O.3   1 <1>  -0.3630 
 18 C       -7.6060   -10.9210    -0.0320 C.ar  1 <1>   0.0830 
 19 C       -7.3680   -12.2490     0.3010 C.ar  1 <1>  -0.1500 
 20 C       -8.8700   -10.5290    -0.4790 C.ar  1 <1>  -0.1500 
 21 C       -8.3770   -13.1920     0.1930 C.ar  1 <1>  -0.1500 
 22 C       -9.8840   -11.4660    -0.5910 C.ar  1 <1>  -0.1500 
 23 C       -9.6180   -12.7790    -0.2520 C.ar  1 <1>   0.1900 
 24 F      -10.5760   -13.6630    -0.3570 F     1 <1>  -0.1900 
 25 H       -1.9790     0.4780    -2.7770 H     1 <1>   0.1500 
 26 H       -1.2180    -0.1480     1.4370 H     1 <1>   0.1500 
 27 H       -0.5260    -2.8560     1.6010 H     1 <1>   0.0800 
 28 H        0.3910    -3.2260     0.1530 H     1 <1>   0.0800 
 29 H       -1.9250     1.5270    -0.3090 H     1 <1>   0.1500 
 30 H       -1.6350    -3.9140    -0.8750 H     1 <1>   0.4500 
 31 H       -3.1380    -2.6360     0.6310 H     1 <1>   0.0800 
 32 H       -2.8840    -3.8550     1.8290 H     1 <1>   0.0800 
 33 H       -1.4050    -5.6010     1.5250 H     1 <1>   0.0800 
 34 H       -0.0080    -5.3730     0.5150 H     1 <1>   0.0800 
 35 H       -4.4010    -4.0490    -0.7660 H     1 <1>   0.0800 
 36 H       -4.9950    -4.2640     0.8420 H     1 <1>   0.0800 
 37 H       -1.4820    -7.3970     0.0370 H     1 <1>   0.0800 
 38 H       -0.9040    -6.4720    -1.2860 H     1 <1>   0.0800 
 39 H       -3.7050    -6.3870     0.9520 H     1 <1>   0.4500 
 40 H       -3.2640    -7.2600    -1.4600 H     1 <1>   0.0800 
 41 H       -3.0260    -5.5730    -1.7830 H     1 <1>   0.0800 
 42 H       -5.5740    -6.4210    -1.2980 H     1 <1>   0.0800 
 43 H       -6.0930    -6.1080     0.3400 H     1 <1>   0.0800 
 44 H       -5.0710    -8.2170     1.0990 H     1 <1>   0.0800 
 45 H       -4.5880    -8.5800    -0.5500 H     1 <1>   0.0800 
 46 H       -6.9570    -8.6180    -1.2420 H     1 <1>   0.0800 
 47 H       -7.4390    -8.2810     0.4280 H     1 <1>   0.0800 
 48 H       -6.3920   -12.5400     0.6440 H     1 <1>   0.1500 
 49 H       -9.0860    -9.5130    -0.7440 H     1 <1>   0.1500 
 50 H       -8.2080   -14.2230     0.4470 H     1 <1>   0.1500 
 51 H      -10.8650   -11.1890    -0.9320 H     1 <1>   0.1500 
@<TRIPOS>BOND
  1   1   2  1   
  2   1   3  1   
  3   2   4  2   
  4   2   5  1   
  5   3   6  2   
  6   3  25  1   
  7   4   6  1   
  8   4  26  1   
  9   5   7  1   
 10   5  27  1   
 11   5  28  1   
 12   6  29  1   
 13   7   8  1   
 14   7   9  1   
 15   7  30  1   
 16   8  10  1   
 17   8  31  1   
 18   8  32  1   
 19   9  11  1   
 20   9  33  1   
 21   9  34  1   
 22  10  12  1   
 23  10  35  1   
 24  10  36  1   
 25  11  13  1   
 26  11  37  1   
 27  11  38  1   
 28  12  13  1   
 29  12  14  1   
 30  12  39  1   
 31  13  40  1   
 32  13  41  1   
 33  14  15  1   
 34  14  42  1   
 35  14  43  1   
 36  15  16  1   
 37  15  44  1   
 38  15  45  1   
 39  16  17  1   
 40  16  46  1   
 41  16  47  1   
 42  17  18  1   
 43  18  19  ar  
 44  18  20  ar  
 45  19  21  ar  
 46  19  48  1   
 47  20  22  ar  
 48  20  49  1   
 49  21  23  ar  
 50  21  50  1   
 51  22  23  ar  
 52  22  51  1   
 53  23  24  1   
@<TRIPOS>SUBSTRUCTURE
  1 ****  14 GROUP 4 **** **** 0

# MOE 2024.06 (io_trps.svl 2023.06)
