@<TRIPOS>MOLECULE
NONAME
63 67 1 0 0 
SMALL
USER_CHARGES


@<TRIPOS>ATOM
  1 O       -0.8220     4.3530     1.8140 O.2   1 <1>  -0.5700 
  2 C       -0.7370     4.1600     0.6150 C.2   1 <1>   0.5440 
  3 N       -1.8890     3.9760    -0.1180 N.am  1 <1>  -0.6600 
  4 C        0.5880     4.1150     0.0240 C.ar  1 <1>   0.0860 
  5 C       -3.2320     4.1930     0.5260 C.3   1 <1>   0.1400 
  6 C       -1.8920     3.4210    -1.5060 C.3   1 <1>   0.1400 
  7 C        1.5880     3.3600     0.6340 C.ar  1 <1>  -0.1500 
  8 C        0.9300     4.8270    -1.1240 C.ar  1 <1>  -0.1500 
  9 C       -4.3110     4.5750    -0.5060 C.3   1 <1>   0.1440 
 10 C       -3.1720     2.6250    -1.7770 C.3   1 <1>  -0.1600 
 11 C        2.8800     3.3160     0.1340 C.ar  1 <1>  -0.1440 
 12 C        2.2090     4.7740    -1.6470 C.ar  1 <1>  -0.1500 
 13 C       -5.6110     4.8460     0.2370 C.ar  1 <1>   0.1660 
 14 C       -4.4550     3.4560    -1.5740 C.3   1 <1>  -0.1600 
 15 C       -4.0030     5.9650    -1.1360 C.3   1 <1>  -0.1600 
 16 C        3.1850     4.0200    -1.0210 C.ar  1 <1>  -0.1500 
 17 C        3.9460     2.5200     0.8630 C.3   1 <1>   0.4860 
 18 N       -6.3970     3.9350     0.7610 N.ar  1 <1>  -0.6200 
 19 C       -5.8750     6.1780     0.3210 C.ar  1 <1>  -0.1440 
 20 C       -4.8060     7.0090    -0.3410 C.3   1 <1>  -0.0170 
 21 N        4.2260     3.1920     2.1660 N.4   1 <1>  -0.9590 
 22 C       -7.4940     4.3890     1.3820 C.ar  1 <1>   0.6200 
 23 C       -7.0160     6.5660     0.9720 C.ar  1 <1>   0.1600 
 24 C        4.8170     4.5540     1.9700 C.3   1 <1>   0.2630 
 25 C        5.0840     2.3480     3.0500 C.3   1 <1>   0.2630 
 26 N       -7.8300     5.6820     1.5030 N.ar  1 <1>  -0.6200 
 27 C       -8.3910     3.4020     1.9700 C.ar  1 <1>   0.0000 
 28 C       -8.4820     2.1010     1.4660 C.ar  1 <1>  -0.1500 
 29 C       -9.2030     3.7090     3.0660 C.ar  1 <1>  -0.1500 
 30 C       -9.3330     1.1620     2.0200 C.ar  1 <1>  -0.1500 
 31 C      -10.0570     2.7750     3.6260 C.ar  1 <1>  -0.1500 
 32 C      -10.1240     1.4970     3.1030 C.ar  1 <1>  -0.1500 
 33 H       -3.1580     4.9690     1.2690 H     1 <1>   0.0800 
 34 H       -3.5270     3.2880     1.0290 H     1 <1>   0.0800 
 35 H       -1.0410     2.7760    -1.6430 H     1 <1>   0.0800 
 36 H       -1.8210     4.2310    -2.2110 H     1 <1>   0.0800 
 37 H        1.3200     2.8120     1.5220 H     1 <1>   0.1500 
 38 H        0.1830     5.4340    -1.6060 H     1 <1>   0.1500 
 39 H       -3.1860     1.7820    -1.1070 H     1 <1>   0.0800 
 40 H       -3.1510     2.2350    -2.7790 H     1 <1>   0.0800 
 41 H        2.4460     5.3270    -2.5420 H     1 <1>   0.1500 
 42 H       -4.7680     3.8760    -2.5120 H     1 <1>   0.0800 
 43 H       -5.2310     2.7730    -1.2760 H     1 <1>   0.0800 
 44 H       -4.3480     5.9950    -2.1530 H     1 <1>   0.0800 
 45 H       -2.9540     6.2020    -1.1320 H     1 <1>   0.0800 
 46 H        4.1760     3.9960    -1.4430 H     1 <1>   0.1500 
 47 H        4.8430     2.4680     0.2680 H     1 <1>   0.0800 
 48 H        3.5870     1.5180     1.0310 H     1 <1>   0.0800 
 49 H       -5.2260     7.7620    -0.9850 H     1 <1>   0.0800 
 50 H       -4.1900     7.4700     0.4110 H     1 <1>   0.0800 
 51 H        3.3070     3.3240     2.6180 H     1 <1>   0.4500 
 52 H       -7.2650     7.6100     1.0620 H     1 <1>   0.1500 
 53 H        5.7660     4.4850     1.4650 H     1 <1>   0.0800 
 54 H        4.9660     5.0370     2.9220 H     1 <1>   0.0800 
 55 H        4.1550     5.1670     1.3790 H     1 <1>   0.0800 
 56 H        6.0500     2.1900     2.5970 H     1 <1>   0.0800 
 57 H        4.6210     1.3890     3.2200 H     1 <1>   0.0800 
 58 H        5.2270     2.8310     4.0030 H     1 <1>   0.0800 
 59 H       -7.8760     1.8200     0.6220 H     1 <1>   0.1500 
 60 H       -9.1640     4.6980     3.4880 H     1 <1>   0.1500 
 61 H       -9.3790     0.1690     1.6080 H     1 <1>   0.1500 
 62 H      -10.6690     3.0440     4.4690 H     1 <1>   0.1500 
 63 H      -10.7870     0.7690     3.5370 H     1 <1>   0.1500 
@<TRIPOS>BOND
  1   1   2  2   
  2   2   3  am  
  3   2   4  1   
  4   3   5  1   
  5   3   6  1   
  6   4   7  ar  
  7   4   8  ar  
  8   5   9  1   
  9   5  33  1   
 10   5  34  1   
 11   6  10  1   
 12   6  35  1   
 13   6  36  1   
 14   7  11  ar  
 15   7  37  1   
 16   8  12  ar  
 17   8  38  1   
 18   9  13  1   
 19   9  14  1   
 20   9  15  1   
 21  10  14  1   
 22  10  39  1   
 23  10  40  1   
 24  11  16  ar  
 25  11  17  1   
 26  12  16  ar  
 27  12  41  1   
 28  13  18  ar  
 29  13  19  ar  
 30  14  42  1   
 31  14  43  1   
 32  15  20  1   
 33  15  44  1   
 34  15  45  1   
 35  16  46  1   
 36  17  21  1   
 37  17  47  1   
 38  17  48  1   
 39  18  22  ar  
 40  19  20  1   
 41  19  23  ar  
 42  20  49  1   
 43  20  50  1   
 44  21  24  1   
 45  21  25  1   
 46  21  51  1   
 47  22  26  ar  
 48  22  27  1   
 49  23  26  ar  
 50  23  52  1   
 51  24  53  1   
 52  24  54  1   
 53  24  55  1   
 54  25  56  1   
 55  25  57  1   
 56  25  58  1   
 57  27  28  ar  
 58  27  29  ar  
 59  28  30  ar  
 60  28  59  1   
 61  29  31  ar  
 62  29  60  1   
 63  30  32  ar  
 64  30  61  1   
 65  31  32  ar  
 66  31  62  1   
 67  32  63  1   
@<TRIPOS>SUBSTRUCTURE
  1 ****   5 GROUP 4 **** **** 0

# MOE 2024.06 (io_trps.svl 2023.06)
