@<TRIPOS>MOLECULE
NONAME
41 43 1 0 0 
SMALL
USER_CHARGES


@<TRIPOS>ATOM
  1 O       -7.0950    -1.9780    -0.2490 O.3   1 <1>  -0.2800 
  2 C       -5.9900    -1.5360     0.3000 C.2   1 <1>   0.2980 
  3 C       -7.9520    -0.9990    -0.1460 C.2   1 <1>  -0.0400 
  4 N       -6.0590    -0.3390     0.7580 N.2   1 <1>  -0.5650 
  5 C       -4.7730    -2.4390     0.3480 C.3   1 <1>   0.1000 
  6 C       -7.3310     0.0180     0.4710 C.2   1 <1>   0.0770 
  7 C       -9.3610    -1.1630    -0.6860 C.3   1 <1>   0.1640 
  8 C       -3.6910    -1.7560     1.1990 C.3   1 <1>   0.3430 
  9 C       -4.2480    -2.7410    -1.0680 C.3   1 <1>  -0.1600 
 10 C      -10.1910     0.0870    -0.4320 C.ar  1 <1>  -0.1440 
 11 N       -2.4010    -2.5230     1.1960 N.4   1 <1>  -0.9060 
 12 C       -2.9040    -3.4870    -1.0200 C.3   1 <1>  -0.1600 
 13 C      -10.9050     0.2270     0.7500 C.ar  1 <1>  -0.1500 
 14 C      -10.2340     1.1040    -1.3750 C.ar  1 <1>  -0.1500 
 15 C       -1.8650    -2.7440    -0.1760 C.3   1 <1>   0.3430 
 16 C      -11.6540     1.3660     0.9880 C.ar  1 <1>  -0.1500 
 17 C      -10.9820     2.2430    -1.1380 C.ar  1 <1>  -0.1500 
 18 C      -11.6970     2.3840     0.0400 C.ar  1 <1>   0.0830 
 19 O      -12.4050     3.5310     0.1920 O.3   1 <1>  -0.3630 
 20 C      -13.1620     3.7740     1.3560 C.3   1 <1>   0.0400 
 21 H       -5.0660    -3.3550     0.8290 H     1 <1>   0.0800 
 22 H       -7.7240     0.9890     0.7270 H     1 <1>   0.1500 
 23 H       -9.8250    -2.0100    -0.2120 H     1 <1>   0.0800 
 24 H       -9.3140    -1.3630    -1.7410 H     1 <1>   0.0800 
 25 H       -4.0560    -1.6410     2.2080 H     1 <1>   0.0800 
 26 H       -3.5210    -0.7670     0.8010 H     1 <1>   0.0800 
 27 H       -4.1230    -1.8140    -1.6040 H     1 <1>   0.0800 
 28 H       -4.9740    -3.3290    -1.6050 H     1 <1>   0.0800 
 29 H       -2.5430    -3.4330     1.6520 H     1 <1>   0.4500 
 30 H       -1.7050    -2.0160     1.7590 H     1 <1>   0.4500 
 31 H       -2.5260    -3.5950    -2.0230 H     1 <1>   0.0800 
 32 H       -3.0460    -4.4800    -0.6270 H     1 <1>   0.0800 
 33 H      -10.8780    -0.5510     1.4930 H     1 <1>   0.1500 
 34 H       -9.6840     1.0170    -2.2960 H     1 <1>   0.1500 
 35 H       -0.9530    -3.3180    -0.1320 H     1 <1>   0.0800 
 36 H       -1.6440    -1.7940    -0.6380 H     1 <1>   0.0800 
 37 H      -12.1950     1.4430     1.9120 H     1 <1>   0.1500 
 38 H      -11.0180     3.0320    -1.8670 H     1 <1>   0.1500 
 39 H      -13.6330     4.7350     1.2530 H     1 <1>   0.0800 
 40 H      -12.5040     3.7790     2.2070 H     1 <1>   0.0800 
 41 H      -13.9120     3.0090     1.4510 H     1 <1>   0.0800 
@<TRIPOS>BOND
  1   1   2  1   
  2   1   3  1   
  3   2   4  2   
  4   2   5  1   
  5   3   6  2   
  6   3   7  1   
  7   4   6  1   
  8   5   8  1   
  9   5   9  1   
 10   5  21  1   
 11   6  22  1   
 12   7  10  1   
 13   7  23  1   
 14   7  24  1   
 15   8  11  1   
 16   8  25  1   
 17   8  26  1   
 18   9  12  1   
 19   9  27  1   
 20   9  28  1   
 21  10  13  ar  
 22  10  14  ar  
 23  11  15  1   
 24  11  29  1   
 25  11  30  1   
 26  12  15  1   
 27  12  31  1   
 28  12  32  1   
 29  13  16  ar  
 30  13  33  1   
 31  14  17  ar  
 32  14  34  1   
 33  15  35  1   
 34  15  36  1   
 35  16  18  ar  
 36  16  37  1   
 37  17  18  ar  
 38  17  38  1   
 39  18  19  1   
 40  19  20  1   
 41  20  39  1   
 42  20  40  1   
 43  20  41  1   
@<TRIPOS>SUBSTRUCTURE
  1 ****   6 GROUP 4 **** **** 0

# MOE 2024.06 (io_trps.svl 2023.06)
