@<TRIPOS>MOLECULE
NONAME
44 46 1 0 0 
SMALL
USER_CHARGES


@<TRIPOS>ATOM
  1 CL       1.2390    -3.6730    -2.2180 Cl    1 <1>  -0.1240 
  2 C       -0.0030    -3.3440    -1.0420 C.2   1 <1>   0.1640 
  3 S       -1.2400    -4.5650    -0.8460 S.3   1 <1>  -0.0800 
  4 C       -0.2000    -2.2940    -0.2280 C.2   1 <1>  -0.1500 
  5 C       -2.0480    -3.5990     0.3950 C.2   1 <1>  -0.0220 
  6 C       -1.3690    -2.4450     0.5860 C.2   1 <1>  -0.1500 
  7 S       -3.5620    -4.2630     1.1280 S.o2  1 <1>   1.5000 
  8 O       -3.4330    -5.6870     1.3650 O.2   1 <1>  -0.6500 
  9 O       -3.9840    -3.4080     2.2130 O.2   1 <1>  -0.6500 
 10 N       -4.7010    -4.1090    -0.1320 N.am  1 <1>  -0.8490 
 11 C       -4.9210    -5.3360    -0.9130 C.3   1 <1>   0.1960 
 12 C       -5.9610    -3.4400     0.2250 C.3   1 <1>   0.1960 
 13 C       -5.8460    -6.3470    -0.1720 C.3   1 <1>   0.4230 
 14 C       -6.8820    -4.3930     1.0030 C.3   1 <1>  -0.1600 
 15 N       -5.9800    -7.7000    -0.8590 N.4   1 <1>  -0.9590 
 16 C       -7.2020    -5.7040     0.2310 C.3   1 <1>   0.0000 
 17 C       -7.1520    -8.5090    -0.3860 C.3   1 <1>   0.3430 
 18 C       -5.9430    -7.6780    -2.3590 C.3   1 <1>   0.2630 
 19 C       -7.9670    -6.6720     1.1810 C.3   1 <1>  -0.1600 
 20 C       -8.0530    -5.4000    -1.0350 C.3   1 <1>   0.1200 
 21 C       -7.5280    -8.1440     1.0490 C.3   1 <1>  -0.1600 
 22 O       -9.1550    -4.6180    -0.7350 O.3   1 <1>  -0.6800 
 23 H        0.4280    -1.4220    -0.1690 H     1 <1>   0.1500 
 24 H       -1.6540    -1.6760     1.2850 H     1 <1>   0.1500 
 25 H       -5.3560    -5.0560    -1.8550 H     1 <1>   0.0800 
 26 H       -3.9710    -5.8000    -1.1170 H     1 <1>   0.0800 
 27 H       -5.7640    -2.5540     0.8090 H     1 <1>   0.0800 
 28 H       -6.4570    -3.1120    -0.6730 H     1 <1>   0.0800 
 29 H       -5.3580    -6.5510     0.7650 H     1 <1>   0.0800 
 30 H       -6.4080    -4.6200     1.9430 H     1 <1>   0.0800 
 31 H       -7.7880    -3.8660     1.2470 H     1 <1>   0.0800 
 32 H       -5.1440    -8.2190    -0.5470 H     1 <1>   0.4500 
 33 H       -8.0040    -8.3230    -1.0200 H     1 <1>   0.0800 
 34 H       -6.9180    -9.5610    -0.4460 H     1 <1>   0.0800 
 35 H       -6.7740    -7.1140    -2.7500 H     1 <1>   0.0800 
 36 H       -5.9990    -8.6830    -2.7470 H     1 <1>   0.0800 
 37 H       -5.0260    -7.2340    -2.7100 H     1 <1>   0.0800 
 38 H       -7.8230    -6.3870     2.2100 H     1 <1>   0.0800 
 39 H       -9.0260    -6.6060     1.0010 H     1 <1>   0.0800 
 40 H       -8.4160    -6.3020    -1.4940 H     1 <1>   0.0800 
 41 H       -7.4890    -4.8520    -1.7680 H     1 <1>   0.0800 
 42 H       -8.3310    -8.7810     1.3780 H     1 <1>   0.0800 
 43 H       -6.6880    -8.3400     1.6940 H     1 <1>   0.0800 
 44 H       -9.7690    -5.0620    -0.1170 H     1 <1>   0.4000 
@<TRIPOS>BOND
  1   1   2  1   
  2   2   3  1   
  3   2   4  2   
  4   3   5  1   
  5   4   6  1   
  6   4  23  1   
  7   5   6  2   
  8   5   7  1   
  9   6  24  1   
 10   7   8  2   
 11   7   9  2   
 12   7  10  am  
 13  10  11  1   
 14  10  12  1   
 15  11  13  1   
 16  11  25  1   
 17  11  26  1   
 18  12  14  1   
 19  12  27  1   
 20  12  28  1   
 21  13  15  1   
 22  13  16  1   
 23  13  29  1   
 24  14  16  1   
 25  14  30  1   
 26  14  31  1   
 27  15  17  1   
 28  15  18  1   
 29  15  32  1   
 30  16  19  1   
 31  16  20  1   
 32  17  21  1   
 33  17  33  1   
 34  17  34  1   
 35  18  35  1   
 36  18  36  1   
 37  18  37  1   
 38  19  21  1   
 39  19  38  1   
 40  19  39  1   
 41  20  22  1   
 42  20  40  1   
 43  20  41  1   
 44  21  42  1   
 45  21  43  1   
 46  22  44  1   
@<TRIPOS>SUBSTRUCTURE
  1 ****  11 GROUP 4 **** **** 0

# MOE 2024.06 (io_trps.svl 2023.06)
