@<TRIPOS>MOLECULE
NONAME
45 47 1 0 0 
SMALL
USER_CHARGES


@<TRIPOS>ATOM
  1 O        0.5780    -1.2580     0.9880 O.3   1 <1>  -0.5600 
  2 C       -0.2420    -2.3750     1.1160 C.3   1 <1>   0.1200 
  3 C        0.7100    -0.7250    -0.2850 C.3   1 <1>   0.1200 
  4 C        0.4860    -3.6460     0.6360 C.3   1 <1>   0.4230 
  5 C        1.6400    -1.6060    -1.1290 C.3   1 <1>  -0.0800 
  6 N        0.4020    -3.8690    -0.8740 N.4   1 <1>  -0.9590 
  7 C        1.9460    -3.6510     1.1880 C.3   1 <1>   0.3430 
  8 C        0.8970    -2.7800    -1.7870 C.3   1 <1>   0.3430 
  9 C        2.9520    -1.9290    -0.3850 C.3   1 <1>   0.3430 
 10 C       -0.9740    -4.2930    -1.2800 C.3   1 <1>   0.5240 
 11 N        3.0520    -3.3110     0.2020 N.4   1 <1>  -0.9590 
 12 C       -1.2560    -5.5810    -0.5500 C.2   1 <1>  -0.1810 
 13 C        4.3760    -3.4280     0.9030 C.3   1 <1>   0.2630 
 14 C       -2.1470    -5.7620     0.5040 C.2   1 <1>   0.1080 
 15 C       -0.6940    -6.7970    -0.7400 C.2   1 <1>  -0.3020 
 16 N       -2.1060    -6.9700     0.9540 N.2   1 <1>  -0.7070 
 17 C       -3.0890    -4.7470     1.1200 C.3   1 <1>  -0.0590 
 18 N       -1.2340    -7.6250     0.1770 N.pl3 1 <1>   0.3140 
 19 C       -0.9850    -9.0630     0.3530 C.3   1 <1>   0.0160 
 20 H       -0.4560    -2.4720     2.1680 H     1 <1>   0.0800 
 21 H       -1.1740    -2.2060     0.6060 H     1 <1>   0.0800 
 22 H       -0.2650    -0.6010    -0.7290 H     1 <1>   0.0800 
 23 H        1.1440     0.2550    -0.1640 H     1 <1>   0.0800 
 24 H       -0.0150    -4.4660     1.1230 H     1 <1>   0.0800 
 25 H        1.9300    -0.9690    -1.9480 H     1 <1>   0.0800 
 26 H        0.9360    -4.7260    -1.0640 H     1 <1>   0.4500 
 27 H        2.1350    -4.6310     1.5930 H     1 <1>   0.0800 
 28 H        1.9900    -2.9650     2.0200 H     1 <1>   0.0800 
 29 H        1.5410    -3.2190    -2.5330 H     1 <1>   0.0800 
 30 H        0.0550    -2.3650    -2.3200 H     1 <1>   0.0800 
 31 H        3.0820    -1.2000     0.4000 H     1 <1>   0.0800 
 32 H        3.7700    -1.7940    -1.0750 H     1 <1>   0.0800 
 33 H       -1.7040    -3.5420    -1.0260 H     1 <1>   0.0800 
 34 H       -1.0180    -4.4720    -2.3430 H     1 <1>   0.0800 
 35 H        3.0650    -3.9980    -0.5610 H     1 <1>   0.4500 
 36 H        4.4360    -2.7220     1.7160 H     1 <1>   0.0800 
 37 H        5.1850    -3.2290     0.2180 H     1 <1>   0.0800 
 38 H        4.5070    -4.4220     1.3020 H     1 <1>   0.0800 
 39 H        0.0330    -7.1400    -1.4550 H     1 <1>   0.1500 
 40 H       -3.2580    -3.9130     0.4670 H     1 <1>   0.0800 
 41 H       -2.6970    -4.4040     2.0590 H     1 <1>   0.0800 
 42 H       -4.0360    -5.2220     1.3090 H     1 <1>   0.0800 
 43 H       -0.1500    -9.3670    -0.2490 H     1 <1>   0.0800 
 44 H       -1.8640    -9.6050     0.0560 H     1 <1>   0.0800 
 45 H       -0.7810    -9.2590     1.3890 H     1 <1>   0.0800 
@<TRIPOS>BOND
  1   1   2  1   
  2   1   3  1   
  3   2   4  1   
  4   2  20  1   
  5   2  21  1   
  6   3   5  1   
  7   3  22  1   
  8   3  23  1   
  9   4   6  1   
 10   4   7  1   
 11   4  24  1   
 12   5   8  1   
 13   5   9  1   
 14   5  25  1   
 15   6   8  1   
 16   6  10  1   
 17   6  26  1   
 18   7  11  1   
 19   7  27  1   
 20   7  28  1   
 21   8  29  1   
 22   8  30  1   
 23   9  11  1   
 24   9  31  1   
 25   9  32  1   
 26  10  12  1   
 27  10  33  1   
 28  10  34  1   
 29  11  13  1   
 30  11  35  1   
 31  12  14  1   
 32  12  15  2   
 33  13  36  1   
 34  13  37  1   
 35  13  38  1   
 36  14  16  2   
 37  14  17  1   
 38  15  18  1   
 39  15  39  1   
 40  16  18  1   
 41  17  40  1   
 42  17  41  1   
 43  17  42  1   
 44  18  19  1   
 45  19  43  1   
 46  19  44  1   
 47  19  45  1   
@<TRIPOS>SUBSTRUCTURE
  1 ****   4 GROUP 4 **** **** 0

# MOE 2024.06 (io_trps.svl 2023.06)
