@<TRIPOS>MOLECULE
NONAME
54 57 1 0 0 
SMALL
USER_CHARGES


@<TRIPOS>ATOM
  1 CL      -1.9720    -0.9150     1.4980 Cl    1 <1>  -0.1770 
  2 C       -2.3280    -2.4160     0.6830 C.ar  1 <1>   0.1770 
  3 C       -2.7680    -2.3920    -0.6260 C.ar  1 <1>  -0.1500 
  4 C       -2.1650    -3.6110     1.3560 C.ar  1 <1>  -0.1500 
  5 C       -3.0500    -3.5860    -1.2670 C.ar  1 <1>  -0.1500 
  6 C       -2.4500    -4.7980     0.7040 C.ar  1 <1>  -0.1500 
  7 C       -2.8980    -4.8140    -0.6190 C.ar  1 <1>   0.0530 
  8 C       -3.1960    -6.0580    -1.2950 C.2   1 <1>   0.0870 
  9 O       -3.1890    -7.2020    -0.6230 O.3   1 <1>  -0.2800 
 10 C       -3.5140    -6.3240    -2.5910 C.2   1 <1>  -0.1500 
 11 C       -3.4980    -8.1850    -1.4440 C.2   1 <1>  -0.0400 
 12 C       -3.7080    -7.7030    -2.6870 C.2   1 <1>  -0.1500 
 13 C       -3.5580    -9.6090    -0.9150 C.3   1 <1>   0.2900 
 14 N       -4.8870    -9.9430    -0.3550 N.3   1 <1>  -0.8100 
 15 C       -4.9990   -11.3650     0.0030 C.3   1 <1>   0.1100 
 16 C       -5.2980    -9.0450     0.7440 C.3   1 <1>   0.1100 
 17 C       -6.2710   -11.5800     0.8570 C.3   1 <1>   0.4230 
 18 C       -6.6760    -9.4490     1.3340 C.3   1 <1>  -0.1600 
 19 N       -6.6570   -13.0090     1.1560 N.4   1 <1>  -0.9590 
 20 C       -7.4480   -10.5650     0.4550 C.3   1 <1>   0.0000 
 21 C       -6.9000   -13.8080    -0.0550 C.3   1 <1>   0.3430 
 22 C       -5.7030   -13.6890     2.0820 C.3   1 <1>   0.2630 
 23 C       -8.2080   -11.6310    -0.4910 C.3   1 <1>  -0.1600 
 24 C       -8.6180    -9.5120     0.1560 C.3   1 <1>   0.1200 
 25 C       -7.5710   -12.9150    -1.0760 C.3   1 <1>  -0.1600 
 26 O       -9.4270    -9.4370     1.2910 O.3   1 <1>  -0.6800 
 27 H       -2.8880    -1.4500    -1.1300 H     1 <1>   0.1500 
 28 H       -1.8210    -3.6080     2.3750 H     1 <1>   0.1500 
 29 H       -3.3940    -3.5620    -2.2850 H     1 <1>   0.1500 
 30 H       -2.3220    -5.7290     1.2270 H     1 <1>   0.1500 
 31 H       -3.6060    -5.6340    -3.4100 H     1 <1>   0.1500 
 32 H       -3.9730    -8.2390    -3.5800 H     1 <1>   0.1500 
 33 H       -2.7930    -9.7400    -0.1680 H     1 <1>   0.0800 
 34 H       -3.3490   -10.2770    -1.7320 H     1 <1>   0.0800 
 35 H       -5.0260   -11.9390    -0.9030 H     1 <1>   0.0800 
 36 H       -4.1380   -11.6590     0.5780 H     1 <1>   0.0800 
 37 H       -4.5490    -9.0330     1.5180 H     1 <1>   0.0800 
 38 H       -5.3820    -8.0420     0.3550 H     1 <1>   0.0800 
 39 H       -5.9080   -11.2930     1.8240 H     1 <1>   0.0800 
 40 H       -6.5630    -9.7530     2.3630 H     1 <1>   0.0800 
 41 H       -7.1480    -8.4960     1.5160 H     1 <1>   0.0800 
 42 H       -7.5690   -12.9220     1.6300 H     1 <1>   0.4500 
 43 H       -5.9730   -14.1840    -0.4570 H     1 <1>   0.0800 
 44 H       -7.5390   -14.6440     0.1820 H     1 <1>   0.0800 
 45 H       -4.7360   -13.7890     1.6180 H     1 <1>   0.0800 
 46 H       -6.0660   -14.6720     2.3370 H     1 <1>   0.0800 
 47 H       -5.5940   -13.1200     2.9910 H     1 <1>   0.0800 
 48 H       -9.1210   -11.9300     0.0030 H     1 <1>   0.0800 
 49 H       -8.4800   -11.1770    -1.4310 H     1 <1>   0.0800 
 50 H       -9.3190    -9.6880    -0.6410 H     1 <1>   0.0800 
 51 H       -8.2530    -8.5270    -0.0920 H     1 <1>   0.0800 
 52 H       -6.8520   -12.6440    -1.8290 H     1 <1>   0.0800 
 53 H       -8.3260   -13.4890    -1.5870 H     1 <1>   0.0800 
 54 H      -10.1240    -8.7580     1.1770 H     1 <1>   0.4000 
@<TRIPOS>BOND
  1   1   2  1   
  2   2   3  ar  
  3   2   4  ar  
  4   3   5  ar  
  5   3  27  1   
  6   4   6  ar  
  7   4  28  1   
  8   5   7  ar  
  9   5  29  1   
 10   6   7  ar  
 11   6  30  1   
 12   7   8  1   
 13   8   9  1   
 14   8  10  2   
 15   9  11  1   
 16  10  12  1   
 17  10  31  1   
 18  11  12  2   
 19  11  13  1   
 20  12  32  1   
 21  13  14  1   
 22  13  33  1   
 23  13  34  1   
 24  14  15  1   
 25  14  16  1   
 26  15  17  1   
 27  15  35  1   
 28  15  36  1   
 29  16  18  1   
 30  16  37  1   
 31  16  38  1   
 32  17  19  1   
 33  17  20  1   
 34  17  39  1   
 35  18  20  1   
 36  18  40  1   
 37  18  41  1   
 38  19  21  1   
 39  19  22  1   
 40  19  42  1   
 41  20  23  1   
 42  20  24  1   
 43  21  25  1   
 44  21  43  1   
 45  21  44  1   
 46  22  45  1   
 47  22  46  1   
 48  22  47  1   
 49  23  25  1   
 50  23  48  1   
 51  23  49  1   
 52  24  26  1   
 53  24  50  1   
 54  24  51  1   
 55  25  52  1   
 56  25  53  1   
 57  26  54  1   
@<TRIPOS>SUBSTRUCTURE
  1 ****  16 GROUP 4 **** **** 0

# MOE 2024.06 (io_trps.svl 2023.06)
