@<TRIPOS>MOLECULE
NONAME
59 61 1 0 0 
SMALL
USER_CHARGES


@<TRIPOS>ATOM
  1 O        0.7030    -0.3350     0.5440 O.3   1 <1>  -0.3630 
  2 C        0.4940    -1.6630     0.6790 C.ar  1 <1>   0.0820 
  3 C        0.4600     0.2440    -0.7190 C.3   1 <1>   0.2000 
  4 C        1.4580    -2.5950     0.3020 C.ar  1 <1>  -0.1440 
  5 C       -0.7030    -2.0820     1.2370 C.ar  1 <1>  -0.1500 
  6 C        1.3050     1.5120    -0.8080 C.3   1 <1>  -0.2400 
  7 C       -1.0310     0.5610    -0.8470 C.3   1 <1>  -0.2400 
  8 C        1.1830    -3.9440     0.4630 C.ar  1 <1>  -0.1500 
  9 C        2.8150    -2.1890    -0.2630 C.3   1 <1>   0.1220 
 10 C       -0.9660    -3.4290     1.3910 C.ar  1 <1>  -0.1500 
 11 C       -0.0260    -4.3690     0.9950 C.ar  1 <1>  -0.1430 
 12 C        2.9470    -2.6580    -1.7030 C.2   1 <1>  -0.2880 
 13 C       -0.3220    -5.8480     1.1390 C.3   1 <1>   0.4860 
 14 C        3.8690    -3.5140    -2.1560 C.2   1 <1>  -0.3000 
 15 N       -0.5420    -6.4220    -0.2170 N.4   1 <1>  -0.9590 
 16 C       -1.7870    -5.8670    -0.8360 C.3   1 <1>   0.3430 
 17 C       -0.7320    -7.9020    -0.1280 C.3   1 <1>   0.3430 
 18 C       -2.8940    -6.8700    -0.5030 C.3   1 <1>   0.2000 
 19 C       -2.1610    -8.2090    -0.5970 C.3   1 <1>  -0.0800 
 20 O       -3.3140    -6.6440     0.8060 O.3   1 <1>  -0.6800 
 21 C       -2.7950    -9.3860     0.1690 C.3   1 <1>   0.0210 
 22 C       -1.9970   -10.6610    -0.0310 C.2   1 <1>   0.1080 
 23 N       -0.7510   -10.7760     0.3170 N.2   1 <1>  -0.7070 
 24 C       -2.4970   -11.8290    -0.5930 C.2   1 <1>  -0.1500 
 25 N       -0.4250   -12.0460    -0.0080 N.pl3 1 <1>   0.3000 
 26 C       -1.4660   -12.6980    -0.5650 C.2   1 <1>  -0.3320 
 27 C       -1.4120   -14.1390    -1.0400 C.3   1 <1>  -0.0600 
 28 H        0.7630    -0.4530    -1.4830 H     1 <1>   0.0800 
 29 H       -1.4200    -1.3430     1.5490 H     1 <1>   0.1500 
 30 H        1.0260     2.2020    -0.0320 H     1 <1>   0.0800 
 31 H        1.1570     1.9870    -1.7610 H     1 <1>   0.0800 
 32 H        2.3470     1.2690    -0.7090 H     1 <1>   0.0800 
 33 H       -1.3470     1.1990    -0.0410 H     1 <1>   0.0800 
 34 H       -1.6090    -0.3440    -0.8380 H     1 <1>   0.0800 
 35 H       -1.2190     1.0660    -1.7770 H     1 <1>   0.0800 
 36 H        1.9320    -4.6610     0.1700 H     1 <1>   0.1500 
 37 H        2.9550    -1.1250    -0.2190 H     1 <1>   0.0800 
 38 H        3.5900    -2.6330     0.3390 H     1 <1>   0.0800 
 39 H       -1.9060    -3.7340     1.8230 H     1 <1>   0.1500 
 40 H        2.2040    -2.2180    -2.3460 H     1 <1>   0.1500 
 41 H       -1.1980    -5.9920     1.7520 H     1 <1>   0.0800 
 42 H        0.5130    -6.3340     1.6170 H     1 <1>   0.0800 
 43 H        3.9440    -3.8270    -3.1840 H     1 <1>   0.1500 
 44 H        4.6300    -3.9700    -1.5450 H     1 <1>   0.1500 
 45 H        0.2740    -6.1760    -0.7910 H     1 <1>   0.4500 
 46 H       -2.0270    -4.8820    -0.4720 H     1 <1>   0.0800 
 47 H       -1.6640    -5.8250    -1.9050 H     1 <1>   0.0800 
 48 H       -0.0200    -8.4300    -0.7410 H     1 <1>   0.0800 
 49 H       -0.6120    -8.2350     0.8910 H     1 <1>   0.0800 
 50 H       -3.7410    -6.7870    -1.1640 H     1 <1>   0.0800 
 51 H       -2.0990    -8.4850    -1.6350 H     1 <1>   0.0800 
 52 H       -4.1570    -7.1100     0.9950 H     1 <1>   0.4000 
 53 H       -3.8020    -9.5450    -0.1740 H     1 <1>   0.0800 
 54 H       -2.8290    -9.1800     1.2240 H     1 <1>   0.0800 
 55 H       -3.4960   -11.9890    -0.9610 H     1 <1>   0.1500 
 56 H        0.5070   -12.4420     0.1660 H     1 <1>   0.2700 
 57 H       -2.3650   -14.4330    -1.4430 H     1 <1>   0.0800 
 58 H       -1.1730   -14.7930    -0.2190 H     1 <1>   0.0800 
 59 H       -0.6670   -14.2530    -1.8070 H     1 <1>   0.0800 
@<TRIPOS>BOND
  1   1   2  1   
  2   1   3  1   
  3   2   4  ar  
  4   2   5  ar  
  5   3   6  1   
  6   3   7  1   
  7   3  28  1   
  8   4   8  ar  
  9   4   9  1   
 10   5  10  ar  
 11   5  29  1   
 12   6  30  1   
 13   6  31  1   
 14   6  32  1   
 15   7  33  1   
 16   7  34  1   
 17   7  35  1   
 18   8  11  ar  
 19   8  36  1   
 20   9  12  1   
 21   9  37  1   
 22   9  38  1   
 23  10  11  ar  
 24  10  39  1   
 25  11  13  1   
 26  12  14  2   
 27  12  40  1   
 28  13  15  1   
 29  13  41  1   
 30  13  42  1   
 31  14  43  1   
 32  14  44  1   
 33  15  16  1   
 34  15  17  1   
 35  15  45  1   
 36  16  18  1   
 37  16  46  1   
 38  16  47  1   
 39  17  19  1   
 40  17  48  1   
 41  17  49  1   
 42  18  19  1   
 43  18  20  1   
 44  18  50  1   
 45  19  21  1   
 46  19  51  1   
 47  20  52  1   
 48  21  22  1   
 49  21  53  1   
 50  21  54  1   
 51  22  23  2   
 52  22  24  1   
 53  23  25  1   
 54  24  26  2   
 55  24  55  1   
 56  25  26  1   
 57  25  56  1   
 58  26  27  1   
 59  27  57  1   
 60  27  58  1   
 61  27  59  1   
@<TRIPOS>SUBSTRUCTURE
  1 ****  15 GROUP 4 **** **** 0

# MOE 2024.06 (io_trps.svl 2023.06)
