@<TRIPOS>MOLECULE
NONAME
57 60 1 0 0 
SMALL
USER_CHARGES


@<TRIPOS>ATOM
  1 O       -0.8160    -1.0220     1.2180 O.3   1 <1>  -0.5600 
  2 C       -1.8550    -1.7400     0.6180 C.3   1 <1>   0.1200 
  3 C        0.4530    -1.5550     0.9850 C.3   1 <1>   0.1200 
  4 C       -1.8940    -3.1810     1.1540 C.3   1 <1>   0.2090 
  5 C        0.5490    -2.9870     1.5470 C.3   1 <1>   0.2090 
  6 N       -0.5520    -3.8580     1.0020 N.pl3 1 <1>  -0.8380 
  7 C       -0.4300    -5.0790     0.4130 C.ar  1 <1>   0.7710 
  8 N       -1.4770    -5.6140    -0.1950 N.ar  1 <1>  -0.6200 
  9 N        0.7500    -5.7190     0.4650 N.ar  1 <1>  -0.1790 
 10 C       -1.3590    -6.8050    -0.7550 C.ar  1 <1>   0.4100 
 11 C        0.9400    -6.9270    -0.1130 C.ar  1 <1>   0.2180 
 12 N       -2.4630    -7.3510    -1.3430 N.pl3 1 <1>  -0.8380 
 13 C       -0.1230    -7.4840    -0.7400 C.ar  1 <1>  -0.1500 
 14 C        2.3120    -7.5820    -0.0300 C.3   1 <1>  -0.0170 
 15 C       -2.5790    -8.8310    -1.6280 C.3   1 <1>   0.2090 
 16 C       -3.6960    -6.5370    -1.5910 C.3   1 <1>   0.2090 
 17 C        3.3910    -6.7610    -0.7500 C.3   1 <1>  -0.2400 
 18 C       -4.0000    -9.4270    -1.6810 C.3   1 <1>   0.2090 
 19 C       -4.6770    -6.6600    -0.4190 C.3   1 <1>  -0.1600 
 20 N       -4.7690    -9.1450    -0.4360 N.pl3 1 <1>  -0.8380 
 21 C       -5.5710    -7.9010    -0.4750 C.3   1 <1>   0.2090 
 22 C       -5.3660   -10.2350     0.1880 C.ar  1 <1>   0.1000 
 23 C       -6.3860   -10.9540    -0.4240 C.ar  1 <1>  -0.1500 
 24 C       -4.9410   -10.6200     1.4520 C.ar  1 <1>  -0.1500 
 25 C       -6.9660   -12.0370     0.2130 C.ar  1 <1>  -0.1500 
 26 C       -5.5170   -11.7010     2.0930 C.ar  1 <1>  -0.1500 
 27 C       -6.5310   -12.4130     1.4740 C.ar  1 <1>  -0.1500 
 28 H       -1.7140    -1.7340    -0.4490 H     1 <1>   0.0800 
 29 H       -2.7770    -1.2350     0.8470 H     1 <1>   0.0800 
 30 H        1.1680    -0.9140     1.4700 H     1 <1>   0.0800 
 31 H        0.6420    -1.5430    -0.0750 H     1 <1>   0.0800 
 32 H       -2.6770    -3.7130     0.6430 H     1 <1>   0.0800 
 33 H       -2.1590    -3.1530     2.1970 H     1 <1>   0.0800 
 34 H        0.4640    -2.9370     2.6200 H     1 <1>   0.0800 
 35 H        1.5190    -3.3770     1.3060 H     1 <1>   0.0800 
 36 H        1.4850    -5.2520     0.9760 H     1 <1>   0.4570 
 37 H       -0.0400    -8.4330    -1.2320 H     1 <1>   0.1500 
 38 H        2.2680    -8.5600    -0.4800 H     1 <1>   0.0800 
 39 H        2.5880    -7.7190     1.0020 H     1 <1>   0.0800 
 40 H       -2.0510    -9.3740    -0.8640 H     1 <1>   0.0800 
 41 H       -2.0980    -9.0350    -2.5680 H     1 <1>   0.0800 
 42 H       -4.1630    -6.8360    -2.5130 H     1 <1>   0.0800 
 43 H       -3.4240    -5.5020    -1.7080 H     1 <1>   0.0800 
 44 H        3.1270    -6.6190    -1.7840 H     1 <1>   0.0800 
 45 H        4.3310    -7.2860    -0.7150 H     1 <1>   0.0800 
 46 H        3.5300    -5.7990    -0.2900 H     1 <1>   0.0800 
 47 H       -3.9110   -10.4920    -1.8050 H     1 <1>   0.0800 
 48 H       -4.5260    -9.0500    -2.5390 H     1 <1>   0.0800 
 49 H       -5.3220    -5.8020    -0.4350 H     1 <1>   0.0800 
 50 H       -4.1420    -6.6410     0.5130 H     1 <1>   0.0800 
 51 H       -6.1700    -7.8870    -1.3690 H     1 <1>   0.0800 
 52 H       -6.2390    -7.8900     0.3700 H     1 <1>   0.0800 
 53 H       -6.7240   -10.6600    -1.3990 H     1 <1>   0.1500 
 54 H       -4.1560   -10.0580     1.9220 H     1 <1>   0.1500 
 55 H       -7.7550   -12.5880    -0.2690 H     1 <1>   0.1500 
 56 H       -5.1790   -11.9890     3.0730 H     1 <1>   0.1500 
 57 H       -6.9800   -13.2550     1.9710 H     1 <1>   0.1500 
@<TRIPOS>BOND
  1   1   2  1   
  2   1   3  1   
  3   2   4  1   
  4   2  28  1   
  5   2  29  1   
  6   3   5  1   
  7   3  30  1   
  8   3  31  1   
  9   4   6  1   
 10   4  32  1   
 11   4  33  1   
 12   5   6  1   
 13   5  34  1   
 14   5  35  1   
 15   6   7  1   
 16   7   8  ar  
 17   7   9  ar  
 18   8  10  ar  
 19   9  11  ar  
 20   9  36  1   
 21  10  12  1   
 22  10  13  ar  
 23  11  13  ar  
 24  11  14  1   
 25  12  15  1   
 26  12  16  1   
 27  13  37  1   
 28  14  17  1   
 29  14  38  1   
 30  14  39  1   
 31  15  18  1   
 32  15  40  1   
 33  15  41  1   
 34  16  19  1   
 35  16  42  1   
 36  16  43  1   
 37  17  44  1   
 38  17  45  1   
 39  17  46  1   
 40  18  20  1   
 41  18  47  1   
 42  18  48  1   
 43  19  21  1   
 44  19  49  1   
 45  19  50  1   
 46  20  21  1   
 47  20  22  1   
 48  21  51  1   
 49  21  52  1   
 50  22  23  ar  
 51  22  24  ar  
 52  23  25  ar  
 53  23  53  1   
 54  24  26  ar  
 55  24  54  1   
 56  25  27  ar  
 57  25  55  1   
 58  26  27  ar  
 59  26  56  1   
 60  27  57  1   
@<TRIPOS>SUBSTRUCTURE
  1 ****  10 GROUP 4 **** **** 0

# MOE 2024.06 (io_trps.svl 2023.06)
