@<TRIPOS>MOLECULE
NONAME
46 49 1 0 0 
SMALL
USER_CHARGES


@<TRIPOS>ATOM
  1 F        1.4740    -1.2750    -2.3900 F     1 <1>  -0.3400 
  2 C        2.3060    -0.6210    -1.5820 C.3   1 <1>   1.1640 
  3 F        1.5520    -0.1030    -0.6160 F     1 <1>  -0.3400 
  4 F        2.7460     0.4160    -2.2920 F     1 <1>  -0.3400 
  5 C        3.4510    -1.5140    -1.0370 C.ar  1 <1>   0.1660 
  6 N        3.1690    -2.7020    -0.5150 N.ar  1 <1>  -0.6200 
  7 C        4.7530    -1.0810    -1.0870 C.ar  1 <1>  -0.1500 
  8 C        4.1910    -3.4180    -0.0570 C.ar  1 <1>   0.7200 
  9 C        5.7440    -1.9040    -0.5930 C.ar  1 <1>   0.4100 
 10 N        5.4680    -3.0700    -0.0690 N.ar  1 <1>  -0.6200 
 11 N        3.8860    -4.6420     0.4910 N.pl3 1 <1>  -0.8380 
 12 N        7.0700    -1.5270    -0.6140 N.pl3 1 <1>  -0.8380 
 13 C        4.9210    -5.6210     0.8810 C.3   1 <1>   0.2090 
 14 C        2.5610    -5.2880     0.3580 C.3   1 <1>   0.2090 
 15 C        7.8640    -1.6390     0.6540 C.3   1 <1>   0.2090 
 16 C        7.6810    -0.8940    -1.8180 C.3   1 <1>   0.2090 
 17 C        4.1410    -6.8650     1.2850 C.3   1 <1>  -0.1600 
 18 C        2.8420    -6.7810     0.4880 C.3   1 <1>  -0.1600 
 19 C        8.6240    -0.3490     1.0390 C.3   1 <1>   0.2200 
 20 C        8.0120     0.6060    -1.6600 C.3   1 <1>  -0.0190 
 21 N        7.7680     0.8530     0.7990 N.am  1 <1>  -0.7300 
 22 C        9.9970    -0.2860     0.3150 C.3   1 <1>   0.1200 
 23 C        7.3800     1.2440    -0.4350 C.2   1 <1>   0.5690 
 24 C        9.5260     0.8860    -1.7210 C.3   1 <1>   0.1200 
 25 O       10.1650     0.8550    -0.4780 O.3   1 <1>  -0.5600 
 26 O        6.5180     2.0760    -0.5770 O.2   1 <1>  -0.5700 
 27 H        5.0190    -0.1200    -1.4830 H     1 <1>   0.1500 
 28 H        5.5520    -5.8260     0.0320 H     1 <1>   0.0800 
 29 H        5.5190    -5.2420     1.6930 H     1 <1>   0.0800 
 30 H        1.9260    -4.9490     1.1580 H     1 <1>   0.0800 
 31 H        2.1040    -5.0590    -0.5900 H     1 <1>   0.0800 
 32 H        7.1910    -1.8730     1.4620 H     1 <1>   0.0800 
 33 H        8.5460    -2.4660     0.5710 H     1 <1>   0.0800 
 34 H        8.5660    -1.4480    -2.0800 H     1 <1>   0.0800 
 35 H        6.9980    -1.0080    -2.6430 H     1 <1>   0.0800 
 36 H        4.6930    -7.7660     1.0820 H     1 <1>   0.0800 
 37 H        3.9280    -6.8120     2.3380 H     1 <1>   0.0800 
 38 H        2.0300    -7.2990     0.9660 H     1 <1>   0.0800 
 39 H        2.9910    -7.1910    -0.4960 H     1 <1>   0.0800 
 40 H        8.8310    -0.4080     2.0930 H     1 <1>   0.0800 
 41 H        7.5920     1.0900    -2.5220 H     1 <1>   0.0800 
 42 H        7.2820     1.2700     1.5920 H     1 <1>   0.3700 
 43 H       10.1670    -1.1560    -0.2950 H     1 <1>   0.0800 
 44 H       10.7730    -0.2600     1.0580 H     1 <1>   0.0800 
 45 H        9.6780     1.8810    -2.1050 H     1 <1>   0.0800 
 46 H       10.0290     0.1990    -2.3790 H     1 <1>   0.0800 
@<TRIPOS>BOND
  1   1   2  1   
  2   2   3  1   
  3   2   4  1   
  4   2   5  1   
  5   5   6  ar  
  6   5   7  ar  
  7   6   8  ar  
  8   7   9  ar  
  9   7  27  1   
 10   8  10  ar  
 11   8  11  1   
 12   9  10  ar  
 13   9  12  1   
 14  11  13  1   
 15  11  14  1   
 16  12  15  1   
 17  12  16  1   
 18  13  17  1   
 19  13  28  1   
 20  13  29  1   
 21  14  18  1   
 22  14  30  1   
 23  14  31  1   
 24  15  19  1   
 25  15  32  1   
 26  15  33  1   
 27  16  20  1   
 28  16  34  1   
 29  16  35  1   
 30  17  18  1   
 31  17  36  1   
 32  17  37  1   
 33  18  38  1   
 34  18  39  1   
 35  19  21  1   
 36  19  22  1   
 37  19  40  1   
 38  20  23  1   
 39  20  24  1   
 40  20  41  1   
 41  21  23  am  
 42  21  42  1   
 43  22  25  1   
 44  22  43  1   
 45  22  44  1   
 46  23  26  2   
 47  24  25  1   
 48  24  45  1   
 49  24  46  1   
@<TRIPOS>SUBSTRUCTURE
  1 ****   9 GROUP 4 **** **** 0

# MOE 2024.06 (io_trps.svl 2023.06)
