@<TRIPOS>MOLECULE
NONAME
41 44 1 0 0 
SMALL
USER_CHARGES


@<TRIPOS>ATOM
  1 O       -0.8820     0.9610    -1.5620 O.2   1 <1>  -0.5700 
  2 C       -0.7380     2.0090    -0.9750 C.2   1 <1>   0.5690 
  3 N       -1.7590     2.6420    -0.3150 N.am  1 <1>  -0.5090 
  4 C        0.6490     2.6540    -1.0160 C.3   1 <1>   0.1810 
  5 C       -1.5880     4.0180     0.2530 C.3   1 <1>   0.3640 
  6 C       -3.0880     2.0130    -0.1100 C.3   1 <1>   0.0490 
  7 O        0.8120     3.6800    -0.0680 O.3   1 <1>  -0.5600 
  8 C       -2.7040     4.9360    -0.2470 C.ar  1 <1>  -0.1440 
  9 C       -0.2160     4.6490    -0.0900 C.3   1 <1>   0.2610 
 10 C       -3.5960     1.8410     1.2890 C.3   1 <1>  -0.2000 
 11 C       -3.1710     0.6470     0.4960 C.3   1 <1>  -0.2000 
 12 C       -3.3780     5.7540     0.6500 C.ar  1 <1>   0.1600 
 13 C       -3.0630     4.9840    -1.5830 C.ar  1 <1>  -0.1500 
 14 C        0.1180     5.8150     0.8480 C.2   1 <1>   0.5690 
 15 N       -4.3550     6.5860     0.3290 N.ar  1 <1>  -0.6200 
 16 C       -4.0780     5.8470    -1.9320 C.ar  1 <1>  -0.1500 
 17 O       -0.4360     5.9060     1.9220 O.2   1 <1>  -0.5700 
 18 N        1.0270     6.7460     0.4450 N.am  1 <1>  -0.5100 
 19 C       -4.6820     6.6140    -0.9520 C.ar  1 <1>   0.1600 
 20 C        2.2590     6.5240    -0.3780 C.3   1 <1>   0.2250 
 21 C        1.7750     7.6860     1.3380 C.3   1 <1>   0.2250 
 22 C        2.8120     7.8420     0.2050 C.3   1 <1>   0.0000 
 23 H        0.8260     3.0610    -1.9950 H     1 <1>   0.0800 
 24 H        1.3920     1.9040    -0.8150 H     1 <1>   0.0800 
 25 H       -1.6630     3.9250     1.3220 H     1 <1>   0.0800 
 26 H       -3.7910     2.2650    -0.8860 H     1 <1>   0.1000 
 27 H       -0.2580     5.0450    -1.0890 H     1 <1>   0.0800 
 28 H       -2.9840     2.1250     2.1270 H     1 <1>   0.1000 
 29 H       -4.6460     1.9790     1.4760 H     1 <1>   0.1000 
 30 H       -3.9270    -0.0270     0.1340 H     1 <1>   0.1000 
 31 H       -2.2550     0.1430     0.7500 H     1 <1>   0.1000 
 32 H       -3.0980     5.7290     1.6910 H     1 <1>   0.1500 
 33 H       -2.5820     4.3700    -2.3260 H     1 <1>   0.1500 
 34 H       -4.4030     5.9270    -2.9530 H     1 <1>   0.1500 
 35 H       -5.4760     7.2850    -1.2350 H     1 <1>   0.1500 
 36 H        2.7940     5.6480    -0.0570 H     1 <1>   0.0000 
 37 H        2.0540     6.5640    -1.4330 H     1 <1>   0.0000 
 38 H        1.2150     8.5810     1.5430 H     1 <1>   0.0000 
 39 H        2.1540     7.1830     2.2100 H     1 <1>   0.0000 
 40 H        2.6210     8.6930    -0.4260 H     1 <1>   0.0000 
 41 H        3.8330     7.7780     0.5360 H     1 <1>   0.0000 
@<TRIPOS>BOND
  1   1   2  2   
  2   2   3  am  
  3   2   4  1   
  4   3   5  1   
  5   3   6  1   
  6   4   7  1   
  7   4  23  1   
  8   4  24  1   
  9   5   8  1   
 10   5   9  1   
 11   5  25  1   
 12   6  10  1   
 13   6  11  1   
 14   6  26  1   
 15   7   9  1   
 16   8  12  ar  
 17   8  13  ar  
 18   9  14  1   
 19   9  27  1   
 20  10  11  1   
 21  10  28  1   
 22  10  29  1   
 23  11  30  1   
 24  11  31  1   
 25  12  15  ar  
 26  12  32  1   
 27  13  16  ar  
 28  13  33  1   
 29  14  17  2   
 30  14  18  am  
 31  15  19  ar  
 32  16  19  ar  
 33  16  34  1   
 34  18  20  1   
 35  18  21  1   
 36  19  35  1   
 37  20  22  1   
 38  20  36  1   
 39  20  37  1   
 40  21  22  1   
 41  21  38  1   
 42  21  39  1   
 43  22  40  1   
 44  22  41  1   
@<TRIPOS>SUBSTRUCTURE
  1 ****   5 GROUP 4 **** **** 0

# MOE 2024.06 (io_trps.svl 2023.06)
