@<TRIPOS>MOLECULE
NONAME
47 49 1 0 0 
SMALL
USER_CHARGES


@<TRIPOS>ATOM
  1 O        0.2560     0.4940    -0.1740 O.2   1 <1>  -0.5700 
  2 C        0.1620     1.6980    -0.1240 C.2   1 <1>   0.5690 
  3 N       -0.9900     2.3280     0.2670 N.am  1 <1>  -0.6600 
  4 C        1.3770     2.5290    -0.5450 C.3   1 <1>   0.1810 
  5 C       -1.0840     3.8250     0.3200 C.3   1 <1>   0.3640 
  6 C       -2.1730     1.5730     0.7770 C.3   1 <1>   0.0600 
  7 O        1.3420     3.8530    -0.0700 O.3   1 <1>  -0.5600 
  8 C       -2.3820     4.2780    -0.3670 C.ar  1 <1>  -0.1440 
  9 C        0.1300     4.5290    -0.3390 C.3   1 <1>   0.2610 
 10 C       -3.3600     5.0330     0.2820 C.ar  1 <1>  -0.1440 
 11 C       -2.5880     3.9130    -1.6940 C.ar  1 <1>  -0.1500 
 12 C        0.2280     5.9950     0.1010 C.2   1 <1>   0.5690 
 13 C       -4.4960     5.4240    -0.4110 C.ar  1 <1>  -0.1500 
 14 C       -3.2440     5.4530     1.7430 C.3   1 <1>  -0.0960 
 15 C       -3.7250     4.3050    -2.3760 C.ar  1 <1>  -0.1500 
 16 O       -0.0140     6.3070     1.2460 O.2   1 <1>  -0.5700 
 17 N        0.6070     6.9380    -0.8080 N.am  1 <1>  -0.7300 
 18 C       -4.6800     5.0660    -1.7330 C.ar  1 <1>  -0.1500 
 19 C        0.7010     8.3860    -0.5070 C.3   1 <1>   0.1400 
 20 C        2.0430     8.7020     0.1520 C.3   1 <1>   0.0200 
 21 C        2.0400    10.1320     0.6480 C.2   1 <1>   0.0060 
 22 N        2.4300    11.1410    -0.0610 N.2   1 <1>  -0.5650 
 23 N        1.6120    10.4710     1.8840 N.pl3 1 <1>   0.0330 
 24 C        2.2510    12.1970     0.7560 C.2   1 <1>   0.0770 
 25 C        1.7510    11.8070     1.9490 C.2   1 <1>  -0.3020 
 26 H        1.4390     2.5520    -1.6180 H     1 <1>   0.0800 
 27 H        2.2680     2.0690    -0.1580 H     1 <1>   0.0800 
 28 H       -1.0970     4.0990     1.3590 H     1 <1>   0.0800 
 29 H       -2.4710     1.9640     1.7340 H     1 <1>   0.0800 
 30 H       -1.9380     0.5290     0.8910 H     1 <1>   0.0800 
 31 H       -2.9930     1.6670     0.0870 H     1 <1>   0.0800 
 32 H        0.0000     4.5220    -1.4040 H     1 <1>   0.0800 
 33 H       -1.8630     3.3070    -2.2090 H     1 <1>   0.1500 
 34 H       -5.2540     6.0130     0.0760 H     1 <1>   0.1500 
 35 H       -4.1660     5.8770     2.0950 H     1 <1>   0.0800 
 36 H       -2.4750     6.1940     1.8580 H     1 <1>   0.0800 
 37 H       -3.0170     4.6060     2.3640 H     1 <1>   0.0800 
 38 H       -3.8680     4.0150    -3.4020 H     1 <1>   0.1500 
 39 H        0.9150     6.6590    -1.7410 H     1 <1>   0.3700 
 40 H       -5.5660     5.3770    -2.2580 H     1 <1>   0.1500 
 41 H        0.5930     8.9600    -1.4120 H     1 <1>   0.0800 
 42 H       -0.0990     8.6590     0.1610 H     1 <1>   0.0800 
 43 H        2.8360     8.5780    -0.5640 H     1 <1>   0.0800 
 44 H        2.2160     8.0380     0.9800 H     1 <1>   0.0800 
 45 H        1.2580     9.8370     2.6060 H     1 <1>   0.2700 
 46 H        2.4960    13.1960     0.4370 H     1 <1>   0.1500 
 47 H        1.4950    12.3920     2.8130 H     1 <1>   0.1500 
@<TRIPOS>BOND
  1   1   2  2   
  2   2   3  am  
  3   2   4  1   
  4   3   5  1   
  5   3   6  1   
  6   4   7  1   
  7   4  26  1   
  8   4  27  1   
  9   5   8  1   
 10   5   9  1   
 11   5  28  1   
 12   6  29  1   
 13   6  30  1   
 14   6  31  1   
 15   7   9  1   
 16   8  10  ar  
 17   8  11  ar  
 18   9  12  1   
 19   9  32  1   
 20  10  13  ar  
 21  10  14  1   
 22  11  15  ar  
 23  11  33  1   
 24  12  16  2   
 25  12  17  am  
 26  13  18  ar  
 27  13  34  1   
 28  14  35  1   
 29  14  36  1   
 30  14  37  1   
 31  15  18  ar  
 32  15  38  1   
 33  17  19  1   
 34  17  39  1   
 35  18  40  1   
 36  19  20  1   
 37  19  41  1   
 38  19  42  1   
 39  20  21  1   
 40  20  43  1   
 41  20  44  1   
 42  21  22  2   
 43  21  23  1   
 44  22  24  1   
 45  23  25  1   
 46  23  45  1   
 47  24  25  2   
 48  24  46  1   
 49  25  47  1   
@<TRIPOS>SUBSTRUCTURE
  1 ****  12 GROUP 4 **** **** 0

# MOE 2024.06 (io_trps.svl 2023.06)
