@<TRIPOS>MOLECULE
NONAME
52 54 1 0 0 
SMALL
USER_CHARGES


@<TRIPOS>ATOM
  1 O       -0.0280     0.9380     0.9080 O.2   1 <1>  -0.5700 
  2 C       -0.0410     2.0970     0.5640 C.2   1 <1>   0.5690 
  3 N       -1.1260     2.9270     0.7320 N.am  1 <1>  -0.5090 
  4 C        1.2350     2.6400    -0.0810 C.3   1 <1>   0.1810 
  5 C       -1.0100     4.3940     0.4380 C.3   1 <1>   0.3640 
  6 C       -2.2480     2.5490     1.6380 C.3   1 <1>   0.0490 
  7 O        1.3870     4.0280     0.0900 O.3   1 <1>  -0.5600 
  8 C       -2.2100     4.8990    -0.3580 C.ar  1 <1>  -0.1440 
  9 C        0.2720     4.7690    -0.3480 C.3   1 <1>   0.2610 
 10 C       -2.9440     1.2350     1.4580 C.3   1 <1>  -0.2000 
 11 C       -3.6620     2.5050     1.1400 C.3   1 <1>  -0.2000 
 12 C       -2.5840     4.2860    -1.5470 C.ar  1 <1>   0.1600 
 13 C       -2.9320     5.9930     0.0770 C.ar  1 <1>  -0.1500 
 14 C        0.5690     6.2770    -0.2640 C.2   1 <1>   0.5690 
 15 N       -3.5790     4.6810    -2.3240 N.ar  1 <1>  -0.6200 
 16 C       -3.9810     6.4090    -0.7130 C.ar  1 <1>  -0.1500 
 17 O        0.2280     6.8950     0.7230 O.2   1 <1>  -0.5700 
 18 N        1.2460     6.9340    -1.2690 N.am  1 <1>  -0.6600 
 19 C       -4.2570     5.7290    -1.8870 C.ar  1 <1>   0.1600 
 20 C        1.2810     8.4320    -1.3480 C.3   1 <1>   0.1400 
 21 C        1.8920     6.2310    -2.4190 C.3   1 <1>   0.0600 
 22 C        2.4550     9.0250    -0.5430 C.3   1 <1>   0.3430 
 23 N        2.3260     8.7200     0.9150 N.4   1 <1>  -0.9590 
 24 C        1.5520     9.7620     1.6510 C.3   1 <1>   0.2630 
 25 C        3.6420     8.4420     1.5590 C.3   1 <1>   0.2630 
 26 H        1.2320     2.4170    -1.1320 H     1 <1>   0.0800 
 27 H        2.0870     2.1610     0.3690 H     1 <1>   0.0800 
 28 H       -0.9890     4.8990     1.3880 H     1 <1>   0.0800 
 29 H       -2.0760     2.8760     2.6500 H     1 <1>   0.1000 
 30 H        0.1160     4.5240    -1.3820 H     1 <1>   0.0800 
 31 H       -2.6470     0.5940     0.6470 H     1 <1>   0.1000 
 32 H       -3.2360     0.6840     2.3340 H     1 <1>   0.1000 
 33 H       -4.4520     2.8180     1.7990 H     1 <1>   0.1000 
 34 H       -3.9020     2.6740     0.1070 H     1 <1>   0.1000 
 35 H       -2.0410     3.4180    -1.8810 H     1 <1>   0.1500 
 36 H       -2.6920     6.5090     0.9920 H     1 <1>   0.1500 
 37 H       -4.5840     7.2510    -0.4260 H     1 <1>   0.1500 
 38 H       -5.0780     6.0650    -2.4980 H     1 <1>   0.1500 
 39 H        1.3710     8.7310    -2.3780 H     1 <1>   0.0800 
 40 H        0.3520     8.8350    -0.9800 H     1 <1>   0.0800 
 41 H        2.7710     6.7640    -2.7360 H     1 <1>   0.0800 
 42 H        1.2030     6.1740    -3.2450 H     1 <1>   0.0800 
 43 H        2.1930     5.2350    -2.1420 H     1 <1>   0.0800 
 44 H        2.4970    10.0920    -0.6920 H     1 <1>   0.0800 
 45 H        3.3690     8.6010    -0.9260 H     1 <1>   0.0800 
 46 H        1.7480     7.8490     0.9580 H     1 <1>   0.4500 
 47 H        2.0700    10.7070     1.6230 H     1 <1>   0.0800 
 48 H        1.4210     9.4680     2.6800 H     1 <1>   0.0800 
 49 H        0.5770     9.8840     1.2070 H     1 <1>   0.0800 
 50 H        4.2700     9.3170     1.5250 H     1 <1>   0.0800 
 51 H        4.1420     7.6340     1.0510 H     1 <1>   0.0800 
 52 H        3.4980     8.1590     2.5900 H     1 <1>   0.0800 
@<TRIPOS>BOND
  1   1   2  2   
  2   2   3  am  
  3   2   4  1   
  4   3   5  1   
  5   3   6  1   
  6   4   7  1   
  7   4  26  1   
  8   4  27  1   
  9   5   8  1   
 10   5   9  1   
 11   5  28  1   
 12   6  10  1   
 13   6  11  1   
 14   6  29  1   
 15   7   9  1   
 16   8  12  ar  
 17   8  13  ar  
 18   9  14  1   
 19   9  30  1   
 20  10  11  1   
 21  10  31  1   
 22  10  32  1   
 23  11  33  1   
 24  11  34  1   
 25  12  15  ar  
 26  12  35  1   
 27  13  16  ar  
 28  13  36  1   
 29  14  17  2   
 30  14  18  am  
 31  15  19  ar  
 32  16  19  ar  
 33  16  37  1   
 34  18  20  1   
 35  18  21  1   
 36  19  38  1   
 37  20  22  1   
 38  20  39  1   
 39  20  40  1   
 40  21  41  1   
 41  21  42  1   
 42  21  43  1   
 43  22  23  1   
 44  22  44  1   
 45  22  45  1   
 46  23  24  1   
 47  23  25  1   
 48  23  46  1   
 49  24  47  1   
 50  24  48  1   
 51  24  49  1   
 52  25  50  1   
 53  25  51  1   
 54  25  52  1   
@<TRIPOS>SUBSTRUCTURE
  1 ****   9 GROUP 4 **** **** 0

# MOE 2024.06 (io_trps.svl 2023.06)
