@<TRIPOS>MOLECULE
NONAME
47 50 1 0 0 
SMALL
USER_CHARGES


@<TRIPOS>ATOM
  1 O       -0.5250    -0.4160    -1.2160 O.3   1 <1>  -0.5600 
  2 C       -0.2890    -1.5680    -0.4600 C.3   1 <1>   0.2800 
  3 C       -1.3030     0.6540    -0.7250 C.3   1 <1>   0.1200 
  4 C       -1.6180    -2.1490     0.1160 C.3   1 <1>  -0.1600 
  5 C        0.7430    -1.2090     0.6450 C.3   1 <1>  -0.1600 
  6 C        0.3180    -2.5560    -1.4780 C.3   1 <1>  -0.1600 
  7 C       -2.3630     0.2540     0.3180 C.3   1 <1>   0.2000 
  8 C       -2.8280    -1.2000     0.0910 C.3   1 <1>   0.2800 
  9 C        2.1780    -1.5390     0.2410 C.3   1 <1>   0.2090 
 10 C        1.1750    -3.6270    -0.8040 C.3   1 <1>   0.2090 
 11 O       -1.8180     0.4000     1.5970 O.3   1 <1>  -0.6800 
 12 O       -3.4170    -1.2820    -1.1570 O.3   1 <1>  -0.6800 
 13 C       -3.9110    -1.6420     1.0800 C.3   1 <1>  -0.2400 
 14 N        2.2820    -3.0050    -0.0200 N.pl3 1 <1>  -0.8380 
 15 C        3.5190    -3.6330     0.0640 C.ar  1 <1>   0.4100 
 16 N        4.5850    -2.8820     0.0250 N.ar  1 <1>  -0.6200 
 17 C        3.6050    -5.0520     0.1890 C.ar  1 <1>   0.1600 
 18 C        5.7570    -3.5600     0.0850 C.ar  1 <1>   0.3100 
 19 N        4.7010    -5.7400     0.2480 N.ar  1 <1>  -0.6200 
 20 C        5.8220    -4.9730     0.1910 C.ar  1 <1>   0.3100 
 21 C        6.9610    -2.8390     0.0370 C.ar  1 <1>  -0.1500 
 22 C        7.0780    -5.5920     0.2430 C.ar  1 <1>  -0.1500 
 23 C        8.1780    -3.4690     0.0900 C.ar  1 <1>  -0.1500 
 24 C        8.2380    -4.8610     0.1940 C.ar  1 <1>  -0.1500 
 25 H       -0.6460     1.4100    -0.3340 H     1 <1>   0.0800 
 26 H       -1.8090     1.0640    -1.5810 H     1 <1>   0.0800 
 27 H       -1.8870    -3.0620    -0.3810 H     1 <1>   0.0800 
 28 H       -1.4460    -2.4380     1.1360 H     1 <1>   0.0800 
 29 H        0.6990    -0.1660     0.8930 H     1 <1>   0.0800 
 30 H        0.5540    -1.7640     1.5450 H     1 <1>   0.0800 
 31 H       -0.4540    -3.0220    -2.0610 H     1 <1>   0.0800 
 32 H        0.9490    -2.0250    -2.1700 H     1 <1>   0.0800 
 33 H       -3.2030     0.9230     0.2640 H     1 <1>   0.0800 
 34 H        2.8490    -1.2630     1.0370 H     1 <1>   0.0800 
 35 H        2.4590    -0.9910    -0.6430 H     1 <1>   0.0800 
 36 H        1.5870    -4.2750    -1.5590 H     1 <1>   0.0800 
 37 H        0.5650    -4.2180    -0.1420 H     1 <1>   0.0800 
 38 H       -1.0080    -0.1370     1.6640 H     1 <1>   0.4000 
 39 H       -3.7000    -2.1970    -1.3310 H     1 <1>   0.4000 
 40 H       -3.5380    -1.5950     2.0870 H     1 <1>   0.0800 
 41 H       -4.2230    -2.6510     0.8840 H     1 <1>   0.0800 
 42 H       -4.7620    -0.9860     1.0140 H     1 <1>   0.0800 
 43 H        2.6760    -5.5840     0.2460 H     1 <1>   0.1500 
 44 H        6.8950    -1.7690    -0.0440 H     1 <1>   0.1500 
 45 H        7.1030    -6.6640     0.3230 H     1 <1>   0.1500 
 46 H        9.0930    -2.9030     0.0520 H     1 <1>   0.1500 
 47 H        9.1980    -5.3470     0.2340 H     1 <1>   0.1500 
@<TRIPOS>BOND
  1   1   2  1   
  2   1   3  1   
  3   2   4  1   
  4   2   5  1   
  5   2   6  1   
  6   3   7  1   
  7   3  25  1   
  8   3  26  1   
  9   4   8  1   
 10   4  27  1   
 11   4  28  1   
 12   5   9  1   
 13   5  29  1   
 14   5  30  1   
 15   6  10  1   
 16   6  31  1   
 17   6  32  1   
 18   7   8  1   
 19   7  11  1   
 20   7  33  1   
 21   8  12  1   
 22   8  13  1   
 23   9  14  1   
 24   9  34  1   
 25   9  35  1   
 26  10  14  1   
 27  10  36  1   
 28  10  37  1   
 29  11  38  1   
 30  12  39  1   
 31  13  40  1   
 32  13  41  1   
 33  13  42  1   
 34  14  15  1   
 35  15  16  ar  
 36  15  17  ar  
 37  16  18  ar  
 38  17  19  ar  
 39  17  43  1   
 40  18  20  ar  
 41  18  21  ar  
 42  19  20  ar  
 43  20  22  ar  
 44  21  23  ar  
 45  21  44  1   
 46  22  24  ar  
 47  22  45  1   
 48  23  24  ar  
 49  23  46  1   
 50  24  47  1   
@<TRIPOS>SUBSTRUCTURE
  1 ****  14 GROUP 4 **** **** 0

# MOE 2024.06 (io_trps.svl 2023.06)
