@<TRIPOS>MOLECULE
NONAME
50 52 1 0 0 
SMALL
USER_CHARGES


@<TRIPOS>ATOM
  1 O       -0.6590     0.8250    -0.7390 O.2   1 <1>  -0.5700 
  2 C       -0.7120     2.0310    -0.8080 C.2   1 <1>   0.5690 
  3 N       -1.5440     2.8050    -0.0390 N.am  1 <1>  -0.6600 
  4 C        0.1960     2.7210    -1.8200 C.3   1 <1>   0.1810 
  5 C       -1.5660     4.2980    -0.2090 C.3   1 <1>   0.3640 
  6 C       -2.4210     2.2900     1.0480 C.3   1 <1>   0.2200 
  7 O        0.6270     3.9720    -1.3530 O.3   1 <1>  -0.5600 
  8 C       -2.9260     4.7200    -0.7740 C.ar  1 <1>  -0.1440 
  9 C       -0.4290     4.8890    -1.0930 C.3   1 <1>   0.2610 
 10 C       -1.5710     1.6960     2.1700 C.3   1 <1>  -0.2400 
 11 C       -3.4460     1.2880     0.5150 C.3   1 <1>  -0.2400 
 12 C       -3.5900     5.8090    -0.2290 C.ar  1 <1>  -0.1500 
 13 C       -3.5120     4.0410    -1.8360 C.ar  1 <1>  -0.1500 
 14 C        0.1240     6.1590    -0.4330 C.2   1 <1>   0.5690 
 15 C       -4.8170     6.2090    -0.7280 C.ar  1 <1>  -0.1500 
 16 C       -4.7390     4.4390    -2.3360 C.ar  1 <1>  -0.1500 
 17 O       -0.6440     7.0320    -0.1040 O.2   1 <1>  -0.5700 
 18 N        1.4680     6.2500    -0.2260 N.am  1 <1>  -0.7300 
 19 C       -5.3940     5.5240    -1.7820 C.ar  1 <1>  -0.1500 
 20 C        2.2560     7.3370     0.3960 C.3   1 <1>   0.2200 
 21 C        1.9150     7.4910     1.8830 C.3   1 <1>  -0.1600 
 22 C        1.9940     8.6990    -0.2590 C.3   1 <1>  -0.1600 
 23 C        1.8370     8.9970     2.1330 C.3   1 <1>  -0.1600 
 24 C        1.3350     9.5690     0.8120 C.3   1 <1>  -0.1600 
 25 H       -0.3220     2.8540    -2.7520 H     1 <1>   0.0800 
 26 H        1.0680     2.1150    -1.9870 H     1 <1>   0.0800 
 27 H       -1.4660     4.7260     0.7740 H     1 <1>   0.0800 
 28 H       -2.9750     3.1160     1.4640 H     1 <1>   0.0800 
 29 H       -0.8370     5.1770    -2.0450 H     1 <1>   0.0800 
 30 H       -1.0470     0.8210     1.8300 H     1 <1>   0.0800 
 31 H       -2.2010     1.4110     2.9930 H     1 <1>   0.0800 
 32 H       -0.8600     2.4210     2.5210 H     1 <1>   0.0800 
 33 H       -2.9680     0.3940     0.1580 H     1 <1>   0.0800 
 34 H       -4.0170     1.7280    -0.2810 H     1 <1>   0.0800 
 35 H       -4.1230     1.0110     1.3010 H     1 <1>   0.0800 
 36 H       -3.1530     6.3620     0.5870 H     1 <1>   0.1500 
 37 H       -3.0210     3.1910    -2.2760 H     1 <1>   0.1500 
 38 H       -5.3210     7.0570    -0.2970 H     1 <1>   0.1500 
 39 H       -5.1860     3.9030    -3.1550 H     1 <1>   0.1500 
 40 H        2.0120     5.4360    -0.5280 H     1 <1>   0.3700 
 41 H       -6.3480     5.8350    -2.1700 H     1 <1>   0.1500 
 42 H        3.3030     7.1050     0.2950 H     1 <1>   0.0800 
 43 H        0.9540     7.0570     2.0950 H     1 <1>   0.0800 
 44 H        2.6590     7.0300     2.5080 H     1 <1>   0.0800 
 45 H        2.9380     9.1380    -0.5300 H     1 <1>   0.0800 
 46 H        1.3800     8.6260    -1.1390 H     1 <1>   0.0800 
 47 H        1.1790     9.2370     2.9510 H     1 <1>   0.0800 
 48 H        2.8200     9.3830     2.3420 H     1 <1>   0.0800 
 49 H        1.5790    10.6110     0.6980 H     1 <1>   0.0800 
 50 H        0.2660     9.4480     0.7560 H     1 <1>   0.0800 
@<TRIPOS>BOND
  1   1   2  2   
  2   2   3  am  
  3   2   4  1   
  4   3   5  1   
  5   3   6  1   
  6   4   7  1   
  7   4  25  1   
  8   4  26  1   
  9   5   8  1   
 10   5   9  1   
 11   5  27  1   
 12   6  10  1   
 13   6  11  1   
 14   6  28  1   
 15   7   9  1   
 16   8  12  ar  
 17   8  13  ar  
 18   9  14  1   
 19   9  29  1   
 20  10  30  1   
 21  10  31  1   
 22  10  32  1   
 23  11  33  1   
 24  11  34  1   
 25  11  35  1   
 26  12  15  ar  
 27  12  36  1   
 28  13  16  ar  
 29  13  37  1   
 30  14  17  2   
 31  14  18  am  
 32  15  19  ar  
 33  15  38  1   
 34  16  19  ar  
 35  16  39  1   
 36  18  20  1   
 37  18  40  1   
 38  19  41  1   
 39  20  21  1   
 40  20  22  1   
 41  20  42  1   
 42  21  23  1   
 43  21  43  1   
 44  21  44  1   
 45  22  24  1   
 46  22  45  1   
 47  22  46  1   
 48  23  24  1   
 49  23  47  1   
 50  23  48  1   
 51  24  49  1   
 52  24  50  1   
@<TRIPOS>SUBSTRUCTURE
  1 ****   5 GROUP 4 **** **** 0

# MOE 2024.06 (io_trps.svl 2023.06)
