@<TRIPOS>MOLECULE
NONAME
49 52 1 0 0 
SMALL
USER_CHARGES


@<TRIPOS>ATOM
  1 O       -2.0970     0.5430     2.6120 O.2   1 <1>  -0.5700 
  2 C       -2.6170     1.0050     1.6130 C.2   1 <1>   0.5440 
  3 N       -3.6830     0.3360     1.0560 N.am  1 <1>  -0.6600 
  4 C       -2.1340     2.2440     1.0620 C.ar  1 <1>   0.0860 
  5 C       -4.4040     0.7560    -0.1760 C.3   1 <1>   0.1400 
  6 C       -3.9640    -1.0890     1.3550 C.3   1 <1>   0.1400 
  7 C       -1.3970     2.2710    -0.1330 C.ar  1 <1>   0.3920 
  8 C       -2.3870     3.4510     1.7020 C.ar  1 <1>  -0.1500 
  9 C       -5.2750    -0.4460    -0.5520 C.3   1 <1>   0.2000 
 10 C       -4.5460    -1.6490     0.0520 C.3   1 <1>  -0.0800 
 11 O       -1.1350     1.0920    -0.7390 O.3   1 <1>  -0.3630 
 12 N       -0.9390     3.3770    -0.7250 N.ar  1 <1>  -0.6200 
 13 C       -1.9070     4.5890     1.0990 C.ar  1 <1>  -0.1430 
 14 O       -6.4990    -0.3180     0.0830 O.3   1 <1>  -0.6800 
 15 C       -3.4290    -2.1400    -0.8900 C.3   1 <1>   0.0200 
 16 C       -0.3290     1.0120    -1.8990 C.3   1 <1>   0.0400 
 17 C       -1.2100     4.4930    -0.0800 C.ar  1 <1>   0.1670 
 18 C       -2.0350     6.0210     1.5570 C.3   1 <1>  -0.0170 
 19 C       -2.6630    -3.3000    -0.2850 C.2   1 <1>  -0.0400 
 20 C       -0.7760     5.8510    -0.5660 C.3   1 <1>  -0.0170 
 21 C       -1.0800     6.7850     0.6220 C.3   1 <1>  -0.1600 
 22 O       -3.2380    -4.4640    -0.1350 O.3   1 <1>  -0.0190 
 23 C       -1.4090    -3.3940     0.1800 C.2   1 <1>  -0.1500 
 24 N       -2.4340    -5.3320     0.4090 N.2   1 <1>  -0.4100 
 25 C       -1.3250    -4.7150     0.6100 C.2   1 <1>   0.1080 
 26 C       -0.1010    -5.3440     1.2350 C.3   1 <1>  -0.0590 
 27 H       -4.9940     1.6400    -0.0060 H     1 <1>   0.0800 
 28 H       -3.6960     0.9450    -0.9630 H     1 <1>   0.0800 
 29 H       -3.0730    -1.6060     1.6700 H     1 <1>   0.0800 
 30 H       -4.6910    -1.1430     2.1460 H     1 <1>   0.0800 
 31 H       -2.9340     3.4800     2.6280 H     1 <1>   0.1500 
 32 H       -5.4510    -0.5280    -1.6110 H     1 <1>   0.0800 
 33 H       -5.2220    -2.4640     0.2440 H     1 <1>   0.0800 
 34 H       -6.3500    -0.1310     1.0310 H     1 <1>   0.4000 
 35 H       -2.7350    -1.3430    -1.0930 H     1 <1>   0.0800 
 36 H       -3.8530    -2.4590    -1.8250 H     1 <1>   0.0800 
 37 H       -0.2430    -0.0210    -2.1820 H     1 <1>   0.0800 
 38 H        0.6420     1.4170    -1.6740 H     1 <1>   0.0800 
 39 H       -0.7960     1.5770    -2.6870 H     1 <1>   0.0800 
 40 H       -3.0490     6.3540     1.4210 H     1 <1>   0.0800 
 41 H       -1.7500     6.1310     2.5890 H     1 <1>   0.0800 
 42 H        0.2700     5.8540    -0.8140 H     1 <1>   0.0800 
 43 H       -1.3570     6.1200    -1.4290 H     1 <1>   0.0800 
 44 H       -0.1630     6.9840     1.1500 H     1 <1>   0.0800 
 45 H       -1.5040     7.7180     0.2960 H     1 <1>   0.0800 
 46 H       -0.6370    -2.6480     0.2320 H     1 <1>   0.1500 
 47 H        0.2160    -4.7630     2.0810 H     1 <1>   0.0800 
 48 H        0.6950    -5.3870     0.5140 H     1 <1>   0.0800 
 49 H       -0.3280    -6.3420     1.5630 H     1 <1>   0.0800 
@<TRIPOS>BOND
  1   1   2  2   
  2   2   3  am  
  3   2   4  1   
  4   3   5  1   
  5   3   6  1   
  6   4   7  ar  
  7   4   8  ar  
  8   5   9  1   
  9   5  27  1   
 10   5  28  1   
 11   6  10  1   
 12   6  29  1   
 13   6  30  1   
 14   7  11  1   
 15   7  12  ar  
 16   8  13  ar  
 17   8  31  1   
 18   9  10  1   
 19   9  14  1   
 20   9  32  1   
 21  10  15  1   
 22  10  33  1   
 23  11  16  1   
 24  12  17  ar  
 25  13  17  ar  
 26  13  18  1   
 27  14  34  1   
 28  15  19  1   
 29  15  35  1   
 30  15  36  1   
 31  16  37  1   
 32  16  38  1   
 33  16  39  1   
 34  17  20  1   
 35  18  21  1   
 36  18  40  1   
 37  18  41  1   
 38  19  22  1   
 39  19  23  2   
 40  20  21  1   
 41  20  42  1   
 42  20  43  1   
 43  21  44  1   
 44  21  45  1   
 45  22  24  1   
 46  23  25  1   
 47  23  46  1   
 48  24  25  2   
 49  25  26  1   
 50  26  47  1   
 51  26  48  1   
 52  26  49  1   
@<TRIPOS>SUBSTRUCTURE
  1 ****   2 GROUP 4 **** **** 0

# MOE 2024.06 (io_trps.svl 2023.06)
