@<TRIPOS>MOLECULE
NONAME
56 59 1 0 0 
SMALL
USER_CHARGES


@<TRIPOS>ATOM
  1 O        0.1260     0.8830    -1.2000 O.2   1 <1>  -0.5700 
  2 C        1.1020     0.3320    -0.7530 C.2   1 <1>   0.5690 
  3 N        1.9670     1.0210     0.0790 N.am  1 <1>  -0.6600 
  4 C        1.3470    -1.0770    -1.2720 C.3   1 <1>   0.1570 
  5 C        2.9100     0.4050     1.0630 C.3   1 <1>   0.1400 
  6 C        1.9210     2.5090     0.1310 C.3   1 <1>   0.1400 
  7 N        1.5600    -2.0720    -0.2170 N.pl3 1 <1>   0.3140 
  8 C        4.2670     0.0890     0.4100 C.3   1 <1>   0.3430 
  9 C        3.3230     3.1210    -0.0010 C.3   1 <1>  -0.1600 
 10 N        2.7890    -2.5720     0.0450 N.2   1 <1>  -0.7070 
 11 C        0.6280    -2.6270     0.5800 C.2   1 <1>  -0.3020 
 12 N        5.0440     1.3090    -0.0070 N.4   1 <1>  -0.9590 
 13 C        4.2900     2.2930    -0.8540 C.3   1 <1>   0.3430 
 14 C        2.5940    -3.4480     0.9870 C.2   1 <1>   0.1390 
 15 C        1.2610    -3.5200     1.3690 C.2   1 <1>  -0.1500 
 16 C        6.2970     0.8940    -0.6830 C.3   1 <1>   0.4810 
 17 C        7.1980     2.1040    -0.7790 C.2   1 <1>  -0.2540 
 18 C        7.5480     2.7430    -1.9040 C.2   1 <1>  -0.2880 
 19 C        7.7510     2.6430     0.5460 C.3   1 <1>   0.1160 
 20 C        8.4840     3.9540    -1.8210 C.3   1 <1>  -0.0220 
 21 C        9.2910     2.9560     0.4770 C.3   1 <1>   0.0000 
 22 C        7.5510     4.1930     0.5420 C.3   1 <1>   0.0000 
 23 C        8.8460     4.2290    -0.3360 C.3   1 <1>   0.0000 
 24 C        9.9590     3.2600     1.8400 C.3   1 <1>  -0.2400 
 25 C       10.1750     1.9280    -0.2630 C.3   1 <1>  -0.2400 
 26 H        2.2040    -1.0700    -1.9150 H     1 <1>   0.0800 
 27 H        0.4990    -1.3870    -1.8530 H     1 <1>   0.0800 
 28 H        3.0580     1.0690     1.8960 H     1 <1>   0.0800 
 29 H        2.4780    -0.4870     1.4760 H     1 <1>   0.0800 
 30 H        1.3090     2.8810    -0.6760 H     1 <1>   0.0800 
 31 H        1.4590     2.8250     1.0520 H     1 <1>   0.0800 
 32 H        4.0910    -0.5430    -0.4450 H     1 <1>   0.0800 
 33 H        4.8520    -0.4830     1.1110 H     1 <1>   0.0800 
 34 H        3.7420     3.3090     0.9710 H     1 <1>   0.0800 
 35 H        3.2030     4.0820    -0.4690 H     1 <1>   0.0800 
 36 H       -0.4160    -2.3680     0.5400 H     1 <1>   0.1500 
 37 H        5.3410     1.8150     0.8340 H     1 <1>   0.4500 
 38 H        4.9900     2.9730    -1.3130 H     1 <1>   0.0800 
 39 H        3.7550     1.7870    -1.6410 H     1 <1>   0.0800 
 40 H        3.3790    -4.0480     1.4190 H     1 <1>   0.1500 
 41 H        0.8500    -4.1640     2.1280 H     1 <1>   0.1500 
 42 H        6.7950     0.1200    -0.1210 H     1 <1>   0.0800 
 43 H        6.0790     0.5160    -1.6700 H     1 <1>   0.0800 
 44 H        7.2410     2.4840    -2.9050 H     1 <1>   0.1500 
 45 H        7.4150     2.1500     1.4410 H     1 <1>   0.0000 
 46 H        7.9980     4.8190    -2.2360 H     1 <1>   0.0800 
 47 H        9.3810     3.7700    -2.3860 H     1 <1>   0.0800 
 48 H        6.6610     4.5220     0.0330 H     1 <1>   0.0000 
 49 H        7.6460     4.6600     1.5050 H     1 <1>   0.0000 
 50 H        9.4590     5.0990    -0.1800 H     1 <1>   0.0000 
 51 H       10.9500     3.6480     1.6780 H     1 <1>   0.0800 
 52 H       10.0450     2.3570     2.4170 H     1 <1>   0.0800 
 53 H        9.4280     3.9780     2.4350 H     1 <1>   0.0800 
 54 H       11.1540     2.3440    -0.4260 H     1 <1>   0.0800 
 55 H        9.7870     1.6320    -1.2180 H     1 <1>   0.0800 
 56 H       10.2840     1.0410     0.3340 H     1 <1>   0.0800 
@<TRIPOS>BOND
  1   1   2  2   
  2   2   3  am  
  3   2   4  1   
  4   3   5  1   
  5   3   6  1   
  6   4   7  1   
  7   4  26  1   
  8   4  27  1   
  9   5   8  1   
 10   5  28  1   
 11   5  29  1   
 12   6   9  1   
 13   6  30  1   
 14   6  31  1   
 15   7  10  1   
 16   7  11  1   
 17   8  12  1   
 18   8  32  1   
 19   8  33  1   
 20   9  13  1   
 21   9  34  1   
 22   9  35  1   
 23  10  14  2   
 24  11  15  2   
 25  11  36  1   
 26  12  13  1   
 27  12  16  1   
 28  12  37  1   
 29  13  38  1   
 30  13  39  1   
 31  14  15  1   
 32  14  40  1   
 33  15  41  1   
 34  16  17  1   
 35  16  42  1   
 36  16  43  1   
 37  17  18  2   
 38  17  19  1   
 39  18  20  1   
 40  18  44  1   
 41  19  21  1   
 42  19  22  1   
 43  19  45  1   
 44  20  23  1   
 45  20  46  1   
 46  20  47  1   
 47  21  23  1   
 48  21  24  1   
 49  21  25  1   
 50  22  23  1   
 51  22  48  1   
 52  22  49  1   
 53  23  50  1   
 54  24  51  1   
 55  24  52  1   
 56  24  53  1   
 57  25  54  1   
 58  25  55  1   
 59  25  56  1   
@<TRIPOS>SUBSTRUCTURE
  1 ****  12 GROUP 4 **** **** 0

# MOE 2024.06 (io_trps.svl 2023.06)
