@<TRIPOS>MOLECULE
NONAME
56 60 1 0 0 
SMALL
USER_CHARGES


@<TRIPOS>ATOM
  1 S        0.6920    -0.6830     0.6000 S.3   1 <1>  -0.0800 
  2 C       -0.1130    -1.9240     1.5590 C.ar  1 <1>   0.2970 
  3 C       -0.6700    -0.6060    -0.5090 C.2   1 <1>  -0.1400 
  4 N        0.4270    -2.4230     2.6500 N.ar  1 <1>  -0.5670 
  5 C       -1.3330    -2.2620     1.0140 C.ar  1 <1>   0.0000 
  6 C       -1.6380    -1.4670    -0.1590 C.2   1 <1>  -0.1810 
  7 C       -0.6470     0.3730    -1.6620 C.3   1 <1>   0.0200 
  8 C       -0.3420    -3.3240     3.2230 C.ar  1 <1>   0.4700 
  9 C       -2.0100    -3.2760     1.7070 C.ar  1 <1>   0.4100 
 10 C       -2.9340    -1.5310    -0.9540 C.3   1 <1>   0.0210 
 11 C       -1.8270     0.0760    -2.6050 C.3   1 <1>  -0.1600 
 12 N       -1.5220    -3.7790     2.8290 N.ar  1 <1>  -0.6200 
 13 N       -3.1850    -3.8420     1.2620 N.pl3 1 <1>  -0.8380 
 14 C       -3.1120    -0.2730    -1.8270 C.3   1 <1>  -0.1600 
 15 C       -3.2060    -4.6340    -0.0060 C.3   1 <1>   0.2090 
 16 C       -4.3110    -4.0700     2.2010 C.3   1 <1>   0.2090 
 17 C       -3.3380    -6.1560     0.2370 C.3   1 <1>   0.0000 
 18 C       -4.4400    -5.5610     2.5030 C.3   1 <1>  -0.1600 
 19 C       -4.5380    -6.3570     1.2010 C.3   1 <1>   0.2000 
 20 C       -3.7090    -6.8450    -1.0990 C.3   1 <1>   0.1200 
 21 C       -2.0200    -6.7510     0.8270 C.3   1 <1>  -0.0170 
 22 O       -4.7020    -7.6930     1.5280 O.3   1 <1>  -0.6800 
 23 O       -2.9010    -6.4110    -2.1420 O.3   1 <1>  -0.6800 
 24 C       -0.8180    -6.7520    -0.1150 C.ar  1 <1>  -0.1430 
 25 C        0.0300    -5.6580    -0.1790 C.ar  1 <1>  -0.1500 
 26 C       -0.5540    -7.8570    -0.9130 C.ar  1 <1>  -0.1500 
 27 C        1.1080    -5.6530    -1.0450 C.ar  1 <1>  -0.1500 
 28 C        0.5240    -7.8550    -1.7800 C.ar  1 <1>  -0.1500 
 29 C        1.3550    -6.7510    -1.8490 C.ar  1 <1>  -0.1500 
 30 H       -0.7320     1.3710    -1.2690 H     1 <1>   0.0800 
 31 H        0.2820     0.2940    -2.1990 H     1 <1>   0.0800 
 32 H        0.0410    -3.7530     4.1340 H     1 <1>   0.1500 
 33 H       -2.9080    -2.3960    -1.5910 H     1 <1>   0.0800 
 34 H       -3.7710    -1.6200    -0.2840 H     1 <1>   0.0800 
 35 H       -2.0000     0.9260    -3.2410 H     1 <1>   0.0800 
 36 H       -1.5670    -0.7590    -3.2330 H     1 <1>   0.0800 
 37 H       -3.9230    -0.4310    -2.5150 H     1 <1>   0.0800 
 38 H       -3.3730     0.5560    -1.1930 H     1 <1>   0.0800 
 39 H       -4.0430    -4.3000    -0.5950 H     1 <1>   0.0800 
 40 H       -2.3160    -4.4310    -0.5740 H     1 <1>   0.0800 
 41 H       -4.1460    -3.5230     3.1150 H     1 <1>   0.0800 
 42 H       -5.2190    -3.7040     1.7530 H     1 <1>   0.0800 
 43 H       -5.3270    -5.7170     3.0910 H     1 <1>   0.0800 
 44 H       -3.5890    -5.8680     3.0830 H     1 <1>   0.0800 
 45 H       -5.4410    -6.0550     0.6940 H     1 <1>   0.0800 
 46 H       -4.7240    -6.6160    -1.3760 H     1 <1>   0.0800 
 47 H       -3.6160    -7.9150    -1.0170 H     1 <1>   0.0800 
 48 H       -1.7470    -6.2170     1.7180 H     1 <1>   0.0800 
 49 H       -2.1890    -7.7690     1.1260 H     1 <1>   0.0800 
 50 H       -4.0290    -7.9600     2.1830 H     1 <1>   0.4000 
 51 H       -1.9540    -6.5730    -1.9170 H     1 <1>   0.4000 
 52 H       -0.1420    -4.8010     0.4470 H     1 <1>   0.1500 
 53 H       -1.1890    -8.7250    -0.8670 H     1 <1>   0.1500 
 54 H        1.7550    -4.7930    -1.0890 H     1 <1>   0.1500 
 55 H        0.7190    -8.7120    -2.4000 H     1 <1>   0.1500 
 56 H        2.1930    -6.7460    -2.5240 H     1 <1>   0.1500 
@<TRIPOS>BOND
  1   1   2  1   
  2   1   3  1   
  3   2   4  ar  
  4   2   5  ar  
  5   3   6  2   
  6   3   7  1   
  7   4   8  ar  
  8   5   6  1   
  9   5   9  ar  
 10   6  10  1   
 11   7  11  1   
 12   7  30  1   
 13   7  31  1   
 14   8  12  ar  
 15   8  32  1   
 16   9  12  ar  
 17   9  13  1   
 18  10  14  1   
 19  10  33  1   
 20  10  34  1   
 21  11  14  1   
 22  11  35  1   
 23  11  36  1   
 24  13  15  1   
 25  13  16  1   
 26  14  37  1   
 27  14  38  1   
 28  15  17  1   
 29  15  39  1   
 30  15  40  1   
 31  16  18  1   
 32  16  41  1   
 33  16  42  1   
 34  17  19  1   
 35  17  20  1   
 36  17  21  1   
 37  18  19  1   
 38  18  43  1   
 39  18  44  1   
 40  19  22  1   
 41  19  45  1   
 42  20  23  1   
 43  20  46  1   
 44  20  47  1   
 45  21  24  1   
 46  21  48  1   
 47  21  49  1   
 48  22  50  1   
 49  23  51  1   
 50  24  25  ar  
 51  24  26  ar  
 52  25  27  ar  
 53  25  52  1   
 54  26  28  ar  
 55  26  53  1   
 56  27  29  ar  
 57  27  54  1   
 58  28  29  ar  
 59  28  55  1   
 60  29  56  1   
@<TRIPOS>SUBSTRUCTURE
  1 ****  15 GROUP 4 **** **** 0

# MOE 2024.06 (io_trps.svl 2023.06)
