@<TRIPOS>MOLECULE
NONAME
44 45 1 0 0 
SMALL
USER_CHARGES


@<TRIPOS>ATOM
  1 S        0.1900    -0.1770     0.2310 S.o2  1 <1>   1.3330 
  2 O       -0.5630     1.0540     0.3080 O.2   1 <1>  -0.6500 
  3 O        0.3930    -0.9640     1.4260 O.2   1 <1>  -0.6500 
  4 N       -0.5420    -1.1770    -0.9300 N.am  1 <1>  -0.8490 
  5 C        1.7720     0.2030    -0.5230 C.3   1 <1>  -0.0550 
  6 C       -0.1500    -2.5860    -0.8140 C.3   1 <1>   0.1160 
  7 C       -2.0030    -1.0640    -0.9200 C.3   1 <1>   0.1160 
  8 C        2.6250     1.1920     0.2980 C.3   1 <1>  -0.0800 
  9 C        3.8330     1.6640    -0.4930 C.3   1 <1>   0.2200 
 10 C        3.2820     0.5160     1.5060 C.3   1 <1>   0.1200 
 11 N        4.2980     2.9590     0.0540 N.am  1 <1>  -0.7300 
 12 C        4.8560     0.5770    -0.1830 C.3   1 <1>   0.1200 
 13 O        4.5530     0.1040     1.0960 O.3   1 <1>  -0.5600 
 14 C        4.2940     4.1300    -0.6240 C.2   1 <1>   0.5690 
 15 O        3.9200     4.2080    -1.7670 O.2   1 <1>  -0.5700 
 16 C        4.7780     5.3790     0.0700 C.3   1 <1>  -0.0990 
 17 C        5.9400     6.0000    -0.7110 C.3   1 <1>   0.0960 
 18 N        6.4450     7.1940    -0.0120 N.pl3 1 <1>   0.3140 
 19 N        7.1280     7.1010     1.1440 N.2   1 <1>  -0.7070 
 20 C        6.3000     8.4790    -0.3920 C.2   1 <1>  -0.3020 
 21 C        7.4030     8.3280     1.4680 C.2   1 <1>   0.1390 
 22 C        6.9080     9.2390     0.5420 C.2   1 <1>  -0.1500 
 23 H        2.3210    -0.7040    -0.6810 H     1 <1>   0.0800 
 24 H        1.5780     0.6390    -1.4850 H     1 <1>   0.0800 
 25 H       -0.5670    -3.1540    -1.6280 H     1 <1>   0.0800 
 26 H       -0.5010    -3.0000     0.1180 H     1 <1>   0.0800 
 27 H        0.9220    -2.6790    -0.8490 H     1 <1>   0.0800 
 28 H       -2.4320    -1.6980    -1.6770 H     1 <1>   0.0800 
 29 H       -2.2960    -0.0480    -1.1290 H     1 <1>   0.0800 
 30 H       -2.3950    -1.3450     0.0440 H     1 <1>   0.0800 
 31 H        2.0070     2.0230     0.5960 H     1 <1>   0.0800 
 32 H        3.6430     1.7500    -1.5500 H     1 <1>   0.0800 
 33 H        2.7420    -0.3390     1.8730 H     1 <1>   0.0800 
 34 H        3.4150     1.2210     2.3090 H     1 <1>   0.0800 
 35 H        4.6560     2.9110     1.0110 H     1 <1>   0.3700 
 36 H        5.8680     0.9420    -0.2040 H     1 <1>   0.0800 
 37 H        4.7540    -0.2470    -0.8670 H     1 <1>   0.0800 
 38 H        3.9610     6.0760     0.1230 H     1 <1>   0.0800 
 39 H        5.0970     5.1400     1.0680 H     1 <1>   0.0800 
 40 H        5.6200     6.2820    -1.6980 H     1 <1>   0.0800 
 41 H        6.7470     5.2960    -0.7970 H     1 <1>   0.0800 
 42 H        5.7830     8.7750    -1.2870 H     1 <1>   0.1500 
 43 H        7.9510     8.5990     2.3550 H     1 <1>   0.1500 
 44 H        7.0060    10.3090     0.5890 H     1 <1>   0.1500 
@<TRIPOS>BOND
  1   1   2  2   
  2   1   3  2   
  3   1   4  am  
  4   1   5  1   
  5   4   6  1   
  6   4   7  1   
  7   5   8  1   
  8   5  23  1   
  9   5  24  1   
 10   6  25  1   
 11   6  26  1   
 12   6  27  1   
 13   7  28  1   
 14   7  29  1   
 15   7  30  1   
 16   8   9  1   
 17   8  10  1   
 18   8  31  1   
 19   9  11  1   
 20   9  12  1   
 21   9  32  1   
 22  10  13  1   
 23  10  33  1   
 24  10  34  1   
 25  11  14  am  
 26  11  35  1   
 27  12  13  1   
 28  12  36  1   
 29  12  37  1   
 30  14  15  2   
 31  14  16  1   
 32  16  17  1   
 33  16  38  1   
 34  16  39  1   
 35  17  18  1   
 36  17  40  1   
 37  17  41  1   
 38  18  19  1   
 39  18  20  1   
 40  19  21  2   
 41  20  22  2   
 42  20  42  1   
 43  21  22  1   
 44  21  43  1   
 45  22  44  1   
@<TRIPOS>SUBSTRUCTURE
  1 ****  11 GROUP 4 **** **** 0

# MOE 2024.06 (io_trps.svl 2023.06)
