@<TRIPOS>MOLECULE
NONAME
48 51 1 0 0 
SMALL
USER_CHARGES


@<TRIPOS>ATOM
  1 F        0.1570     0.4440    -1.1140 F     1 <1>  -0.1900 
  2 C        1.1370     1.1660    -0.6100 C.ar  1 <1>   0.1900 
  3 C        2.4150     0.6390    -0.4390 C.ar  1 <1>   0.4100 
  4 C        0.8960     2.4620    -0.2490 C.ar  1 <1>   0.1600 
  5 N        3.3670     1.3940     0.0750 N.ar  1 <1>  -0.6200 
  6 N        2.7550    -0.6660    -0.7760 N.pl3 1 <1>  -0.8380 
  7 N        1.8450     3.2240     0.2610 N.ar  1 <1>  -0.6200 
  8 C        3.0290     2.6310     0.3960 C.ar  1 <1>   0.7200 
  9 C        2.1000    -1.7840    -0.0350 C.3   1 <1>   0.2090 
 10 C        4.1640    -0.9940    -1.1600 C.3   1 <1>   0.2090 
 11 N        4.0300     3.3590     0.9260 N.pl3 1 <1>  -0.8690 
 12 C        3.0050    -2.2920     1.1050 C.3   1 <1>   0.1200 
 13 C        4.9510    -1.5450     0.0430 C.3   1 <1>   0.1200 
 14 C        4.2210     4.7730     0.5540 C.3   1 <1>   0.3900 
 15 O        4.2780    -2.6290     0.6270 O.3   1 <1>  -0.5600 
 16 C        5.6880     5.0270     0.1990 C.2   1 <1>   0.1080 
 17 N        6.5910     4.0870     0.1320 N.2   1 <1>  -0.7070 
 18 C        6.2250     6.2820    -0.0940 C.2   1 <1>  -0.1810 
 19 N        7.7250     4.7270    -0.2020 N.pl3 1 <1>   0.3000 
 20 C        7.5290     6.0530    -0.3450 C.2   1 <1>  -0.3320 
 21 C        5.5150     7.6230    -0.1350 C.3   1 <1>   0.0210 
 22 C        8.6170     7.0400    -0.7190 C.3   1 <1>   0.0200 
 23 C        6.2000     8.6610     0.7650 C.3   1 <1>  -0.1600 
 24 C        8.7060     8.1920     0.2900 C.3   1 <1>  -0.1600 
 25 C        7.5380     9.1910     0.2180 C.3   1 <1>  -0.1600 
 26 H       -0.0850     2.8820    -0.3800 H     1 <1>   0.1500 
 27 H        1.8990    -2.5920    -0.7170 H     1 <1>   0.0800 
 28 H        1.1620    -1.4580     0.3780 H     1 <1>   0.0800 
 29 H        4.6580    -0.1170    -1.5430 H     1 <1>   0.0800 
 30 H        4.1540    -1.7310    -1.9440 H     1 <1>   0.0800 
 31 H        4.9350     2.8900     0.8110 H     1 <1>   0.4000 
 32 H        2.5790    -3.1720     1.5520 H     1 <1>   0.0800 
 33 H        3.1120    -1.5340     1.8610 H     1 <1>   0.0800 
 34 H        5.0810    -0.7760     0.7850 H     1 <1>   0.0800 
 35 H        5.9190    -1.8890    -0.2730 H     1 <1>   0.0800 
 36 H        3.9380     5.3930     1.3850 H     1 <1>   0.0800 
 37 H        3.6090     5.0250    -0.2940 H     1 <1>   0.0800 
 38 H        8.6160     4.2310    -0.3230 H     1 <1>   0.2700 
 39 H        4.5000     7.5030     0.1950 H     1 <1>   0.0800 
 40 H        5.4870     7.9790    -1.1500 H     1 <1>   0.0800 
 41 H        8.4280     7.4270    -1.7050 H     1 <1>   0.0800 
 42 H        9.5650     6.5320    -0.7440 H     1 <1>   0.0800 
 43 H        6.3460     8.2430     1.7460 H     1 <1>   0.0800 
 44 H        5.5320     9.4970     0.8690 H     1 <1>   0.0800 
 45 H        9.6160     8.7320     0.0940 H     1 <1>   0.0800 
 46 H        8.7790     7.7900     1.2860 H     1 <1>   0.0800 
 47 H        7.8100    10.0510     0.8060 H     1 <1>   0.0800 
 48 H        7.4100     9.5310    -0.7950 H     1 <1>   0.0800 
@<TRIPOS>BOND
  1   1   2  1   
  2   2   3  ar  
  3   2   4  ar  
  4   3   5  ar  
  5   3   6  1   
  6   4   7  ar  
  7   4  26  1   
  8   5   8  ar  
  9   6   9  1   
 10   6  10  1   
 11   7   8  ar  
 12   8  11  1   
 13   9  12  1   
 14   9  27  1   
 15   9  28  1   
 16  10  13  1   
 17  10  29  1   
 18  10  30  1   
 19  11  14  1   
 20  11  31  1   
 21  12  15  1   
 22  12  32  1   
 23  12  33  1   
 24  13  15  1   
 25  13  34  1   
 26  13  35  1   
 27  14  16  1   
 28  14  36  1   
 29  14  37  1   
 30  16  17  2   
 31  16  18  1   
 32  17  19  1   
 33  18  20  2   
 34  18  21  1   
 35  19  20  1   
 36  19  38  1   
 37  20  22  1   
 38  21  23  1   
 39  21  39  1   
 40  21  40  1   
 41  22  24  1   
 42  22  41  1   
 43  22  42  1   
 44  23  25  1   
 45  23  43  1   
 46  23  44  1   
 47  24  25  1   
 48  24  45  1   
 49  24  46  1   
 50  25  47  1   
 51  25  48  1   
@<TRIPOS>SUBSTRUCTURE
  1 ****  11 GROUP 4 **** **** 0

# MOE 2024.06 (io_trps.svl 2023.06)
