@<TRIPOS>MOLECULE
NONAME
47 49 1 0 0 
SMALL
USER_CHARGES


@<TRIPOS>ATOM
  1 O       -0.3530     0.3430     0.3810 O.2   1 <1>  -0.5700 
  2 C       -1.4040     0.9390     0.2410 C.2   1 <1>   0.5440 
  3 N       -2.5580     0.2050     0.0850 N.am  1 <1>  -0.6600 
  4 C       -1.4180     2.3900     0.2220 C.ar  1 <1>   0.0860 
  5 C       -3.8050     0.7130    -0.5410 C.3   1 <1>   0.1400 
  6 C       -2.5570    -1.2780     0.1210 C.3   1 <1>   0.1400 
  7 C       -2.3320     3.1210     0.9770 C.ar  1 <1>  -0.1500 
  8 C       -0.5110     3.1040    -0.5550 C.ar  1 <1>  -0.1500 
  9 C       -4.4710    -0.5260    -1.1370 C.3   1 <1>   0.2000 
 10 C       -3.9680    -1.6970    -0.2950 C.3   1 <1>  -0.0800 
 11 C       -2.3630     4.5040     0.9440 C.ar  1 <1>   0.0830 
 12 C       -0.5210     4.4870    -0.6000 C.ar  1 <1>   0.0830 
 13 O       -5.8530    -0.4490    -1.0740 O.3   1 <1>  -0.6800 
 14 C       -4.0150    -3.0380    -1.0420 C.3   1 <1>   0.0200 
 15 O       -3.3060     5.1050     1.7110 O.3   1 <1>  -0.3630 
 16 C       -1.4540     5.1950     0.1500 C.ar  1 <1>  -0.1500 
 17 O        0.4060     5.0740    -1.3980 O.3   1 <1>  -0.3630 
 18 C       -3.4410    -4.1520    -0.1900 C.2   1 <1>  -0.0400 
 19 C       -3.4000     6.5090     1.8010 C.3   1 <1>   0.0400 
 20 C        0.5390     6.4760    -1.4710 C.3   1 <1>   0.0400 
 21 O       -4.0200    -4.4810     0.9330 O.3   1 <1>  -0.0190 
 22 C       -2.3670    -4.9410    -0.3480 C.2   1 <1>  -0.1500 
 23 N       -3.3900    -5.4460     1.5390 N.2   1 <1>  -0.4100 
 24 C       -2.3900    -5.7440     0.7890 C.2   1 <1>   0.1080 
 25 C       -1.3780    -6.8210     1.1100 C.3   1 <1>  -0.0590 
 26 H       -4.4280     1.1520     0.2180 H     1 <1>   0.0800 
 27 H       -3.5830     1.4350    -1.3080 H     1 <1>   0.0800 
 28 H       -1.8220    -1.6440    -0.5760 H     1 <1>   0.0800 
 29 H       -2.3140    -1.6330     1.1090 H     1 <1>   0.0800 
 30 H       -3.0310     2.6040     1.6080 H     1 <1>   0.1500 
 31 H        0.2200     2.5680    -1.1340 H     1 <1>   0.1500 
 32 H       -4.1830    -0.6310    -2.1690 H     1 <1>   0.0800 
 33 H       -4.5550    -1.7690     0.6040 H     1 <1>   0.0800 
 34 H       -6.1500    -0.4110    -0.1440 H     1 <1>   0.4000 
 35 H       -3.4550    -2.9680    -1.9580 H     1 <1>   0.0800 
 36 H       -5.0340    -3.2770    -1.2920 H     1 <1>   0.0800 
 37 H       -1.4710     6.2640     0.1170 H     1 <1>   0.1500 
 38 H       -4.2010     6.7470     2.4780 H     1 <1>   0.0800 
 39 H       -3.6170     6.9090     0.8260 H     1 <1>   0.0800 
 40 H       -2.4720     6.8980     2.1820 H     1 <1>   0.0800 
 41 H        1.3520     6.6990    -2.1390 H     1 <1>   0.0800 
 42 H        0.7590     6.8570    -0.4890 H     1 <1>   0.0800 
 43 H       -0.3730     6.8950    -1.8550 H     1 <1>   0.0800 
 44 H       -1.6430    -4.9740    -1.1400 H     1 <1>   0.1500 
 45 H       -1.3730    -7.5610     0.3310 H     1 <1>   0.0800 
 46 H       -1.6310    -7.2970     2.0410 H     1 <1>   0.0800 
 47 H       -0.3990    -6.3870     1.1960 H     1 <1>   0.0800 
@<TRIPOS>BOND
  1   1   2  2   
  2   2   3  am  
  3   2   4  1   
  4   3   5  1   
  5   3   6  1   
  6   4   7  ar  
  7   4   8  ar  
  8   5   9  1   
  9   5  26  1   
 10   5  27  1   
 11   6  10  1   
 12   6  28  1   
 13   6  29  1   
 14   7  11  ar  
 15   7  30  1   
 16   8  12  ar  
 17   8  31  1   
 18   9  10  1   
 19   9  13  1   
 20   9  32  1   
 21  10  14  1   
 22  10  33  1   
 23  11  15  1   
 24  11  16  ar  
 25  12  16  ar  
 26  12  17  1   
 27  13  34  1   
 28  14  18  1   
 29  14  35  1   
 30  14  36  1   
 31  15  19  1   
 32  16  37  1   
 33  17  20  1   
 34  18  21  1   
 35  18  22  2   
 36  19  38  1   
 37  19  39  1   
 38  19  40  1   
 39  20  41  1   
 40  20  42  1   
 41  20  43  1   
 42  21  23  1   
 43  22  24  1   
 44  22  44  1   
 45  23  24  2   
 46  24  25  1   
 47  25  45  1   
 48  25  46  1   
 49  25  47  1   
@<TRIPOS>SUBSTRUCTURE
  1 ****   3 GROUP 4 **** **** 0

# MOE 2024.06 (io_trps.svl 2023.06)
