@<TRIPOS>MOLECULE
NONAME
42 44 1 0 0 
SMALL
USER_CHARGES


@<TRIPOS>ATOM
  1 S       -2.6080     0.4810     1.0790 S.3   1 <1>  -0.0800 
  2 C       -1.9700     0.7180    -0.5350 C.2   1 <1>   0.1980 
  3 C       -1.0830     1.0090     1.7270 C.2   1 <1>  -0.1100 
  4 N       -0.7670     1.1350    -0.5650 N.2   1 <1>  -0.5650 
  5 C       -2.8920     0.4030    -1.7000 C.3   1 <1>   0.3200 
  6 C       -0.2540     1.3050     0.7120 C.2   1 <1>   0.0460 
  7 N       -3.1390    -1.0570    -1.7840 N.am  1 <1>  -0.7300 
  8 C        1.1800     1.8050     0.7960 C.3   1 <1>   0.0210 
  9 C       -4.3290    -1.6640    -1.5470 C.2   1 <1>   0.5690 
 10 C        1.6880     1.9700     2.2340 C.3   1 <1>  -0.2400 
 11 O       -5.3320    -1.0200    -1.3570 O.2   1 <1>  -0.5700 
 12 C       -4.3890    -3.1920    -1.4840 C.3   1 <1>   0.2610 
 13 O       -3.3270    -3.7630    -2.2390 O.3   1 <1>  -0.5600 
 14 C       -4.3220    -3.6430    -0.0020 C.3   1 <1>   0.3640 
 15 C       -3.3390    -5.1740    -2.2870 C.3   1 <1>   0.1810 
 16 N       -3.9100    -5.0630     0.1300 N.am  1 <1>  -0.7300 
 17 C       -5.6550    -3.4530     0.7110 C.ar  1 <1>  -0.1440 
 18 C       -3.4410    -5.8070    -0.8970 C.2   1 <1>   0.5690 
 19 C       -6.6910    -4.3660     0.5600 C.ar  1 <1>   0.1600 
 20 C       -5.8610    -2.3520     1.5220 C.ar  1 <1>  -0.1500 
 21 O       -3.1260    -6.9560    -0.7280 O.2   1 <1>  -0.5700 
 22 N       -7.8780    -4.2730     1.1360 N.ar  1 <1>  -0.6200 
 23 C       -7.0930    -2.2390     2.1280 C.ar  1 <1>  -0.1500 
 24 C       -8.0520    -3.2110     1.9050 C.ar  1 <1>   0.1600 
 25 H       -0.9720     1.0410     2.7950 H     1 <1>   0.1500 
 26 H       -2.4340     0.7370    -2.6140 H     1 <1>   0.0800 
 27 H       -3.8190     0.9340    -1.5730 H     1 <1>   0.0800 
 28 H       -2.3230    -1.6400    -1.9920 H     1 <1>   0.3700 
 29 H        1.8140     1.1110     0.2730 H     1 <1>   0.0800 
 30 H        1.2400     2.7510     0.2880 H     1 <1>   0.0800 
 31 H        1.6580     1.0270     2.7510 H     1 <1>   0.0800 
 32 H        1.0820     2.6830     2.7650 H     1 <1>   0.0800 
 33 H        2.7040     2.3230     2.2250 H     1 <1>   0.0800 
 34 H       -5.3170    -3.5100    -1.9240 H     1 <1>   0.0800 
 35 H       -3.5790    -3.0430     0.4960 H     1 <1>   0.0800 
 36 H       -4.1730    -5.4890    -2.8880 H     1 <1>   0.0800 
 37 H       -2.4290    -5.4950    -2.7590 H     1 <1>   0.0800 
 38 H       -3.9660    -5.4900     1.0570 H     1 <1>   0.3700 
 39 H       -6.5400    -5.2270    -0.0700 H     1 <1>   0.1500 
 40 H       -5.1030    -1.6020     1.6730 H     1 <1>   0.1500 
 41 H       -7.3130    -1.4020     2.7650 H     1 <1>   0.1500 
 42 H       -9.0110    -3.1110     2.3830 H     1 <1>   0.1500 
@<TRIPOS>BOND
  1   1   2  1   
  2   1   3  1   
  3   2   4  2   
  4   2   5  1   
  5   3   6  2   
  6   3  25  1   
  7   4   6  1   
  8   5   7  1   
  9   5  26  1   
 10   5  27  1   
 11   6   8  1   
 12   7   9  am  
 13   7  28  1   
 14   8  10  1   
 15   8  29  1   
 16   8  30  1   
 17   9  11  2   
 18   9  12  1   
 19  10  31  1   
 20  10  32  1   
 21  10  33  1   
 22  12  13  1   
 23  12  14  1   
 24  12  34  1   
 25  13  15  1   
 26  14  16  1   
 27  14  17  1   
 28  14  35  1   
 29  15  18  1   
 30  15  36  1   
 31  15  37  1   
 32  16  18  am  
 33  16  38  1   
 34  17  19  ar  
 35  17  20  ar  
 36  18  21  2   
 37  19  22  ar  
 38  19  39  1   
 39  20  23  ar  
 40  20  40  1   
 41  22  24  ar  
 42  23  24  ar  
 43  23  41  1   
 44  24  42  1   
@<TRIPOS>SUBSTRUCTURE
  1 ****   9 GROUP 4 **** **** 0

# MOE 2024.06 (io_trps.svl 2023.06)
