@<TRIPOS>MOLECULE
NONAME
47 50 1 0 0 
SMALL
USER_CHARGES


@<TRIPOS>ATOM
  1 S       -1.1290     0.8990     2.1650 S.3   1 <1>  -0.0800 
  2 C       -1.6670     0.8100     0.4900 C.2   1 <1>   0.3250 
  3 C       -0.4070     2.4440     1.8560 C.2   1 <1>  -0.1100 
  4 N       -1.3180     1.8490    -0.1860 N.2   1 <1>  -0.5650 
  5 C       -2.4060    -0.3450     0.0310 C.ar  1 <1>   0.0530 
  6 C       -0.6160     2.7650     0.5690 C.2   1 <1>   0.0460 
  7 C       -2.7800    -1.3990     0.8700 C.ar  1 <1>   0.1600 
  8 C       -2.7850    -0.4530    -1.3020 C.ar  1 <1>  -0.1500 
  9 C       -0.1710     4.0200    -0.1630 C.3   1 <1>   0.0210 
 10 N       -3.4540    -2.4800     0.5110 N.ar  1 <1>  -0.6200 
 11 C       -3.4870    -1.5690    -1.6990 C.ar  1 <1>  -0.1500 
 12 C        0.6360     4.9680     0.7240 C.3   1 <1>   0.2090 
 13 C       -3.7930    -2.5430    -0.7660 C.ar  1 <1>   0.1600 
 14 N        1.0570     6.1540    -0.0580 N.pl3 1 <1>  -0.8690 
 15 C        2.3800     6.4250    -0.2850 C.ar  1 <1>   0.4100 
 16 N        2.7020     7.6760    -0.0390 N.ar  1 <1>  -0.6200 
 17 C        3.3020     5.4670    -0.7360 C.ar  1 <1>   0.1600 
 18 C        4.0030     7.9500    -0.2440 C.ar  1 <1>   0.3960 
 19 N        4.5820     5.6970    -0.9390 N.ar  1 <1>  -0.6200 
 20 C        4.5420     9.2930    -0.0160 C.2   1 <1>   0.5440 
 21 C        4.8940     6.9600    -0.6750 C.ar  1 <1>   0.1600 
 22 O        5.7040     9.4090     0.3400 O.2   1 <1>  -0.5700 
 23 N        3.8220    10.4590    -0.2020 N.am  1 <1>  -0.6600 
 24 C        4.3880    11.7990     0.0670 C.3   1 <1>   0.1400 
 25 C        2.4610    10.5640    -0.7720 C.3   1 <1>   0.1400 
 26 C        3.2300    12.7660    -0.1540 C.3   1 <1>  -0.1600 
 27 C        2.2990    12.0390    -1.1210 C.3   1 <1>  -0.1600 
 28 H        0.0890     2.9330     2.6740 H     1 <1>   0.1500 
 29 H       -2.5090    -1.3530     1.9090 H     1 <1>   0.1500 
 30 H       -2.5320     0.3220    -2.0060 H     1 <1>   0.1500 
 31 H       -1.0430     4.5320    -0.5280 H     1 <1>   0.0800 
 32 H        0.4280     3.7280    -1.0060 H     1 <1>   0.0800 
 33 H       -3.7960    -1.6870    -2.7220 H     1 <1>   0.1500 
 34 H        1.5000     4.4570     1.1150 H     1 <1>   0.0800 
 35 H        0.0310     5.2910     1.5540 H     1 <1>   0.0800 
 36 H       -4.3420    -3.4130    -1.0830 H     1 <1>   0.1500 
 37 H        0.5650     7.0100     0.2190 H     1 <1>   0.4000 
 38 H        2.9400     4.4760    -0.9320 H     1 <1>   0.1500 
 39 H        5.9260     7.2370    -0.8100 H     1 <1>   0.1500 
 40 H        5.1830    11.9900    -0.6340 H     1 <1>   0.0800 
 41 H        4.7720    11.8570     1.0710 H     1 <1>   0.0800 
 42 H        1.7440    10.2760    -0.0220 H     1 <1>   0.0800 
 43 H        2.3510     9.9380    -1.6410 H     1 <1>   0.0800 
 44 H        3.5670    13.7120    -0.5390 H     1 <1>   0.0800 
 45 H        2.7290    12.9280     0.7850 H     1 <1>   0.0800 
 46 H        1.2770    12.3620    -1.0300 H     1 <1>   0.0800 
 47 H        2.6290    12.1970    -2.1330 H     1 <1>   0.0800 
@<TRIPOS>BOND
  1   1   2  1   
  2   1   3  1   
  3   2   4  2   
  4   2   5  1   
  5   3   6  2   
  6   3  28  1   
  7   4   6  1   
  8   5   7  ar  
  9   5   8  ar  
 10   6   9  1   
 11   7  10  ar  
 12   7  29  1   
 13   8  11  ar  
 14   8  30  1   
 15   9  12  1   
 16   9  31  1   
 17   9  32  1   
 18  10  13  ar  
 19  11  13  ar  
 20  11  33  1   
 21  12  14  1   
 22  12  34  1   
 23  12  35  1   
 24  13  36  1   
 25  14  15  1   
 26  14  37  1   
 27  15  16  ar  
 28  15  17  ar  
 29  16  18  ar  
 30  17  19  ar  
 31  17  38  1   
 32  18  20  1   
 33  18  21  ar  
 34  19  21  ar  
 35  20  22  2   
 36  20  23  am  
 37  21  39  1   
 38  23  24  1   
 39  23  25  1   
 40  24  26  1   
 41  24  40  1   
 42  24  41  1   
 43  25  27  1   
 44  25  42  1   
 45  25  43  1   
 46  26  27  1   
 47  26  44  1   
 48  26  45  1   
 49  27  46  1   
 50  27  47  1   
@<TRIPOS>SUBSTRUCTURE
  1 ****  12 GROUP 4 **** **** 0

# MOE 2024.06 (io_trps.svl 2023.06)
