@<TRIPOS>MOLECULE
NONAME
41 43 1 0 0 
SMALL
USER_CHARGES


@<TRIPOS>ATOM
  1 CL      -0.0980    -2.0490     3.1360 Cl    1 <1>  -0.1770 
  2 C        0.0670    -2.3290     1.4120 C.ar  1 <1>   0.1770 
  3 C        0.5370    -3.5460     0.9340 C.ar  1 <1>   0.4100 
  4 C       -0.2640    -1.3600     0.5080 C.ar  1 <1>   0.1600 
  5 N        0.6510    -3.7620    -0.3650 N.ar  1 <1>  -0.6200 
  6 N        0.8670    -4.5810     1.7870 N.pl3 1 <1>  -0.8690 
  7 N       -0.1450    -1.5630    -0.7930 N.ar  1 <1>  -0.6200 
  8 C        0.3100    -2.7500    -1.1510 C.ar  1 <1>   0.4770 
  9 C        2.0530    -5.4910     1.6390 C.3   1 <1>   0.2890 
 10 C        0.4480    -2.9680    -2.6390 C.3   1 <1>  -0.0970 
 11 C        2.0100    -6.2520     0.2940 C.3   1 <1>   0.3430 
 12 C        1.9640    -6.5280     2.7750 C.3   1 <1>  -0.1600 
 13 N        0.6200    -6.7770     0.1610 N.4   1 <1>  -0.9590 
 14 C        1.2560    -7.8440     2.3600 C.3   1 <1>  -0.1600 
 15 C        0.1900    -7.7070     1.2540 C.3   1 <1>   0.3430 
 16 C        0.2390    -7.1800    -1.2090 C.3   1 <1>   0.5230 
 17 C       -1.2700    -7.1530    -1.3050 C.2   1 <1>  -0.1400 
 18 S       -2.1280    -8.6570    -1.0060 S.3   1 <1>  -0.0800 
 19 C       -2.1380    -6.1630    -1.5880 C.2   1 <1>  -0.1500 
 20 C       -3.6760    -7.8790    -1.2780 C.2   1 <1>  -0.1100 
 21 C       -3.5080    -6.5770    -1.5720 C.2   1 <1>  -0.1500 
 22 H       -0.6320    -0.4060     0.8460 H     1 <1>   0.1500 
 23 H        0.7030    -4.3420     2.7750 H     1 <1>   0.4000 
 24 H        2.9610    -4.9170     1.7240 H     1 <1>   0.0800 
 25 H        0.9610    -3.8880    -2.8480 H     1 <1>   0.0800 
 26 H        1.0040    -2.1560    -3.0690 H     1 <1>   0.0800 
 27 H       -0.5270    -2.9960    -3.0880 H     1 <1>   0.0800 
 28 H        2.7310    -7.0510     0.2870 H     1 <1>   0.0800 
 29 H        2.2360    -5.5690    -0.5080 H     1 <1>   0.0800 
 30 H        1.4710    -6.0980     3.6300 H     1 <1>   0.0800 
 31 H        2.9630    -6.7770     3.0910 H     1 <1>   0.0800 
 32 H        0.0850    -5.9030     0.3400 H     1 <1>   0.4500 
 33 H        0.8050    -8.2980     3.2250 H     1 <1>   0.0800 
 34 H        1.9980    -8.5400     2.0070 H     1 <1>   0.0800 
 35 H       -0.0220    -8.6830     0.8470 H     1 <1>   0.0800 
 36 H       -0.7220    -7.3290     1.6870 H     1 <1>   0.0800 
 37 H        0.6150    -8.1630    -1.4410 H     1 <1>   0.0800 
 38 H        0.6430    -6.4750    -1.9160 H     1 <1>   0.0800 
 39 H       -1.8860    -5.1390    -1.8110 H     1 <1>   0.1500 
 40 H       -4.5610    -8.4860    -1.1900 H     1 <1>   0.1500 
 41 H       -4.3010    -5.8790    -1.7820 H     1 <1>   0.1500 
@<TRIPOS>BOND
  1   1   2  1   
  2   2   3  ar  
  3   2   4  ar  
  4   3   5  ar  
  5   3   6  1   
  6   4   7  ar  
  7   4  22  1   
  8   5   8  ar  
  9   6   9  1   
 10   6  23  1   
 11   7   8  ar  
 12   8  10  1   
 13   9  11  1   
 14   9  12  1   
 15   9  24  1   
 16  10  25  1   
 17  10  26  1   
 18  10  27  1   
 19  11  13  1   
 20  11  28  1   
 21  11  29  1   
 22  12  14  1   
 23  12  30  1   
 24  12  31  1   
 25  13  15  1   
 26  13  16  1   
 27  13  32  1   
 28  14  15  1   
 29  14  33  1   
 30  14  34  1   
 31  15  35  1   
 32  15  36  1   
 33  16  17  1   
 34  16  37  1   
 35  16  38  1   
 36  17  18  1   
 37  17  19  2   
 38  18  20  1   
 39  19  21  1   
 40  19  39  1   
 41  20  21  2   
 42  20  40  1   
 43  21  41  1   
@<TRIPOS>SUBSTRUCTURE
  1 ****   5 GROUP 4 **** **** 0

# MOE 2024.06 (io_trps.svl 2023.06)
