@<TRIPOS>MOLECULE
NONAME
30 30 1 0 0 
SMALL
USER_CHARGES


@<TRIPOS>ATOM
  1 N       -0.0930     0.9640    -1.7200 N.pl3 1 <1>  -0.7540 
  2 C        0.0320     1.6100    -0.5850 C.cat 1 <1>   0.7310 
  3 N       -0.9830     1.6570     0.2460 N.pl3 1 <1>  -0.7540 
  4 C        1.2720     2.2620    -0.2520 C.ar  1 <1>  -0.0220 
  5 C        1.3500     3.6520    -0.1560 C.ar  1 <1>  -0.1500 
  6 C        2.4310     1.5260    -0.0170 C.ar  1 <1>  -0.1500 
  7 C        2.5280     4.3130     0.1640 C.ar  1 <1>  -0.1430 
  8 C        3.6130     2.1600     0.3020 C.ar  1 <1>  -0.1500 
  9 C        3.6620     3.5390     0.3920 C.ar  1 <1>  -0.1500 
 10 C        2.5380     5.8570     0.2510 C.3   1 <1>   0.1430 
 11 C        2.1380     6.4520    -1.1080 C.3   1 <1>  -0.2400 
 12 C        1.5400     6.3200     1.3240 C.3   1 <1>  -0.2400 
 13 C        3.9140     6.4360     0.6210 C.3   1 <1>  -0.2400 
 14 H       -0.9320     0.4760    -2.0350 H     1 <1>   0.4500 
 15 H        0.6780     0.9250    -2.3940 H     1 <1>   0.4500 
 16 H       -0.9080     2.1420     1.1450 H     1 <1>   0.4500 
 17 H       -1.8940     1.2250     0.0930 H     1 <1>   0.4500 
 18 H        0.4620     4.2300    -0.3430 H     1 <1>   0.1500 
 19 H        2.4180     0.4500    -0.0750 H     1 <1>   0.1500 
 20 H        4.5060     1.5850     0.4850 H     1 <1>   0.1500 
 21 H        4.6070     3.9840     0.6430 H     1 <1>   0.1500 
 22 H        1.1410     6.1660    -1.3840 H     1 <1>   0.0800 
 23 H        2.8130     6.1100    -1.8720 H     1 <1>   0.0800 
 24 H        2.1780     7.5260    -1.0770 H     1 <1>   0.0800 
 25 H        0.5350     6.0370     1.0740 H     1 <1>   0.0800 
 26 H        1.5660     7.3900     1.4270 H     1 <1>   0.0800 
 27 H        1.7920     5.8820     2.2740 H     1 <1>   0.0800 
 28 H        4.6500     6.1690    -0.1170 H     1 <1>   0.0800 
 29 H        4.2330     6.0730     1.5820 H     1 <1>   0.0800 
 30 H        3.8730     7.5100     0.6720 H     1 <1>   0.0800 
@<TRIPOS>BOND
  1   1   2  ar  
  2   1  14  1   
  3   1  15  1   
  4   2   3  ar  
  5   2   4  1   
  6   3  16  1   
  7   3  17  1   
  8   4   5  ar  
  9   4   6  ar  
 10   5   7  ar  
 11   5  18  1   
 12   6   8  ar  
 13   6  19  1   
 14   7   9  ar  
 15   7  10  1   
 16   8   9  ar  
 17   8  20  1   
 18   9  21  1   
 19  10  11  1   
 20  10  12  1   
 21  10  13  1   
 22  11  22  1   
 23  11  23  1   
 24  11  24  1   
 25  12  25  1   
 26  12  26  1   
 27  12  27  1   
 28  13  28  1   
 29  13  29  1   
 30  13  30  1   
@<TRIPOS>SUBSTRUCTURE
  1 ****   5 GROUP 4 **** **** 0

# MOE 2024.06 (io_trps.svl 2023.06)
