@<TRIPOS>MOLECULE
NONAME
41 43 1 0 0 
SMALL
USER_CHARGES


@<TRIPOS>ATOM
  1 O       -0.7230     0.2040    -1.0020 O.2   1 <1>  -0.5700 
  2 C       -1.5700     0.7680    -0.3300 C.2   1 <1>   0.5440 
  3 N       -2.5650     0.0190     0.2440 N.am  1 <1>  -0.6600 
  4 C       -1.4850     2.2050    -0.1600 C.ar  1 <1>   0.0860 
  5 C       -3.5800     0.4780     1.2370 C.3   1 <1>   0.2350 
  6 C       -2.9510    -1.3320    -0.2510 C.3   1 <1>   0.2350 
  7 C       -0.3160     2.7960     0.3150 C.ar  1 <1>  -0.1500 
  8 C       -2.5480     3.0480    -0.4840 C.ar  1 <1>  -0.1500 
  9 C       -4.8500    -0.2700     0.8710 C.3   1 <1>  -0.2420 
 10 C       -4.4560    -1.4090    -0.0390 C.3   1 <1>  -0.2420 
 11 C       -0.1980     4.1660     0.4660 C.ar  1 <1>  -0.1440 
 12 C       -2.4620     4.4210    -0.3380 C.ar  1 <1>  -0.1440 
 13 C       -5.8740    -0.1700     2.0050 C.2   1 <1>   0.9470 
 14 C       -5.3520    -0.3090    -0.5510 C.3   1 <1>  -0.2000 
 15 C       -4.9420    -2.8590    -0.1050 C.2   1 <1>   0.9470 
 16 C       -1.2730     4.9820     0.1210 C.ar  1 <1>   0.0820 
 17 C        1.0990     4.7520     1.0080 C.3   1 <1>  -0.0970 
 18 C       -3.6710     5.2830    -0.6750 C.3   1 <1>  -0.0970 
 19 O       -5.5090    -0.4090     3.1640 O.co2 1 <1>  -0.9000 
 20 O       -6.9920     0.3130     1.7750 O.co2 1 <1>  -0.9000 
 21 O       -4.3700    -3.7150     0.5830 O.co2 1 <1>  -0.9000 
 22 O       -5.7880    -3.1800    -0.9520 O.co2 1 <1>  -0.9000 
 23 O       -1.1640     6.3210     0.2430 O.3   1 <1>  -0.3630 
 24 C       -0.6940     7.0170    -0.8890 C.3   1 <1>   0.0400 
 25 H       -3.2610     0.1880     2.2240 H     1 <1>   0.0800 
 26 H       -3.7440     1.5380     1.2140 H     1 <1>   0.0800 
 27 H       -2.7010    -1.4580    -1.2900 H     1 <1>   0.0800 
 28 H       -2.4520    -2.0840     0.3370 H     1 <1>   0.0800 
 29 H        0.5070     2.1490     0.5630 H     1 <1>   0.1500 
 30 H       -3.4550     2.5990    -0.8530 H     1 <1>   0.1500 
 31 H       -4.9710     0.3860    -1.2750 H     1 <1>   0.1000 
 32 H       -6.3910    -0.5460    -0.7120 H     1 <1>   0.1000 
 33 H        1.6850     3.9950     1.4970 H     1 <1>   0.0800 
 34 H        0.8840     5.5260     1.7230 H     1 <1>   0.0800 
 35 H        1.6760     5.1690     0.2040 H     1 <1>   0.0800 
 36 H       -4.5690     4.6920    -0.6790 H     1 <1>   0.0800 
 37 H       -3.5450     5.7300    -1.6430 H     1 <1>   0.0800 
 38 H       -3.7860     6.0610     0.0580 H     1 <1>   0.0800 
 39 H       -0.6520     8.0640    -0.6470 H     1 <1>   0.0800 
 40 H       -1.3710     6.8520    -1.7070 H     1 <1>   0.0800 
 41 H        0.2870     6.6550    -1.1390 H     1 <1>   0.0800 
@<TRIPOS>BOND
  1   1   2  2   
  2   2   3  am  
  3   2   4  1   
  4   3   5  1   
  5   3   6  1   
  6   4   7  ar  
  7   4   8  ar  
  8   5   9  1   
  9   5  25  1   
 10   5  26  1   
 11   6  10  1   
 12   6  27  1   
 13   6  28  1   
 14   7  11  ar  
 15   7  29  1   
 16   8  12  ar  
 17   8  30  1   
 18   9  10  1   
 19   9  13  1   
 20   9  14  1   
 21  10  14  1   
 22  10  15  1   
 23  11  16  ar  
 24  11  17  1   
 25  12  16  ar  
 26  12  18  1   
 27  13  19  ar  
 28  13  20  ar  
 29  14  31  1   
 30  14  32  1   
 31  15  21  ar  
 32  15  22  ar  
 33  16  23  1   
 34  17  33  1   
 35  17  34  1   
 36  17  35  1   
 37  18  36  1   
 38  18  37  1   
 39  18  38  1   
 40  23  24  1   
 41  24  39  1   
 42  24  40  1   
 43  24  41  1   
@<TRIPOS>SUBSTRUCTURE
  1 ****   3 GROUP 4 **** **** 0

# MOE 2024.06 (io_trps.svl 2023.06)
