@<TRIPOS>MOLECULE
NONAME
45 48 1 0 0 
SMALL
USER_CHARGES


@<TRIPOS>ATOM
  1 S        2.4960     1.2900    -1.2090 S.3   1 <1>  -0.0800 
  2 C        3.1640    -0.1020    -0.3510 C.ar  1 <1>   0.0400 
  3 C        0.8540     0.6830    -1.0220 C.2   1 <1>  -0.1100 
  4 C        2.1450    -0.9570     0.0490 C.ar  1 <1>   0.0000 
  5 C        4.5010    -0.3310    -0.0920 C.ar  1 <1>  -0.1500 
  6 C        0.8430    -0.4920    -0.3660 C.2   1 <1>  -0.1810 
  7 C        2.5100    -2.0950     0.7700 C.ar  1 <1>  -0.1500 
  8 C        4.8380    -1.4730     0.6120 C.ar  1 <1>  -0.1500 
  9 C       -0.4030    -1.2940    -0.0690 C.3   1 <1>   0.5240 
 10 C        3.8440    -2.3460     1.0410 C.ar  1 <1>  -0.1500 
 11 N       -0.7350    -2.1040    -1.2810 N.4   1 <1>  -0.9590 
 12 C       -2.1120    -2.6730    -1.3230 C.3   1 <1>   0.4230 
 13 C        0.2900    -3.1680    -1.5280 C.3   1 <1>   0.2630 
 14 C       -2.4990    -3.5040    -0.1010 C.3   1 <1>  -0.1600 
 15 C       -3.1970    -1.6060    -1.4140 C.3   1 <1>  -0.1600 
 16 C       -4.0300    -3.5800    -0.1740 C.3   1 <1>  -0.0800 
 17 C       -4.4780    -2.3230    -0.9630 C.3   1 <1>  -0.0800 
 18 C       -4.7010    -3.7910     1.2010 C.3   1 <1>   0.1400 
 19 C       -5.4500    -1.4040    -0.1940 C.3   1 <1>  -0.0990 
 20 N       -6.1060    -3.3440     1.1440 N.am  1 <1>  -0.7300 
 21 C       -6.5090    -2.2250     0.5080 C.2   1 <1>   0.5690 
 22 O       -7.6600    -1.8810     0.5010 O.2   1 <1>  -0.5700 
 23 H        0.0760     1.2970    -1.4450 H     1 <1>   0.1500 
 24 H        5.2510     0.3640    -0.4280 H     1 <1>   0.1500 
 25 H        1.7690    -2.7840     1.1300 H     1 <1>   0.1500 
 26 H        5.8710    -1.6840     0.8320 H     1 <1>   0.1500 
 27 H       -1.2050    -0.6110     0.1530 H     1 <1>   0.0800 
 28 H       -0.2490    -1.9270     0.7890 H     1 <1>   0.0800 
 29 H        4.1270    -3.2250     1.5970 H     1 <1>   0.1500 
 30 H       -0.6610    -1.4420    -2.0650 H     1 <1>   0.4500 
 31 H       -2.2080    -3.3030    -2.1940 H     1 <1>   0.0800 
 32 H        0.3070    -3.8730    -0.7130 H     1 <1>   0.0800 
 33 H        1.2720    -2.7310    -1.6240 H     1 <1>   0.0800 
 34 H        0.0680    -3.6990    -2.4390 H     1 <1>   0.0800 
 35 H       -2.0640    -4.4870    -0.1300 H     1 <1>   0.0800 
 36 H       -2.2170    -3.0080     0.8100 H     1 <1>   0.0800 
 37 H       -2.9960    -0.7860    -0.7500 H     1 <1>   0.0800 
 38 H       -3.3020    -1.2340    -2.4180 H     1 <1>   0.0800 
 39 H       -4.2870    -4.4370    -0.7770 H     1 <1>   0.0800 
 40 H       -5.0020    -2.6710    -1.8390 H     1 <1>   0.0800 
 41 H       -4.1990    -3.2170     1.9620 H     1 <1>   0.0800 
 42 H       -4.6620    -4.8310     1.4780 H     1 <1>   0.0800 
 43 H       -5.9250    -0.7150    -0.8690 H     1 <1>   0.0800 
 44 H       -4.9330    -0.8380     0.5580 H     1 <1>   0.0800 
 45 H       -6.8190    -3.8770     1.6500 H     1 <1>   0.3700 
@<TRIPOS>BOND
  1   1   2  1   
  2   1   3  1   
  3   2   4  ar  
  4   2   5  ar  
  5   3   6  2   
  6   3  23  1   
  7   4   6  1   
  8   4   7  ar  
  9   5   8  ar  
 10   5  24  1   
 11   6   9  1   
 12   7  10  ar  
 13   7  25  1   
 14   8  10  ar  
 15   8  26  1   
 16   9  11  1   
 17   9  27  1   
 18   9  28  1   
 19  10  29  1   
 20  11  12  1   
 21  11  13  1   
 22  11  30  1   
 23  12  14  1   
 24  12  15  1   
 25  12  31  1   
 26  13  32  1   
 27  13  33  1   
 28  13  34  1   
 29  14  16  1   
 30  14  35  1   
 31  14  36  1   
 32  15  17  1   
 33  15  37  1   
 34  15  38  1   
 35  16  17  1   
 36  16  18  1   
 37  16  39  1   
 38  17  19  1   
 39  17  40  1   
 40  18  20  1   
 41  18  41  1   
 42  18  42  1   
 43  19  21  1   
 44  19  43  1   
 45  19  44  1   
 46  20  21  am  
 47  20  45  1   
 48  21  22  2   
@<TRIPOS>SUBSTRUCTURE
  1 ****   9 GROUP 4 **** **** 0

# MOE 2024.06 (io_trps.svl 2023.06)
