@<TRIPOS>MOLECULE
NONAME
45 46 1 0 0 
SMALL
USER_CHARGES


@<TRIPOS>ATOM
  1 O        0.7920    -0.6710     0.7040 O.3   1 <1>  -0.4300 
  2 C        1.2570    -0.2440    -0.4720 C.2   1 <1>   0.5390 
  3 C        0.4240     0.4420     1.4740 C.3   1 <1>   0.1200 
  4 N        1.2580     1.0060    -0.6340 N.2   1 <1>  -0.6960 
  5 C        1.7070    -1.3140    -1.4710 C.3   1 <1>   0.1220 
  6 C        0.7600     1.6390     0.5740 C.3   1 <1>   0.1660 
  7 C        2.7680    -2.1550    -0.7540 C.2   1 <1>   0.5390 
  8 C        0.4890    -2.1670    -1.8990 C.3   1 <1>  -0.2400 
  9 C        2.3170    -0.6900    -2.7490 C.3   1 <1>  -0.2400 
 10 C        1.8180     2.5940     1.1750 C.3   1 <1>  -0.0800 
 11 O        3.8250    -1.5040    -0.2660 O.3   1 <1>  -0.4300 
 12 N        2.7700    -3.4030    -0.5820 N.2   1 <1>  -0.6960 
 13 C        1.3030     3.2710     2.4560 C.3   1 <1>  -0.2400 
 14 C        2.2320     3.6870     0.1750 C.3   1 <1>  -0.2400 
 15 C        4.6850    -2.4330     0.3410 C.3   1 <1>   0.1200 
 16 C        3.9620    -3.7750     0.1580 C.3   1 <1>   0.1660 
 17 C        3.5930    -4.4710     1.4890 C.3   1 <1>  -0.0800 
 18 C        4.8480    -4.8700     2.2830 C.3   1 <1>  -0.2400 
 19 C        2.7390    -5.7290     1.2560 C.3   1 <1>  -0.2400 
 20 H       -0.6280     0.3880     1.6870 H     1 <1>   0.0800 
 21 H        0.9950     0.4300     2.3840 H     1 <1>   0.0800 
 22 H       -0.1360     2.1890     0.3420 H     1 <1>   0.0800 
 23 H       -0.2580    -1.5490    -2.3650 H     1 <1>   0.0800 
 24 H        0.0500    -2.6450    -1.0410 H     1 <1>   0.0800 
 25 H        0.7900    -2.9320    -2.5920 H     1 <1>   0.0800 
 26 H        1.5870    -0.0850    -3.2570 H     1 <1>   0.0800 
 27 H        2.6590    -1.4600    -3.4170 H     1 <1>   0.0800 
 28 H        3.1530    -0.0620    -2.4920 H     1 <1>   0.0800 
 29 H        2.6930     2.0150     1.4240 H     1 <1>   0.0800 
 30 H        0.4160     3.8440     2.2490 H     1 <1>   0.0800 
 31 H        2.0520     3.9350     2.8500 H     1 <1>   0.0800 
 32 H        1.0750     2.5460     3.2160 H     1 <1>   0.0800 
 33 H        1.3780     4.2660    -0.1280 H     1 <1>   0.0800 
 34 H        2.6710     3.2450    -0.7030 H     1 <1>   0.0800 
 35 H        2.9600     4.3450     0.6140 H     1 <1>   0.0800 
 36 H        5.6310    -2.4190    -0.1690 H     1 <1>   0.0800 
 37 H        4.8060    -2.1610     1.3730 H     1 <1>   0.0800 
 38 H        4.5610    -4.4370    -0.4440 H     1 <1>   0.0800 
 39 H        3.0190    -3.7790     2.0840 H     1 <1>   0.0800 
 40 H        5.4560    -5.5480     1.7110 H     1 <1>   0.0800 
 41 H        4.5650    -5.3590     3.1990 H     1 <1>   0.0800 
 42 H        5.4380    -4.0090     2.5400 H     1 <1>   0.0800 
 43 H        3.2630    -6.4320     0.6330 H     1 <1>   0.0800 
 44 H        1.8140    -5.4690     0.7700 H     1 <1>   0.0800 
 45 H        2.5010    -6.2020     2.1910 H     1 <1>   0.0800 
@<TRIPOS>BOND
  1   1   2  1   
  2   1   3  1   
  3   2   4  2   
  4   2   5  1   
  5   3   6  1   
  6   3  20  1   
  7   3  21  1   
  8   4   6  1   
  9   5   7  1   
 10   5   8  1   
 11   5   9  1   
 12   6  10  1   
 13   6  22  1   
 14   7  11  1   
 15   7  12  2   
 16   8  23  1   
 17   8  24  1   
 18   8  25  1   
 19   9  26  1   
 20   9  27  1   
 21   9  28  1   
 22  10  13  1   
 23  10  14  1   
 24  10  29  1   
 25  11  15  1   
 26  12  16  1   
 27  13  30  1   
 28  13  31  1   
 29  13  32  1   
 30  14  33  1   
 31  14  34  1   
 32  14  35  1   
 33  15  16  1   
 34  15  36  1   
 35  15  37  1   
 36  16  17  1   
 37  16  38  1   
 38  17  18  1   
 39  17  19  1   
 40  17  39  1   
 41  18  40  1   
 42  18  41  1   
 43  18  42  1   
 44  19  43  1   
 45  19  44  1   
 46  19  45  1   
@<TRIPOS>SUBSTRUCTURE
  1 ****   2 GROUP 4 **** **** 0

# MOE 2024.06 (io_trps.svl 2023.06)
