@<TRIPOS>MOLECULE
NONAME
54 57 1 0 0 
SMALL
USER_CHARGES


@<TRIPOS>ATOM
  1 O       -1.3460     1.5570     3.2650 O.3   1 <1>  -0.5600 
  2 C        0.0010     1.4500     2.9190 C.3   1 <1>   0.1200 
  3 C       -2.1470     1.3320     2.1400 C.3   1 <1>   0.1200 
  4 C        0.0740     1.9240     1.4740 C.3   1 <1>   0.2890 
  5 C       -1.2130     1.3240     0.9240 C.3   1 <1>  -0.0800 
  6 N        0.0190     3.4100     1.4640 N.pl3 1 <1>  -0.8690 
  7 C       -1.7950     2.0120    -0.3250 C.3   1 <1>  -0.0170 
  8 C        0.6460     4.2530     0.6180 C.ar  1 <1>   0.4100 
  9 C       -3.0130     1.2620    -0.8410 C.ar  1 <1>  -0.1430 
 10 N        1.3240     3.7140    -0.3730 N.ar  1 <1>  -0.6200 
 11 C        0.5600     5.6520     0.8050 C.ar  1 <1>  -0.1430 
 12 C       -2.8920     0.1320    -1.6230 C.ar  1 <1>  -0.1500 
 13 C       -4.3010     1.6690    -0.5540 C.ar  1 <1>  -0.1500 
 14 C        1.9490     4.5220    -1.2150 C.ar  1 <1>   0.7710 
 15 C        1.2340     6.4540    -0.0620 C.ar  1 <1>   0.2180 
 16 C       -0.2590     6.2310     1.9620 C.3   1 <1>  -0.0160 
 17 C       -4.0300    -0.5200    -2.0660 C.ar  1 <1>   0.1600 
 18 C       -5.3730     0.9440    -1.0470 C.ar  1 <1>   0.1600 
 19 N        1.9180     5.8560    -1.0650 N.ar  1 <1>  -0.1790 
 20 N        2.6470     3.9940    -2.2610 N.pl3 1 <1>  -0.8380 
 21 C        1.2580     7.9770     0.0300 C.3   1 <1>  -0.0170 
 22 C       -0.5160     7.7370     1.8080 C.3   1 <1>  -0.1600 
 23 N       -5.2690    -0.1420    -1.7940 N.ar  1 <1>  -0.6200 
 24 C        2.8570     2.5130    -2.3860 C.3   1 <1>   0.1290 
 25 C        3.2280     4.7400    -3.4230 C.3   1 <1>   0.1290 
 26 C        0.7590     8.4770     1.3920 C.3   1 <1>  -0.1600 
 27 H        0.5980     2.0460     3.5850 H     1 <1>   0.0800 
 28 H        0.2820     0.4140     2.9980 H     1 <1>   0.0800 
 29 H       -2.6570     0.3900     2.2560 H     1 <1>   0.0800 
 30 H       -2.8670     2.1300     2.0880 H     1 <1>   0.0800 
 31 H        0.9550     1.5620     0.9710 H     1 <1>   0.0800 
 32 H       -1.0160     0.2960     0.6790 H     1 <1>   0.0800 
 33 H       -0.5630     3.7620     2.2300 H     1 <1>   0.4000 
 34 H       -1.0460     2.0430    -1.0960 H     1 <1>   0.0800 
 35 H       -2.0700     3.0270    -0.1000 H     1 <1>   0.0800 
 36 H       -1.9240    -0.2480    -1.8940 H     1 <1>   0.1500 
 37 H       -4.4840     2.5420     0.0460 H     1 <1>   0.1500 
 38 H       -1.2100     5.7320     2.0310 H     1 <1>   0.0800 
 39 H        0.2730     6.0540     2.8810 H     1 <1>   0.0800 
 40 H       -3.9160    -1.4000    -2.6760 H     1 <1>   0.1500 
 41 H       -6.3710     1.2760    -0.8130 H     1 <1>   0.1500 
 42 H        2.4580     6.3780    -1.7400 H     1 <1>   0.4570 
 43 H        2.2570     8.3460    -0.1250 H     1 <1>   0.0800 
 44 H        0.6270     8.3800    -0.7440 H     1 <1>   0.0800 
 45 H       -1.2820     7.8970     1.0670 H     1 <1>   0.0800 
 46 H       -0.8800     8.1330     2.7410 H     1 <1>   0.0800 
 47 H        3.8410     2.3090    -2.7730 H     1 <1>   0.0800 
 48 H        2.1250     2.0960    -3.0570 H     1 <1>   0.0800 
 49 H        2.7720     2.0190    -1.4330 H     1 <1>   0.0800 
 50 H        3.0480     4.1910    -4.3340 H     1 <1>   0.0800 
 51 H        4.2930     4.8430    -3.2960 H     1 <1>   0.0800 
 52 H        2.7850     5.7130    -3.5390 H     1 <1>   0.0800 
 53 H        1.5190     8.3190     2.1390 H     1 <1>   0.0800 
 54 H        0.5660     9.5360     1.3410 H     1 <1>   0.0800 
@<TRIPOS>BOND
  1   1   2  1   
  2   1   3  1   
  3   2   4  1   
  4   2  27  1   
  5   2  28  1   
  6   3   5  1   
  7   3  29  1   
  8   3  30  1   
  9   4   5  1   
 10   4   6  1   
 11   4  31  1   
 12   5   7  1   
 13   5  32  1   
 14   6   8  1   
 15   6  33  1   
 16   7   9  1   
 17   7  34  1   
 18   7  35  1   
 19   8  10  ar  
 20   8  11  ar  
 21   9  12  ar  
 22   9  13  ar  
 23  10  14  ar  
 24  11  15  ar  
 25  11  16  1   
 26  12  17  ar  
 27  12  36  1   
 28  13  18  ar  
 29  13  37  1   
 30  14  19  ar  
 31  14  20  1   
 32  15  19  ar  
 33  15  21  1   
 34  16  22  1   
 35  16  38  1   
 36  16  39  1   
 37  17  23  ar  
 38  17  40  1   
 39  18  23  ar  
 40  18  41  1   
 41  19  42  1   
 42  20  24  1   
 43  20  25  1   
 44  21  26  1   
 45  21  43  1   
 46  21  44  1   
 47  22  26  1   
 48  22  45  1   
 49  22  46  1   
 50  24  47  1   
 51  24  48  1   
 52  24  49  1   
 53  25  50  1   
 54  25  51  1   
 55  25  52  1   
 56  26  53  1   
 57  26  54  1   
@<TRIPOS>SUBSTRUCTURE
  1 ****   6 GROUP 4 **** **** 0

# MOE 2024.06 (io_trps.svl 2023.06)
