@<TRIPOS>MOLECULE
NONAME
49 51 1 0 0 
SMALL
USER_CHARGES


@<TRIPOS>ATOM
  1 O        0.4000     2.0060    -2.5710 O.2   1 <1>  -0.5700 
  2 C        0.0880     3.1600    -2.4280 C.2   1 <1>   0.5690 
  3 N        0.4170     3.8300    -1.3010 N.am  1 <1>  -0.7300 
  4 C       -0.7170     3.8810    -3.5140 C.3   1 <1>   0.1810 
  5 C        0.0530     5.2460    -1.0520 C.3   1 <1>   0.3640 
  6 O       -0.6680     5.2870    -3.3880 O.3   1 <1>  -0.5600 
  7 C       -0.4560     5.3890     0.3790 C.ar  1 <1>  -0.1440 
  8 C       -0.9780     5.7650    -2.0860 C.3   1 <1>   0.2610 
  9 C       -0.0770     6.4930     1.1310 C.ar  1 <1>  -0.1500 
 10 C       -1.2980     4.4430     0.9520 C.ar  1 <1>  -0.1500 
 11 C       -0.9740     7.2930    -2.0590 C.2   1 <1>   0.5690 
 12 C       -0.5210     6.6460     2.4320 C.ar  1 <1>  -0.1500 
 13 C       -1.7440     4.5950     2.2530 C.ar  1 <1>  -0.1500 
 14 O       -1.7550     7.8830    -1.3520 O.2   1 <1>  -0.5700 
 15 N       -0.0520     7.9600    -2.7990 N.am  1 <1>  -0.7300 
 16 C       -1.3550     5.6960     2.9950 C.ar  1 <1>  -0.1500 
 17 C        0.3090     9.3740    -2.5930 C.3   1 <1>   0.3200 
 18 C        1.5370     9.4210    -1.7090 C.2   1 <1>  -0.0400 
 19 O        2.6870     9.0080    -2.1690 O.3   1 <1>  -0.0190 
 20 C        1.7160     9.8130    -0.4390 C.2   1 <1>  -0.1500 
 21 N        3.6280     9.1040    -1.2760 N.2   1 <1>  -0.4100 
 22 C        3.0730     9.5860    -0.2190 C.2   1 <1>   0.1080 
 23 C        3.8040     9.8700     1.0820 C.3   1 <1>   0.0210 
 24 C        4.4290     8.6100     1.7120 C.3   1 <1>  -0.0800 
 25 C        3.3760     7.5350     2.0200 C.3   1 <1>  -0.2400 
 26 C        5.1860     8.9750     2.9960 C.3   1 <1>  -0.2400 
 27 H        0.9440     3.3480    -0.5710 H     1 <1>   0.3700 
 28 H       -1.7450     3.5710    -3.4640 H     1 <1>   0.0800 
 29 H       -0.3220     3.6240    -4.4790 H     1 <1>   0.0800 
 30 H        0.9510     5.8320    -1.1520 H     1 <1>   0.0800 
 31 H       -1.9640     5.4230    -1.8270 H     1 <1>   0.0800 
 32 H        0.5620     7.2470     0.7050 H     1 <1>   0.1500 
 33 H       -1.6140     3.5800     0.3910 H     1 <1>   0.1500 
 34 H       -0.2220     7.5050     3.0060 H     1 <1>   0.1500 
 35 H       -2.3950     3.8580     2.6890 H     1 <1>   0.1500 
 36 H        0.5610     7.4250    -3.4190 H     1 <1>   0.3700 
 37 H       -1.7020     5.8150     4.0070 H     1 <1>   0.1500 
 38 H        0.5130     9.8420    -3.5400 H     1 <1>   0.0800 
 39 H       -0.5030     9.8970    -2.1180 H     1 <1>   0.0800 
 40 H        1.0060    10.2050     0.2660 H     1 <1>   0.1500 
 41 H        4.5800    10.5840     0.8760 H     1 <1>   0.0800 
 42 H        3.1210    10.3210     1.7790 H     1 <1>   0.0800 
 43 H        5.1360     8.1980     1.0100 H     1 <1>   0.0800 
 44 H        2.6110     7.9220     2.6690 H     1 <1>   0.0800 
 45 H        3.8360     6.6880     2.4970 H     1 <1>   0.0800 
 46 H        2.9210     7.1900     1.1090 H     1 <1>   0.0800 
 47 H        4.5150     9.3820     3.7320 H     1 <1>   0.0800 
 48 H        5.9510     9.7020     2.7870 H     1 <1>   0.0800 
 49 H        5.6590     8.1010     3.4100 H     1 <1>   0.0800 
@<TRIPOS>BOND
  1   1   2  2   
  2   2   3  am  
  3   2   4  1   
  4   3   5  1   
  5   3  27  1   
  6   4   6  1   
  7   4  28  1   
  8   4  29  1   
  9   5   7  1   
 10   5   8  1   
 11   5  30  1   
 12   6   8  1   
 13   7   9  ar  
 14   7  10  ar  
 15   8  11  1   
 16   8  31  1   
 17   9  12  ar  
 18   9  32  1   
 19  10  13  ar  
 20  10  33  1   
 21  11  14  2   
 22  11  15  am  
 23  12  16  ar  
 24  12  34  1   
 25  13  16  ar  
 26  13  35  1   
 27  15  17  1   
 28  15  36  1   
 29  16  37  1   
 30  17  18  1   
 31  17  38  1   
 32  17  39  1   
 33  18  19  1   
 34  18  20  2   
 35  19  21  1   
 36  20  22  1   
 37  20  40  1   
 38  21  22  2   
 39  22  23  1   
 40  23  24  1   
 41  23  41  1   
 42  23  42  1   
 43  24  25  1   
 44  24  26  1   
 45  24  43  1   
 46  25  44  1   
 47  25  45  1   
 48  25  46  1   
 49  26  47  1   
 50  26  48  1   
 51  26  49  1   
@<TRIPOS>SUBSTRUCTURE
  1 ****   5 GROUP 4 **** **** 0

# MOE 2024.06 (io_trps.svl 2023.06)
