@<TRIPOS>MOLECULE
NONAME
45 47 1 0 0 
SMALL
USER_CHARGES


@<TRIPOS>ATOM
  1 CL      -0.0160    -0.1200    -1.1180 Cl    1 <1>  -0.1770 
  2 C       -0.0830    -1.7720    -0.5580 C.ar  1 <1>   0.1770 
  3 C        0.5850    -2.7540    -1.2640 C.ar  1 <1>  -0.1500 
  4 C       -0.8050    -2.0730     0.5810 C.ar  1 <1>  -0.1500 
  5 C        0.5280    -4.0640    -0.8180 C.ar  1 <1>  -0.1500 
  6 C       -0.8580    -3.3850     1.0220 C.ar  1 <1>  -0.1500 
  7 C       -0.1930    -4.3840     0.3240 C.ar  1 <1>  -0.1430 
  8 C       -0.2580    -5.8240     0.8080 C.3   1 <1>  -0.0160 
  9 C       -1.4640    -6.5420     0.1840 C.3   1 <1>  -0.0990 
 10 C       -1.5840    -8.0020     0.5910 C.2   1 <1>   0.5690 
 11 O       -0.8700    -8.4370     1.4630 O.2   1 <1>  -0.5700 
 12 N       -2.5000    -8.8010    -0.0330 N.am  1 <1>  -0.6600 
 13 C       -3.4750    -8.4020    -1.0800 C.3   1 <1>   0.1400 
 14 C       -2.6590   -10.2380     0.3010 C.3   1 <1>   0.1400 
 15 C       -4.5210    -9.5150    -1.0630 C.3   1 <1>   0.2000 
 16 C       -3.7180   -10.7630    -0.6770 C.3   1 <1>  -0.0800 
 17 O       -5.4400    -9.2270    -0.0650 O.3   1 <1>  -0.6800 
 18 C       -4.5580   -11.9290    -0.1220 C.3   1 <1>   0.0200 
 19 C       -3.7470   -13.1930     0.1100 C.2   1 <1>  -0.0400 
 20 O       -4.3250   -14.2080     0.6960 O.3   1 <1>  -0.0190 
 21 C       -2.4820   -13.5500    -0.1660 C.2   1 <1>  -0.1500 
 22 N       -3.5170   -15.2200     0.8310 N.2   1 <1>  -0.4100 
 23 C       -2.3980   -14.8520     0.3200 C.2   1 <1>   0.1080 
 24 C       -1.1630   -15.7220     0.2620 C.3   1 <1>  -0.0590 
 25 H        1.1410    -2.4950    -2.1460 H     1 <1>   0.1500 
 26 H       -1.3150    -1.2900     1.1120 H     1 <1>   0.1500 
 27 H        1.0490    -4.8330    -1.3630 H     1 <1>   0.1500 
 28 H       -1.4180    -3.6240     1.9090 H     1 <1>   0.1500 
 29 H        0.6480    -6.3400     0.5410 H     1 <1>   0.0800 
 30 H       -0.3370    -5.8450     1.8810 H     1 <1>   0.0800 
 31 H       -1.3800    -6.4890    -0.8850 H     1 <1>   0.0800 
 32 H       -2.3640    -6.0330     0.4780 H     1 <1>   0.0800 
 33 H       -3.9160    -7.4400    -0.8820 H     1 <1>   0.0800 
 34 H       -2.9760    -8.3840    -2.0330 H     1 <1>   0.0800 
 35 H       -1.7200   -10.7550     0.1930 H     1 <1>   0.0800 
 36 H       -2.9940   -10.3260     1.3210 H     1 <1>   0.0800 
 37 H       -5.0490    -9.6150    -1.9960 H     1 <1>   0.0800 
 38 H       -3.2080   -11.1030    -1.5610 H     1 <1>   0.0800 
 39 H       -4.9570    -9.0070     0.7570 H     1 <1>   0.4000 
 40 H       -5.3510   -12.1580    -0.8130 H     1 <1>   0.0800 
 41 H       -5.0140   -11.6450     0.8100 H     1 <1>   0.0800 
 42 H       -1.6890   -13.0060    -0.6430 H     1 <1>   0.1500 
 43 H       -0.3590   -15.2510     0.7970 H     1 <1>   0.0800 
 44 H       -0.8700   -15.8720    -0.7610 H     1 <1>   0.0800 
 45 H       -1.3670   -16.6780     0.7100 H     1 <1>   0.0800 
@<TRIPOS>BOND
  1   1   2  1   
  2   2   3  ar  
  3   2   4  ar  
  4   3   5  ar  
  5   3  25  1   
  6   4   6  ar  
  7   4  26  1   
  8   5   7  ar  
  9   5  27  1   
 10   6   7  ar  
 11   6  28  1   
 12   7   8  1   
 13   8   9  1   
 14   8  29  1   
 15   8  30  1   
 16   9  10  1   
 17   9  31  1   
 18   9  32  1   
 19  10  11  2   
 20  10  12  am  
 21  12  13  1   
 22  12  14  1   
 23  13  15  1   
 24  13  33  1   
 25  13  34  1   
 26  14  16  1   
 27  14  35  1   
 28  14  36  1   
 29  15  16  1   
 30  15  17  1   
 31  15  37  1   
 32  16  18  1   
 33  16  38  1   
 34  17  39  1   
 35  18  19  1   
 36  18  40  1   
 37  18  41  1   
 38  19  20  1   
 39  19  21  2   
 40  20  22  1   
 41  21  23  1   
 42  21  42  1   
 43  22  23  2   
 44  23  24  1   
 45  24  43  1   
 46  24  44  1   
 47  24  45  1   
@<TRIPOS>SUBSTRUCTURE
  1 ****  12 GROUP 4 **** **** 0

# MOE 2024.06 (io_trps.svl 2023.06)
