@<TRIPOS>MOLECULE
NONAME
50 54 1 0 0 
SMALL
USER_CHARGES


@<TRIPOS>ATOM
  1 S       -0.0120     0.8800     0.2090 S.3   1 <1>  -0.0800 
  2 C        1.1410     2.0780    -0.3400 C.2   1 <1>  -0.1400 
  3 C       -0.4430     1.8960     1.5770 C.2   1 <1>  -0.1100 
  4 C        1.1820     3.1430     0.4700 C.2   1 <1>  -0.1810 
  5 C        1.9680     1.8960    -1.5840 C.3   1 <1>   0.0200 
  6 C        0.2660     3.0410     1.5710 C.2   1 <1>  -0.1500 
  7 C        2.1360     4.3090     0.1950 C.3   1 <1>   0.4610 
  8 C        2.4860     3.2850    -1.9890 C.3   1 <1>   0.1200 
  9 O        2.9980     3.9860    -0.8790 O.3   1 <1>  -0.5600 
 10 C        3.0700     4.5430     1.3990 C.3   1 <1>  -0.1600 
 11 C        1.3500     5.5760    -0.1790 C.3   1 <1>  -0.1600 
 12 C        2.6710     5.7540     2.2430 C.3   1 <1>   0.1400 
 13 C        2.2220     6.8190    -0.0240 C.3   1 <1>   0.1400 
 14 N        2.6300     6.9950     1.4060 N.am  1 <1>  -0.6600 
 15 C        3.0530     8.1940     1.9430 C.2   1 <1>   0.5690 
 16 O        3.3460     8.2710     3.1160 O.2   1 <1>  -0.5700 
 17 C        3.1460     9.4760     1.0940 C.3   1 <1>   0.2370 
 18 N        4.0580     9.2890    -0.0580 N.pl3 1 <1>   0.0480 
 19 C        3.5830    10.7330     1.8730 C.3   1 <1>  -0.2400 
 20 C        5.2780     8.6840    -0.0920 C.ar  1 <1>  -0.1520 
 21 C        3.7750     9.5920    -1.3530 C.2   1 <1>   0.0360 
 22 C        5.6400     8.6560    -1.4270 C.ar  1 <1>   0.2270 
 23 C        6.1170     8.1440     0.8890 C.ar  1 <1>  -0.1500 
 24 N        4.6760     9.2330    -2.1970 N.2   1 <1>  -0.5650 
 25 C        6.8500     8.0840    -1.8130 C.ar  1 <1>  -0.1500 
 26 C        7.3110     7.5810     0.4990 C.ar  1 <1>  -0.1500 
 27 C        7.6790     7.5490    -0.8510 C.ar  1 <1>  -0.1500 
 28 H       -1.1940     1.5210     2.2500 H     1 <1>   0.1500 
 29 H        1.3720     1.4830    -2.3770 H     1 <1>   0.0800 
 30 H        2.7910     1.2340    -1.3850 H     1 <1>   0.0800 
 31 H        0.1810     3.8230     2.3040 H     1 <1>   0.1500 
 32 H        1.6930     3.8650    -2.4260 H     1 <1>   0.0800 
 33 H        3.2780     3.1890    -2.7100 H     1 <1>   0.0800 
 34 H        4.0760     4.7080     1.0540 H     1 <1>   0.0800 
 35 H        3.0850     3.6670     2.0220 H     1 <1>   0.0800 
 36 H        0.4950     5.6790     0.4630 H     1 <1>   0.0800 
 37 H        0.9800     5.5060    -1.1830 H     1 <1>   0.0800 
 38 H        3.3840     5.8680     3.0430 H     1 <1>   0.0800 
 39 H        1.7020     5.5980     2.6850 H     1 <1>   0.0800 
 40 H        1.6700     7.6780    -0.3610 H     1 <1>   0.0800 
 41 H        3.1040     6.7140    -0.6360 H     1 <1>   0.0800 
 42 H        2.1630     9.6630     0.7060 H     1 <1>   0.0800 
 43 H        4.5670    10.5930     2.2860 H     1 <1>   0.0800 
 44 H        2.9010    10.9150     2.6850 H     1 <1>   0.0800 
 45 H        3.5870    11.5950     1.2300 H     1 <1>   0.0800 
 46 H        2.8620    10.0890    -1.6300 H     1 <1>   0.1500 
 47 H        5.8330     8.1690     1.9270 H     1 <1>   0.1500 
 48 H        7.1060     8.0750    -2.8560 H     1 <1>   0.1500 
 49 H        7.9740     7.1570     1.2330 H     1 <1>   0.1500 
 50 H        8.6170     7.1030    -1.1310 H     1 <1>   0.1500 
@<TRIPOS>BOND
  1   1   2  1   
  2   1   3  1   
  3   2   4  2   
  4   2   5  1   
  5   3   6  2   
  6   3  28  1   
  7   4   6  1   
  8   4   7  1   
  9   5   8  1   
 10   5  29  1   
 11   5  30  1   
 12   6  31  1   
 13   7   9  1   
 14   7  10  1   
 15   7  11  1   
 16   8   9  1   
 17   8  32  1   
 18   8  33  1   
 19  10  12  1   
 20  10  34  1   
 21  10  35  1   
 22  11  13  1   
 23  11  36  1   
 24  11  37  1   
 25  12  14  1   
 26  12  38  1   
 27  12  39  1   
 28  13  14  1   
 29  13  40  1   
 30  13  41  1   
 31  14  15  am  
 32  15  16  2   
 33  15  17  1   
 34  17  18  1   
 35  17  19  1   
 36  17  42  1   
 37  18  20  1   
 38  18  21  1   
 39  19  43  1   
 40  19  44  1   
 41  19  45  1   
 42  20  22  ar  
 43  20  23  ar  
 44  21  24  2   
 45  21  46  1   
 46  22  24  1   
 47  22  25  ar  
 48  23  26  ar  
 49  23  47  1   
 50  25  27  ar  
 51  25  48  1   
 52  26  27  ar  
 53  26  49  1   
 54  27  50  1   
@<TRIPOS>SUBSTRUCTURE
  1 ****  13 GROUP 4 **** **** 0

# MOE 2024.06 (io_trps.svl 2023.06)
