@<TRIPOS>MOLECULE
NONAME
36 37 1 0 0 
SMALL
USER_CHARGES


@<TRIPOS>ATOM
  1 CL       0.7030     1.8860     2.5050 Cl    1 <1>  -0.1770 
  2 C        2.1970     1.9940     1.6040 C.ar  1 <1>   0.1770 
  3 C        3.2390     2.7740     2.0770 C.ar  1 <1>   0.1600 
  4 C        2.3240     1.2980     0.4210 C.ar  1 <1>  -0.1500 
  5 N        4.4100     2.9200     1.4650 N.ar  1 <1>  -0.6200 
  6 C        3.5350     1.4480    -0.2100 C.ar  1 <1>   0.1900 
  7 C        4.5620     2.2510     0.3240 C.ar  1 <1>   0.4100 
  8 F        3.7070     0.8170    -1.3480 F     1 <1>  -0.1900 
  9 N        5.7980     2.4170    -0.2870 N.pl3 1 <1>  -0.8380 
 10 C        5.9450     3.5820    -1.2180 C.3   1 <1>   0.2090 
 11 C        6.5920     1.2140    -0.6260 C.3   1 <1>   0.2090 
 12 C        6.0850     4.9190    -0.4710 C.3   1 <1>   0.2000 
 13 C        8.0050     1.3850    -0.0810 C.3   1 <1>  -0.2400 
 14 O        6.2080     5.9350    -1.4280 O.3   1 <1>  -0.5600 
 15 C        7.3070     4.9640     0.4640 C.3   1 <1>  -0.1600 
 16 C        6.2050     7.2290    -0.9080 C.3   1 <1>   0.1200 
 17 C        7.4700     6.3530     1.0920 C.3   1 <1>  -0.1600 
 18 C        7.4300     7.4220    -0.0060 C.3   1 <1>  -0.1600 
 19 H        3.1010     3.3030     3.0030 H     1 <1>   0.1500 
 20 H        1.5350     0.6880     0.0240 H     1 <1>   0.1500 
 21 H        5.0810     3.6320    -1.8560 H     1 <1>   0.0800 
 22 H        6.8150     3.4450    -1.8360 H     1 <1>   0.0800 
 23 H        6.6130     1.0730    -1.6940 H     1 <1>   0.0800 
 24 H        6.1450     0.3430    -0.1770 H     1 <1>   0.0800 
 25 H        5.1830     5.1010     0.0870 H     1 <1>   0.0800 
 26 H        8.4950     2.2140    -0.5570 H     1 <1>   0.0800 
 27 H        8.5770     0.4950    -0.2690 H     1 <1>   0.0800 
 28 H        7.9670     1.5540     0.9810 H     1 <1>   0.0800 
 29 H        8.1880     4.7090    -0.0970 H     1 <1>   0.0800 
 30 H        7.1860     4.2300     1.2410 H     1 <1>   0.0800 
 31 H        5.2890     7.3770    -0.3600 H     1 <1>   0.0800 
 32 H        6.2340     7.9160    -1.7350 H     1 <1>   0.0800 
 33 H        8.3980     6.4080     1.6340 H     1 <1>   0.0800 
 34 H        6.6640     6.5220     1.7850 H     1 <1>   0.0800 
 35 H        7.4010     8.4010     0.4370 H     1 <1>   0.0800 
 36 H        8.3170     7.3580    -0.6120 H     1 <1>   0.0800 
@<TRIPOS>BOND
  1   1   2  1   
  2   2   3  ar  
  3   2   4  ar  
  4   3   5  ar  
  5   3  19  1   
  6   4   6  ar  
  7   4  20  1   
  8   5   7  ar  
  9   6   7  ar  
 10   6   8  1   
 11   7   9  1   
 12   9  10  1   
 13   9  11  1   
 14  10  12  1   
 15  10  21  1   
 16  10  22  1   
 17  11  13  1   
 18  11  23  1   
 19  11  24  1   
 20  12  14  1   
 21  12  15  1   
 22  12  25  1   
 23  13  26  1   
 24  13  27  1   
 25  13  28  1   
 26  14  16  1   
 27  15  17  1   
 28  15  29  1   
 29  15  30  1   
 30  16  18  1   
 31  16  31  1   
 32  16  32  1   
 33  17  18  1   
 34  17  33  1   
 35  17  34  1   
 36  18  35  1   
 37  18  36  1   
@<TRIPOS>SUBSTRUCTURE
  1 ****   7 GROUP 4 **** **** 0

# MOE 2024.06 (io_trps.svl 2023.06)
