@<TRIPOS>MOLECULE
NONAME
45 47 1 0 0 
SMALL
USER_CHARGES


@<TRIPOS>ATOM
  1 O       -0.4920     0.0410    -0.9520 O.2   1 <1>  -0.5700 
  2 C       -1.5260     0.6760    -0.8080 C.2   1 <1>   0.5440 
  3 N       -2.6530    -0.0230    -0.4250 N.am  1 <1>  -0.6600 
  4 C       -1.5400     2.1310    -1.0010 C.ar  1 <1>   0.3960 
  5 C       -3.9860     0.5680    -0.1850 C.3   1 <1>   0.1400 
  6 C       -2.6850    -1.4890    -0.2540 C.3   1 <1>   0.1400 
  7 N       -2.3810     2.6480    -1.9160 N.ar  1 <1>  -0.6200 
  8 C       -0.6990     2.9550    -0.2320 C.ar  1 <1>  -0.1430 
  9 C       -4.7460    -0.5020     0.6120 C.3   1 <1>  -0.0800 
 10 C       -4.1240    -1.8330     0.1460 C.3   1 <1>  -0.0800 
 11 C       -2.3770     3.9560    -2.0740 C.ar  1 <1>   0.1600 
 12 C       -0.7150     4.3230    -0.4170 C.ar  1 <1>  -0.1500 
 13 C        0.2440     2.3790     0.8200 C.3   1 <1>  -0.0970 
 14 C       -6.3030    -0.4390     0.5430 C.3   1 <1>   0.2800 
 15 C       -4.9280    -2.4370    -1.0160 C.3   1 <1>  -0.1600 
 16 C       -1.5770     4.8280    -1.3630 C.ar  1 <1>  -0.1500 
 17 O       -6.7090     0.1460    -0.6420 O.3   1 <1>  -0.6800 
 18 C       -6.8920    -1.8620     0.5510 C.3   1 <1>  -0.1600 
 19 C       -6.9200     0.3930     1.6890 C.3   1 <1>  -0.1600 
 20 C       -6.3770    -2.7510    -0.6020 C.3   1 <1>  -0.1600 
 21 C       -6.4820     1.8670     1.7530 C.3   1 <1>  -0.2400 
 22 H       -3.9090     1.4930     0.3570 H     1 <1>   0.0800 
 23 H       -4.4430     0.7520    -1.1420 H     1 <1>   0.0800 
 24 H       -2.3920    -1.9760    -1.1690 H     1 <1>   0.0800 
 25 H       -1.9980    -1.7630     0.5280 H     1 <1>   0.0800 
 26 H       -4.4570    -0.3860     1.6410 H     1 <1>   0.0800 
 27 H       -4.1050    -2.5450     0.9530 H     1 <1>   0.0800 
 28 H       -3.0500     4.3590    -2.8120 H     1 <1>   0.1500 
 29 H       -0.0800     4.9800     0.1530 H     1 <1>   0.1500 
 30 H        0.6760     3.1560     1.4240 H     1 <1>   0.0800 
 31 H        1.0420     1.8400     0.3390 H     1 <1>   0.0800 
 32 H       -0.2850     1.7040     1.4690 H     1 <1>   0.0800 
 33 H       -4.9420    -1.7280    -1.8280 H     1 <1>   0.0800 
 34 H       -4.4520    -3.3330    -1.3770 H     1 <1>   0.0800 
 35 H       -1.6290     5.8850    -1.5490 H     1 <1>   0.1500 
 36 H       -7.6790     0.1110    -0.7030 H     1 <1>   0.4000 
 37 H       -6.6150    -2.3270     1.4810 H     1 <1>   0.0800 
 38 H       -7.9670    -1.8280     0.5290 H     1 <1>   0.0800 
 39 H       -7.9920     0.3590     1.6060 H     1 <1>   0.0800 
 40 H       -6.6680    -0.0720     2.6260 H     1 <1>   0.0800 
 41 H       -6.4510    -3.7820    -0.3020 H     1 <1>   0.0800 
 42 H       -7.0090    -2.6200    -1.4640 H     1 <1>   0.0800 
 43 H       -6.6620     2.3600     0.8130 H     1 <1>   0.0800 
 44 H       -5.4380     1.9470     1.9920 H     1 <1>   0.0800 
 45 H       -7.0390     2.3810     2.5160 H     1 <1>   0.0800 
@<TRIPOS>BOND
  1   1   2  2   
  2   2   3  am  
  3   2   4  1   
  4   3   5  1   
  5   3   6  1   
  6   4   7  ar  
  7   4   8  ar  
  8   5   9  1   
  9   5  22  1   
 10   5  23  1   
 11   6  10  1   
 12   6  24  1   
 13   6  25  1   
 14   7  11  ar  
 15   8  12  ar  
 16   8  13  1   
 17   9  10  1   
 18   9  14  1   
 19   9  26  1   
 20  10  15  1   
 21  10  27  1   
 22  11  16  ar  
 23  11  28  1   
 24  12  16  ar  
 25  12  29  1   
 26  13  30  1   
 27  13  31  1   
 28  13  32  1   
 29  14  17  1   
 30  14  18  1   
 31  14  19  1   
 32  15  20  1   
 33  15  33  1   
 34  15  34  1   
 35  16  35  1   
 36  17  36  1   
 37  18  20  1   
 38  18  37  1   
 39  18  38  1   
 40  19  21  1   
 41  19  39  1   
 42  19  40  1   
 43  20  41  1   
 44  20  42  1   
 45  21  43  1   
 46  21  44  1   
 47  21  45  1   
@<TRIPOS>SUBSTRUCTURE
  1 ****   5 GROUP 4 **** **** 0

# MOE 2024.06 (io_trps.svl 2023.06)
