@<TRIPOS>MOLECULE
NONAME
42 43 1 0 0 
SMALL
USER_CHARGES


@<TRIPOS>ATOM
  1 CL       1.7180    -0.6080     2.7700 Cl    1 <1>  -0.1770 
  2 C        1.3400    -0.2010     1.1130 C.ar  1 <1>   0.1770 
  3 C        1.2870    -1.1880     0.1380 C.ar  1 <1>  -0.1440 
  4 C        1.0880     1.1290     0.8190 C.ar  1 <1>  -0.1500 
  5 C        0.9690    -0.7750    -1.1480 C.ar  1 <1>   0.1900 
  6 C        1.5780    -2.6530     0.4380 C.3   1 <1>   0.2540 
  7 C        0.7750     1.5070    -0.4770 C.ar  1 <1>  -0.1500 
  8 F        0.8860    -1.6600    -2.1060 F     1 <1>  -0.1900 
  9 C        0.7150     0.5460    -1.4720 C.ar  1 <1>  -0.1500 
 10 N        0.3370    -3.4530     0.3800 N.3   1 <1>  -0.8100 
 11 C        0.6790    -4.8830     0.2460 C.3   1 <1>   0.2900 
 12 C       -0.5740    -3.1800     1.5300 C.3   1 <1>   0.1100 
 13 C       -0.5700    -5.6590    -0.1040 C.2   1 <1>  -0.3320 
 14 C       -2.0530    -3.1910     1.0900 C.3   1 <1>   0.3430 
 15 N       -1.1780    -6.5580     0.6960 N.pl3 1 <1>   0.0330 
 16 C       -1.2940    -5.6110    -1.2420 C.2   1 <1>   0.0770 
 17 N       -2.1740    -2.5280    -0.2370 N.4   1 <1>  -0.9590 
 18 C       -2.2610    -6.9660     0.0010 C.2   1 <1>   0.0360 
 19 N       -2.3760    -6.4050    -1.1600 N.2   1 <1>  -0.5650 
 20 C       -2.1980    -1.0410    -0.1460 C.3   1 <1>   0.2630 
 21 C       -3.3230    -3.0650    -1.0240 C.3   1 <1>   0.2630 
 22 H        1.1430     1.8660     1.6030 H     1 <1>   0.1500 
 23 H        2.0540    -2.7770     1.3950 H     1 <1>   0.0800 
 24 H        2.2700    -3.0050    -0.3100 H     1 <1>   0.0800 
 25 H        0.5870     2.5430    -0.7090 H     1 <1>   0.1500 
 26 H        0.4820     0.8160    -2.4880 H     1 <1>   0.1500 
 27 H        1.1260    -5.2540     1.1530 H     1 <1>   0.0800 
 28 H        1.3880    -5.0120    -0.5560 H     1 <1>   0.0800 
 29 H       -0.3730    -2.2080     1.9420 H     1 <1>   0.0800 
 30 H       -0.4170    -3.8930     2.3210 H     1 <1>   0.0800 
 31 H       -2.6750    -2.7070     1.8240 H     1 <1>   0.0800 
 32 H       -2.3720    -4.2170     1.0030 H     1 <1>   0.0800 
 33 H       -0.8840    -6.8950     1.6190 H     1 <1>   0.2700 
 34 H       -1.0920    -5.0280    -2.1260 H     1 <1>   0.1500 
 35 H       -1.2770    -2.8140    -0.6900 H     1 <1>   0.4500 
 36 H       -2.9520    -7.6950     0.3900 H     1 <1>   0.1500 
 37 H       -3.0940    -0.7100     0.3530 H     1 <1>   0.0800 
 38 H       -2.1690    -0.6090    -1.1330 H     1 <1>   0.0800 
 39 H       -1.3420    -0.6870     0.4050 H     1 <1>   0.0800 
 40 H       -4.2570    -2.7710    -0.5740 H     1 <1>   0.0800 
 41 H       -3.2870    -4.1410    -1.0590 H     1 <1>   0.0800 
 42 H       -3.2920    -2.6900    -2.0340 H     1 <1>   0.0800 
@<TRIPOS>BOND
  1   1   2  1   
  2   2   3  ar  
  3   2   4  ar  
  4   3   5  ar  
  5   3   6  1   
  6   4   7  ar  
  7   4  22  1   
  8   5   8  1   
  9   5   9  ar  
 10   6  10  1   
 11   6  23  1   
 12   6  24  1   
 13   7   9  ar  
 14   7  25  1   
 15   9  26  1   
 16  10  11  1   
 17  10  12  1   
 18  11  13  1   
 19  11  27  1   
 20  11  28  1   
 21  12  14  1   
 22  12  29  1   
 23  12  30  1   
 24  13  15  1   
 25  13  16  2   
 26  14  17  1   
 27  14  31  1   
 28  14  32  1   
 29  15  18  1   
 30  15  33  1   
 31  16  19  1   
 32  16  34  1   
 33  17  20  1   
 34  17  21  1   
 35  17  35  1   
 36  18  19  2   
 37  18  36  1   
 38  20  37  1   
 39  20  38  1   
 40  20  39  1   
 41  21  40  1   
 42  21  41  1   
 43  21  42  1   
@<TRIPOS>SUBSTRUCTURE
  1 ****  10 GROUP 4 **** **** 0

# MOE 2024.06 (io_trps.svl 2023.06)
