@<TRIPOS>MOLECULE
NONAME
44 46 1 0 0 
SMALL
USER_CHARGES


@<TRIPOS>ATOM
  1 S       -0.9580    -0.2440     0.1320 S.3   1 <1>  -0.0800 
  2 C       -1.9410    -0.8960    -1.1350 C.2   1 <1>   0.4420 
  3 C       -1.0920     1.2910    -0.6550 C.2   1 <1>   0.1980 
  4 N       -2.2890    -0.0030    -1.9900 N.2   1 <1>  -0.3380 
  5 N       -2.2160    -2.2430    -1.0690 N.am  1 <1>  -0.4940 
  6 N       -1.8000     1.2440    -1.7100 N.2   1 <1>  -0.3380 
  7 C       -0.3860     2.4810    -0.0360 C.3   1 <1>   0.1640 
  8 C       -2.9870    -3.0300    -1.8730 C.2   1 <1>   0.5690 
  9 C        1.1170     2.2530     0.0450 C.ar  1 <1>  -0.1440 
 10 O       -3.6030    -2.6220    -2.8270 O.2   1 <1>  -0.5700 
 11 C       -3.0640    -4.5180    -1.5370 C.3   1 <1>   0.2010 
 12 C        1.7580     2.1650     1.2720 C.ar  1 <1>  -0.1500 
 13 C        1.8580     2.1260    -1.1200 C.ar  1 <1>  -0.1500 
 14 N       -3.6090    -4.7890    -0.1620 N.am  1 <1>  -0.6600 
 15 C        3.1260     1.9510     1.3400 C.ar  1 <1>  -0.1430 
 16 C        3.2230     1.9130    -1.0580 C.ar  1 <1>  -0.1500 
 17 C       -2.8120    -4.6620     0.9440 C.2   1 <1>   0.5690 
 18 C       -5.0340    -5.2190    -0.1220 C.3   1 <1>   0.1400 
 19 C        3.8550     1.8260     0.1700 C.ar  1 <1>  -0.1500 
 20 C        3.8320     1.8510     2.6800 C.3   1 <1>  -0.0970 
 21 O       -1.6870    -4.2280     0.8570 O.2   1 <1>  -0.5700 
 22 C       -3.3330    -5.0160     2.3280 C.3   1 <1>  -0.0990 
 23 C       -5.6090    -5.1690     1.2970 C.3   1 <1>  -0.1600 
 24 C       -4.6490    -5.8050     2.3060 C.3   1 <1>  -0.1600 
 25 H       -1.8020    -2.7420    -0.2710 H     1 <1>   0.3700 
 26 H       -0.7940     2.6570     0.9430 H     1 <1>   0.0800 
 27 H       -0.5790     3.3530    -0.6350 H     1 <1>   0.0800 
 28 H       -2.0740    -4.9320    -1.6110 H     1 <1>   0.0800 
 29 H       -3.6760    -5.0070    -2.2730 H     1 <1>   0.0800 
 30 H        1.1930     2.2600     2.1820 H     1 <1>   0.1500 
 31 H        1.3740     2.1870    -2.0810 H     1 <1>   0.1500 
 32 H        3.7930     1.8130    -1.9650 H     1 <1>   0.1500 
 33 H       -5.0960    -6.2280    -0.4960 H     1 <1>   0.0800 
 34 H       -5.6200    -4.5840    -0.7660 H     1 <1>   0.0800 
 35 H        4.9170     1.6600     0.2100 H     1 <1>   0.1500 
 36 H        3.1240     1.8330     3.4890 H     1 <1>   0.0800 
 37 H        4.4840     2.6960     2.8120 H     1 <1>   0.0800 
 38 H        4.4160     0.9500     2.7200 H     1 <1>   0.0800 
 39 H       -3.4800    -4.0950     2.8620 H     1 <1>   0.0800 
 40 H       -2.5810    -5.5810     2.8480 H     1 <1>   0.0800 
 41 H       -6.5520    -5.6870     1.3130 H     1 <1>   0.0800 
 42 H       -5.7980    -4.1440     1.5660 H     1 <1>   0.0800 
 43 H       -5.0880    -5.8100     3.2880 H     1 <1>   0.0800 
 44 H       -4.4530    -6.8250     2.0190 H     1 <1>   0.0800 
@<TRIPOS>BOND
  1   1   2  1   
  2   1   3  1   
  3   2   4  2   
  4   2   5  1   
  5   3   6  2   
  6   3   7  1   
  7   4   6  1   
  8   5   8  am  
  9   5  25  1   
 10   7   9  1   
 11   7  26  1   
 12   7  27  1   
 13   8  10  2   
 14   8  11  1   
 15   9  12  ar  
 16   9  13  ar  
 17  11  14  1   
 18  11  28  1   
 19  11  29  1   
 20  12  15  ar  
 21  12  30  1   
 22  13  16  ar  
 23  13  31  1   
 24  14  17  am  
 25  14  18  1   
 26  15  19  ar  
 27  15  20  1   
 28  16  19  ar  
 29  16  32  1   
 30  17  21  2   
 31  17  22  1   
 32  18  23  1   
 33  18  33  1   
 34  18  34  1   
 35  19  35  1   
 36  20  36  1   
 37  20  37  1   
 38  20  38  1   
 39  22  24  1   
 40  22  39  1   
 41  22  40  1   
 42  23  24  1   
 43  23  41  1   
 44  23  42  1   
 45  24  43  1   
 46  24  44  1   
@<TRIPOS>SUBSTRUCTURE
  1 ****   1 GROUP 4 **** **** 0

# MOE 2024.06 (io_trps.svl 2023.06)
