@<TRIPOS>MOLECULE
NONAME
49 52 1 0 0 
SMALL
USER_CHARGES


@<TRIPOS>ATOM
  1 S       -0.3770    -0.1610     0.7020 S.3   1 <1>  -0.0800 
  2 C       -1.5710     0.9320     0.0480 C.2   1 <1>  -0.1400 
  3 C        0.5700     1.1880     1.2800 C.2   1 <1>  -0.1100 
  4 C       -1.2510     2.2130     0.2850 C.2   1 <1>  -0.1810 
  5 C       -2.7820     0.3840    -0.6750 C.3   1 <1>   0.0200 
  6 C        0.0060     2.3870     0.9830 C.2   1 <1>  -0.0860 
  7 C       -2.1680     3.3420    -0.1740 C.3   1 <1>   0.0210 
  8 C       -3.4650     1.5270    -1.4450 C.3   1 <1>  -0.1600 
  9 C        0.6080     3.6680     1.3070 C.2   1 <1>   0.7160 
 10 C       -3.5540     2.8100    -0.5960 C.3   1 <1>  -0.1600 
 11 O       -0.0560     4.6660     1.5210 O.2   1 <1>  -0.5700 
 12 N        1.9730     3.8280     1.3120 N.am  1 <1>  -0.6600 
 13 C        2.6160     4.8580     2.2110 C.3   1 <1>   0.1400 
 14 C        2.7990     3.3160     0.1750 C.3   1 <1>   0.1400 
 15 C        2.9090     6.2000     1.4920 C.3   1 <1>   0.4230 
 16 C        3.3130     4.4130    -0.7930 C.3   1 <1>  -0.0800 
 17 N        1.9740     6.3160     0.3120 N.4   1 <1>  -0.9590 
 18 C        4.4230     6.3440     1.1820 C.3   1 <1>   0.1200 
 19 C        4.7820     4.7870    -0.5450 C.3   1 <1>   0.1200 
 20 C        2.4530     5.6830    -0.9560 C.3   1 <1>   0.3430 
 21 C        1.5900     7.7680     0.0600 C.3   1 <1>   0.2370 
 22 O        4.9960     5.1310     0.7790 O.3   1 <1>  -0.5600 
 23 C        2.7650     8.6930    -0.2560 C.2   1 <1>   0.9060 
 24 O        3.2170     8.6830    -1.4040 O.co2 1 <1>  -0.9000 
 25 O        3.3110     9.2660     0.6900 O.co2 1 <1>  -0.9000 
 26 H        1.4840     0.9550     1.7970 H     1 <1>   0.1500 
 27 H       -2.4870    -0.3930    -1.3580 H     1 <1>   0.0800 
 28 H       -3.4590    -0.0340     0.0490 H     1 <1>   0.0800 
 29 H       -2.3110     4.0510     0.6210 H     1 <1>   0.0800 
 30 H       -1.7060     3.8490    -1.0020 H     1 <1>   0.0800 
 31 H       -2.8970     1.7370    -2.3340 H     1 <1>   0.0800 
 32 H       -4.4500     1.2160    -1.7470 H     1 <1>   0.0800 
 33 H       -4.1240     2.5950     0.2910 H     1 <1>   0.0800 
 34 H       -4.0780     3.5750    -1.1430 H     1 <1>   0.0800 
 35 H        1.9520     5.0620     3.0340 H     1 <1>   0.0800 
 36 H        3.5160     4.4520     2.6400 H     1 <1>   0.0800 
 37 H        3.6330     2.7620     0.5740 H     1 <1>   0.0800 
 38 H        2.2100     2.6210    -0.3990 H     1 <1>   0.0800 
 39 H        2.6720     6.9970     2.1780 H     1 <1>   0.0800 
 40 H        3.3250     3.9610    -1.7680 H     1 <1>   0.0800 
 41 H        1.1290     5.7980     0.6190 H     1 <1>   0.4500 
 42 H        4.9260     6.6300     2.0880 H     1 <1>   0.0800 
 43 H        4.6310     7.1040     0.4500 H     1 <1>   0.0800 
 44 H        5.0990     5.6040    -1.1750 H     1 <1>   0.0800 
 45 H        5.4140     3.9400    -0.7520 H     1 <1>   0.0800 
 46 H        1.5920     5.4420    -1.5570 H     1 <1>   0.0800 
 47 H        3.0320     6.4050    -1.5110 H     1 <1>   0.0800 
 48 H        0.9070     7.8260    -0.7670 H     1 <1>   0.0800 
 49 H        1.1020     8.1680     0.9290 H     1 <1>   0.0800 
@<TRIPOS>BOND
  1   1   2  1   
  2   1   3  1   
  3   2   4  2   
  4   2   5  1   
  5   3   6  2   
  6   3  26  1   
  7   4   6  1   
  8   4   7  1   
  9   5   8  1   
 10   5  27  1   
 11   5  28  1   
 12   6   9  1   
 13   7  10  1   
 14   7  29  1   
 15   7  30  1   
 16   8  10  1   
 17   8  31  1   
 18   8  32  1   
 19   9  11  2   
 20   9  12  am  
 21  10  33  1   
 22  10  34  1   
 23  12  13  1   
 24  12  14  1   
 25  13  15  1   
 26  13  35  1   
 27  13  36  1   
 28  14  16  1   
 29  14  37  1   
 30  14  38  1   
 31  15  17  1   
 32  15  18  1   
 33  15  39  1   
 34  16  19  1   
 35  16  20  1   
 36  16  40  1   
 37  17  20  1   
 38  17  21  1   
 39  17  41  1   
 40  18  22  1   
 41  18  42  1   
 42  18  43  1   
 43  19  22  1   
 44  19  44  1   
 45  19  45  1   
 46  20  46  1   
 47  20  47  1   
 48  21  23  1   
 49  21  48  1   
 50  21  49  1   
 51  23  24  ar  
 52  23  25  ar  
@<TRIPOS>SUBSTRUCTURE
  1 ****   9 GROUP 4 **** **** 0

# MOE 2024.06 (io_trps.svl 2023.06)
