@<TRIPOS>MOLECULE
NONAME
38 39 1 0 0 
SMALL
USER_CHARGES


@<TRIPOS>ATOM
  1 S        0.3320     0.0440    -1.6790 S.o2  1 <1>   1.3330 
  2 O       -0.6210     0.8730    -2.3810 O.2   1 <1>  -0.6500 
  3 O        0.7660    -1.2040    -2.2660 O.2   1 <1>  -0.6500 
  4 N       -0.3330    -0.3040    -0.1540 N.am  1 <1>  -0.8490 
  5 C        1.7930     1.0130    -1.2950 C.3   1 <1>  -0.0550 
  6 C       -1.1200    -1.5420    -0.1650 C.3   1 <1>   0.1160 
  7 C       -1.1460     0.7910     0.3870 C.3   1 <1>   0.1160 
  8 C        2.9190     0.2130    -0.6040 C.3   1 <1>  -0.0800 
  9 C        4.2320     0.9630    -0.4360 C.3   1 <1>   0.2200 
 10 C        2.6110    -0.2530     0.8250 C.3   1 <1>   0.1200 
 11 N        3.9940     2.3490     0.0300 N.am  1 <1>  -0.7300 
 12 C        4.8570     0.1700     0.7030 C.3   1 <1>   0.1200 
 13 O        3.7930    -0.1100     1.5600 O.3   1 <1>  -0.5600 
 14 C        4.0470     3.4700    -0.7420 C.2   1 <1>   0.7150 
 15 O        4.2050     3.3290    -1.9390 O.2   1 <1>  -0.5700 
 16 C        3.8960     4.7650    -0.1290 C.2   1 <1>  -0.0450 
 17 S        3.8640     6.2010    -1.1600 S.3   1 <1>  -0.0800 
 18 C        3.7590     5.1610     1.1640 C.2   1 <1>  -0.1500 
 19 C        3.6680     7.2730     0.2090 C.2   1 <1>  -0.1100 
 20 C        3.6310     6.5690     1.3540 C.2   1 <1>  -0.1500 
 21 H        2.1840     1.4040    -2.2150 H     1 <1>   0.0800 
 22 H        1.5140     1.8500    -0.6880 H     1 <1>   0.0800 
 23 H       -1.5190    -1.7400     0.8150 H     1 <1>   0.0800 
 24 H       -0.4960    -2.3740    -0.4470 H     1 <1>   0.0800 
 25 H       -1.9310    -1.4640    -0.8700 H     1 <1>   0.0800 
 26 H       -1.4660     0.5550     1.3880 H     1 <1>   0.0800 
 27 H       -2.0150     0.9570    -0.2280 H     1 <1>   0.0800 
 28 H       -0.5710     1.7010     0.4210 H     1 <1>   0.0800 
 29 H        3.1190    -0.6660    -1.1940 H     1 <1>   0.0800 
 30 H        4.8390     0.9530    -1.3270 H     1 <1>   0.0800 
 31 H        2.3030    -1.2850     0.8510 H     1 <1>   0.0800 
 32 H        1.8620     0.3600     1.2960 H     1 <1>   0.0800 
 33 H        3.8170     2.4270     1.0320 H     1 <1>   0.3700 
 34 H        5.6170     0.7190     1.2300 H     1 <1>   0.0800 
 35 H        5.2540    -0.7650     0.3480 H     1 <1>   0.0800 
 36 H        3.7460     4.5010     2.0130 H     1 <1>   0.1500 
 37 H        3.6000     8.3280     0.0100 H     1 <1>   0.1500 
 38 H        3.5190     6.9910     2.3380 H     1 <1>   0.1500 
@<TRIPOS>BOND
  1   1   2  2   
  2   1   3  2   
  3   1   4  am  
  4   1   5  1   
  5   4   6  1   
  6   4   7  1   
  7   5   8  1   
  8   5  21  1   
  9   5  22  1   
 10   6  23  1   
 11   6  24  1   
 12   6  25  1   
 13   7  26  1   
 14   7  27  1   
 15   7  28  1   
 16   8   9  1   
 17   8  10  1   
 18   8  29  1   
 19   9  11  1   
 20   9  12  1   
 21   9  30  1   
 22  10  13  1   
 23  10  31  1   
 24  10  32  1   
 25  11  14  am  
 26  11  33  1   
 27  12  13  1   
 28  12  34  1   
 29  12  35  1   
 30  14  15  2   
 31  14  16  1   
 32  16  17  1   
 33  16  18  2   
 34  17  19  1   
 35  18  20  1   
 36  18  36  1   
 37  19  20  2   
 38  19  37  1   
 39  20  38  1   
@<TRIPOS>SUBSTRUCTURE
  1 ****   5 GROUP 4 **** **** 0

# MOE 2024.06 (io_trps.svl 2023.06)
