@<TRIPOS>MOLECULE
NONAME
53 55 1 0 0 
SMALL
USER_CHARGES


@<TRIPOS>ATOM
  1 O        0.5570     1.2500    -1.7310 O.2   1 <1>  -0.5700 
  2 C        0.3260     2.3480    -1.2810 C.2   1 <1>   0.5690 
  3 N       -0.9240     2.7190    -0.8600 N.am  1 <1>  -0.6600 
  4 C        1.4800     3.3510    -1.2150 C.3   1 <1>   0.1810 
  5 C       -1.1850     4.0880    -0.2990 C.3   1 <1>   0.3640 
  6 C       -2.0660     1.7590    -0.8190 C.3   1 <1>   0.0600 
  7 O        1.2540     4.4010    -0.3070 O.3   1 <1>  -0.5600 
  8 C       -2.4390     4.6760    -0.9670 C.ar  1 <1>  -0.1430 
  9 C        0.0140     5.0560    -0.4850 C.3   1 <1>   0.2610 
 10 C       -3.5670     5.0700    -0.2460 C.ar  1 <1>  -0.1430 
 11 C       -2.4470     4.8130    -2.3520 C.ar  1 <1>  -0.1500 
 12 C       -0.0780     6.2620     0.4570 C.2   1 <1>   0.5690 
 13 C       -4.6540     5.6120    -0.9170 C.ar  1 <1>  -0.1500 
 14 C       -3.6720     4.9280     1.2680 C.3   1 <1>  -0.0960 
 15 C       -3.5350     5.3510    -3.0120 C.ar  1 <1>  -0.1500 
 16 O       -0.5420     6.1390     1.5670 O.2   1 <1>  -0.5700 
 17 N        0.4030     7.4600     0.0320 N.am  1 <1>  -0.7300 
 18 C       -4.6410     5.7550    -2.2920 C.ar  1 <1>  -0.1500 
 19 C        0.5830     8.6380     0.8940 C.3   1 <1>   0.3210 
 20 C        1.9760     9.1740     0.6430 C.2   1 <1>  -0.1810 
 21 C        3.1790     8.5290     0.9190 C.2   1 <1>   0.1080 
 22 C        2.3420    10.3580     0.1050 C.2   1 <1>  -0.3020 
 23 N        4.2040     9.2450     0.5780 N.2   1 <1>  -0.7070 
 24 C        3.3290     7.1540     1.5340 C.3   1 <1>  -0.0590 
 25 N        3.6890    10.3810     0.0800 N.pl3 1 <1>   0.3140 
 26 C        4.5470    11.4730    -0.4220 C.3   1 <1>   0.0960 
 27 C        4.6580    12.6080     0.6040 C.3   1 <1>  -0.2400 
 28 H        1.6450     3.7710    -2.1900 H     1 <1>   0.0800 
 29 H        2.3730     2.8400    -0.9040 H     1 <1>   0.0800 
 30 H       -1.3460     3.9660     0.7550 H     1 <1>   0.0800 
 31 H       -2.5080     1.7560     0.1610 H     1 <1>   0.0800 
 32 H       -1.7340     0.7610    -1.0490 H     1 <1>   0.0800 
 33 H       -2.8120     2.0460    -1.5400 H     1 <1>   0.0800 
 34 H        0.0020     5.4340    -1.4900 H     1 <1>   0.0800 
 35 H       -1.6000     4.4910    -2.9330 H     1 <1>   0.1500 
 36 H       -5.5260     5.9270    -0.3720 H     1 <1>   0.1500 
 37 H       -4.6740     5.1230     1.6050 H     1 <1>   0.0800 
 38 H       -3.0180     5.6270     1.7550 H     1 <1>   0.0800 
 39 H       -3.4150     3.9300     1.5740 H     1 <1>   0.0800 
 40 H       -3.5240     5.4520    -4.0830 H     1 <1>   0.1500 
 41 H        0.9310     7.5240    -0.8390 H     1 <1>   0.3700 
 42 H       -5.4920     6.1770    -2.7980 H     1 <1>   0.1500 
 43 H       -0.1520     9.3820     0.6430 H     1 <1>   0.0800 
 44 H        0.4700     8.3740     1.9320 H     1 <1>   0.0800 
 45 H        1.7360    11.1690    -0.2520 H     1 <1>   0.1500 
 46 H        2.5440     6.9700     2.2430 H     1 <1>   0.0800 
 47 H        4.2750     7.0830     2.0370 H     1 <1>   0.0800 
 48 H        3.2880     6.4070     0.7630 H     1 <1>   0.0800 
 49 H        5.5210    11.0650    -0.6240 H     1 <1>   0.0800 
 50 H        4.1300    11.8390    -1.3420 H     1 <1>   0.0800 
 51 H        5.0760    12.2310     1.5220 H     1 <1>   0.0800 
 52 H        3.6900    13.0320     0.8020 H     1 <1>   0.0800 
 53 H        5.3020    13.3810     0.2260 H     1 <1>   0.0800 
@<TRIPOS>BOND
  1   1   2  2   
  2   2   3  am  
  3   2   4  1   
  4   3   5  1   
  5   3   6  1   
  6   4   7  1   
  7   4  28  1   
  8   4  29  1   
  9   5   8  1   
 10   5   9  1   
 11   5  30  1   
 12   6  31  1   
 13   6  32  1   
 14   6  33  1   
 15   7   9  1   
 16   8  10  ar  
 17   8  11  ar  
 18   9  12  1   
 19   9  34  1   
 20  10  13  ar  
 21  10  14  1   
 22  11  15  ar  
 23  11  35  1   
 24  12  16  2   
 25  12  17  am  
 26  13  18  ar  
 27  13  36  1   
 28  14  37  1   
 29  14  38  1   
 30  14  39  1   
 31  15  18  ar  
 32  15  40  1   
 33  17  19  1   
 34  17  41  1   
 35  18  42  1   
 36  19  20  1   
 37  19  43  1   
 38  19  44  1   
 39  20  21  1   
 40  20  22  2   
 41  21  23  2   
 42  21  24  1   
 43  22  25  1   
 44  22  45  1   
 45  23  25  1   
 46  24  46  1   
 47  24  47  1   
 48  24  48  1   
 49  25  26  1   
 50  26  27  1   
 51  26  49  1   
 52  26  50  1   
 53  27  51  1   
 54  27  52  1   
 55  27  53  1   
@<TRIPOS>SUBSTRUCTURE
  1 ****  12 GROUP 4 **** **** 0

# MOE 2024.06 (io_trps.svl 2023.06)
