@<TRIPOS>MOLECULE
NONAME
60 62 1 0 0 
SMALL
USER_CHARGES


@<TRIPOS>ATOM
  1 O       -2.2550    -0.1880     1.9840 O.2   1 <1>  -0.5700 
  2 C       -2.2830     0.5870     1.0550 C.2   1 <1>   0.5690 
  3 N       -2.6450     0.1880    -0.2050 N.am  1 <1>  -0.6600 
  4 C       -1.8280     2.0170     1.3200 C.3   1 <1>   0.0450 
  5 C       -2.4400    -1.2400    -0.5900 C.3   1 <1>   0.3640 
  6 C       -2.9390     1.1410    -1.3200 C.3   1 <1>   0.1400 
  7 C       -0.5460     2.3180     0.5490 C.ar  1 <1>  -0.1440 
  8 C       -0.9440    -1.4140    -0.8880 C.ar  1 <1>  -0.1440 
  9 C       -3.3660    -1.7170    -1.7480 C.3   1 <1>   0.2000 
 10 C       -3.6130     0.4860    -2.5410 C.3   1 <1>   0.1200 
 11 C       -0.4490     3.4120    -0.2950 C.ar  1 <1>  -0.1500 
 12 C        0.5350     1.4610     0.6630 C.ar  1 <1>  -0.1500 
 13 C       -0.1290    -1.9420     0.1040 C.ar  1 <1>  -0.1500 
 14 C       -0.3630    -1.0160    -2.0840 C.ar  1 <1>  -0.1500 
 15 O       -4.2400    -0.7130    -2.2040 O.3   1 <1>  -0.5600 
 16 C       -4.2380    -2.9060    -1.3240 C.3   1 <1>   0.1200 
 17 C        0.6920     3.6390    -1.0480 C.ar  1 <1>   0.0830 
 18 C        1.6770     1.6640    -0.0870 C.ar  1 <1>  -0.1500 
 19 C        1.2490    -2.0600    -0.0690 C.ar  1 <1>   0.0830 
 20 C        0.9990    -1.1440    -2.2790 C.ar  1 <1>  -0.1500 
 21 O       -3.4430    -3.9970    -0.9800 O.3   1 <1>  -0.6800 
 22 O        0.6450     4.7510    -1.8350 O.3   1 <1>  -0.3630 
 23 C        1.7680     2.7380    -0.9680 C.ar  1 <1>   0.0830 
 24 O        2.0510    -2.5180     0.9370 O.3   1 <1>  -0.3630 
 25 C        1.8160    -1.6640    -1.2900 C.ar  1 <1>   0.0830 
 26 C        1.8150     5.4820    -2.1270 C.3   1 <1>   0.0400 
 27 O        2.8690     2.9000    -1.7590 O.3   1 <1>  -0.3630 
 28 C        1.5720    -2.6660     2.2570 C.3   1 <1>   0.0400 
 29 O        3.1410    -1.7220    -1.6040 O.3   1 <1>  -0.3630 
 30 C        3.7400     1.8180    -2.0200 C.3   1 <1>   0.0400 
 31 C        3.9380    -2.7920    -1.1450 C.3   1 <1>   0.0400 
 32 H       -2.6120     2.6980     1.0490 H     1 <1>   0.0800 
 33 H       -1.6390     2.1350     2.3710 H     1 <1>   0.0800 
 34 H       -2.6700    -1.8490     0.2680 H     1 <1>   0.0800 
 35 H       -3.5890     1.9140    -0.9530 H     1 <1>   0.0800 
 36 H       -2.0250     1.6070    -1.6440 H     1 <1>   0.0800 
 37 H       -2.7760    -2.0260    -2.5910 H     1 <1>   0.0800 
 38 H       -2.8970     0.2910    -3.3180 H     1 <1>   0.0800 
 39 H       -4.3610     1.1470    -2.9410 H     1 <1>   0.0800 
 40 H       -1.2660     4.1040    -0.3880 H     1 <1>   0.1500 
 41 H        0.4890     0.6120     1.3240 H     1 <1>   0.1500 
 42 H       -0.5940    -2.2400     1.0250 H     1 <1>   0.1500 
 43 H       -0.9530    -0.5910    -2.8720 H     1 <1>   0.1500 
 44 H       -4.8900    -3.2040    -2.1260 H     1 <1>   0.0800 
 45 H       -4.8260    -2.6430    -0.4610 H     1 <1>   0.0800 
 46 H        2.4800     0.9600     0.0270 H     1 <1>   0.1500 
 47 H        1.4410    -0.8310    -3.2070 H     1 <1>   0.1500 
 48 H       -3.0210    -4.3890    -1.7700 H     1 <1>   0.4000 
 49 H        1.5270     6.4730    -2.4270 H     1 <1>   0.0800 
 50 H        2.3360     4.9960    -2.9320 H     1 <1>   0.0800 
 51 H        2.4310     5.5270    -1.2470 H     1 <1>   0.0800 
 52 H        2.4040    -2.9190     2.8890 H     1 <1>   0.0800 
 53 H        0.8440    -3.4570     2.2790 H     1 <1>   0.0800 
 54 H        1.1380    -1.7350     2.5790 H     1 <1>   0.0800 
 55 H        4.4170     2.1140    -2.8000 H     1 <1>   0.0800 
 56 H        3.1600     0.9700    -2.3410 H     1 <1>   0.0800 
 57 H        4.2920     1.5870    -1.1270 H     1 <1>   0.0800 
 58 H        4.7910    -2.8770    -1.7920 H     1 <1>   0.0800 
 59 H        3.3610    -3.6990    -1.1730 H     1 <1>   0.0800 
 60 H        4.2620    -2.5780    -0.1430 H     1 <1>   0.0800 
@<TRIPOS>BOND
  1   1   2  2   
  2   2   3  am  
  3   2   4  1   
  4   3   5  1   
  5   3   6  1   
  6   4   7  1   
  7   4  32  1   
  8   4  33  1   
  9   5   8  1   
 10   5   9  1   
 11   5  34  1   
 12   6  10  1   
 13   6  35  1   
 14   6  36  1   
 15   7  11  ar  
 16   7  12  ar  
 17   8  13  ar  
 18   8  14  ar  
 19   9  15  1   
 20   9  16  1   
 21   9  37  1   
 22  10  15  1   
 23  10  38  1   
 24  10  39  1   
 25  11  17  ar  
 26  11  40  1   
 27  12  18  ar  
 28  12  41  1   
 29  13  19  ar  
 30  13  42  1   
 31  14  20  ar  
 32  14  43  1   
 33  16  21  1   
 34  16  44  1   
 35  16  45  1   
 36  17  22  1   
 37  17  23  ar  
 38  18  23  ar  
 39  18  46  1   
 40  19  24  1   
 41  19  25  ar  
 42  20  25  ar  
 43  20  47  1   
 44  21  48  1   
 45  22  26  1   
 46  23  27  1   
 47  24  28  1   
 48  25  29  1   
 49  26  49  1   
 50  26  50  1   
 51  26  51  1   
 52  27  30  1   
 53  28  52  1   
 54  28  53  1   
 55  28  54  1   
 56  29  31  1   
 57  30  55  1   
 58  30  56  1   
 59  30  57  1   
 60  31  58  1   
 61  31  59  1   
 62  31  60  1   
@<TRIPOS>SUBSTRUCTURE
  1 ****   8 GROUP 4 **** **** 0

# MOE 2024.06 (io_trps.svl 2023.06)
