@<TRIPOS>MOLECULE
NONAME
56 58 1 0 0 
SMALL
USER_CHARGES


@<TRIPOS>ATOM
  1 F       -1.2380    -0.7110     0.0220 F     1 <1>  -0.1900 
  2 C       -2.0530     0.2690    -0.2770 C.ar  1 <1>   0.1900 
  3 C       -3.3190    -0.0450    -0.7360 C.ar  1 <1>  -0.1440 
  4 C       -1.6200     1.5660    -0.0990 C.ar  1 <1>  -0.1500 
  5 C       -4.1750     1.0020    -1.0310 C.ar  1 <1>  -0.1500 
  6 C       -3.7530    -1.4850    -0.9000 C.3   1 <1>   0.4870 
  7 C       -2.4890     2.6170    -0.3860 C.ar  1 <1>   0.0820 
  8 C       -3.7820     2.3220    -0.8630 C.ar  1 <1>   0.0820 
  9 N       -3.8070    -2.1380     0.4490 N.4   1 <1>  -0.9590 
 10 O       -2.1070     3.9110    -0.1920 O.3   1 <1>  -0.3620 
 11 O       -4.7530     3.2210    -1.1920 O.3   1 <1>  -0.3620 
 12 C       -4.0040    -3.6370     0.3390 C.3   1 <1>   0.3430 
 13 C       -4.7840    -1.4350     1.3760 C.3   1 <1>   0.3430 
 14 C       -0.8090     4.2700     0.2330 C.3   1 <1>   0.0400 
 15 C       -4.4750     4.5730    -1.4880 C.3   1 <1>   0.0400 
 16 C       -5.4390    -4.0150     0.7870 C.3   1 <1>   0.4230 
 17 C       -6.2290    -2.0080     1.3050 C.3   1 <1>  -0.1600 
 18 N       -5.8160    -5.4810     0.9860 N.4   1 <1>  -0.9590 
 19 C       -6.4680    -3.0050     0.0620 C.3   1 <1>   0.0000 
 20 C       -6.2200    -6.2270    -0.2180 C.3   1 <1>   0.3430 
 21 C       -4.8350    -6.2810     1.7920 C.3   1 <1>   0.2630 
 22 C       -6.6260    -3.9960    -1.2000 C.3   1 <1>  -0.1600 
 23 C       -7.5180    -1.9760    -0.5670 C.3   1 <1>   0.1200 
 24 C       -7.2450    -5.3650    -0.9080 C.3   1 <1>  -0.1600 
 25 O       -8.7410    -2.2470     0.0260 O.3   1 <1>  -0.6800 
 26 H       -0.6220     1.7270     0.2620 H     1 <1>   0.1500 
 27 H       -5.1700     0.8230    -1.4030 H     1 <1>   0.1500 
 28 H       -3.0400    -1.9920    -1.5310 H     1 <1>   0.0800 
 29 H       -4.7180    -1.5210    -1.3770 H     1 <1>   0.0800 
 30 H       -2.8580    -1.9550     0.8250 H     1 <1>   0.4500 
 31 H       -3.8300    -3.9600    -0.6740 H     1 <1>   0.0800 
 32 H       -3.2970    -4.1330     0.9820 H     1 <1>   0.0800 
 33 H       -4.4340    -1.5170     2.3930 H     1 <1>   0.0800 
 34 H       -4.8120    -0.3810     1.1460 H     1 <1>   0.0800 
 35 H       -0.7590     5.3430     0.2800 H     1 <1>   0.0800 
 36 H       -0.0920     3.9040    -0.4800 H     1 <1>   0.0800 
 37 H       -0.6320     3.8570     1.2100 H     1 <1>   0.0800 
 38 H       -5.3500     5.0050    -1.9380 H     1 <1>   0.0800 
 39 H       -3.6480     4.6210    -2.1740 H     1 <1>   0.0800 
 40 H       -4.2460     5.0910    -0.5740 H     1 <1>   0.0800 
 41 H       -5.3530    -3.7560     1.8240 H     1 <1>   0.0800 
 42 H       -6.4880    -2.4780     2.2420 H     1 <1>   0.0800 
 43 H       -6.8560    -1.1370     1.4240 H     1 <1>   0.0800 
 44 H       -6.6890    -5.4450     1.5410 H     1 <1>   0.4500 
 45 H       -5.3750    -6.3940    -0.8660 H     1 <1>   0.0800 
 46 H       -6.6530    -7.1800     0.0470 H     1 <1>   0.0800 
 47 H       -3.9110    -6.4080     1.2520 H     1 <1>   0.0800 
 48 H       -5.2390    -7.2590     2.0040 H     1 <1>   0.0800 
 49 H       -4.6280    -5.7930     2.7310 H     1 <1>   0.0800 
 50 H       -7.1980    -3.6880    -2.0560 H     1 <1>   0.0800 
 51 H       -5.6640    -4.1530    -1.6570 H     1 <1>   0.0800 
 52 H       -7.6890    -1.9630    -1.6280 H     1 <1>   0.0800 
 53 H       -7.2930    -0.9320    -0.4180 H     1 <1>   0.0800 
 54 H       -7.5210    -5.8460    -1.8320 H     1 <1>   0.0800 
 55 H       -8.1390    -5.2650    -0.3160 H     1 <1>   0.0800 
 56 H       -9.4530    -1.6730    -0.3310 H     1 <1>   0.4000 
@<TRIPOS>BOND
  1   1   2  1   
  2   2   3  ar  
  3   2   4  ar  
  4   3   5  ar  
  5   3   6  1   
  6   4   7  ar  
  7   4  26  1   
  8   5   8  ar  
  9   5  27  1   
 10   6   9  1   
 11   6  28  1   
 12   6  29  1   
 13   7   8  ar  
 14   7  10  1   
 15   8  11  1   
 16   9  12  1   
 17   9  13  1   
 18   9  30  1   
 19  10  14  1   
 20  11  15  1   
 21  12  16  1   
 22  12  31  1   
 23  12  32  1   
 24  13  17  1   
 25  13  33  1   
 26  13  34  1   
 27  14  35  1   
 28  14  36  1   
 29  14  37  1   
 30  15  38  1   
 31  15  39  1   
 32  15  40  1   
 33  16  18  1   
 34  16  19  1   
 35  16  41  1   
 36  17  19  1   
 37  17  42  1   
 38  17  43  1   
 39  18  20  1   
 40  18  21  1   
 41  18  44  1   
 42  19  22  1   
 43  19  23  1   
 44  20  24  1   
 45  20  45  1   
 46  20  46  1   
 47  21  47  1   
 48  21  48  1   
 49  21  49  1   
 50  22  24  1   
 51  22  50  1   
 52  22  51  1   
 53  23  25  1   
 54  23  52  1   
 55  23  53  1   
 56  24  54  1   
 57  24  55  1   
 58  25  56  1   
@<TRIPOS>SUBSTRUCTURE
  1 ****   6 GROUP 4 **** **** 0

# MOE 2024.06 (io_trps.svl 2023.06)
