@<TRIPOS>MOLECULE
NONAME
48 51 1 0 0 
SMALL
USER_CHARGES


@<TRIPOS>ATOM
  1 O       -0.8370     0.5150     1.5090 O.2   1 <1>  -0.5700 
  2 C       -1.7900     1.0830     1.0050 C.2   1 <1>   0.6160 
  3 N       -3.0550     0.5610     1.1930 N.am  1 <1>  -0.6600 
  4 C       -1.5620     2.2780     0.2250 C.2   1 <1>   0.0140 
  5 C       -3.3260    -0.4790     2.2260 C.3   1 <1>   0.1400 
  6 C       -4.1810     0.7580     0.2360 C.3   1 <1>   0.1400 
  7 C       -2.3390     3.4060     0.3430 C.2   1 <1>  -0.0410 
  8 C       -0.4790     2.3240    -0.7060 C.2   1 <1>  -0.1500 
  9 C       -3.6210    -1.8170     1.5430 C.3   1 <1>  -0.1600 
 10 C       -4.4800    -0.5640    -0.4750 C.3   1 <1>  -0.1600 
 11 N       -2.1060     4.5220    -0.4200 N.am  1 <1>  -0.5390 
 12 C       -0.2550     3.4390    -1.4540 C.2   1 <1>  -0.1360 
 13 C       -4.7660    -1.7050     0.5210 C.3   1 <1>   0.4240 
 14 C       -1.0860     4.5840    -1.3270 C.2   1 <1>   0.6160 
 15 O       -5.8720    -1.2950     1.2970 O.3   1 <1>  -0.5600 
 16 C       -5.0330    -3.0650    -0.1870 C.ar  1 <1>  -0.1440 
 17 O       -0.9420     5.6040    -1.9780 O.2   1 <1>  -0.5700 
 18 C       -7.1460    -1.5320     0.7940 C.3   1 <1>   0.1200 
 19 C       -4.0610    -3.7020    -0.9720 C.ar  1 <1>   0.0820 
 20 C       -6.2720    -3.6890    -0.0480 C.ar  1 <1>  -0.1440 
 21 C       -7.3700    -3.0350     0.7660 C.3   1 <1>  -0.0170 
 22 O       -2.8520    -3.1040    -1.1390 O.3   1 <1>  -0.3620 
 23 C       -4.3370    -4.9270    -1.5750 C.ar  1 <1>  -0.1500 
 24 C       -6.5340    -4.9090    -0.6490 C.ar  1 <1>  -0.1500 
 25 C       -1.7310    -3.7890    -1.6500 C.3   1 <1>   0.0400 
 26 C       -5.5670    -5.5300    -1.4120 C.ar  1 <1>  -0.1500 
 27 H       -4.1710    -0.1740     2.8190 H     1 <1>   0.0800 
 28 H       -2.4820    -0.5870     2.8870 H     1 <1>   0.0800 
 29 H       -3.9380     1.5010    -0.5010 H     1 <1>   0.0800 
 30 H       -5.0500     1.0910     0.7790 H     1 <1>   0.0800 
 31 H       -3.1550     3.4400     1.0470 H     1 <1>   0.1500 
 32 H        0.1480     1.4510    -0.7880 H     1 <1>   0.1500 
 33 H       -3.8790    -2.5540     2.2800 H     1 <1>   0.0800 
 34 H       -2.7150    -2.1430     1.0720 H     1 <1>   0.0800 
 35 H       -3.6290    -0.8040    -1.0800 H     1 <1>   0.0800 
 36 H       -5.3110    -0.4450    -1.1430 H     1 <1>   0.0800 
 37 H       -2.6620     5.3770    -0.3510 H     1 <1>   0.3700 
 38 H        0.5480     3.5090    -2.1630 H     1 <1>   0.1500 
 39 H       -7.2280    -1.1060    -0.1910 H     1 <1>   0.0800 
 40 H       -7.8550    -1.0560     1.4480 H     1 <1>   0.0800 
 41 H       -8.3310    -3.2410     0.3320 H     1 <1>   0.0800 
 42 H       -7.3590    -3.4200     1.7700 H     1 <1>   0.0800 
 43 H       -3.6080    -5.4280    -2.1830 H     1 <1>   0.1500 
 44 H       -7.4930    -5.3820    -0.5260 H     1 <1>   0.1500 
 45 H       -0.8750    -3.1450    -1.5550 H     1 <1>   0.0800 
 46 H       -1.9020    -4.0170    -2.6870 H     1 <1>   0.0800 
 47 H       -1.5780    -4.6860    -1.0760 H     1 <1>   0.0800 
 48 H       -5.7730    -6.4770    -1.8790 H     1 <1>   0.1500 
@<TRIPOS>BOND
  1   1   2  2   
  2   2   3  am  
  3   2   4  1   
  4   3   5  1   
  5   3   6  1   
  6   4   7  2   
  7   4   8  1   
  8   5   9  1   
  9   5  27  1   
 10   5  28  1   
 11   6  10  1   
 12   6  29  1   
 13   6  30  1   
 14   7  11  1   
 15   7  31  1   
 16   8  12  2   
 17   8  32  1   
 18   9  13  1   
 19   9  33  1   
 20   9  34  1   
 21  10  13  1   
 22  10  35  1   
 23  10  36  1   
 24  11  14  am  
 25  11  37  1   
 26  12  14  1   
 27  12  38  1   
 28  13  15  1   
 29  13  16  1   
 30  14  17  2   
 31  15  18  1   
 32  16  19  ar  
 33  16  20  ar  
 34  18  21  1   
 35  18  39  1   
 36  18  40  1   
 37  19  22  1   
 38  19  23  ar  
 39  20  21  1   
 40  20  24  ar  
 41  21  41  1   
 42  21  42  1   
 43  22  25  1   
 44  23  26  ar  
 45  23  43  1   
 46  24  26  ar  
 47  24  44  1   
 48  25  45  1   
 49  25  46  1   
 50  25  47  1   
 51  26  48  1   
@<TRIPOS>SUBSTRUCTURE
  1 ****  10 GROUP 4 **** **** 0

# MOE 2024.06 (io_trps.svl 2023.06)
