@<TRIPOS>MOLECULE
NONAME
47 49 1 0 0 
SMALL
USER_CHARGES


@<TRIPOS>ATOM
  1 CL      -0.3970     0.3520    -0.0530 Cl    1 <1>  -0.1770 
  2 C       -0.1890     2.0820    -0.1420 C.ar  1 <1>   0.1770 
  3 C       -0.1120     2.8160     1.0260 C.ar  1 <1>  -0.1500 
  4 C       -0.1030     2.6910    -1.3800 C.ar  1 <1>  -0.1500 
  5 C        0.0540     4.1900     0.9510 C.ar  1 <1>  -0.1500 
  6 C        0.0630     4.0650    -1.4470 C.ar  1 <1>  -0.1500 
  7 C        0.1400     4.8190    -0.2840 C.ar  1 <1>  -0.0320 
  8 C        0.3300     6.3260    -0.3560 C.3   1 <1>  -0.0630 
  9 C       -0.6390     7.1120    -1.1920 C.3   1 <1>  -0.2000 
 10 C       -0.7100     7.1810     0.3070 C.3   1 <1>  -0.2000 
 11 C        1.8250     6.6910    -0.2780 C.3   1 <1>   0.2350 
 12 N        2.0420     8.1550    -0.3440 N.am  1 <1>  -0.7300 
 13 C        2.7370     8.8830     0.5640 C.2   1 <1>   0.5690 
 14 O        3.3190     8.3670     1.4870 O.2   1 <1>  -0.5700 
 15 C        2.7670    10.4030     0.4260 C.3   1 <1>  -0.0190 
 16 C        1.3500    11.0090     0.4660 C.3   1 <1>  -0.1600 
 17 C        3.5410    10.8550    -0.8370 C.3   1 <1>  -0.1600 
 18 C        1.3760    12.5510     0.4820 C.3   1 <1>   0.2000 
 19 C        3.1600    12.2680    -1.3240 C.3   1 <1>  -0.1600 
 20 O        0.2420    13.0070    -0.2140 O.3   1 <1>  -0.5600 
 21 C        2.6520    13.1420    -0.1760 C.3   1 <1>   0.2000 
 22 C       -0.9370    13.0350     0.5290 C.3   1 <1>   0.0400 
 23 O        2.3620    14.3910    -0.6860 O.3   1 <1>  -0.6800 
 24 H       -0.1800     2.3200     1.9770 H     1 <1>   0.1500 
 25 H       -0.1650     2.0970    -2.2730 H     1 <1>   0.1500 
 26 H        0.1170     4.7720     1.8540 H     1 <1>   0.1500 
 27 H        0.1320     4.5480    -2.4050 H     1 <1>   0.1500 
 28 H       -0.3130     7.9860    -1.7270 H     1 <1>   0.1000 
 29 H       -1.4260     6.5910    -1.7080 H     1 <1>   0.1000 
 30 H       -1.5380     6.7030     0.8010 H     1 <1>   0.1000 
 31 H       -0.4070     8.0850     0.8050 H     1 <1>   0.1000 
 32 H        2.3480     6.2260    -1.0950 H     1 <1>   0.0800 
 33 H        2.2360     6.3040     0.6390 H     1 <1>   0.0800 
 34 H        1.5400     8.6300    -1.0930 H     1 <1>   0.3700 
 35 H        3.2970    10.7770     1.2850 H     1 <1>   0.0800 
 36 H        0.8380    10.6560     1.3440 H     1 <1>   0.0800 
 37 H        0.8070    10.6730    -0.4000 H     1 <1>   0.0800 
 38 H        4.5940    10.8280    -0.6110 H     1 <1>   0.0800 
 39 H        3.3760    10.1660    -1.6460 H     1 <1>   0.0800 
 40 H        1.3340    12.9140     1.4950 H     1 <1>   0.0800 
 41 H        2.3790    12.1850    -2.0600 H     1 <1>   0.0800 
 42 H        4.0130    12.7320    -1.7880 H     1 <1>   0.0800 
 43 H        3.4320    13.2580     0.5570 H     1 <1>   0.0800 
 44 H       -1.7240    13.4010    -0.1060 H     1 <1>   0.0800 
 45 H       -0.8130    13.6970     1.3680 H     1 <1>   0.0800 
 46 H       -1.1770    12.0400     0.8630 H     1 <1>   0.0800 
 47 H        1.4110    14.3610    -0.9410 H     1 <1>   0.4000 
@<TRIPOS>BOND
  1   1   2  1   
  2   2   3  ar  
  3   2   4  ar  
  4   3   5  ar  
  5   3  24  1   
  6   4   6  ar  
  7   4  25  1   
  8   5   7  ar  
  9   5  26  1   
 10   6   7  ar  
 11   6  27  1   
 12   7   8  1   
 13   8   9  1   
 14   8  10  1   
 15   8  11  1   
 16   9  10  1   
 17   9  28  1   
 18   9  29  1   
 19  10  30  1   
 20  10  31  1   
 21  11  12  1   
 22  11  32  1   
 23  11  33  1   
 24  12  13  am  
 25  12  34  1   
 26  13  14  2   
 27  13  15  1   
 28  15  16  1   
 29  15  17  1   
 30  15  35  1   
 31  16  18  1   
 32  16  36  1   
 33  16  37  1   
 34  17  19  1   
 35  17  38  1   
 36  17  39  1   
 37  18  20  1   
 38  18  21  1   
 39  18  40  1   
 40  19  21  1   
 41  19  41  1   
 42  19  42  1   
 43  20  22  1   
 44  21  23  1   
 45  21  43  1   
 46  22  44  1   
 47  22  45  1   
 48  22  46  1   
 49  23  47  1   
@<TRIPOS>SUBSTRUCTURE
  1 ****  12 GROUP 4 **** **** 0

# MOE 2024.06 (io_trps.svl 2023.06)
