@<TRIPOS>MOLECULE
NONAME
54 55 1 0 0 
SMALL
USER_CHARGES


@<TRIPOS>ATOM
  1 O        0.8960    -0.0810     1.2040 O.2   1 <1>  -0.5700 
  2 C        1.4320    -0.7510     0.3550 C.2   1 <1>   0.5690 
  3 N        2.1260    -0.1470    -0.6760 N.am  1 <1>  -0.6600 
  4 C        1.2750    -2.2690     0.5420 C.3   1 <1>  -0.0190 
  5 C        2.1640     1.3530    -0.7420 C.3   1 <1>   0.1400 
  6 C        2.7550    -0.8300    -1.8430 C.3   1 <1>   0.0600 
  7 C        2.5820    -3.0830     0.5680 C.3   1 <1>  -0.1600 
  8 C        0.2440    -2.9070    -0.4060 C.3   1 <1>  -0.1600 
  9 C        3.4470     1.9730    -0.1340 C.3   1 <1>   0.0000 
 10 C        2.2980    -4.5490     0.8980 C.3   1 <1>   0.3430 
 11 C        0.0210    -4.3800    -0.0620 C.3   1 <1>   0.3430 
 12 C        3.3020     3.5020    -0.0880 C.3   1 <1>   0.3430 
 13 C        4.6880     1.7580    -1.0080 C.3   1 <1>  -0.1600 
 14 C        3.7210     1.4650     1.2990 C.3   1 <1>  -0.2400 
 15 N        1.3240    -5.1180    -0.0820 N.4   1 <1>  -0.9590 
 16 N        4.5980     4.0870    -0.5610 N.4   1 <1>  -0.9590 
 17 C        5.5620     2.9680    -0.7260 C.3   1 <1>   0.3430 
 18 C        1.1380    -6.5820     0.1980 C.3   1 <1>   0.3430 
 19 C        5.1130     5.1490     0.3560 C.3   1 <1>   0.2630 
 20 C        0.3870    -7.3240    -0.9180 C.3   1 <1>   0.1200 
 21 O        0.3410    -8.6620    -0.5710 O.3   1 <1>  -0.6800 
 22 H        0.8590    -2.3740     1.5320 H     1 <1>   0.0800 
 23 H        1.3100     1.7490    -0.2190 H     1 <1>   0.0800 
 24 H        2.0550     1.6650    -1.7670 H     1 <1>   0.0800 
 25 H        2.3020    -1.7830    -2.0290 H     1 <1>   0.0800 
 26 H        3.8060    -0.9710    -1.6600 H     1 <1>   0.0800 
 27 H        2.6350    -0.2360    -2.7330 H     1 <1>   0.0800 
 28 H        3.2340    -2.6760     1.3230 H     1 <1>   0.0800 
 29 H        3.1040    -3.0320    -0.3680 H     1 <1>   0.0800 
 30 H        0.5440    -2.8200    -1.4320 H     1 <1>   0.0800 
 31 H       -0.6920    -2.3840    -0.3040 H     1 <1>   0.0800 
 32 H        1.8930    -4.6190     1.8960 H     1 <1>   0.0800 
 33 H        3.2210    -5.1080     0.8710 H     1 <1>   0.0800 
 34 H       -0.6640    -4.8110    -0.7740 H     1 <1>   0.0800 
 35 H       -0.4220    -4.4540     0.9190 H     1 <1>   0.0800 
 36 H        3.0760     3.8190     0.9170 H     1 <1>   0.0800 
 37 H        2.5010     3.8210    -0.7360 H     1 <1>   0.0800 
 38 H        4.4290     1.7550    -2.0520 H     1 <1>   0.0800 
 39 H        5.2040     0.8420    -0.7790 H     1 <1>   0.0800 
 40 H        2.8590     1.6280     1.9250 H     1 <1>   0.0800 
 41 H        4.5590     1.9660     1.7480 H     1 <1>   0.0800 
 42 H        3.9280     0.4090     1.2970 H     1 <1>   0.0800 
 43 H        1.7360    -5.0210    -1.0190 H     1 <1>   0.4500 
 44 H        4.4350     4.4980    -1.4920 H     1 <1>   0.4500 
 45 H        6.2620     3.1550    -1.5250 H     1 <1>   0.0800 
 46 H        6.1010     2.8100     0.1940 H     1 <1>   0.0800 
 47 H        0.5980    -6.7090     1.1220 H     1 <1>   0.0800 
 48 H        2.1040    -7.0480     0.3090 H     1 <1>   0.0800 
 49 H        5.2880     4.7420     1.3380 H     1 <1>   0.0800 
 50 H        4.3970     5.9510     0.4380 H     1 <1>   0.0800 
 51 H        6.0390     5.5530    -0.0210 H     1 <1>   0.0800 
 52 H        0.9080    -7.2430    -1.8570 H     1 <1>   0.0800 
 53 H       -0.6250    -6.9740    -1.0160 H     1 <1>   0.0800 
 54 H       -0.1130    -9.2050    -1.2520 H     1 <1>   0.4000 
@<TRIPOS>BOND
  1   1   2  2   
  2   2   3  am  
  3   2   4  1   
  4   3   5  1   
  5   3   6  1   
  6   4   7  1   
  7   4   8  1   
  8   4  22  1   
  9   5   9  1   
 10   5  23  1   
 11   5  24  1   
 12   6  25  1   
 13   6  26  1   
 14   6  27  1   
 15   7  10  1   
 16   7  28  1   
 17   7  29  1   
 18   8  11  1   
 19   8  30  1   
 20   8  31  1   
 21   9  12  1   
 22   9  13  1   
 23   9  14  1   
 24  10  15  1   
 25  10  32  1   
 26  10  33  1   
 27  11  15  1   
 28  11  34  1   
 29  11  35  1   
 30  12  16  1   
 31  12  36  1   
 32  12  37  1   
 33  13  17  1   
 34  13  38  1   
 35  13  39  1   
 36  14  40  1   
 37  14  41  1   
 38  14  42  1   
 39  15  18  1   
 40  15  43  1   
 41  16  17  1   
 42  16  19  1   
 43  16  44  1   
 44  17  45  1   
 45  17  46  1   
 46  18  20  1   
 47  18  47  1   
 48  18  48  1   
 49  19  49  1   
 50  19  50  1   
 51  19  51  1   
 52  20  21  1   
 53  20  52  1   
 54  20  53  1   
 55  21  54  1   
@<TRIPOS>SUBSTRUCTURE
  1 ****   2 GROUP 4 **** **** 0

# MOE 2024.06 (io_trps.svl 2023.06)
