@<TRIPOS>MOLECULE
NONAME
58 60 1 0 0 
SMALL
USER_CHARGES


@<TRIPOS>ATOM
  1 S       -0.1530     0.0650     1.1550 S.o2  1 <1>   1.4470 
  2 O        0.2480    -1.2940     1.4750 O.2   1 <1>  -0.6500 
  3 O       -0.8320     0.8060     2.1940 O.2   1 <1>  -0.6500 
  4 N       -1.2160    -0.1030    -0.1710 N.am  1 <1>  -0.8490 
  5 C        1.2750     0.9760     0.5130 C.ar  1 <1>  -0.0090 
  6 C       -1.3210    -1.4540    -0.7260 C.3   1 <1>   0.1960 
  7 C       -2.5230     0.5530    -0.0260 C.3   1 <1>   0.1960 
  8 C        1.1300     2.2410    -0.0500 C.ar  1 <1>   0.0830 
  9 C        2.5490     0.4260     0.5820 C.ar  1 <1>  -0.1500 
 10 C       -2.2160    -2.3560     0.1670 C.3   1 <1>   0.4230 
 11 C       -3.4720    -0.2930     0.8420 C.3   1 <1>  -0.1600 
 12 O       -0.1200     2.7740    -0.0910 O.3   1 <1>  -0.3630 
 13 C        2.2390     2.9200    -0.5460 C.ar  1 <1>  -0.1500 
 14 C        3.6620     1.1030     0.0950 C.ar  1 <1>   0.0830 
 15 N       -2.2050    -3.8300    -0.2180 N.4   1 <1>  -0.9590 
 16 C       -3.6410    -1.7570     0.3450 C.3   1 <1>   0.0000 
 17 C       -0.3410     4.1320    -0.4030 C.3   1 <1>   0.0400 
 18 C        3.5020     2.3590    -0.4780 C.ar  1 <1>  -0.1430 
 19 O        4.9220     0.5920     0.1520 O.3   1 <1>  -0.3620 
 20 C       -3.3490    -4.6170     0.3480 C.3   1 <1>   0.3430 
 21 C       -2.0570    -4.1190    -1.6830 C.3   1 <1>   0.2630 
 22 C       -4.4090    -2.5710     1.4290 C.3   1 <1>  -0.1600 
 23 C       -4.4130    -1.7850    -1.0060 C.3   1 <1>   0.1200 
 24 C        4.7030     3.1170    -1.0270 C.3   1 <1>  -0.0970 
 25 C        5.2090    -0.5990     0.8520 C.3   1 <1>   0.0400 
 26 C       -3.8550    -3.9920     1.6470 C.3   1 <1>  -0.1600 
 27 O       -5.6050    -1.0860    -0.9300 O.3   1 <1>  -0.6800 
 28 H       -1.7300    -1.3780    -1.7170 H     1 <1>   0.0800 
 29 H       -0.3360    -1.8780    -0.8140 H     1 <1>   0.0800 
 30 H       -2.4010     1.5330     0.4080 H     1 <1>   0.0800 
 31 H       -2.9580     0.6950    -1.0020 H     1 <1>   0.0800 
 32 H        2.6580    -0.5460     1.0250 H     1 <1>   0.1500 
 33 H       -1.7740    -2.3090     1.1480 H     1 <1>   0.0800 
 34 H       -3.0900    -0.2900     1.8470 H     1 <1>   0.0800 
 35 H       -4.4240     0.2050     0.8880 H     1 <1>   0.0800 
 36 H        2.1350     3.8900    -0.9920 H     1 <1>   0.1500 
 37 H       -1.3580    -4.1960     0.2460 H     1 <1>   0.4500 
 38 H       -1.3860     4.3410    -0.2630 H     1 <1>   0.0800 
 39 H       -0.0690     4.3050    -1.4290 H     1 <1>   0.0800 
 40 H        0.2450     4.7430     0.2620 H     1 <1>   0.0800 
 41 H       -4.1620    -4.6390    -0.3590 H     1 <1>   0.0800 
 42 H       -3.0390    -5.6350     0.5290 H     1 <1>   0.0800 
 43 H       -2.8930    -3.7190    -2.2330 H     1 <1>   0.0800 
 44 H       -2.0140    -5.1830    -1.8500 H     1 <1>   0.0800 
 45 H       -1.1490    -3.6810    -2.0660 H     1 <1>   0.0800 
 46 H       -4.3740    -2.0660     2.3800 H     1 <1>   0.0800 
 47 H       -5.4510    -2.6400     1.1710 H     1 <1>   0.0800 
 48 H       -4.6510    -2.7900    -1.3030 H     1 <1>   0.0800 
 49 H       -3.8460    -1.3240    -1.7940 H     1 <1>   0.0800 
 50 H        4.4120     4.0640    -1.4440 H     1 <1>   0.0800 
 51 H        5.1810     2.5360    -1.7940 H     1 <1>   0.0800 
 52 H        5.4120     3.2930    -0.2380 H     1 <1>   0.0800 
 53 H        6.2710    -0.7600     0.8140 H     1 <1>   0.0800 
 54 H        4.7000    -1.4170     0.3740 H     1 <1>   0.0800 
 55 H        4.8930    -0.4890     1.8740 H     1 <1>   0.0800 
 56 H       -4.6300    -4.6130     2.0620 H     1 <1>   0.0800 
 57 H       -3.0520    -3.9710     2.3650 H     1 <1>   0.0800 
 58 H       -6.2090    -1.4510    -0.2530 H     1 <1>   0.4000 
@<TRIPOS>BOND
  1   1   2  2   
  2   1   3  2   
  3   1   4  am  
  4   1   5  1   
  5   4   6  1   
  6   4   7  1   
  7   5   8  ar  
  8   5   9  ar  
  9   6  10  1   
 10   6  28  1   
 11   6  29  1   
 12   7  11  1   
 13   7  30  1   
 14   7  31  1   
 15   8  12  1   
 16   8  13  ar  
 17   9  14  ar  
 18   9  32  1   
 19  10  15  1   
 20  10  16  1   
 21  10  33  1   
 22  11  16  1   
 23  11  34  1   
 24  11  35  1   
 25  12  17  1   
 26  13  18  ar  
 27  13  36  1   
 28  14  18  ar  
 29  14  19  1   
 30  15  20  1   
 31  15  21  1   
 32  15  37  1   
 33  16  22  1   
 34  16  23  1   
 35  17  38  1   
 36  17  39  1   
 37  17  40  1   
 38  18  24  1   
 39  19  25  1   
 40  20  26  1   
 41  20  41  1   
 42  20  42  1   
 43  21  43  1   
 44  21  44  1   
 45  21  45  1   
 46  22  26  1   
 47  22  46  1   
 48  22  47  1   
 49  23  27  1   
 50  23  48  1   
 51  23  49  1   
 52  24  50  1   
 53  24  51  1   
 54  24  52  1   
 55  25  53  1   
 56  25  54  1   
 57  25  55  1   
 58  26  56  1   
 59  26  57  1   
 60  27  58  1   
@<TRIPOS>SUBSTRUCTURE
  1 ****   4 GROUP 4 **** **** 0

# MOE 2024.06 (io_trps.svl 2023.06)
