@<TRIPOS>MOLECULE
NONAME
49 51 1 0 0 
SMALL
USER_CHARGES


@<TRIPOS>ATOM
  1 S       -0.2660     0.0280     1.7320 S.o2  1 <1>   1.4470 
  2 O       -1.2400     0.9980     2.1770 O.2   1 <1>  -0.6500 
  3 O        0.3130    -0.9060     2.6740 O.2   1 <1>  -0.6500 
  4 N       -1.0190    -0.9200     0.5440 N.am  1 <1>  -0.8490 
  5 C        1.0640     0.8460     0.8090 C.ar  1 <1>  -0.0090 
  6 C       -1.8080    -2.0160     1.1480 C.3   1 <1>   0.1960 
  7 C       -1.7240    -0.1400    -0.5020 C.3   1 <1>   0.1960 
  8 C        1.0980     2.2300     0.6610 C.ar  1 <1>  -0.1500 
  9 C        2.0750     0.1050     0.2100 C.ar  1 <1>  -0.1500 
 10 C       -2.6790    -2.6670     0.0560 C.3   1 <1>   0.4230 
 11 C       -3.2550    -0.2390    -0.4020 C.3   1 <1>  -0.1600 
 12 C        2.1000     2.8540    -0.0610 C.ar  1 <1>  -0.1500 
 13 C        3.0810     0.7190    -0.5160 C.ar  1 <1>  -0.1500 
 14 N       -3.2240    -4.0430     0.3020 N.4   1 <1>  -0.9590 
 15 C       -3.8120    -1.6940    -0.3130 C.3   1 <1>  -0.1060 
 16 C        3.1010     2.0950    -0.6590 C.ar  1 <1>   0.0830 
 17 C       -3.8400    -4.6000    -0.9350 C.3   1 <1>   0.3430 
 18 C       -2.2970    -4.9940     0.9700 C.3   1 <1>   0.2630 
 19 C       -4.9200    -1.7200     0.7550 C.2   1 <1>   0.9060 
 20 C       -4.3780    -2.1840    -1.6660 C.3   1 <1>  -0.1600 
 21 O        4.1150     2.6200    -1.3870 O.3   1 <1>  -0.3630 
 22 C       -4.8760    -3.6390    -1.5390 C.3   1 <1>  -0.1600 
 23 O       -5.9010    -0.9950     0.6040 O.co2 1 <1>  -0.9000 
 24 O       -4.8360    -2.5190     1.7010 O.co2 1 <1>  -0.9000 
 25 C        4.2470     4.0120    -1.5710 C.3   1 <1>   0.0400 
 26 H       -1.1240    -2.7290     1.5690 H     1 <1>   0.0800 
 27 H       -2.4330    -1.6320     1.9390 H     1 <1>   0.0800 
 28 H       -1.4320     0.8970    -0.4650 H     1 <1>   0.0800 
 29 H       -1.4200    -0.5180    -1.4630 H     1 <1>   0.0800 
 30 H        0.3270     2.8280     1.1200 H     1 <1>   0.1500 
 31 H        2.0750    -0.9670     0.3140 H     1 <1>   0.1500 
 32 H       -2.0320    -2.7460    -0.8010 H     1 <1>   0.0800 
 33 H       -3.5450     0.3090     0.4810 H     1 <1>   0.0800 
 34 H       -3.7080     0.2800    -1.2290 H     1 <1>   0.0800 
 35 H        2.0870     3.9250    -0.1480 H     1 <1>   0.1500 
 36 H        3.8590     0.1350    -0.9750 H     1 <1>   0.1500 
 37 H       -4.0080    -3.8240     0.9760 H     1 <1>   0.4500 
 38 H       -3.0670    -4.7830    -1.6630 H     1 <1>   0.0800 
 39 H       -4.3200    -5.5390    -0.7110 H     1 <1>   0.0800 
 40 H       -1.4220    -5.1540     0.3630 H     1 <1>   0.0800 
 41 H       -2.7910    -5.9380     1.1310 H     1 <1>   0.0800 
 42 H       -1.9960    -4.6050     1.9290 H     1 <1>   0.0800 
 43 H       -5.2020    -1.5540    -1.9600 H     1 <1>   0.0800 
 44 H       -3.6220    -2.1200    -2.4300 H     1 <1>   0.0800 
 45 H       -5.1670    -4.0000    -2.5090 H     1 <1>   0.0800 
 46 H       -5.7600    -3.6590    -0.9230 H     1 <1>   0.0800 
 47 H        5.1240     4.1880    -2.1670 H     1 <1>   0.0800 
 48 H        4.3580     4.4820    -0.6100 H     1 <1>   0.0800 
 49 H        3.3770     4.3810    -2.0840 H     1 <1>   0.0800 
@<TRIPOS>BOND
  1   1   2  2   
  2   1   3  2   
  3   1   4  am  
  4   1   5  1   
  5   4   6  1   
  6   4   7  1   
  7   5   8  ar  
  8   5   9  ar  
  9   6  10  1   
 10   6  26  1   
 11   6  27  1   
 12   7  11  1   
 13   7  28  1   
 14   7  29  1   
 15   8  12  ar  
 16   8  30  1   
 17   9  13  ar  
 18   9  31  1   
 19  10  14  1   
 20  10  15  1   
 21  10  32  1   
 22  11  15  1   
 23  11  33  1   
 24  11  34  1   
 25  12  16  ar  
 26  12  35  1   
 27  13  16  ar  
 28  13  36  1   
 29  14  17  1   
 30  14  18  1   
 31  14  37  1   
 32  15  19  1   
 33  15  20  1   
 34  16  21  1   
 35  17  22  1   
 36  17  38  1   
 37  17  39  1   
 38  18  40  1   
 39  18  41  1   
 40  18  42  1   
 41  19  23  ar  
 42  19  24  ar  
 43  20  22  1   
 44  20  43  1   
 45  20  44  1   
 46  21  25  1   
 47  22  45  1   
 48  22  46  1   
 49  25  47  1   
 50  25  48  1   
 51  25  49  1   
@<TRIPOS>SUBSTRUCTURE
  1 ****   4 GROUP 4 **** **** 0

# MOE 2024.06 (io_trps.svl 2023.06)
