@<TRIPOS>MOLECULE
NONAME
47 50 1 0 0 
SMALL
USER_CHARGES


@<TRIPOS>ATOM
  1 O        0.3340    -0.2390     1.2670 O.3   1 <1>  -0.0190 
  2 N       -0.3750    -1.3070     1.3840 N.2   1 <1>  -0.4100 
  3 C        1.1440    -0.3580     0.2510 C.2   1 <1>   0.5620 
  4 C        0.0270    -2.0600     0.4180 C.2   1 <1>   0.4620 
  5 N        0.9990    -1.4880    -0.3270 N.2   1 <1>  -0.5650 
  6 N        2.0360     0.6430    -0.1010 N.pl3 1 <1>  -0.8220 
  7 C       -0.4830    -3.3910     0.1290 C.ar  1 <1>   0.0540 
  8 C        2.2260     1.8600     0.7440 C.3   1 <1>   0.2090 
  9 C        2.9760     0.4480    -1.2330 C.3   1 <1>   0.2090 
 10 C       -1.4730    -3.9760     0.9220 C.ar  1 <1>  -0.1500 
 11 C       -0.0070    -4.1430    -0.9480 C.ar  1 <1>  -0.1500 
 12 C        3.6140     1.9130     1.4040 C.3   1 <1>   0.2090 
 13 C        4.3170    -0.0650    -0.7060 C.3   1 <1>  -0.1600 
 14 C       -1.9640    -5.2410     0.6560 C.ar  1 <1>  -0.1500 
 15 C       -0.4930    -5.4100    -1.2200 C.ar  1 <1>  -0.1500 
 16 N        4.7010     2.2000     0.4080 N.pl3 1 <1>  -0.8380 
 17 C        5.3120     1.0260    -0.2850 C.3   1 <1>   0.2090 
 18 C       -1.4740    -5.9620    -0.4170 C.ar  1 <1>  -0.1500 
 19 C        5.3330     3.4000     0.3920 C.ar  1 <1>   0.1000 
 20 C        5.2670     4.2860    -0.7000 C.ar  1 <1>  -0.1430 
 21 C        6.0980     3.7910     1.4960 C.ar  1 <1>  -0.1500 
 22 C        5.9510     5.4770    -0.6520 C.ar  1 <1>   0.2110 
 23 C        4.4290     3.9390    -1.9270 C.3   1 <1>  -0.0970 
 24 C        6.7640     4.9870     1.5050 C.ar  1 <1>   0.2110 
 25 N        6.6880     5.8160     0.4360 N.ar  1 <1>  -0.1790 
 26 H        1.4830     1.8830     1.5210 H     1 <1>   0.0800 
 27 H        2.0850     2.7390     0.1410 H     1 <1>   0.0800 
 28 H        3.1020     1.3690    -1.7730 H     1 <1>   0.0800 
 29 H        2.5650    -0.2750    -1.9170 H     1 <1>   0.0800 
 30 H       -1.8670    -3.4300     1.7620 H     1 <1>   0.1500 
 31 H        0.7560    -3.7300    -1.5840 H     1 <1>   0.1500 
 32 H        3.8080     0.9860     1.9150 H     1 <1>   0.0800 
 33 H        3.6010     2.6960     2.1410 H     1 <1>   0.0800 
 34 H        4.7850    -0.6390    -1.4840 H     1 <1>   0.0800 
 35 H        4.1460    -0.7420     0.1110 H     1 <1>   0.0800 
 36 H       -2.7280    -5.6660     1.2840 H     1 <1>   0.1500 
 37 H       -0.1080    -5.9660    -2.0570 H     1 <1>   0.1500 
 38 H        5.8260     1.3790    -1.1610 H     1 <1>   0.0800 
 39 H        6.0520     0.5870     0.3630 H     1 <1>   0.0800 
 40 H       -1.8530    -6.9470    -0.6270 H     1 <1>   0.1500 
 41 H        6.1570     3.1220     2.3360 H     1 <1>   0.1500 
 42 H        5.9150     6.1680    -1.4780 H     1 <1>   0.1500 
 43 H        3.4190     3.7220    -1.6290 H     1 <1>   0.0800 
 44 H        4.8330     3.0740    -2.4210 H     1 <1>   0.0800 
 45 H        4.4030     4.7500    -2.6330 H     1 <1>   0.0800 
 46 H        7.3570     5.2860     2.3550 H     1 <1>   0.1500 
 47 H        7.1910     6.7110     0.4480 H     1 <1>   0.4570 
@<TRIPOS>BOND
  1   1   2  1   
  2   1   3  1   
  3   2   4  2   
  4   3   5  2   
  5   3   6  1   
  6   4   5  1   
  7   4   7  1   
  8   6   8  1   
  9   6   9  1   
 10   7  10  ar  
 11   7  11  ar  
 12   8  12  1   
 13   8  26  1   
 14   8  27  1   
 15   9  13  1   
 16   9  28  1   
 17   9  29  1   
 18  10  14  ar  
 19  10  30  1   
 20  11  15  ar  
 21  11  31  1   
 22  12  16  1   
 23  12  32  1   
 24  12  33  1   
 25  13  17  1   
 26  13  34  1   
 27  13  35  1   
 28  14  18  ar  
 29  14  36  1   
 30  15  18  ar  
 31  15  37  1   
 32  16  17  1   
 33  16  19  1   
 34  17  38  1   
 35  17  39  1   
 36  18  40  1   
 37  19  20  ar  
 38  19  21  ar  
 39  20  22  ar  
 40  20  23  1   
 41  21  24  ar  
 42  21  41  1   
 43  22  25  ar  
 44  22  42  1   
 45  23  43  1   
 46  23  44  1   
 47  23  45  1   
 48  24  25  ar  
 49  24  46  1   
 50  25  47  1   
@<TRIPOS>SUBSTRUCTURE
  1 ****   6 GROUP 4 **** **** 0

# MOE 2024.06 (io_trps.svl 2023.06)
