@<TRIPOS>MOLECULE
NONAME
53 55 1 0 0 
SMALL
USER_CHARGES


@<TRIPOS>ATOM
  1 F        1.0430    -2.5040    -1.8830 F     1 <1>  -0.1900 
  2 C        1.8860    -2.5940    -0.8880 C.ar  1 <1>   0.1900 
  3 C        1.4160    -2.8760     0.3860 C.ar  1 <1>  -0.1440 
  4 C        3.2270    -2.3950    -1.1590 C.ar  1 <1>  -0.1500 
  5 C        2.3430    -2.9510     1.4170 C.ar  1 <1>  -0.1500 
  6 C       -0.0690    -3.0940     0.6520 C.3   1 <1>   0.2840 
  7 C        4.1370    -2.4790    -0.1200 C.ar  1 <1>  -0.1500 
  8 C        3.6930    -2.7550     1.1640 C.ar  1 <1>  -0.1500 
  9 N       -0.5110    -4.4610     0.2370 N.am  1 <1>  -0.6600 
 10 C       -1.6540    -4.6110    -0.5210 C.2   1 <1>   0.5690 
 11 C        0.4140    -5.5780     0.6030 C.3   1 <1>   0.0600 
 12 O       -2.4070    -3.6780    -0.6890 O.2   1 <1>  -0.5700 
 13 C       -2.0790    -5.9530    -1.1370 C.3   1 <1>   0.2610 
 14 O       -0.9940    -6.6290    -1.7490 O.3   1 <1>  -0.5600 
 15 C       -2.7990    -6.7920    -0.0480 C.3   1 <1>   0.3640 
 16 C       -1.3270    -7.8940    -2.2500 C.3   1 <1>   0.1810 
 17 N       -2.5500    -8.2730    -0.1060 N.am  1 <1>  -0.6600 
 18 C       -4.3020    -6.5120    -0.0970 C.ar  1 <1>  -0.1430 
 19 C       -1.8380    -8.8170    -1.1470 C.2   1 <1>   0.5690 
 20 C       -3.0190    -9.0310     1.0880 C.3   1 <1>   0.2200 
 21 C       -5.1360    -7.1860    -0.9810 C.ar  1 <1>  -0.1500 
 22 C       -4.8510    -5.5570     0.7480 C.ar  1 <1>  -0.1500 
 23 O       -1.5870    -9.9950    -1.2440 O.2   1 <1>  -0.5700 
 24 C       -1.8210    -9.5360     1.8900 C.3   1 <1>  -0.2400 
 25 C       -3.9670   -10.1670     0.6990 C.3   1 <1>  -0.2400 
 26 C       -6.4930    -6.9180    -1.0130 C.ar  1 <1>  -0.1500 
 27 C       -6.2080    -5.2870     0.7160 C.ar  1 <1>  -0.1500 
 28 C       -7.0310    -5.9690    -0.1630 C.ar  1 <1>  -0.1500 
 29 H        3.5470    -2.1800    -2.1630 H     1 <1>   0.1500 
 30 H        2.0210    -3.1630     2.4210 H     1 <1>   0.1500 
 31 H       -0.6260    -2.3390     0.1230 H     1 <1>   0.0800 
 32 H       -0.2730    -2.9680     1.7000 H     1 <1>   0.0800 
 33 H        5.1860    -2.3280    -0.3080 H     1 <1>   0.1500 
 34 H        4.4030    -2.8160     1.9710 H     1 <1>   0.1500 
 35 H        0.8210    -5.4130     1.5850 H     1 <1>   0.0800 
 36 H        1.2210    -5.6230    -0.1090 H     1 <1>   0.0800 
 37 H       -0.0940    -6.5240     0.6060 H     1 <1>   0.0800 
 38 H       -2.7810    -5.7320    -1.9220 H     1 <1>   0.0800 
 39 H       -2.4370    -6.4560     0.9080 H     1 <1>   0.0800 
 40 H       -2.0740    -7.7820    -3.0140 H     1 <1>   0.0800 
 41 H       -0.4400    -8.3170    -2.6870 H     1 <1>   0.0800 
 42 H       -3.5760    -8.3620     1.7230 H     1 <1>   0.0800 
 43 H       -4.7350    -7.9290    -1.6480 H     1 <1>   0.1500 
 44 H       -4.2270    -5.0080     1.4320 H     1 <1>   0.1500 
 45 H       -1.2630   -10.2620     1.3260 H     1 <1>   0.0800 
 46 H       -2.1610   -10.0050     2.7950 H     1 <1>   0.0800 
 47 H       -1.1760    -8.7180     2.1510 H     1 <1>   0.0800 
 48 H       -3.4560   -10.9290     0.1390 H     1 <1>   0.0800 
 49 H       -4.7860    -9.7870     0.1170 H     1 <1>   0.0800 
 50 H       -4.3690   -10.6210     1.5860 H     1 <1>   0.0800 
 51 H       -7.1310    -7.4480    -1.6980 H     1 <1>   0.1500 
 52 H       -6.6240    -4.5440     1.3740 H     1 <1>   0.1500 
 53 H       -8.0860    -5.7580    -0.1870 H     1 <1>   0.1500 
@<TRIPOS>BOND
  1   1   2  1   
  2   2   3  ar  
  3   2   4  ar  
  4   3   5  ar  
  5   3   6  1   
  6   4   7  ar  
  7   4  29  1   
  8   5   8  ar  
  9   5  30  1   
 10   6   9  1   
 11   6  31  1   
 12   6  32  1   
 13   7   8  ar  
 14   7  33  1   
 15   8  34  1   
 16   9  10  am  
 17   9  11  1   
 18  10  12  2   
 19  10  13  1   
 20  11  35  1   
 21  11  36  1   
 22  11  37  1   
 23  13  14  1   
 24  13  15  1   
 25  13  38  1   
 26  14  16  1   
 27  15  17  1   
 28  15  18  1   
 29  15  39  1   
 30  16  19  1   
 31  16  40  1   
 32  16  41  1   
 33  17  19  am  
 34  17  20  1   
 35  18  21  ar  
 36  18  22  ar  
 37  19  23  2   
 38  20  24  1   
 39  20  25  1   
 40  20  42  1   
 41  21  26  ar  
 42  21  43  1   
 43  22  27  ar  
 44  22  44  1   
 45  24  45  1   
 46  24  46  1   
 47  24  47  1   
 48  25  48  1   
 49  25  49  1   
 50  25  50  1   
 51  26  28  ar  
 52  26  51  1   
 53  27  28  ar  
 54  27  52  1   
 55  28  53  1   
@<TRIPOS>SUBSTRUCTURE
  1 ****  13 GROUP 4 **** **** 0

# MOE 2024.06 (io_trps.svl 2023.06)
