@<TRIPOS>MOLECULE
NONAME
46 48 1 0 0 
SMALL
USER_CHARGES


@<TRIPOS>ATOM
  1 S       -1.8560     0.3250     1.6460 S.3   1 <1>  -0.0800 
  2 C       -1.8510     1.0400     0.0500 C.2   1 <1>   0.1980 
  3 C       -2.3050    -1.1940     0.9300 C.2   1 <1>  -0.1100 
  4 N       -2.1490     0.2360    -0.8890 N.2   1 <1>  -0.5650 
  5 C       -1.5020     2.5060    -0.0530 C.3   1 <1>  -0.0600 
  6 C       -2.4090    -1.0360    -0.4000 C.2   1 <1>   0.0460 
  7 C       -2.7810    -2.0890    -1.4300 C.3   1 <1>   0.0820 
  8 C       -3.2840    -3.3860    -0.8140 C.2   1 <1>   0.5690 
  9 O       -2.6210    -4.3820    -0.9910 O.2   1 <1>  -0.5700 
 10 N       -4.4610    -3.4440    -0.1060 N.am  1 <1>  -0.6600 
 11 C       -4.9100    -4.7100     0.5490 C.3   1 <1>   0.1400 
 12 C       -5.4580    -2.3380     0.0130 C.3   1 <1>   0.1400 
 13 C       -6.2160    -5.1950    -0.1230 C.3   1 <1>   0.4230 
 14 C       -6.7770    -2.7970    -0.6270 C.3   1 <1>  -0.1600 
 15 N       -6.7220    -6.5160     0.3870 N.4   1 <1>  -0.9590 
 16 C       -7.3110    -4.1130     0.0090 C.3   1 <1>  -0.1060 
 17 C       -7.9050    -6.9940    -0.3750 C.3   1 <1>   0.3430 
 18 C       -5.6910    -7.5730     0.5610 C.3   1 <1>   0.2630 
 19 C       -7.6260    -3.9060     1.5030 C.2   1 <1>   0.9060 
 20 C       -8.5760    -4.5640    -0.7600 C.3   1 <1>  -0.1600 
 21 C       -9.0340    -5.9620    -0.3160 C.3   1 <1>  -0.1600 
 22 O       -7.5070    -4.8660     2.2820 O.co2 1 <1>  -0.9000 
 23 O       -7.9800    -2.7970     1.8990 O.co2 1 <1>  -0.9000 
 24 H       -2.4430    -2.0380     1.5810 H     1 <1>   0.1500 
 25 H       -1.5390     2.8160    -1.0810 H     1 <1>   0.0800 
 26 H       -0.5120     2.6720     0.3280 H     1 <1>   0.0800 
 27 H       -2.2050     3.0880     0.5140 H     1 <1>   0.0800 
 28 H       -1.9140    -2.2970    -2.0290 H     1 <1>   0.0800 
 29 H       -3.5370    -1.6990    -2.0840 H     1 <1>   0.0800 
 30 H       -4.1450    -5.4570     0.4530 H     1 <1>   0.0800 
 31 H       -5.0670    -4.5250     1.5980 H     1 <1>   0.0800 
 32 H       -5.6120    -2.1060     1.0550 H     1 <1>   0.0800 
 33 H       -5.1170    -1.4400    -0.4710 H     1 <1>   0.0800 
 34 H       -5.9930    -5.3130    -1.1690 H     1 <1>   0.0800 
 35 H       -7.5070    -2.0150    -0.4980 H     1 <1>   0.0800 
 36 H       -6.6230    -2.9210    -1.6840 H     1 <1>   0.0800 
 37 H       -7.0840    -6.2280     1.3380 H     1 <1>   0.4500 
 38 H       -7.6270    -7.1650    -1.4020 H     1 <1>   0.0800 
 39 H       -8.2560    -7.9230     0.0440 H     1 <1>   0.0800 
 40 H       -5.2230    -7.7990    -0.3840 H     1 <1>   0.0800 
 41 H       -6.1420    -8.4690     0.9530 H     1 <1>   0.0800 
 42 H       -4.9350    -7.2440     1.2550 H     1 <1>   0.0800 
 43 H       -9.3690    -3.8550    -0.5850 H     1 <1>   0.0800 
 44 H       -8.3750    -4.5790    -1.8180 H     1 <1>   0.0800 
 45 H       -9.8440    -6.2880    -0.9450 H     1 <1>   0.0800 
 46 H       -9.4140    -5.9170     0.6910 H     1 <1>   0.0800 
@<TRIPOS>BOND
  1   1   2  1   
  2   1   3  1   
  3   2   4  2   
  4   2   5  1   
  5   3   6  2   
  6   3  24  1   
  7   4   6  1   
  8   5  25  1   
  9   5  26  1   
 10   5  27  1   
 11   6   7  1   
 12   7   8  1   
 13   7  28  1   
 14   7  29  1   
 15   8   9  2   
 16   8  10  am  
 17  10  11  1   
 18  10  12  1   
 19  11  13  1   
 20  11  30  1   
 21  11  31  1   
 22  12  14  1   
 23  12  32  1   
 24  12  33  1   
 25  13  15  1   
 26  13  16  1   
 27  13  34  1   
 28  14  16  1   
 29  14  35  1   
 30  14  36  1   
 31  15  17  1   
 32  15  18  1   
 33  15  37  1   
 34  16  19  1   
 35  16  20  1   
 36  17  21  1   
 37  17  38  1   
 38  17  39  1   
 39  18  40  1   
 40  18  41  1   
 41  18  42  1   
 42  19  22  ar  
 43  19  23  ar  
 44  20  21  1   
 45  20  43  1   
 46  20  44  1   
 47  21  45  1   
 48  21  46  1   
@<TRIPOS>SUBSTRUCTURE
  1 ****  10 GROUP 4 **** **** 0

# MOE 2024.06 (io_trps.svl 2023.06)
