@<TRIPOS>MOLECULE
NONAME
61 63 1 0 0 
SMALL
USER_CHARGES


@<TRIPOS>ATOM
  1 O        7.0160     1.0520     0.4680 O.2   1 <1>  -0.5700 
  2 C        6.0350     1.1140     1.1710 C.2   1 <1>   0.5690 
  3 N        4.7850     0.7110     0.8440 N.am  1 <1>  -0.6600 
  4 C        6.0590     1.7440     2.5360 C.3   1 <1>  -0.0990 
  5 C        3.8120     0.9860     1.9180 C.3   1 <1>   0.1400 
  6 C        4.4060    -0.2320    -0.2430 C.3   1 <1>   0.1400 
  7 C        4.5700     1.9110     2.8790 C.3   1 <1>  -0.1600 
  8 C        3.8890     0.5300    -1.4710 C.3   1 <1>  -0.1600 
  9 C        5.0430     0.9930    -2.3790 C.3   1 <1>  -0.0990 
 10 C        4.7460     2.2510    -3.1800 C.2   1 <1>   0.5690 
 11 O        4.4410     2.1060    -4.3380 O.2   1 <1>  -0.5700 
 12 N        4.8840     3.5030    -2.6210 N.am  1 <1>  -0.6600 
 13 C        5.1630     3.7450    -1.1750 C.3   1 <1>   0.1400 
 14 C        4.7760     4.7280    -3.4600 C.3   1 <1>   0.1400 
 15 C        6.6680     3.6650    -0.8800 C.3   1 <1>   0.3430 
 16 C        6.0000     5.6400    -3.2900 C.3   1 <1>  -0.1600 
 17 N        7.5170     4.6980    -1.5600 N.4   1 <1>  -0.9590 
 18 C        7.3050     4.8820    -3.0250 C.3   1 <1>   0.3430 
 19 C        8.9350     4.4090    -1.2280 C.3   1 <1>   0.5240 
 20 C        9.1070     4.7290     0.2480 C.2   1 <1>   0.0460 
 21 N        8.7000     5.9290     0.7120 N.2   1 <1>  -0.5650 
 22 C        9.5900     3.9590     1.2500 C.2   1 <1>  -0.3320 
 23 C        8.9730     5.8830     1.9760 C.2   1 <1>   0.0060 
 24 N        9.5170     4.7100     2.3650 N.pl3 1 <1>   0.0330 
 25 C       10.1250     2.5360     1.2530 C.3   1 <1>  -0.0600 
 26 C        8.7180     7.0260     2.9440 C.3   1 <1>   0.0200 
 27 C       10.0300     7.6290     3.4550 C.3   1 <1>  -0.2400 
 28 H        6.5780     2.6840     2.5220 H     1 <1>   0.0800 
 29 H        6.5380     1.0680     3.2200 H     1 <1>   0.0800 
 30 H        3.5470     0.0640     2.4080 H     1 <1>   0.0800 
 31 H        2.9280     1.4590     1.5260 H     1 <1>   0.0800 
 32 H        3.6350    -0.8900     0.1210 H     1 <1>   0.0800 
 33 H        5.2550    -0.8390    -0.5100 H     1 <1>   0.0800 
 34 H        4.2650     2.9270     2.6980 H     1 <1>   0.0800 
 35 H        4.3610     1.6680     3.9060 H     1 <1>   0.0800 
 36 H        3.2760     1.3550    -1.1550 H     1 <1>   0.0800 
 37 H        3.2590    -0.1250    -2.0470 H     1 <1>   0.0800 
 38 H        5.2700     0.2010    -3.0700 H     1 <1>   0.0800 
 39 H        5.9340     1.1480    -1.8100 H     1 <1>   0.0800 
 40 H        4.6560     3.0100    -0.5810 H     1 <1>   0.0800 
 41 H        4.7810     4.7060    -0.8780 H     1 <1>   0.0800 
 42 H        3.8760     5.2610    -3.2020 H     1 <1>   0.0800 
 43 H        4.6950     4.4510    -4.4980 H     1 <1>   0.0800 
 44 H        7.0150     2.6870    -1.1630 H     1 <1>   0.0800 
 45 H        6.8050     3.7480     0.1860 H     1 <1>   0.0800 
 46 H        5.8200     6.3640    -2.5160 H     1 <1>   0.0800 
 47 H        6.1100     6.1920    -4.2060 H     1 <1>   0.0800 
 48 H        7.3650     5.5930    -1.0640 H     1 <1>   0.4500 
 49 H        8.1190     5.4630    -3.4260 H     1 <1>   0.0800 
 50 H        7.2880     3.9280    -3.5290 H     1 <1>   0.0800 
 51 H        9.5910     5.0460    -1.7970 H     1 <1>   0.0800 
 52 H        9.1770     3.3780    -1.4250 H     1 <1>   0.0800 
 53 H        9.8200     4.4620     3.3130 H     1 <1>   0.2700 
 54 H       10.0850     2.1060     0.2690 H     1 <1>   0.0800 
 55 H        9.5350     1.9190     1.9090 H     1 <1>   0.0800 
 56 H       11.1460     2.5220     1.5910 H     1 <1>   0.0800 
 57 H        8.1300     6.6730     3.7720 H     1 <1>   0.0800 
 58 H        8.1520     7.7910     2.4410 H     1 <1>   0.0800 
 59 H       10.6000     6.8980     3.9990 H     1 <1>   0.0800 
 60 H        9.8250     8.4600     4.1060 H     1 <1>   0.0800 
 61 H       10.6190     7.9810     2.6260 H     1 <1>   0.0800 
@<TRIPOS>BOND
  1   1   2  2   
  2   2   3  am  
  3   2   4  1   
  4   3   5  1   
  5   3   6  1   
  6   4   7  1   
  7   4  28  1   
  8   4  29  1   
  9   5   7  1   
 10   5  30  1   
 11   5  31  1   
 12   6   8  1   
 13   6  32  1   
 14   6  33  1   
 15   7  34  1   
 16   7  35  1   
 17   8   9  1   
 18   8  36  1   
 19   8  37  1   
 20   9  10  1   
 21   9  38  1   
 22   9  39  1   
 23  10  11  2   
 24  10  12  am  
 25  12  13  1   
 26  12  14  1   
 27  13  15  1   
 28  13  40  1   
 29  13  41  1   
 30  14  16  1   
 31  14  42  1   
 32  14  43  1   
 33  15  17  1   
 34  15  44  1   
 35  15  45  1   
 36  16  18  1   
 37  16  46  1   
 38  16  47  1   
 39  17  18  1   
 40  17  19  1   
 41  17  48  1   
 42  18  49  1   
 43  18  50  1   
 44  19  20  1   
 45  19  51  1   
 46  19  52  1   
 47  20  21  1   
 48  20  22  2   
 49  21  23  2   
 50  22  24  1   
 51  22  25  1   
 52  23  24  1   
 53  23  26  1   
 54  24  53  1   
 55  25  54  1   
 56  25  55  1   
 57  25  56  1   
 58  26  27  1   
 59  26  57  1   
 60  26  58  1   
 61  27  59  1   
 62  27  60  1   
 63  27  61  1   
@<TRIPOS>SUBSTRUCTURE
  1 ****  15 GROUP 4 **** **** 0

# MOE 2024.06 (io_trps.svl 2023.06)
