@<TRIPOS>MOLECULE
NONAME
41 43 1 0 0 
SMALL
USER_CHARGES


@<TRIPOS>ATOM
  1 O       -1.2300     0.1180     0.3720 O.2   1 <1>  -0.5700 
  2 C       -1.8960     1.1310     0.4820 C.2   1 <1>   0.7160 
  3 N       -2.5330     1.3810     1.6810 N.am  1 <1>  -0.6600 
  4 C       -2.0060     2.0190    -0.6470 C.2   1 <1>  -0.0860 
  5 C       -2.6380     0.2990     2.7000 C.3   1 <1>   0.1400 
  6 C       -3.3860     2.5700     1.9440 C.3   1 <1>   0.1400 
  7 C       -2.5500     1.7510    -1.8630 C.2   1 <1>  -0.0100 
  8 C       -1.5580     3.3530    -0.7580 C.2   1 <1>  -0.1500 
  9 C       -3.6900    -0.7520     2.2990 C.3   1 <1>   0.1400 
 10 C       -4.8670     2.2840     1.6740 C.3   1 <1>  -0.1600 
 11 O       -2.4820     2.7910    -2.6600 O.3   1 <1>  -0.2800 
 12 C       -1.8810     3.7600    -2.0030 C.2   1 <1>  -0.0100 
 13 N       -5.0130    -0.1850     1.8600 N.am  1 <1>  -0.6600 
 14 C       -5.4420     1.1050     2.4690 C.3   1 <1>   0.1400 
 15 C       -5.7790    -0.7560     0.8640 C.2   1 <1>   0.5690 
 16 O       -6.7960    -0.2130     0.4820 O.2   1 <1>  -0.5700 
 17 C       -5.3770    -2.1090     0.2210 C.3   1 <1>   0.2610 
 18 O       -4.3520    -1.9360    -0.7180 O.3   1 <1>  -0.5600 
 19 C       -6.4740    -2.8090    -0.5870 C.3   1 <1>  -0.1600 
 20 C       -4.9030    -1.5980    -1.9480 C.3   1 <1>   0.1200 
 21 C       -6.2500    -2.3130    -2.0090 C.3   1 <1>  -0.1600 
 22 H       -1.6830    -0.1880     2.8040 H     1 <1>   0.0800 
 23 H       -2.8850     0.7170     3.6590 H     1 <1>   0.0800 
 24 H       -3.2580     2.8690     2.9700 H     1 <1>   0.0800 
 25 H       -3.0730     3.3970     1.3340 H     1 <1>   0.0800 
 26 H       -2.9980     0.8400    -2.2170 H     1 <1>   0.1500 
 27 H       -1.0540     3.8990     0.0180 H     1 <1>   0.1500 
 28 H       -3.8540    -1.4130     3.1310 H     1 <1>   0.0800 
 29 H       -3.2620    -1.3350     1.5030 H     1 <1>   0.0800 
 30 H       -5.0240     2.1220     0.6220 H     1 <1>   0.0800 
 31 H       -5.4210     3.1650     1.9410 H     1 <1>   0.0800 
 32 H       -1.7230     4.7020    -2.4990 H     1 <1>   0.1500 
 33 H       -6.5170     1.1640     2.4480 H     1 <1>   0.0800 
 34 H       -5.1420     1.1520     3.5010 H     1 <1>   0.0800 
 35 H       -5.0160    -2.7660     0.9900 H     1 <1>   0.0800 
 36 H       -6.3170    -3.8710    -0.5380 H     1 <1>   0.0800 
 37 H       -7.4600    -2.5860    -0.2190 H     1 <1>   0.0800 
 38 H       -5.0330    -0.5290    -1.9730 H     1 <1>   0.0800 
 39 H       -4.2320    -1.9110    -2.7300 H     1 <1>   0.0800 
 40 H       -7.0170    -1.6190    -2.3060 H     1 <1>   0.0800 
 41 H       -6.2200    -3.1290    -2.7090 H     1 <1>   0.0800 
@<TRIPOS>BOND
  1   1   2  2   
  2   2   3  am  
  3   2   4  1   
  4   3   5  1   
  5   3   6  1   
  6   4   7  2   
  7   4   8  1   
  8   5   9  1   
  9   5  22  1   
 10   5  23  1   
 11   6  10  1   
 12   6  24  1   
 13   6  25  1   
 14   7  11  1   
 15   7  26  1   
 16   8  12  2   
 17   8  27  1   
 18   9  13  1   
 19   9  28  1   
 20   9  29  1   
 21  10  14  1   
 22  10  30  1   
 23  10  31  1   
 24  11  12  1   
 25  12  32  1   
 26  13  14  1   
 27  13  15  am  
 28  14  33  1   
 29  14  34  1   
 30  15  16  2   
 31  15  17  1   
 32  17  18  1   
 33  17  19  1   
 34  17  35  1   
 35  18  20  1   
 36  19  21  1   
 37  19  36  1   
 38  19  37  1   
 39  20  21  1   
 40  20  38  1   
 41  20  39  1   
 42  21  40  1   
 43  21  41  1   
@<TRIPOS>SUBSTRUCTURE
  1 ****   2 GROUP 4 **** **** 0

# MOE 2024.06 (io_trps.svl 2023.06)
