@<TRIPOS>MOLECULE
NONAME
30 31 1 0 0 
SMALL
USER_CHARGES


@<TRIPOS>ATOM
  1 O        0.5220    -0.2510     2.4620 O.2   1 <1>  -0.5780 
  2 C        0.6010    -0.7850     1.3880 C.2   1 <1>   0.8470 
  3 N        1.2950    -0.1950     0.3760 N.pl3 1 <1>  -0.7360 
  4 C       -0.0670    -2.1420     1.1560 C.3   1 <1>   0.1440 
  5 C        2.0010     0.9230     0.3640 C.cat 1 <1>   1.0680 
  6 N        0.1210    -2.5160    -0.2600 N.pl3 1 <1>   0.0340 
  7 N        2.1040     1.7980     1.3440 N.pl3 1 <1>  -0.7070 
  8 N        2.7270     1.3170    -0.6780 N.pl3 1 <1>  -0.7700 
  9 C        1.3090    -2.8430    -0.8300 C.2   1 <1>  -0.0080 
 10 C       -0.6180    -2.0260    -1.2730 C.2   1 <1>  -0.3130 
 11 C        2.9310     2.8150     0.9280 C.2   1 <1>   0.1880 
 12 C        3.3180     2.5180    -0.3270 C.2   1 <1>   0.1880 
 13 C        2.9180     0.6170    -1.9810 C.3   1 <1>   0.2630 
 14 N        1.3770    -2.5390    -2.0820 N.2   1 <1>  -0.5730 
 15 C        2.4750    -3.4520    -0.0700 C.3   1 <1>  -0.0740 
 16 C        0.1540    -2.0650    -2.3770 C.2   1 <1>   0.0640 
 17 H        1.3070    -0.7210    -0.5030 H     1 <1>   0.4410 
 18 H       -1.1160    -2.0750     1.3720 H     1 <1>   0.0670 
 19 H        0.3780    -2.8860     1.7900 H     1 <1>   0.0670 
 20 H        1.6270     1.6700     2.2430 H     1 <1>   0.4410 
 21 H       -1.6330    -1.6810    -1.1650 H     1 <1>   0.1370 
 22 H        3.1820     3.6650     1.5450 H     1 <1>   0.1370 
 23 H        3.9680     3.0720    -0.9880 H     1 <1>   0.1370 
 24 H        3.2950    -0.3790    -1.8180 H     1 <1>   0.0670 
 25 H        3.6230     1.1550    -2.5920 H     1 <1>   0.0670 
 26 H        1.9810     0.5540    -2.5090 H     1 <1>   0.0670 
 27 H        2.1570    -4.3460     0.4360 H     1 <1>   0.0670 
 28 H        2.8730    -2.7600     0.6480 H     1 <1>   0.0670 
 29 H        3.2580    -3.7190    -0.7580 H     1 <1>   0.0670 
 30 H       -0.1080    -1.7700    -3.3820 H     1 <1>   0.1370 
@<TRIPOS>BOND
  1   1   2  2   
  2   2   3  1   
  3   2   4  1   
  4   3   5  ar  
  5   3  17  1   
  6   4   6  1   
  7   4  18  1   
  8   4  19  1   
  9   5   7  ar  
 10   5   8  ar  
 11   6   9  1   
 12   6  10  1   
 13   7  11  1   
 14   7  20  1   
 15   8  12  1   
 16   8  13  1   
 17   9  14  2   
 18   9  15  1   
 19  10  16  2   
 20  10  21  1   
 21  11  12  2   
 22  11  22  1   
 23  12  23  1   
 24  13  24  1   
 25  13  25  1   
 26  13  26  1   
 27  14  16  1   
 28  15  27  1   
 29  15  28  1   
 30  15  29  1   
 31  16  30  1   
@<TRIPOS>SUBSTRUCTURE
  1 ****   3 GROUP 4 **** **** 0

# MOE 2024.06 (io_trps.svl 2023.06)
