@<TRIPOS>MOLECULE
NONAME
41 42 1 0 0 
SMALL
USER_CHARGES


@<TRIPOS>ATOM
  1 S        0.5220     0.3110    -1.5740 S.o2  1 <1>   1.3330 
  2 O       -0.2800     1.2620    -2.3090 O.2   1 <1>  -0.6500 
  3 O        0.9040    -0.9380    -2.1960 O.2   1 <1>  -0.6500 
  4 N       -0.3160    -0.0560    -0.1420 N.am  1 <1>  -0.8490 
  5 C        2.0160     1.1210    -0.9990 C.3   1 <1>  -0.0550 
  6 C       -1.0820     1.0790     0.3880 C.3   1 <1>   0.1160 
  7 C       -1.1990    -1.2160    -0.3000 C.3   1 <1>   0.1160 
  8 C        2.9950     0.1910    -0.2500 C.3   1 <1>  -0.0800 
  9 C        4.3460     0.8100     0.0750 C.3   1 <1>   0.2200 
 10 C        2.5100    -0.3020     1.1200 C.3   1 <1>   0.1200 
 11 N        4.1860     2.1950     0.5780 N.am  1 <1>  -0.7300 
 12 C        4.7850    -0.0770     1.2300 C.3   1 <1>   0.1200 
 13 O        3.6230    -0.2960     1.9680 O.3   1 <1>  -0.5600 
 14 C        4.4020     3.3340    -0.1290 C.2   1 <1>   0.7150 
 15 O        4.6710     3.2350    -1.3100 O.2   1 <1>  -0.5700 
 16 C        4.2810     4.6010     0.5330 C.2   1 <1>  -0.2370 
 17 N        4.3740     5.8160    -0.0740 N.pl3 1 <1>   0.3140 
 18 C        4.0560     4.8780     1.8490 C.2   1 <1>  -0.1500 
 19 N        4.2160     6.8280     0.7940 N.2   1 <1>  -0.7070 
 20 C        4.6120     6.1090    -1.4980 C.3   1 <1>   0.0160 
 21 C        4.0270     6.2560     1.9430 C.2   1 <1>   0.1390 
 22 H        2.5290     1.5180    -1.8550 H     1 <1>   0.0800 
 23 H        1.7500     1.9510    -0.3750 H     1 <1>   0.0800 
 24 H       -1.5170     0.8190     1.3390 H     1 <1>   0.0800 
 25 H       -1.8700     1.3540    -0.2940 H     1 <1>   0.0800 
 26 H       -0.4380     1.9290     0.5310 H     1 <1>   0.0800 
 27 H       -1.7070    -1.4290     0.6250 H     1 <1>   0.0800 
 28 H       -0.6230    -2.0840    -0.5740 H     1 <1>   0.0800 
 29 H       -1.9280    -1.0280    -1.0710 H     1 <1>   0.0800 
 30 H        3.1720    -0.6770    -0.8620 H     1 <1>   0.0800 
 31 H        5.0340     0.7780    -0.7550 H     1 <1>   0.0800 
 32 H        2.1130    -1.3020     1.0670 H     1 <1>   0.0800 
 33 H        1.7750     0.3570     1.5480 H     1 <1>   0.0800 
 34 H        3.9160     2.2560     1.5600 H     1 <1>   0.3700 
 35 H        5.5340     0.3810     1.8520 H     1 <1>   0.0800 
 36 H        5.1360    -1.0300     0.8720 H     1 <1>   0.0800 
 37 H        3.9260     4.1980     2.6700 H     1 <1>   0.1500 
 38 H        3.8310     5.6650    -2.0860 H     1 <1>   0.0800 
 39 H        5.5620     5.7010    -1.7880 H     1 <1>   0.0800 
 40 H        4.6160     7.1720    -1.6470 H     1 <1>   0.0800 
 41 H        3.8690     6.8090     2.8540 H     1 <1>   0.1500 
@<TRIPOS>BOND
  1   1   2  2   
  2   1   3  2   
  3   1   4  am  
  4   1   5  1   
  5   4   6  1   
  6   4   7  1   
  7   5   8  1   
  8   5  22  1   
  9   5  23  1   
 10   6  24  1   
 11   6  25  1   
 12   6  26  1   
 13   7  27  1   
 14   7  28  1   
 15   7  29  1   
 16   8   9  1   
 17   8  10  1   
 18   8  30  1   
 19   9  11  1   
 20   9  12  1   
 21   9  31  1   
 22  10  13  1   
 23  10  32  1   
 24  10  33  1   
 25  11  14  am  
 26  11  34  1   
 27  12  13  1   
 28  12  35  1   
 29  12  36  1   
 30  14  15  2   
 31  14  16  1   
 32  16  17  1   
 33  16  18  2   
 34  17  19  1   
 35  17  20  1   
 36  18  21  1   
 37  18  37  1   
 38  19  21  2   
 39  20  38  1   
 40  20  39  1   
 41  20  40  1   
 42  21  41  1   
@<TRIPOS>SUBSTRUCTURE
  1 ****  11 GROUP 4 **** **** 0

# MOE 2024.06 (io_trps.svl 2023.06)
