@<TRIPOS>MOLECULE
NONAME
59 62 1 0 0 
SMALL
USER_CHARGES


@<TRIPOS>ATOM
  1 O        1.1840    -1.0410     0.3480 O.3   1 <1>  -0.5600 
  2 C        0.3670    -2.1750     0.1820 C.3   1 <1>   0.2800 
  3 C        0.5860     0.2120     0.5450 C.3   1 <1>   0.1200 
  4 C       -1.1530    -1.8530     0.3170 C.3   1 <1>   0.2000 
  5 C        0.7470    -2.7540    -1.1920 C.3   1 <1>  -0.1600 
  6 C        0.7980    -3.1580     1.2790 C.3   1 <1>  -0.1600 
  7 C       -0.4570     0.4490    -0.5480 C.3   1 <1>  -0.1600 
  8 O       -1.9320    -2.9670    -0.0140 O.3   1 <1>  -0.6800 
  9 C       -1.6030    -0.5720    -0.4480 C.3   1 <1>   0.2800 
 10 C        2.2290    -3.1130    -1.2480 C.3   1 <1>   0.3430 
 11 C        2.2790    -3.5040     1.1620 C.3   1 <1>   0.3430 
 12 O       -2.5970     0.0040     0.3170 O.3   1 <1>  -0.6800 
 13 C       -2.2420    -0.8050    -1.8250 C.3   1 <1>  -0.2400 
 14 N        2.5450    -4.1070    -0.1780 N.4   1 <1>  -0.9590 
 15 C        3.9370    -4.6470    -0.2940 C.3   1 <1>   0.4860 
 16 C        4.9860    -3.5600    -0.1720 C.ar  1 <1>  -0.1440 
 17 C        5.4810    -2.9080    -1.2770 C.ar  1 <1>   0.1600 
 18 C        5.5080    -3.1910     1.0460 C.ar  1 <1>   0.1600 
 19 N        6.3890    -1.9720    -1.1880 N.ar  1 <1>  -0.6200 
 20 N        6.4160    -2.2580     1.1620 N.ar  1 <1>  -0.6200 
 21 C        6.8500    -1.6890     0.0330 C.ar  1 <1>   0.6200 
 22 C        7.8710    -0.6770     0.1450 C.ar  1 <1>   0.0000 
 23 C        9.2290    -1.0020     0.0490 C.ar  1 <1>   0.0820 
 24 C        7.5220     0.6570     0.3530 C.ar  1 <1>  -0.1500 
 25 O        9.5500    -2.3050    -0.1500 O.3   1 <1>  -0.3620 
 26 C       10.1950    -0.0030     0.1590 C.ar  1 <1>  -0.1500 
 27 C        8.4840     1.6430     0.4620 C.ar  1 <1>  -0.1500 
 28 C       10.8840    -2.7460    -0.2670 C.3   1 <1>   0.0400 
 29 C        9.8230     1.3120     0.3640 C.ar  1 <1>  -0.1500 
 30 H        0.1420     0.2400     1.5270 H     1 <1>   0.0800 
 31 H        1.3630     0.9570     0.4950 H     1 <1>   0.0800 
 32 H       -1.3310    -1.6750     1.3650 H     1 <1>   0.0800 
 33 H        0.1580    -3.6260    -1.4100 H     1 <1>   0.0800 
 34 H        0.5430    -2.0300    -1.9580 H     1 <1>   0.0800 
 35 H        0.6150    -2.7160     2.2420 H     1 <1>   0.0800 
 36 H        0.2110    -4.0580     1.2240 H     1 <1>   0.0800 
 37 H        0.0410     0.3600    -1.4960 H     1 <1>   0.0800 
 38 H       -0.8360     1.4540    -0.4820 H     1 <1>   0.0800 
 39 H       -2.8760    -2.7340     0.1190 H     1 <1>   0.4000 
 40 H        2.8140    -2.2180    -1.1000 H     1 <1>   0.0800 
 41 H        2.4620    -3.5190    -2.2180 H     1 <1>   0.0800 
 42 H        2.5480    -4.1950     1.9440 H     1 <1>   0.0800 
 43 H        2.8620    -2.6030     1.2810 H     1 <1>   0.0800 
 44 H       -2.9900     0.7580    -0.1630 H     1 <1>   0.4000 
 45 H       -1.5650    -1.3290    -2.4720 H     1 <1>   0.0800 
 46 H       -2.4880     0.1310    -2.2940 H     1 <1>   0.0800 
 47 H       -3.1380    -1.3940    -1.7390 H     1 <1>   0.0800 
 48 H        1.8880    -4.8910    -0.2920 H     1 <1>   0.4500 
 49 H        4.1040    -5.3830     0.4760 H     1 <1>   0.0800 
 50 H        4.0540    -5.1400    -1.2450 H     1 <1>   0.0800 
 51 H        5.1320    -3.1530    -2.2670 H     1 <1>   0.1500 
 52 H        5.1830    -3.6670     1.9550 H     1 <1>   0.1500 
 53 H        6.4820     0.9180     0.4300 H     1 <1>   0.1500 
 54 H       11.2410    -0.2300     0.0880 H     1 <1>   0.1500 
 55 H        8.1930     2.6670     0.6220 H     1 <1>   0.1500 
 56 H       10.8720    -3.8100    -0.4220 H     1 <1>   0.0800 
 57 H       11.4080    -2.5150     0.6430 H     1 <1>   0.0800 
 58 H       11.3390    -2.2590    -1.1120 H     1 <1>   0.0800 
 59 H       10.5730     2.0790     0.4490 H     1 <1>   0.1500 
@<TRIPOS>BOND
  1   1   2  1   
  2   1   3  1   
  3   2   4  1   
  4   2   5  1   
  5   2   6  1   
  6   3   7  1   
  7   3  30  1   
  8   3  31  1   
  9   4   8  1   
 10   4   9  1   
 11   4  32  1   
 12   5  10  1   
 13   5  33  1   
 14   5  34  1   
 15   6  11  1   
 16   6  35  1   
 17   6  36  1   
 18   7   9  1   
 19   7  37  1   
 20   7  38  1   
 21   8  39  1   
 22   9  12  1   
 23   9  13  1   
 24  10  14  1   
 25  10  40  1   
 26  10  41  1   
 27  11  14  1   
 28  11  42  1   
 29  11  43  1   
 30  12  44  1   
 31  13  45  1   
 32  13  46  1   
 33  13  47  1   
 34  14  15  1   
 35  14  48  1   
 36  15  16  1   
 37  15  49  1   
 38  15  50  1   
 39  16  17  ar  
 40  16  18  ar  
 41  17  19  ar  
 42  17  51  1   
 43  18  20  ar  
 44  18  52  1   
 45  19  21  ar  
 46  20  21  ar  
 47  21  22  1   
 48  22  23  ar  
 49  22  24  ar  
 50  23  25  1   
 51  23  26  ar  
 52  24  27  ar  
 53  24  53  1   
 54  25  28  1   
 55  26  29  ar  
 56  26  54  1   
 57  27  29  ar  
 58  27  55  1   
 59  28  56  1   
 60  28  57  1   
 61  28  58  1   
 62  29  59  1   
@<TRIPOS>SUBSTRUCTURE
  1 ****  16 GROUP 4 **** **** 0

# MOE 2024.06 (io_trps.svl 2023.06)
