@<TRIPOS>MOLECULE
NONAME
45 47 1 0 0 
SMALL
USER_CHARGES


@<TRIPOS>ATOM
  1 CL      -1.4100    -0.3350    -1.7750 Cl    1 <1>  -0.1770 
  2 C       -2.2860     0.7170    -0.6890 C.ar  1 <1>   0.1770 
  3 C       -3.1080     0.1680     0.2900 C.ar  1 <1>  -0.1440 
  4 C       -2.1450     2.0830    -0.8400 C.ar  1 <1>  -0.1500 
  5 C       -3.7980     1.0210     1.1470 C.ar  1 <1>  -0.1500 
  6 C       -3.2450    -1.3370     0.4250 C.3   1 <1>   0.4870 
  7 C       -2.8500     2.8990     0.0200 C.ar  1 <1>   0.1900 
  8 C       -3.6730     2.3950     1.0110 C.ar  1 <1>  -0.1500 
  9 N       -3.8800    -1.9480    -0.7890 N.4   1 <1>  -0.9590 
 10 F       -2.7380     4.1920    -0.1070 F     1 <1>  -0.1900 
 11 C       -5.3390    -1.7160    -1.0330 C.3   1 <1>   0.4230 
 12 C       -3.5940    -3.4150    -0.8120 C.3   1 <1>   0.2630 
 13 C       -6.2280    -1.7230     0.2080 C.3   1 <1>  -0.1600 
 14 C       -5.6440    -0.3920    -1.7230 C.3   1 <1>  -0.1600 
 15 C       -7.5310    -1.0630    -0.2650 C.3   1 <1>  -0.0800 
 16 C       -7.1340    -0.1450    -1.4460 C.3   1 <1>  -0.0800 
 17 C       -8.3080    -0.3720     0.8760 C.3   1 <1>   0.1400 
 18 C       -7.4660     1.3390    -1.2080 C.3   1 <1>  -0.0990 
 19 N       -9.2590     0.6220     0.3240 N.am  1 <1>  -0.6600 
 20 C       -8.8750     1.4800    -0.6700 C.2   1 <1>   0.5690 
 21 C      -10.6070     0.6820     0.9520 C.3   1 <1>   0.0600 
 22 O       -9.5950     2.3310    -1.1310 O.2   1 <1>  -0.5700 
 23 H       -1.5090     2.5020    -1.5990 H     1 <1>   0.1500 
 24 H       -4.4330     0.6360     1.9280 H     1 <1>   0.1500 
 25 H       -3.8130    -1.5810     1.3070 H     1 <1>   0.0800 
 26 H       -2.2560    -1.7470     0.5530 H     1 <1>   0.0800 
 27 H       -4.1990     3.0730     1.6620 H     1 <1>   0.1500 
 28 H       -3.3840    -1.5300    -1.5910 H     1 <1>   0.4500 
 29 H       -5.7050    -2.4890    -1.6910 H     1 <1>   0.0800 
 30 H       -4.0820    -3.9070     0.0140 H     1 <1>   0.0800 
 31 H       -2.5320    -3.5920    -0.7430 H     1 <1>   0.0800 
 32 H       -3.9510    -3.8510    -1.7320 H     1 <1>   0.0800 
 33 H       -6.4080    -2.7210     0.5680 H     1 <1>   0.0800 
 34 H       -5.8080    -1.1210     0.9910 H     1 <1>   0.0800 
 35 H       -5.0730     0.4140    -1.3080 H     1 <1>   0.0800 
 36 H       -5.4570    -0.4480    -2.7810 H     1 <1>   0.0800 
 37 H       -8.1710    -1.8350    -0.6610 H     1 <1>   0.0800 
 38 H       -7.7030    -0.4660    -2.3060 H     1 <1>   0.0800 
 39 H       -7.6330     0.1470     1.5340 H     1 <1>   0.0800 
 40 H       -8.8390    -1.1100     1.4530 H     1 <1>   0.0800 
 41 H       -7.3800     1.8910    -2.1270 H     1 <1>   0.0800 
 42 H       -6.7970     1.7740    -0.4890 H     1 <1>   0.0800 
 43 H      -11.1110    -0.2600     0.8270 H     1 <1>   0.0800 
 44 H      -11.2040     1.4530     0.4940 H     1 <1>   0.0800 
 45 H      -10.5120     0.9010     2.0010 H     1 <1>   0.0800 
@<TRIPOS>BOND
  1   1   2  1   
  2   2   3  ar  
  3   2   4  ar  
  4   3   5  ar  
  5   3   6  1   
  6   4   7  ar  
  7   4  23  1   
  8   5   8  ar  
  9   5  24  1   
 10   6   9  1   
 11   6  25  1   
 12   6  26  1   
 13   7   8  ar  
 14   7  10  1   
 15   8  27  1   
 16   9  11  1   
 17   9  12  1   
 18   9  28  1   
 19  11  13  1   
 20  11  14  1   
 21  11  29  1   
 22  12  30  1   
 23  12  31  1   
 24  12  32  1   
 25  13  15  1   
 26  13  33  1   
 27  13  34  1   
 28  14  16  1   
 29  14  35  1   
 30  14  36  1   
 31  15  16  1   
 32  15  17  1   
 33  15  37  1   
 34  16  18  1   
 35  16  38  1   
 36  17  19  1   
 37  17  39  1   
 38  17  40  1   
 39  18  20  1   
 40  18  41  1   
 41  18  42  1   
 42  19  20  am  
 43  19  21  1   
 44  20  22  2   
 45  21  43  1   
 46  21  44  1   
 47  21  45  1   
@<TRIPOS>SUBSTRUCTURE
  1 ****  14 GROUP 4 **** **** 0

# MOE 2024.06 (io_trps.svl 2023.06)
