@<TRIPOS>MOLECULE
NONAME
44 45 1 0 0 
SMALL
USER_CHARGES


@<TRIPOS>ATOM
  1 F        5.8390     0.0860    -2.1580 F     1 <1>  -0.1900 
  2 C        5.3930     1.0570    -1.4080 C.ar  1 <1>   0.1900 
  3 C        4.0520     1.3830    -1.4680 C.ar  1 <1>  -0.1500 
  4 C        6.2790     1.7230    -0.5830 C.ar  1 <1>  -0.1500 
  5 C        3.5840     2.4140    -0.6700 C.ar  1 <1>  -0.1500 
  6 C        5.7970     2.7510     0.2090 C.ar  1 <1>  -0.1500 
  7 C        4.4520     3.1010     0.1710 C.ar  1 <1>  -0.1430 
  8 C        3.9350     4.2330     1.0510 C.3   1 <1>   0.2540 
  9 N        4.7200     5.4630     0.8590 N.3   1 <1>  -0.8100 
 10 C        4.3570     6.4850     1.8850 C.3   1 <1>   0.1710 
 11 C        4.5590     6.0010    -0.5040 C.3   1 <1>   0.0300 
 12 C        5.1100     7.8260     1.8120 C.2   1 <1>   0.5690 
 13 O        4.4380     8.8320     1.7840 O.2   1 <1>  -0.5700 
 14 N        6.4820     7.8860     1.7880 N.am  1 <1>  -0.6600 
 15 C        7.1800     9.1690     1.4440 C.3   1 <1>   0.3210 
 16 C        7.3620     6.6870     1.8850 C.3   1 <1>   0.0600 
 17 C        7.9430     9.0860     0.1220 C.2   1 <1>   0.3350 
 18 N        7.4820     9.4360    -1.0140 N.2   1 <1>  -0.4100 
 19 N        9.1920     8.6310     0.0630 N.2   1 <1>  -0.5650 
 20 O        8.4120     9.2160    -1.8910 O.3   1 <1>  -0.0190 
 21 C        9.4050     8.7350    -1.1870 C.2   1 <1>   0.2980 
 22 C       10.6920     8.3560    -1.8980 C.3   1 <1>   0.0200 
 23 C       10.5010     7.1430    -2.8170 C.3   1 <1>  -0.2400 
 24 H        3.3950     0.8410    -2.1230 H     1 <1>   0.1500 
 25 H        7.3160     1.4430    -0.5650 H     1 <1>   0.1500 
 26 H        2.5410     2.6790    -0.7080 H     1 <1>   0.1500 
 27 H        6.4680     3.2920     0.8550 H     1 <1>   0.1500 
 28 H        4.0120     3.9180     2.0780 H     1 <1>   0.0800 
 29 H        2.8970     4.4270     0.8380 H     1 <1>   0.0800 
 30 H        4.5300     6.0760     2.8630 H     1 <1>   0.0800 
 31 H        3.3050     6.7000     1.8060 H     1 <1>   0.0800 
 32 H        4.8440     5.2630    -1.2340 H     1 <1>   0.0800 
 33 H        5.1950     6.8590    -0.6440 H     1 <1>   0.0800 
 34 H        3.5380     6.2930    -0.6790 H     1 <1>   0.0800 
 35 H        7.8710     9.4140     2.2300 H     1 <1>   0.0800 
 36 H        6.4720     9.9750     1.3710 H     1 <1>   0.0800 
 37 H        6.9000     5.9230     2.4840 H     1 <1>   0.0800 
 38 H        8.3040     6.9520     2.3320 H     1 <1>   0.0800 
 39 H        7.5410     6.2920     0.8980 H     1 <1>   0.0800 
 40 H       11.4410     8.1300    -1.1610 H     1 <1>   0.0800 
 41 H       11.0320     9.1990    -2.4710 H     1 <1>   0.0800 
 42 H       10.1630     6.2960    -2.2460 H     1 <1>   0.0800 
 43 H       11.4310     6.8890    -3.2950 H     1 <1>   0.0800 
 44 H        9.7710     7.3600    -3.5770 H     1 <1>   0.0800 
@<TRIPOS>BOND
  1   1   2  1   
  2   2   3  ar  
  3   2   4  ar  
  4   3   5  ar  
  5   3  24  1   
  6   4   6  ar  
  7   4  25  1   
  8   5   7  ar  
  9   5  26  1   
 10   6   7  ar  
 11   6  27  1   
 12   7   8  1   
 13   8   9  1   
 14   8  28  1   
 15   8  29  1   
 16   9  10  1   
 17   9  11  1   
 18  10  12  1   
 19  10  30  1   
 20  10  31  1   
 21  11  32  1   
 22  11  33  1   
 23  11  34  1   
 24  12  13  2   
 25  12  14  am  
 26  14  15  1   
 27  14  16  1   
 28  15  17  1   
 29  15  35  1   
 30  15  36  1   
 31  16  37  1   
 32  16  38  1   
 33  16  39  1   
 34  17  18  2   
 35  17  19  1   
 36  18  20  1   
 37  19  21  2   
 38  20  21  1   
 39  21  22  1   
 40  22  23  1   
 41  22  40  1   
 42  22  41  1   
 43  23  42  1   
 44  23  43  1   
 45  23  44  1   
@<TRIPOS>SUBSTRUCTURE
  1 ****  11 GROUP 4 **** **** 0

# MOE 2024.06 (io_trps.svl 2023.06)
