@<TRIPOS>MOLECULE
NONAME
51 53 1 0 0 
SMALL
USER_CHARGES


@<TRIPOS>ATOM
  1 F       -0.1450     0.8700    -0.4260 F     1 <1>  -0.1900 
  2 C       -1.4430     1.0340    -0.4360 C.ar  1 <1>   0.1900 
  3 C       -2.0500     2.1810     0.0870 C.ar  1 <1>   0.0830 
  4 C       -2.1870     0.0130    -0.9960 C.ar  1 <1>  -0.1500 
  5 O       -1.4280     3.2510     0.6610 O.3   1 <1>  -0.3630 
  6 C       -3.4320     2.2610     0.0270 C.ar  1 <1>  -0.1500 
  7 C       -3.5640     0.1260    -1.0410 C.ar  1 <1>  -0.1500 
  8 C       -0.0320     3.3200     0.8470 C.3   1 <1>   0.0400 
  9 C       -4.2170     1.2480    -0.5270 C.ar  1 <1>   0.0530 
 10 C       -5.6520     1.3810    -0.5750 C.2   1 <1>   0.0870 
 11 O       -6.1750     2.5380    -0.8910 O.3   1 <1>  -0.0190 
 12 C       -6.6880     0.5210    -0.3620 C.2   1 <1>  -0.0860 
 13 N       -7.4790     2.5210    -0.9170 N.2   1 <1>  -0.4100 
 14 C       -7.8150     1.3200    -0.6050 C.2   1 <1>   0.3720 
 15 C       -6.7000    -0.8570     0.0300 C.2   1 <1>   0.7160 
 16 N       -9.1550     0.9080    -0.5080 N.pl3 1 <1>  -0.8210 
 17 O       -5.6950    -1.4190     0.4220 O.2   1 <1>  -0.5700 
 18 N       -7.8570    -1.5660    -0.0270 N.am  1 <1>  -0.7300 
 19 C       -9.7660     1.2820     0.7960 C.3   1 <1>   0.1290 
 20 C      -10.0030     1.3560    -1.6500 C.3   1 <1>   0.1290 
 21 C       -8.0770    -2.9530     0.3940 C.3   1 <1>   0.2200 
 22 C       -8.6790    -3.7310    -0.7820 C.3   1 <1>  -0.1600 
 23 C       -9.0150    -2.9520     1.6070 C.3   1 <1>  -0.1600 
 24 C       -9.0510    -5.1650    -0.3690 C.3   1 <1>  -0.1600 
 25 C       -9.3880    -4.3840     2.0240 C.3   1 <1>  -0.1600 
 26 C       -9.9850    -5.1570     0.8440 C.3   1 <1>   0.2000 
 27 O      -10.1950    -6.4570     1.2390 O.3   1 <1>  -0.6800 
 28 H       -1.6940    -0.8570    -1.3890 H     1 <1>   0.1500 
 29 H       -3.9110     3.1370     0.4250 H     1 <1>   0.1500 
 30 H       -4.1430    -0.6680    -1.4790 H     1 <1>   0.1500 
 31 H        0.1940     4.2490     1.3390 H     1 <1>   0.0800 
 32 H        0.4520     3.2910    -0.1130 H     1 <1>   0.0800 
 33 H        0.2810     2.4960     1.4630 H     1 <1>   0.0800 
 34 H       -8.6870    -1.0150    -0.2870 H     1 <1>   0.3700 
 35 H       -9.1540     0.9190     1.6050 H     1 <1>   0.0800 
 36 H      -10.7470     0.8480     0.8830 H     1 <1>   0.0800 
 37 H       -9.8430     2.3540     0.8750 H     1 <1>   0.0800 
 38 H       -9.5040     1.1420    -2.5810 H     1 <1>   0.0800 
 39 H      -10.1780     2.4180    -1.5910 H     1 <1>   0.0800 
 40 H      -10.9460     0.8390    -1.6360 H     1 <1>   0.0800 
 41 H       -7.1380    -3.4030     0.6720 H     1 <1>   0.0800 
 42 H       -7.9650    -3.7670    -1.5860 H     1 <1>   0.0800 
 43 H       -9.5630    -3.2280    -1.1320 H     1 <1>   0.0800 
 44 H       -9.9140    -2.4130     1.3650 H     1 <1>   0.0800 
 45 H       -8.5300    -2.4570     2.4300 H     1 <1>   0.0800 
 46 H       -8.1500    -5.7030    -0.1310 H     1 <1>   0.0800 
 47 H       -9.5380    -5.6580    -1.1920 H     1 <1>   0.0800 
 48 H      -10.1040    -4.3470     2.8260 H     1 <1>   0.0800 
 49 H       -8.5030    -4.8850     2.3760 H     1 <1>   0.0800 
 50 H      -10.9410    -4.7400     0.5730 H     1 <1>   0.0800 
 51 H       -9.3480    -6.8700     1.4920 H     1 <1>   0.4000 
@<TRIPOS>BOND
  1   1   2  1   
  2   2   3  ar  
  3   2   4  ar  
  4   3   5  1   
  5   3   6  ar  
  6   4   7  ar  
  7   4  28  1   
  8   5   8  1   
  9   6   9  ar  
 10   6  29  1   
 11   7   9  ar  
 12   7  30  1   
 13   8  31  1   
 14   8  32  1   
 15   8  33  1   
 16   9  10  1   
 17  10  11  1   
 18  10  12  2   
 19  11  13  1   
 20  12  14  1   
 21  12  15  1   
 22  13  14  2   
 23  14  16  1   
 24  15  17  2   
 25  15  18  am  
 26  16  19  1   
 27  16  20  1   
 28  18  21  1   
 29  18  34  1   
 30  19  35  1   
 31  19  36  1   
 32  19  37  1   
 33  20  38  1   
 34  20  39  1   
 35  20  40  1   
 36  21  22  1   
 37  21  23  1   
 38  21  41  1   
 39  22  24  1   
 40  22  42  1   
 41  22  43  1   
 42  23  25  1   
 43  23  44  1   
 44  23  45  1   
 45  24  26  1   
 46  24  46  1   
 47  24  47  1   
 48  25  26  1   
 49  25  48  1   
 50  25  49  1   
 51  26  27  1   
 52  26  50  1   
 53  27  51  1   
@<TRIPOS>SUBSTRUCTURE
  1 ****  15 GROUP 4 **** **** 0

# MOE 2024.06 (io_trps.svl 2023.06)
