@<TRIPOS>MOLECULE
NONAME
64 67 1 0 0 
SMALL
USER_CHARGES


@<TRIPOS>ATOM
  1 O       -0.0190     0.2400     1.3080 O.2   1 <1>  -0.5700 
  2 C       -0.6470     0.5550     0.3250 C.2   1 <1>   0.5690 
  3 N       -1.2880    -0.3870    -0.4150 N.am  1 <1>  -0.7300 
  4 C       -0.7650     2.0270    -0.1010 C.3   1 <1>   0.0610 
  5 C       -1.5480    -1.7600     0.0420 C.3   1 <1>   0.3210 
  6 C       -0.5630     3.0220     1.0710 C.3   1 <1>   0.2200 
  7 C       -2.2010     2.4240    -0.5730 C.3   1 <1>  -0.1600 
  8 C        0.2450     2.2960    -1.2480 C.3   1 <1>  -0.0220 
  9 C       -3.0320    -1.8510     0.3140 C.2   1 <1>  -0.1810 
 10 N       -1.2270     4.2000     0.5220 N.am  1 <1>  -0.6600 
 11 C       -1.5120     2.7540     2.2570 C.3   1 <1>  -0.1600 
 12 C       -2.5500     3.6440     0.2920 C.3   1 <1>   0.2200 
 13 C        1.6970     2.1270    -0.8250 C.2   1 <1>  -0.2880 
 14 C       -3.6970    -1.1730     1.3290 C.2   1 <1>   0.1390 
 15 C       -4.0000    -2.5430    -0.3240 C.2   1 <1>  -0.3020 
 16 C       -0.6560     5.4040     0.2330 C.2   1 <1>   0.5690 
 17 C       -2.8890     3.1640     1.7060 C.3   1 <1>  -0.1600 
 18 C        2.5190     1.0950    -1.0540 C.2   1 <1>  -0.2760 
 19 N       -4.9730    -1.4110     1.3220 N.2   1 <1>  -0.7070 
 20 N       -5.1600    -2.2650     0.3030 N.pl3 1 <1>   0.3140 
 21 O        0.5160     5.6020     0.4510 O.2   1 <1>  -0.5700 
 22 C       -1.5050     6.5080    -0.4010 C.3   1 <1>  -0.0190 
 23 C        3.9540     1.1050    -0.5540 C.3   1 <1>  -0.1020 
 24 C        2.1740    -0.1920    -1.7900 C.3   1 <1>  -0.1020 
 25 C       -6.4910    -2.7900    -0.0200 C.3   1 <1>   0.0160 
 26 C       -1.6420     6.3040    -1.9190 C.3   1 <1>  -0.1600 
 27 C       -0.9620     7.9250    -0.1380 C.3   1 <1>  -0.1600 
 28 C       -2.4400     7.4480    -2.5520 C.3   1 <1>   0.1200 
 29 C       -1.7980     8.9750    -0.8770 C.3   1 <1>   0.1200 
 30 O       -1.8380     8.6640    -2.2370 O.3   1 <1>  -0.5600 
 31 H       -1.8590    -0.1020    -1.2080 H     1 <1>   0.3700 
 32 H       -1.2610    -2.4580    -0.7250 H     1 <1>   0.0800 
 33 H       -0.9910    -1.9800     0.9380 H     1 <1>   0.0800 
 34 H        0.4610     3.1850     1.3600 H     1 <1>   0.0800 
 35 H       -2.9290     1.6480    -0.4210 H     1 <1>   0.0800 
 36 H       -2.2170     2.7030    -1.6120 H     1 <1>   0.0800 
 37 H        0.0230     1.6430    -2.0700 H     1 <1>   0.0800 
 38 H        0.1300     3.2990    -1.6190 H     1 <1>   0.0800 
 39 H       -1.4960     1.7380     2.6030 H     1 <1>   0.0800 
 40 H       -1.2340     3.3910     3.0780 H     1 <1>   0.0800 
 41 H       -3.2670     4.3200    -0.1400 H     1 <1>   0.0800 
 42 H        2.0350     2.9910    -0.2750 H     1 <1>   0.1500 
 43 H       -3.2160    -0.5210     2.0400 H     1 <1>   0.1500 
 44 H       -3.9330    -3.2020    -1.1700 H     1 <1>   0.1500 
 45 H       -3.3010     3.9730     2.2820 H     1 <1>   0.0800 
 46 H       -3.5880     2.3450     1.6990 H     1 <1>   0.0800 
 47 H       -2.4840     6.4600     0.0400 H     1 <1>   0.0800 
 48 H        4.1130     0.2890     0.1280 H     1 <1>   0.0800 
 49 H        4.1730     2.0230    -0.0390 H     1 <1>   0.0800 
 50 H        4.6360     1.0090    -1.3800 H     1 <1>   0.0800 
 51 H        2.8060    -0.3030    -2.6530 H     1 <1>   0.0800 
 52 H        1.1530    -0.2140    -2.1140 H     1 <1>   0.0800 
 53 H        2.3280    -1.0330    -1.1380 H     1 <1>   0.0800 
 54 H       -6.4600    -3.3030    -0.9620 H     1 <1>   0.0800 
 55 H       -7.1840    -1.9710    -0.0730 H     1 <1>   0.0800 
 56 H       -6.7950    -3.4660     0.7570 H     1 <1>   0.0800 
 57 H       -2.1300     5.3690    -2.1270 H     1 <1>   0.0800 
 58 H       -0.6640     6.2720    -2.3700 H     1 <1>   0.0800 
 59 H        0.0570     7.9990    -0.4780 H     1 <1>   0.0800 
 60 H       -0.9700     8.1300     0.9170 H     1 <1>   0.0800 
 61 H       -3.4560     7.4650    -2.1960 H     1 <1>   0.0800 
 62 H       -2.4460     7.3550    -3.6250 H     1 <1>   0.0800 
 63 H       -1.3510     9.9490    -0.7780 H     1 <1>   0.0800 
 64 H       -2.8060     9.0120    -0.5030 H     1 <1>   0.0800 
@<TRIPOS>BOND
  1   1   2  2   
  2   2   3  am  
  3   2   4  1   
  4   3   5  1   
  5   3  31  1   
  6   4   6  1   
  7   4   7  1   
  8   4   8  1   
  9   5   9  1   
 10   5  32  1   
 11   5  33  1   
 12   6  10  1   
 13   6  11  1   
 14   6  34  1   
 15   7  12  1   
 16   7  35  1   
 17   7  36  1   
 18   8  13  1   
 19   8  37  1   
 20   8  38  1   
 21   9  14  1   
 22   9  15  2   
 23  10  12  1   
 24  10  16  am  
 25  11  17  1   
 26  11  39  1   
 27  11  40  1   
 28  12  17  1   
 29  12  41  1   
 30  13  18  2   
 31  13  42  1   
 32  14  19  2   
 33  14  43  1   
 34  15  20  1   
 35  15  44  1   
 36  16  21  2   
 37  16  22  1   
 38  17  45  1   
 39  17  46  1   
 40  18  23  1   
 41  18  24  1   
 42  19  20  1   
 43  20  25  1   
 44  22  26  1   
 45  22  27  1   
 46  22  47  1   
 47  23  48  1   
 48  23  49  1   
 49  23  50  1   
 50  24  51  1   
 51  24  52  1   
 52  24  53  1   
 53  25  54  1   
 54  25  55  1   
 55  25  56  1   
 56  26  28  1   
 57  26  57  1   
 58  26  58  1   
 59  27  29  1   
 60  27  59  1   
 61  27  60  1   
 62  28  30  1   
 63  28  61  1   
 64  28  62  1   
 65  29  30  1   
 66  29  63  1   
 67  29  64  1   
@<TRIPOS>SUBSTRUCTURE
  1 ****   4 GROUP 4 **** **** 0

# MOE 2024.06 (io_trps.svl 2023.06)
