@<TRIPOS>MOLECULE
NONAME
38 41 1 0 0 
SMALL
USER_CHARGES


@<TRIPOS>ATOM
  1 S       -0.3310     0.6290    -1.8140 S.3   1 <1>  -0.0800 
  2 C       -0.1160     1.9480    -0.6840 C.2   1 <1>  -0.1400 
  3 C        1.2420     0.9570    -2.5260 C.2   1 <1>  -0.1100 
  4 C        1.0640     2.5600    -0.8470 C.2   1 <1>  -0.1810 
  5 C       -1.1580     2.3230     0.3340 C.3   1 <1>   0.0200 
  6 C        1.8440     1.9940    -1.9120 C.2   1 <1>  -0.1500 
  7 C        1.4730     3.7330     0.0460 C.3   1 <1>   0.4610 
  8 C       -0.8320     3.7460     0.8150 C.3   1 <1>   0.1200 
  9 O        0.5400     3.8870     1.1010 O.3   1 <1>  -0.5600 
 10 C        1.5420     5.0410    -0.7540 C.3   1 <1>  -0.1600 
 11 C        2.8240     3.4520     0.7130 C.3   1 <1>  -0.1600 
 12 C        2.0140     6.2130     0.1090 C.3   1 <1>   0.1400 
 13 C        3.2880     4.6320     1.5670 C.3   1 <1>   0.1400 
 14 N        3.3200     5.8660     0.7330 N.am  1 <1>  -0.6600 
 15 C        4.5060     6.5020     0.4300 C.2   1 <1>   0.7160 
 16 O        5.5480     5.8820     0.5380 O.2   1 <1>  -0.5700 
 17 C        4.5440     7.8800    -0.0210 C.2   1 <1>  -0.0860 
 18 C        3.7460     8.8970     0.3910 C.2   1 <1>  -0.1100 
 19 C        5.5080     8.3300    -0.9930 C.2   1 <1>  -0.1500 
 20 S        4.1310    10.4020    -0.4110 S.3   1 <1>  -0.0800 
 21 C        5.4220     9.6340    -1.3110 C.2   1 <1>  -0.1100 
 22 H        1.5530     0.3290    -3.3410 H     1 <1>   0.1500 
 23 H       -1.1310     1.6340     1.1590 H     1 <1>   0.0800 
 24 H       -2.1390     2.3020    -0.1050 H     1 <1>   0.0800 
 25 H        2.8130     2.3870    -2.1660 H     1 <1>   0.1500 
 26 H       -1.3800     3.9690     1.7130 H     1 <1>   0.0800 
 27 H       -1.0990     4.4650     0.0610 H     1 <1>   0.0800 
 28 H        0.5840     5.2610    -1.1860 H     1 <1>   0.0800 
 29 H        2.2330     4.9180    -1.5680 H     1 <1>   0.0800 
 30 H        3.5710     3.2620    -0.0350 H     1 <1>   0.0800 
 31 H        2.7410     2.5690     1.3200 H     1 <1>   0.0800 
 32 H        1.2940     6.4150     0.8850 H     1 <1>   0.0800 
 33 H        2.1010     7.0880    -0.5100 H     1 <1>   0.0800 
 34 H        4.2610     4.4240     1.9790 H     1 <1>   0.0800 
 35 H        2.6070     4.7810     2.3880 H     1 <1>   0.0800 
 36 H        2.9480     8.9120     1.1110 H     1 <1>   0.1500 
 37 H        6.2240     7.6360    -1.4010 H     1 <1>   0.1500 
 38 H        5.9900    10.2490    -1.9870 H     1 <1>   0.1500 
@<TRIPOS>BOND
  1   1   2  1   
  2   1   3  1   
  3   2   4  2   
  4   2   5  1   
  5   3   6  2   
  6   3  22  1   
  7   4   6  1   
  8   4   7  1   
  9   5   8  1   
 10   5  23  1   
 11   5  24  1   
 12   6  25  1   
 13   7   9  1   
 14   7  10  1   
 15   7  11  1   
 16   8   9  1   
 17   8  26  1   
 18   8  27  1   
 19  10  12  1   
 20  10  28  1   
 21  10  29  1   
 22  11  13  1   
 23  11  30  1   
 24  11  31  1   
 25  12  14  1   
 26  12  32  1   
 27  12  33  1   
 28  13  14  1   
 29  13  34  1   
 30  13  35  1   
 31  14  15  am  
 32  15  16  2   
 33  15  17  1   
 34  17  18  2   
 35  17  19  1   
 36  18  20  1   
 37  18  36  1   
 38  19  21  2   
 39  19  37  1   
 40  20  21  1   
 41  21  38  1   
@<TRIPOS>SUBSTRUCTURE
  1 ****  10 GROUP 4 **** **** 0

# MOE 2024.06 (io_trps.svl 2023.06)
