@<TRIPOS>MOLECULE
NONAME
49 51 1 0 0 
SMALL
USER_CHARGES


@<TRIPOS>ATOM
  1 O       -0.8140    -1.3470    -0.6990 O.3   1 <1>  -0.6800 
  2 C        0.4330    -1.8890    -0.9680 C.3   1 <1>   0.1200 
  3 C        1.3200    -1.9010     0.3120 C.3   1 <1>   0.0000 
  4 C        2.7310    -2.4690     0.0010 C.3   1 <1>   0.4230 
  5 C        1.5150    -0.4510     0.8280 C.3   1 <1>  -0.1600 
  6 C        0.6670    -2.7510     1.4440 C.3   1 <1>  -0.1600 
  7 N        2.7310    -3.9340    -0.4230 N.4   1 <1>  -0.9590 
  8 C        3.5430    -1.5420    -0.9340 C.3   1 <1>   0.1100 
  9 C        2.3440     0.4250    -0.1170 C.3   1 <1>   0.1100 
 10 C        1.2220    -4.1850     1.5460 C.3   1 <1>  -0.1600 
 11 C        1.6170    -4.7380     0.1800 C.3   1 <1>   0.3430 
 12 C        2.7910    -4.1790    -1.9000 C.3   1 <1>   0.2630 
 13 N        3.6610    -0.1980    -0.3540 N.3   1 <1>  -0.8100 
 14 C        4.5090     0.6800    -1.2060 C.3   1 <1>   0.2530 
 15 C        4.7860     2.0480    -0.5880 C.ar  1 <1>   0.1670 
 16 N        4.5440     3.1030    -1.3530 N.ar  1 <1>  -0.6200 
 17 C        5.2680     2.1290     0.7100 C.ar  1 <1>  -0.1500 
 18 C        4.7910     4.2800    -0.7990 C.ar  1 <1>   0.1600 
 19 C        5.5200     3.3620     1.2710 C.ar  1 <1>  -0.1500 
 20 C        5.2720     4.4700     0.4890 C.ar  1 <1>  -0.1430 
 21 C        5.5280     5.8620     1.0390 C.3   1 <1>  -0.0970 
 22 H       -1.3480    -1.2320    -1.5120 H     1 <1>   0.4000 
 23 H        0.2700    -2.8830    -1.3400 H     1 <1>   0.0800 
 24 H        0.8770    -1.2960    -1.7480 H     1 <1>   0.0800 
 25 H        3.2540    -2.4310     0.9430 H     1 <1>   0.0800 
 26 H        2.0210    -0.4590     1.7780 H     1 <1>   0.0800 
 27 H        0.5600     0.0190     0.9910 H     1 <1>   0.0800 
 28 H        0.8130    -2.2810     2.4020 H     1 <1>   0.0800 
 29 H       -0.3990    -2.7980     1.3010 H     1 <1>   0.0800 
 30 H        3.5990    -4.3150    -0.0200 H     1 <1>   0.4500 
 31 H        3.0760    -1.4680    -1.9010 H     1 <1>   0.0800 
 32 H        4.5320    -1.9480    -1.0530 H     1 <1>   0.0800 
 33 H        2.4730     1.3910     0.3440 H     1 <1>   0.0800 
 34 H        1.8270     0.5790    -1.0500 H     1 <1>   0.0800 
 35 H        0.4710    -4.8200     1.9840 H     1 <1>   0.0800 
 36 H        2.0770    -4.2070     2.2000 H     1 <1>   0.0800 
 37 H        0.7510    -4.7050    -0.4620 H     1 <1>   0.0800 
 38 H        1.9190    -5.7690     0.2770 H     1 <1>   0.0800 
 39 H        1.9240    -3.7640    -2.3870 H     1 <1>   0.0800 
 40 H        2.8240    -5.2380    -2.1020 H     1 <1>   0.0800 
 41 H        3.6740    -3.7280    -2.3230 H     1 <1>   0.0800 
 42 H        5.4580     0.2040    -1.3800 H     1 <1>   0.0800 
 43 H        4.0320     0.8230    -2.1610 H     1 <1>   0.0800 
 44 H        5.4380     1.2310     1.2740 H     1 <1>   0.1500 
 45 H        4.6000     5.1450    -1.4100 H     1 <1>   0.1500 
 46 H        5.8930     3.4500     2.2760 H     1 <1>   0.1500 
 47 H        5.1300     5.9450     2.0350 H     1 <1>   0.0800 
 48 H        5.0600     6.6100     0.4240 H     1 <1>   0.0800 
 49 H        6.5860     6.0530     1.0710 H     1 <1>   0.0800 
@<TRIPOS>BOND
  1   1   2  1   
  2   1  22  1   
  3   2   3  1   
  4   2  23  1   
  5   2  24  1   
  6   3   4  1   
  7   3   5  1   
  8   3   6  1   
  9   4   7  1   
 10   4   8  1   
 11   4  25  1   
 12   5   9  1   
 13   5  26  1   
 14   5  27  1   
 15   6  10  1   
 16   6  28  1   
 17   6  29  1   
 18   7  11  1   
 19   7  12  1   
 20   7  30  1   
 21   8  13  1   
 22   8  31  1   
 23   8  32  1   
 24   9  13  1   
 25   9  33  1   
 26   9  34  1   
 27  10  11  1   
 28  10  35  1   
 29  10  36  1   
 30  11  37  1   
 31  11  38  1   
 32  12  39  1   
 33  12  40  1   
 34  12  41  1   
 35  13  14  1   
 36  14  15  1   
 37  14  42  1   
 38  14  43  1   
 39  15  16  ar  
 40  15  17  ar  
 41  16  18  ar  
 42  17  19  ar  
 43  17  44  1   
 44  18  20  ar  
 45  18  45  1   
 46  19  20  ar  
 47  19  46  1   
 48  20  21  1   
 49  21  47  1   
 50  21  48  1   
 51  21  49  1   
@<TRIPOS>SUBSTRUCTURE
  1 ****  13 GROUP 4 **** **** 0

# MOE 2024.06 (io_trps.svl 2023.06)
