@<TRIPOS>MOLECULE
NONAME
50 53 1 0 0 
SMALL
USER_CHARGES


@<TRIPOS>ATOM
  1 O       -2.0800     3.2070    -1.1640 O.co2 1 <1>  -0.9000 
  2 C       -0.9010     2.8580    -1.0340 C.2   1 <1>   0.9060 
  3 O       -0.0710     3.1160    -1.9110 O.co2 1 <1>  -0.9000 
  4 C       -0.4020     2.3310     0.3120 C.3   1 <1>  -0.1060 
  5 C       -1.4340     2.4010     1.4750 C.3   1 <1>   0.2000 
  6 C        0.7540     3.2690     0.6670 C.3   1 <1>   0.3430 
  7 C        0.0820     0.8610     0.1740 C.3   1 <1>  -0.0650 
  8 O       -2.6780     2.0270     1.0250 O.3   1 <1>  -0.6800 
  9 C       -1.5570     3.7730     2.1560 C.3   1 <1>  -0.1600 
 10 N        0.3260     4.7070     0.8510 N.4   1 <1>  -0.9590 
 11 C        1.4020     0.6800    -0.5890 C.3   1 <1>  -0.1950 
 12 C       -1.1120     4.8940     1.2310 C.3   1 <1>   0.3430 
 13 C        0.6110     5.4730    -0.4010 C.3   1 <1>   0.4810 
 14 C        2.2070    -0.5660    -0.4040 C.3   1 <1>  -0.2000 
 15 C        2.7270     0.7480     0.1050 C.3   1 <1>  -0.2000 
 16 C        0.4840     6.9600    -0.1460 C.2   1 <1>  -0.1240 
 17 C        1.2980     7.5140     0.8890 C.2   1 <1>   0.6160 
 18 C       -0.3570     7.7480    -0.8620 C.2   1 <1>  -0.1780 
 19 O        2.0060     6.8300     1.6090 O.2   1 <1>  -0.5700 
 20 N        1.2330     8.8540     1.1100 N.am  1 <1>  -0.5470 
 21 C       -0.4390     9.1540    -0.6000 C.ar  1 <1>   0.0280 
 22 C        0.3820     9.6990     0.4030 C.ar  1 <1>   0.1170 
 23 C       -1.2960    10.0040    -1.3000 C.ar  1 <1>  -0.1500 
 24 C        0.3290    11.0630     0.6770 C.ar  1 <1>  -0.1500 
 25 C       -1.3410    11.3520    -1.0180 C.ar  1 <1>  -0.1500 
 26 C       -0.5260    11.8840    -0.0270 C.ar  1 <1>  -0.1500 
 27 H       -1.1770     1.6920     2.2440 H     1 <1>   0.0800 
 28 H        1.5010     3.2100    -0.1100 H     1 <1>   0.0800 
 29 H        1.2050     2.9160     1.5790 H     1 <1>   0.0800 
 30 H        0.2040     0.4230     1.1490 H     1 <1>   0.0800 
 31 H       -0.6860     0.2960    -0.3280 H     1 <1>   0.0800 
 32 H       -2.7900     2.4330     0.1110 H     1 <1>   0.4000 
 33 H       -2.5710     3.9400     2.4740 H     1 <1>   0.0800 
 34 H       -0.9380     3.7930     3.0350 H     1 <1>   0.0800 
 35 H        0.9370     5.1420     1.5640 H     1 <1>   0.4500 
 36 H        1.3460     1.0470    -1.6030 H     1 <1>   0.1000 
 37 H       -1.2470     5.8490     1.7110 H     1 <1>   0.0800 
 38 H       -1.7310     4.8740     0.3470 H     1 <1>   0.0800 
 39 H        1.6070     5.2510    -0.7460 H     1 <1>   0.0800 
 40 H       -0.0800     5.1870    -1.1780 H     1 <1>   0.0800 
 41 H        1.8740    -1.3040     0.3050 H     1 <1>   0.1000 
 42 H        2.6680    -1.0080    -1.2710 H     1 <1>   0.1000 
 43 H        3.5560     1.2020    -0.4090 H     1 <1>   0.1000 
 44 H        2.7760     0.8830     1.1710 H     1 <1>   0.1000 
 45 H       -0.9830     7.3540    -1.6470 H     1 <1>   0.1500 
 46 H        1.8380     9.2190     1.8450 H     1 <1>   0.3700 
 47 H       -1.9290     9.5980    -2.0700 H     1 <1>   0.1500 
 48 H        0.9590    11.4780     1.4430 H     1 <1>   0.1500 
 49 H       -2.0060    11.9990    -1.5640 H     1 <1>   0.1500 
 50 H       -0.5660    12.9390     0.1860 H     1 <1>   0.1500 
@<TRIPOS>BOND
  1   1   2  ar  
  2   2   3  ar  
  3   2   4  1   
  4   4   5  1   
  5   4   6  1   
  6   4   7  1   
  7   5   8  1   
  8   5   9  1   
  9   5  27  1   
 10   6  10  1   
 11   6  28  1   
 12   6  29  1   
 13   7  11  1   
 14   7  30  1   
 15   7  31  1   
 16   8  32  1   
 17   9  12  1   
 18   9  33  1   
 19   9  34  1   
 20  10  12  1   
 21  10  13  1   
 22  10  35  1   
 23  11  14  1   
 24  11  15  1   
 25  11  36  1   
 26  12  37  1   
 27  12  38  1   
 28  13  16  1   
 29  13  39  1   
 30  13  40  1   
 31  14  15  1   
 32  14  41  1   
 33  14  42  1   
 34  15  43  1   
 35  15  44  1   
 36  16  17  1   
 37  16  18  2   
 38  17  19  2   
 39  17  20  am  
 40  18  21  1   
 41  18  45  1   
 42  20  22  1   
 43  20  46  1   
 44  21  22  ar  
 45  21  23  ar  
 46  22  24  ar  
 47  23  25  ar  
 48  23  47  1   
 49  24  26  ar  
 50  24  48  1   
 51  25  26  ar  
 52  25  49  1   
 53  26  50  1   
@<TRIPOS>SUBSTRUCTURE
  1 ****  13 GROUP 4 **** **** 0

# MOE 2024.06 (io_trps.svl 2023.06)
