@<TRIPOS>MOLECULE
NONAME
38 39 1 0 0 
SMALL
USER_CHARGES


@<TRIPOS>ATOM
  1 S       -0.2780    -0.0060     0.4070 S.o2  1 <1>   1.3330 
  2 O       -0.0400    -0.7800     1.6050 O.2   1 <1>  -0.6500 
  3 O       -0.9710     1.2580     0.5000 O.2   1 <1>  -0.6500 
  4 N       -1.1140    -0.9950    -0.6920 N.am  1 <1>  -0.8490 
  5 C        1.2750     0.2880    -0.4410 C.3   1 <1>  -0.0550 
  6 C       -0.7910    -2.4200    -0.5570 C.3   1 <1>   0.1160 
  7 C       -2.5660    -0.8040    -0.6200 C.3   1 <1>   0.1160 
  8 C        2.2230     1.2410     0.3150 C.3   1 <1>  -0.0800 
  9 C        3.4150     1.6260    -0.5480 C.3   1 <1>   0.2200 
 10 C        2.8930     0.5570     1.5150 C.3   1 <1>   0.1200 
 11 N        3.9680     2.9110    -0.0670 N.am  1 <1>  -0.7300 
 12 C        4.3970     0.5070    -0.2290 C.3   1 <1>   0.1200 
 13 O        4.1800     0.1890     1.1110 O.3   1 <1>  -0.5600 
 14 C        4.0970     4.0480    -0.8050 C.2   1 <1>   0.7160 
 15 O        3.6910     4.0520    -1.9500 O.2   1 <1>  -0.5700 
 16 C        4.7160     5.2180    -0.2330 C.2   1 <1>  -0.0860 
 17 C        4.9660     6.4110    -0.8360 C.2   1 <1>  -0.0100 
 18 C        5.2030     5.3930     1.0820 C.2   1 <1>  -0.1500 
 19 O        5.5460     7.2530    -0.0150 O.3   1 <1>  -0.2800 
 20 C        5.6920     6.6480     1.1430 C.2   1 <1>  -0.0100 
 21 H        1.7690    -0.6480    -0.6170 H     1 <1>   0.0800 
 22 H        1.0480     0.7210    -1.3970 H     1 <1>   0.0800 
 23 H       -1.2750    -2.9840    -1.3360 H     1 <1>   0.0800 
 24 H       -1.1200    -2.7910     0.4010 H     1 <1>   0.0800 
 25 H        0.2720    -2.5700    -0.6380 H     1 <1>   0.0800 
 26 H       -3.0620    -1.4330    -1.3390 H     1 <1>   0.0800 
 27 H       -2.8150     0.2200    -0.8430 H     1 <1>   0.0800 
 28 H       -2.9260    -1.0400     0.3680 H     1 <1>   0.0800 
 29 H        1.6670     2.1130     0.6180 H     1 <1>   0.0800 
 30 H        3.1840     1.6780    -1.5990 H     1 <1>   0.0800 
 31 H        2.3760    -0.3250     1.8510 H     1 <1>   0.0800 
 32 H        2.9950     1.2420     2.3390 H     1 <1>   0.0800 
 33 H        4.3800     2.8700     0.8650 H     1 <1>   0.3700 
 34 H        5.4230     0.8000    -0.3730 H     1 <1>   0.0800 
 35 H        4.1830    -0.3700    -0.8150 H     1 <1>   0.0800 
 36 H        4.7560     6.7190    -1.8460 H     1 <1>   0.1500 
 37 H        5.1780     4.6570     1.8640 H     1 <1>   0.1500 
 38 H        6.1530     7.1850     1.9540 H     1 <1>   0.1500 
@<TRIPOS>BOND
  1   1   2  2   
  2   1   3  2   
  3   1   4  am  
  4   1   5  1   
  5   4   6  1   
  6   4   7  1   
  7   5   8  1   
  8   5  21  1   
  9   5  22  1   
 10   6  23  1   
 11   6  24  1   
 12   6  25  1   
 13   7  26  1   
 14   7  27  1   
 15   7  28  1   
 16   8   9  1   
 17   8  10  1   
 18   8  29  1   
 19   9  11  1   
 20   9  12  1   
 21   9  30  1   
 22  10  13  1   
 23  10  31  1   
 24  10  32  1   
 25  11  14  am  
 26  11  33  1   
 27  12  13  1   
 28  12  34  1   
 29  12  35  1   
 30  14  15  2   
 31  14  16  1   
 32  16  17  2   
 33  16  18  1   
 34  17  19  1   
 35  17  36  1   
 36  18  20  2   
 37  18  37  1   
 38  19  20  1   
 39  20  38  1   
@<TRIPOS>SUBSTRUCTURE
  1 ****   8 GROUP 4 **** **** 0

# MOE 2024.06 (io_trps.svl 2023.06)
