@<TRIPOS>MOLECULE
NONAME
45 47 1 0 0 
SMALL
USER_CHARGES


@<TRIPOS>ATOM
  1 S       -0.5610    -0.5810     1.5150 S.3   1 <1>  -0.0800 
  2 C       -0.8680     0.8700     0.5830 C.2   1 <1>   0.1980 
  3 C       -1.8890    -1.3540     0.7030 C.2   1 <1>  -0.1100 
  4 N       -1.8470     0.7660    -0.2280 N.2   1 <1>  -0.5650 
  5 C        0.0510     2.0620     0.8450 C.3   1 <1>   0.1000 
  6 C       -2.4330    -0.4900    -0.1690 C.2   1 <1>   0.0460 
  7 C       -0.5940     3.3850     0.4070 C.3   1 <1>  -0.2400 
  8 C        1.3940     1.8740     0.1290 C.3   1 <1>  -0.2400 
  9 C       -3.6180    -0.7380    -1.0940 C.3   1 <1>   0.3210 
 10 N       -3.9860    -2.1740    -1.1150 N.am  1 <1>  -0.7300 
 11 C       -5.1870    -2.6950    -0.7600 C.2   1 <1>   0.5690 
 12 O       -6.1130    -1.9800    -0.4600 O.2   1 <1>  -0.5700 
 13 C       -5.3520    -4.2210    -0.7250 C.3   1 <1>   0.2610 
 14 O       -4.0760    -4.8440    -0.8600 O.3   1 <1>  -0.5600 
 15 C       -6.0910    -4.6510     0.5770 C.3   1 <1>   0.3640 
 16 C       -4.0900    -6.2530    -0.8170 C.3   1 <1>   0.1810 
 17 N       -5.6900    -5.9970     1.0570 N.am  1 <1>  -0.7300 
 18 C       -7.6040    -4.6550     0.3800 C.ar  1 <1>  -0.1440 
 19 C       -4.7750    -6.7780     0.4430 C.2   1 <1>   0.5690 
 20 C       -8.2380    -5.6960    -0.2870 C.ar  1 <1>   0.1600 
 21 C       -8.3780    -3.6150     0.8580 C.ar  1 <1>  -0.1500 
 22 O       -4.5190    -7.8760     0.8640 O.2   1 <1>  -0.5700 
 23 N       -9.5390    -5.7750    -0.5140 N.ar  1 <1>  -0.6200 
 24 C       -9.7350    -3.6820     0.6340 C.ar  1 <1>  -0.1500 
 25 C      -10.2570    -4.7670    -0.0480 C.ar  1 <1>   0.1600 
 26 H       -2.1210    -2.3690     0.9690 H     1 <1>   0.1500 
 27 H        0.2290     2.1140     1.9050 H     1 <1>   0.0800 
 28 H       -0.7800     3.3780    -0.6530 H     1 <1>   0.0800 
 29 H        0.0470     4.2150     0.6430 H     1 <1>   0.0800 
 30 H       -1.5330     3.5200     0.9150 H     1 <1>   0.0800 
 31 H        1.2400     1.8010    -0.9340 H     1 <1>   0.0800 
 32 H        1.8730     0.9720     0.4670 H     1 <1>   0.0800 
 33 H        2.0480     2.7040     0.3300 H     1 <1>   0.0800 
 34 H       -3.3550    -0.4300    -2.0900 H     1 <1>   0.0800 
 35 H       -4.4520    -0.1410    -0.7670 H     1 <1>   0.0800 
 36 H       -3.2260    -2.8280    -1.3240 H     1 <1>   0.3700 
 37 H       -5.9390    -4.5060    -1.5790 H     1 <1>   0.0800 
 38 H       -5.8460    -3.9450     1.3530 H     1 <1>   0.0800 
 39 H       -4.6000    -6.6190    -1.6890 H     1 <1>   0.0800 
 40 H       -3.0710    -6.5940    -0.8370 H     1 <1>   0.0800 
 41 H       -6.1590    -6.3610     1.8890 H     1 <1>   0.3700 
 42 H       -7.6470    -6.5160    -0.6580 H     1 <1>   0.1500 
 43 H       -7.9470    -2.7740     1.3770 H     1 <1>   0.1500 
 44 H      -10.3860    -2.9000     0.9800 H     1 <1>   0.1500 
 45 H      -11.3200    -4.8080    -0.2190 H     1 <1>   0.1500 
@<TRIPOS>BOND
  1   1   2  1   
  2   1   3  1   
  3   2   4  2   
  4   2   5  1   
  5   3   6  2   
  6   3  26  1   
  7   4   6  1   
  8   5   7  1   
  9   5   8  1   
 10   5  27  1   
 11   6   9  1   
 12   7  28  1   
 13   7  29  1   
 14   7  30  1   
 15   8  31  1   
 16   8  32  1   
 17   8  33  1   
 18   9  10  1   
 19   9  34  1   
 20   9  35  1   
 21  10  11  am  
 22  10  36  1   
 23  11  12  2   
 24  11  13  1   
 25  13  14  1   
 26  13  15  1   
 27  13  37  1   
 28  14  16  1   
 29  15  17  1   
 30  15  18  1   
 31  15  38  1   
 32  16  19  1   
 33  16  39  1   
 34  16  40  1   
 35  17  19  am  
 36  17  41  1   
 37  18  20  ar  
 38  18  21  ar  
 39  19  22  2   
 40  20  23  ar  
 41  20  42  1   
 42  21  24  ar  
 43  21  43  1   
 44  23  25  ar  
 45  24  25  ar  
 46  24  44  1   
 47  25  45  1   
@<TRIPOS>SUBSTRUCTURE
  1 ****  11 GROUP 4 **** **** 0

# MOE 2024.06 (io_trps.svl 2023.06)
