@<TRIPOS>MOLECULE
NONAME
52 55 1 0 0 
SMALL
USER_CHARGES


@<TRIPOS>ATOM
  1 O        1.3060    -0.1960    -1.6750 O.2   1 <1>  -0.5700 
  2 C        2.0960    -0.5790    -0.8320 C.2   1 <1>   0.7160 
  3 N        2.8100     0.3520    -0.1070 N.am  1 <1>  -0.6600 
  4 C        2.2780    -1.9920    -0.6080 C.2   1 <1>  -0.0860 
  5 C        3.5600     0.0310     1.1510 C.3   1 <1>   0.1400 
  6 C        2.7780     1.8000    -0.4480 C.3   1 <1>   0.1400 
  7 C        1.4060    -2.9760    -0.2460 C.2   1 <1>  -0.3320 
  8 C        3.4910    -2.6700    -0.7330 C.2   1 <1>   0.1390 
  9 C        5.0850     0.1260     0.9770 C.3   1 <1>   0.1400 
 10 C        3.9140     2.1590    -1.4140 C.3   1 <1>  -0.1600 
 11 N        2.1050    -4.1230    -0.1610 N.pl3 1 <1>   0.3140 
 12 C       -0.0870    -2.8490     0.0150 C.3   1 <1>  -0.0600 
 13 N        3.4010    -3.9300    -0.4540 N.2   1 <1>  -0.7070 
 14 N        5.5110     1.4260     0.3700 N.am  1 <1>  -0.6600 
 15 C        5.2720     1.5160    -1.0990 C.3   1 <1>   0.1400 
 16 C        1.5990    -5.4570     0.1860 C.3   1 <1>   0.0160 
 17 C        6.0620     2.4190     1.1430 C.2   1 <1>   0.5690 
 18 O        6.1370     2.3040     2.3460 O.2   1 <1>  -0.5700 
 19 C        6.5720     3.7180     0.5410 C.3   1 <1>   0.0820 
 20 C        7.8130     3.5170    -0.3060 C.2   1 <1>   0.1080 
 21 N        7.9070     3.9550    -1.5190 N.2   1 <1>  -0.7070 
 22 C        8.9770     2.8530     0.1280 C.ar  1 <1>   0.0000 
 23 N        9.1480     3.5960    -1.9220 N.pl3 1 <1>   0.3000 
 24 C        9.8280     2.9210    -0.9550 C.ar  1 <1>  -0.1520 
 25 C        9.4050     2.2110     1.2990 C.ar  1 <1>  -0.1500 
 26 C       11.1090     2.3600    -0.9150 C.ar  1 <1>  -0.1500 
 27 C       10.6620     1.6570     1.3460 C.ar  1 <1>  -0.1500 
 28 C       11.5170     1.7310     0.2370 C.ar  1 <1>  -0.1500 
 29 H        3.3080    -0.9560     1.4960 H     1 <1>   0.0800 
 30 H        3.2610     0.7170     1.9240 H     1 <1>   0.0800 
 31 H        2.8800     2.3790     0.4540 H     1 <1>   0.0800 
 32 H        1.8310     2.0580    -0.8910 H     1 <1>   0.0800 
 33 H        4.4100    -2.1970    -1.0330 H     1 <1>   0.1500 
 34 H        5.4300    -0.6850     0.3610 H     1 <1>   0.0800 
 35 H        5.5490     0.0010     1.9410 H     1 <1>   0.0800 
 36 H        4.0240     3.2270    -1.4290 H     1 <1>   0.0800 
 37 H        3.6240     1.8670    -2.4080 H     1 <1>   0.0800 
 38 H       -0.4080    -1.8330    -0.1320 H     1 <1>   0.0800 
 39 H       -0.3160    -3.1360     1.0260 H     1 <1>   0.0800 
 40 H       -0.6370    -3.4770    -0.6630 H     1 <1>   0.0800 
 41 H        6.0580     2.0680    -1.5830 H     1 <1>   0.0800 
 42 H        5.2890     0.5230    -1.5150 H     1 <1>   0.0800 
 43 H        1.1540    -5.4220     1.1620 H     1 <1>   0.0800 
 44 H        2.4150    -6.1550     0.1860 H     1 <1>   0.0800 
 45 H        0.8690    -5.7560    -0.5420 H     1 <1>   0.0800 
 46 H        6.8090     4.4020     1.3340 H     1 <1>   0.0800 
 47 H        5.7960     4.1630    -0.0500 H     1 <1>   0.0800 
 48 H        9.5180     3.8270    -2.8510 H     1 <1>   0.2700 
 49 H        8.7450     2.1590     2.1470 H     1 <1>   0.1500 
 50 H       11.7570     2.4240    -1.7710 H     1 <1>   0.1500 
 51 H       11.0030     1.1600     2.2380 H     1 <1>   0.1500 
 52 H       12.4960     1.2890     0.3030 H     1 <1>   0.1500 
@<TRIPOS>BOND
  1   1   2  2   
  2   2   3  am  
  3   2   4  1   
  4   3   5  1   
  5   3   6  1   
  6   4   7  2   
  7   4   8  1   
  8   5   9  1   
  9   5  29  1   
 10   5  30  1   
 11   6  10  1   
 12   6  31  1   
 13   6  32  1   
 14   7  11  1   
 15   7  12  1   
 16   8  13  2   
 17   8  33  1   
 18   9  14  1   
 19   9  34  1   
 20   9  35  1   
 21  10  15  1   
 22  10  36  1   
 23  10  37  1   
 24  11  13  1   
 25  11  16  1   
 26  12  38  1   
 27  12  39  1   
 28  12  40  1   
 29  14  15  1   
 30  14  17  am  
 31  15  41  1   
 32  15  42  1   
 33  16  43  1   
 34  16  44  1   
 35  16  45  1   
 36  17  18  2   
 37  17  19  1   
 38  19  20  1   
 39  19  46  1   
 40  19  47  1   
 41  20  21  2   
 42  20  22  1   
 43  21  23  1   
 44  22  24  ar  
 45  22  25  ar  
 46  23  24  1   
 47  23  48  1   
 48  24  26  ar  
 49  25  27  ar  
 50  25  49  1   
 51  26  28  ar  
 52  26  50  1   
 53  27  28  ar  
 54  27  51  1   
 55  28  52  1   
@<TRIPOS>SUBSTRUCTURE
  1 ****  14 GROUP 4 **** **** 0

# MOE 2024.06 (io_trps.svl 2023.06)
