@<TRIPOS>MOLECULE
NONAME
43 44 1 0 0 
SMALL
USER_CHARGES


@<TRIPOS>ATOM
  1 S       -0.3790    -0.5030     0.2940 S.3   1 <1>  -0.0800 
  2 C       -1.3270    -1.3630    -0.8740 C.2   1 <1>   0.4420 
  3 C       -0.8220     0.9540    -0.5280 C.2   1 <1>   0.1980 
  4 N       -1.8780    -0.5770    -1.7250 N.2   1 <1>  -0.3380 
  5 N       -1.3630    -2.7350    -0.7410 N.am  1 <1>  -0.4940 
  6 N       -1.5840     0.7440    -1.5230 N.2   1 <1>  -0.3380 
  7 C       -0.2800     2.2700    -0.0060 C.3   1 <1>   0.1640 
  8 C       -2.0410    -3.6570    -1.4840 C.2   1 <1>   0.5690 
  9 C        1.2430     2.2700     0.0190 C.ar  1 <1>  -0.1440 
 10 O       -2.7520    -3.3830    -2.4140 O.2   1 <1>  -0.5700 
 11 C       -1.8930    -5.1180    -1.1020 C.3   1 <1>  -0.0990 
 12 C        1.9340     2.3420     1.2200 C.ar  1 <1>  -0.1500 
 13 C        1.9510     2.1920    -1.1700 C.ar  1 <1>  -0.1500 
 14 C       -2.6820    -5.4590     0.1730 C.3   1 <1>  -0.1600 
 15 C        3.3200     2.3340     1.2380 C.ar  1 <1>  -0.1430 
 16 C        3.3340     2.1860    -1.1570 C.ar  1 <1>  -0.1500 
 17 C       -2.6380    -6.9570     0.4750 C.3   1 <1>   0.1400 
 18 C        4.0160     2.2570     0.0440 C.ar  1 <1>  -0.1500 
 19 C        4.0740     2.4130     2.5540 C.3   1 <1>  -0.0970 
 20 N       -3.3760    -7.2080     1.7280 N.am  1 <1>  -0.7300 
 21 C       -4.6350    -7.6690     1.8970 C.2   1 <1>   0.5690 
 22 O       -5.0810    -7.7970     3.0060 O.2   1 <1>  -0.5700 
 23 C       -5.5000    -8.0200     0.7110 C.3   1 <1>  -0.1790 
 24 H       -0.8060    -3.1000     0.0240 H     1 <1>   0.3700 
 25 H       -0.6730     2.4420     0.9790 H     1 <1>   0.0800 
 26 H       -0.6230     3.0670    -0.6400 H     1 <1>   0.0800 
 27 H       -0.8510    -5.3460    -0.9720 H     1 <1>   0.0800 
 28 H       -2.2600    -5.7140    -1.9200 H     1 <1>   0.0800 
 29 H        1.3960     2.4030     2.1490 H     1 <1>   0.1500 
 30 H        1.4300     2.1330    -2.1100 H     1 <1>   0.1500 
 31 H       -3.7090    -5.1610     0.0380 H     1 <1>   0.0800 
 32 H       -2.2770    -4.9140     1.0070 H     1 <1>   0.0800 
 33 H        3.8800     2.1260    -2.0830 H     1 <1>   0.1500 
 34 H       -1.6200    -7.2870     0.5950 H     1 <1>   0.0800 
 35 H       -3.0800    -7.5120    -0.3350 H     1 <1>   0.0800 
 36 H        5.0920     2.2530     0.0450 H     1 <1>   0.1500 
 37 H        3.4620     2.0590     3.3640 H     1 <1>   0.0800 
 38 H        4.3550     3.4320     2.7500 H     1 <1>   0.0800 
 39 H        4.9620     1.8080     2.5110 H     1 <1>   0.0800 
 40 H       -2.8850    -6.9900     2.5980 H     1 <1>   0.3700 
 41 H       -5.5790    -7.1760     0.0530 H     1 <1>   0.0800 
 42 H       -6.4830    -8.2890     1.0490 H     1 <1>   0.0800 
 43 H       -5.0740    -8.8530     0.1850 H     1 <1>   0.0800 
@<TRIPOS>BOND
  1   1   2  1   
  2   1   3  1   
  3   2   4  2   
  4   2   5  1   
  5   3   6  2   
  6   3   7  1   
  7   4   6  1   
  8   5   8  am  
  9   5  24  1   
 10   7   9  1   
 11   7  25  1   
 12   7  26  1   
 13   8  10  2   
 14   8  11  1   
 15   9  12  ar  
 16   9  13  ar  
 17  11  14  1   
 18  11  27  1   
 19  11  28  1   
 20  12  15  ar  
 21  12  29  1   
 22  13  16  ar  
 23  13  30  1   
 24  14  17  1   
 25  14  31  1   
 26  14  32  1   
 27  15  18  ar  
 28  15  19  1   
 29  16  18  ar  
 30  16  33  1   
 31  17  20  1   
 32  17  34  1   
 33  17  35  1   
 34  18  36  1   
 35  19  37  1   
 36  19  38  1   
 37  19  39  1   
 38  20  21  am  
 39  20  40  1   
 40  21  22  2   
 41  21  23  1   
 42  23  41  1   
 43  23  42  1   
 44  23  43  1   
@<TRIPOS>SUBSTRUCTURE
  1 ****   2 GROUP 4 **** **** 0

# MOE 2024.06 (io_trps.svl 2023.06)
