@<TRIPOS>MOLECULE
NONAME
24 24 1 0 0 
SMALL
USER_CHARGES


@<TRIPOS>ATOM
  1 N       -3.3880    -8.8420     1.1210 N.2   1 <1>  -0.7070 
  2 N       -4.5540    -8.7630     0.4610 N.pl3 1 <1>   0.3140 
  3 C       -3.0530    -7.6210     1.3770 C.2   1 <1>   0.1390 
  4 C       -4.9350    -7.4740     0.2950 C.2   1 <1>  -0.3320 
  5 C       -5.2590    -9.9770     0.0240 C.3   1 <1>   0.0160 
  6 C       -3.9780    -6.7130     0.8770 C.2   1 <1>  -0.1810 
  7 C       -6.2200    -7.0660    -0.4130 C.3   1 <1>  -0.0600 
  8 C       -3.8620    -5.2170     0.9850 C.3   1 <1>   0.5240 
  9 N       -3.2000    -4.7870    -0.2610 N.4   1 <1>  -0.9060 
 10 C       -3.0510    -3.3100    -0.3930 C.3   1 <1>   0.2630 
 11 H       -2.1530    -7.3720     1.9170 H     1 <1>   0.1500 
 12 H       -4.6810   -10.8390     0.3030 H     1 <1>   0.0800 
 13 H       -5.3780    -9.9560    -1.0420 H     1 <1>   0.0800 
 14 H       -6.2190   -10.0210     0.5030 H     1 <1>   0.0800 
 15 H       -7.0690    -7.4990     0.0890 H     1 <1>   0.0800 
 16 H       -6.2120    -7.4140    -1.4310 H     1 <1>   0.0800 
 17 H       -6.3420    -5.9990    -0.4160 H     1 <1>   0.0800 
 18 H       -3.2780    -4.9460     1.8500 H     1 <1>   0.0800 
 19 H       -4.8430    -4.7790     1.0650 H     1 <1>   0.0800 
 20 H       -3.7490    -5.1840    -1.0340 H     1 <1>   0.4500 
 21 H       -2.2900    -5.2640    -0.3080 H     1 <1>   0.4500 
 22 H       -4.0170    -2.8310    -0.3720 H     1 <1>   0.0800 
 23 H       -2.5670    -3.0660    -1.3260 H     1 <1>   0.0800 
 24 H       -2.4520    -2.9180     0.4150 H     1 <1>   0.0800 
@<TRIPOS>BOND
  1   1   2  1   
  2   1   3  2   
  3   2   4  1   
  4   2   5  1   
  5   3   6  1   
  6   3  11  1   
  7   4   6  2   
  8   4   7  1   
  9   5  12  1   
 10   5  13  1   
 11   5  14  1   
 12   6   8  1   
 13   7  15  1   
 14   7  16  1   
 15   7  17  1   
 16   8   9  1   
 17   8  18  1   
 18   8  19  1   
 19   9  10  1   
 20   9  20  1   
 21   9  21  1   
 22  10  22  1   
 23  10  23  1   
 24  10  24  1   
@<TRIPOS>SUBSTRUCTURE
  1 ****   6 GROUP 4 **** **** 0

# MOE 2024.06 (io_trps.svl 2023.06)
