@<TRIPOS>MOLECULE
NONAME
52 54 1 0 0 
SMALL
USER_CHARGES


@<TRIPOS>ATOM
  1 O        2.5350     1.9360     0.3310 O.3   1 <1>  -0.0190 
  2 N        2.9540     0.7730    -0.0640 N.2   1 <1>  -0.4100 
  3 C        1.2440     1.9500     0.5310 C.2   1 <1>  -0.0400 
  4 C        1.9180     0.0150    -0.1030 C.2   1 <1>   0.1080 
  5 C        0.7770     0.7200     0.2720 C.2   1 <1>  -0.1500 
  6 C        0.5580     3.2290     0.9730 C.3   1 <1>   0.0200 
  7 C        1.9450    -1.4440    -0.5020 C.3   1 <1>  -0.0590 
  8 C        0.6800     4.3150    -0.1140 C.3   1 <1>  -0.0800 
  9 C       -0.0520     5.6230     0.1900 C.3   1 <1>   0.2000 
 10 C        2.1310     4.7370    -0.3890 C.3   1 <1>   0.3430 
 11 O        0.1870     5.9520     1.5280 O.3   1 <1>  -0.5600 
 12 C        0.6960     6.6210    -0.6930 C.3   1 <1>   0.3430 
 13 N        2.1210     6.2200    -0.5400 N.4   1 <1>  -0.9590 
 14 C       -0.7370     6.8250     2.1040 C.3   1 <1>   0.0400 
 15 C        3.0630     6.7490    -1.5460 C.3   1 <1>   0.4810 
 16 C        3.0620     8.2470    -1.3900 C.2   1 <1>  -0.2880 
 17 C        3.9520     8.9310    -0.6510 C.2   1 <1>  -0.1780 
 18 C        3.9990    10.3600    -0.4330 C.ar  1 <1>   0.0280 
 19 C        4.4890    10.8960     0.7660 C.ar  1 <1>   0.0820 
 20 C        3.5550    11.2430    -1.4160 C.ar  1 <1>  -0.1500 
 21 O        4.9100    10.0240     1.7210 O.3   1 <1>  -0.3630 
 22 C        4.5230    12.2760     0.9530 C.ar  1 <1>  -0.1500 
 23 C        3.5900    12.6110    -1.2240 C.ar  1 <1>  -0.1500 
 24 C        5.4650    10.4610     2.9440 C.3   1 <1>   0.0400 
 25 C        4.0740    13.1290    -0.0380 C.ar  1 <1>  -0.1500 
 26 H       -0.2240     0.3310     0.3250 H     1 <1>   0.1500 
 27 H       -0.4810     3.0230     1.1630 H     1 <1>   0.0800 
 28 H        1.0020     3.5590     1.8960 H     1 <1>   0.0800 
 29 H        1.3240    -1.6000    -1.3650 H     1 <1>   0.0800 
 30 H        1.5830    -2.0500     0.3090 H     1 <1>   0.0800 
 31 H        2.9500    -1.7430    -0.7370 H     1 <1>   0.0800 
 32 H        0.2830     3.9140    -1.0310 H     1 <1>   0.0800 
 33 H       -1.1110     5.5710    -0.0010 H     1 <1>   0.0800 
 34 H        2.4910     4.2510    -1.2820 H     1 <1>   0.0800 
 35 H        2.7640     4.4580     0.4390 H     1 <1>   0.0800 
 36 H        0.5270     7.6360    -0.3750 H     1 <1>   0.0800 
 37 H        0.3860     6.5020    -1.7180 H     1 <1>   0.0800 
 38 H        2.4050     6.6090     0.3730 H     1 <1>   0.4500 
 39 H       -0.4390     7.0040     3.1230 H     1 <1>   0.0800 
 40 H       -1.7130     6.3700     2.0940 H     1 <1>   0.0800 
 41 H       -0.7470     7.7560     1.5650 H     1 <1>   0.0800 
 42 H        4.0530     6.3690    -1.3480 H     1 <1>   0.0800 
 43 H        2.7730     6.4640    -2.5440 H     1 <1>   0.0800 
 44 H        2.2610     8.7290    -1.9210 H     1 <1>   0.1500 
 45 H        4.7340     8.4030    -0.1290 H     1 <1>   0.1500 
 46 H        3.1860    10.8610    -2.3490 H     1 <1>   0.1500 
 47 H        4.8940    12.7090     1.8620 H     1 <1>   0.1500 
 48 H        3.2430    13.2750    -1.9970 H     1 <1>   0.1500 
 49 H        5.7410     9.5930     3.5160 H     1 <1>   0.0800 
 50 H        4.7260    11.0310     3.4790 H     1 <1>   0.0800 
 51 H        6.3380    11.0550     2.7390 H     1 <1>   0.0800 
 52 H        4.1020    14.1950     0.1120 H     1 <1>   0.1500 
@<TRIPOS>BOND
  1   1   2  1   
  2   1   3  1   
  3   2   4  2   
  4   3   5  2   
  5   3   6  1   
  6   4   5  1   
  7   4   7  1   
  8   5  26  1   
  9   6   8  1   
 10   6  27  1   
 11   6  28  1   
 12   7  29  1   
 13   7  30  1   
 14   7  31  1   
 15   8   9  1   
 16   8  10  1   
 17   8  32  1   
 18   9  11  1   
 19   9  12  1   
 20   9  33  1   
 21  10  13  1   
 22  10  34  1   
 23  10  35  1   
 24  11  14  1   
 25  12  13  1   
 26  12  36  1   
 27  12  37  1   
 28  13  15  1   
 29  13  38  1   
 30  14  39  1   
 31  14  40  1   
 32  14  41  1   
 33  15  16  1   
 34  15  42  1   
 35  15  43  1   
 36  16  17  2   
 37  16  44  1   
 38  17  18  1   
 39  17  45  1   
 40  18  19  ar  
 41  18  20  ar  
 42  19  21  1   
 43  19  22  ar  
 44  20  23  ar  
 45  20  46  1   
 46  21  24  1   
 47  22  25  ar  
 48  22  47  1   
 49  23  25  ar  
 50  23  48  1   
 51  24  49  1   
 52  24  50  1   
 53  24  51  1   
 54  25  52  1   
@<TRIPOS>SUBSTRUCTURE
  1 ****  13 GROUP 4 **** **** 0

# MOE 2024.06 (io_trps.svl 2023.06)
