@<TRIPOS>MOLECULE
NONAME
55 58 1 0 0 
SMALL
USER_CHARGES


@<TRIPOS>ATOM
  1 O        1.1950     0.4310     2.4830 O.2   1 <1>  -0.5700 
  2 C        2.0670    -0.0920     1.8300 C.2   1 <1>   0.5410 
  3 C        2.6520     0.5500     0.6890 C.2   1 <1>  -0.1360 
  4 C        2.5890    -1.3840     2.1580 C.2   1 <1>  -0.1360 
  5 C        3.6270     0.0180    -0.0830 C.2   1 <1>  -0.2760 
  6 C        3.5540    -1.9900     1.4440 C.2   1 <1>  -0.2880 
  7 C        4.2160    -1.3910     0.1940 C.3   1 <1>   0.2760 
  8 C        4.2720     0.7450    -1.2700 C.3   1 <1>   0.0580 
  9 C        5.7470    -1.2290     0.4200 C.3   1 <1>  -0.0190 
 10 C        3.8530    -2.3220    -0.9770 C.3   1 <1>  -0.2400 
 11 C        5.7710     0.9030    -0.9930 C.3   1 <1>  -0.1600 
 12 C        3.6600     2.1200    -1.5670 C.3   1 <1>  -0.2400 
 13 C        6.5350    -2.5070     0.7640 C.2   1 <1>   0.4480 
 14 C        6.4480    -0.4550    -0.7370 C.3   1 <1>  -0.0800 
 15 O        6.0610    -3.6020     0.7870 O.2   1 <1>  -0.5700 
 16 C        8.0190    -2.3180     1.0540 C.3   1 <1>  -0.0990 
 17 C        7.9350    -0.2690    -0.3720 C.3   1 <1>  -0.0800 
 18 C        8.6940    -1.5910    -0.1280 C.3   1 <1>   0.0000 
 19 C        8.8490     0.5270    -1.3080 C.3   1 <1>  -0.1600 
 20 C       10.1520    -1.0740     0.0940 C.3   1 <1>   0.3410 
 21 C        8.6260    -2.5290    -1.3750 C.3   1 <1>  -0.2400 
 22 C       10.2760     0.0230    -0.9930 C.3   1 <1>  -0.1600 
 23 O       10.2070    -0.3990     1.3180 O.3   1 <1>  -0.6800 
 24 C       11.2740    -2.1440     0.0920 C.2   1 <1>   0.4480 
 25 O       11.0820    -3.2910     0.3830 O.2   1 <1>  -0.5700 
 26 C       12.6940    -1.6980    -0.2650 C.3   1 <1>   0.1810 
 27 O       13.0820    -0.5280     0.3910 O.3   1 <1>  -0.6800 
 28 H        2.2320     1.5220     0.5150 H     1 <1>   0.1500 
 29 H        2.1430    -1.8380     3.0240 H     1 <1>   0.1500 
 30 H        3.9160    -2.9680     1.7080 H     1 <1>   0.1500 
 31 H        4.1430     0.1520    -2.1590 H     1 <1>   0.0800 
 32 H        5.8290    -0.6120     1.2970 H     1 <1>   0.0800 
 33 H        4.1020    -3.3420    -0.7490 H     1 <1>   0.0800 
 34 H        4.3590    -2.0550    -1.8840 H     1 <1>   0.0800 
 35 H        2.7930    -2.2780    -1.1550 H     1 <1>   0.0800 
 36 H        6.2340     1.3820    -1.8380 H     1 <1>   0.0800 
 37 H        5.9020     1.5410    -0.1360 H     1 <1>   0.0800 
 38 H        3.7850     2.7850    -0.7310 H     1 <1>   0.0800 
 39 H        2.6110     2.0210    -1.7840 H     1 <1>   0.0800 
 40 H        4.1360     2.5610    -2.4250 H     1 <1>   0.0800 
 41 H        6.3760    -1.0230    -1.6460 H     1 <1>   0.0800 
 42 H        8.1190    -1.7570     1.9650 H     1 <1>   0.0800 
 43 H        8.4800    -3.2770     1.2110 H     1 <1>   0.0800 
 44 H        7.9250     0.2810     0.5550 H     1 <1>   0.0800 
 45 H        8.6060     0.3220    -2.3370 H     1 <1>   0.0800 
 46 H        8.7580     1.5860    -1.1340 H     1 <1>   0.0800 
 47 H        7.6220    -2.8270    -1.6100 H     1 <1>   0.0800 
 48 H        9.1680    -3.4400    -1.1960 H     1 <1>   0.0800 
 49 H        9.0400    -2.0720    -2.2550 H     1 <1>   0.0800 
 50 H       10.9250     0.8240    -0.6790 H     1 <1>   0.0800 
 51 H       10.6900    -0.4000    -1.8900 H     1 <1>   0.0800 
 52 H        9.6850     0.4220     1.2520 H     1 <1>   0.4000 
 53 H       12.7760    -1.5280    -1.3230 H     1 <1>   0.0800 
 54 H       13.3870    -2.4740     0.0120 H     1 <1>   0.0800 
 55 H       12.8300    -0.5730     1.3380 H     1 <1>   0.4000 
@<TRIPOS>BOND
  1   1   2  2   
  2   2   3  1   
  3   2   4  1   
  4   3   5  2   
  5   3  28  1   
  6   4   6  2   
  7   4  29  1   
  8   5   7  1   
  9   5   8  1   
 10   6   7  1   
 11   6  30  1   
 12   7   9  1   
 13   7  10  1   
 14   8  11  1   
 15   8  12  1   
 16   8  31  1   
 17   9  13  1   
 18   9  14  1   
 19   9  32  1   
 20  10  33  1   
 21  10  34  1   
 22  10  35  1   
 23  11  14  1   
 24  11  36  1   
 25  11  37  1   
 26  12  38  1   
 27  12  39  1   
 28  12  40  1   
 29  13  15  2   
 30  13  16  1   
 31  14  17  1   
 32  14  41  1   
 33  16  18  1   
 34  16  42  1   
 35  16  43  1   
 36  17  18  1   
 37  17  19  1   
 38  17  44  1   
 39  18  20  1   
 40  18  21  1   
 41  19  22  1   
 42  19  45  1   
 43  19  46  1   
 44  20  22  1   
 45  20  23  1   
 46  20  24  1   
 47  21  47  1   
 48  21  48  1   
 49  21  49  1   
 50  22  50  1   
 51  22  51  1   
 52  23  52  1   
 53  24  25  2   
 54  24  26  1   
 55  26  27  1   
 56  26  53  1   
 57  26  54  1   
 58  27  55  1   
@<TRIPOS>SUBSTRUCTURE
  1 ****  14 GROUP 4 **** **** 0

# MOE 2024.06 (io_trps.svl 2023.06)
