@<TRIPOS>MOLECULE
NONAME
51 52 1 0 0 
SMALL
USER_CHARGES


@<TRIPOS>ATOM
  1 S        1.2550     1.8480    -1.0240 S.o2  1 <1>   1.3330 
  2 O        1.9860     0.6820    -1.4640 O.2   1 <1>  -0.6500 
  3 O        0.4790     2.5930    -1.9900 O.2   1 <1>  -0.6500 
  4 N        2.3770     2.9020    -0.3130 N.am  1 <1>  -0.8490 
  5 C        0.1530     1.3360     0.3080 C.3   1 <1>  -0.0550 
  6 C        2.9650     3.8260    -1.2900 C.3   1 <1>   0.1160 
  7 C        3.4460     2.2230     0.4250 C.3   1 <1>   0.1160 
  8 C       -0.6560     2.3950     1.1000 C.3   1 <1>  -0.0800 
  9 C       -1.4030     3.4240     0.2400 C.3   1 <1>   0.2000 
 10 C        0.1930     3.2300     2.0690 C.3   1 <1>   0.1400 
 11 O       -2.5750     3.7460     0.9070 O.3   1 <1>  -0.6800 
 12 C       -0.5130     4.6680     0.2330 C.3   1 <1>   0.1400 
 13 N        0.2400     4.5990     1.5090 N.am  1 <1>  -0.6600 
 14 C        1.1420     5.5270     1.9550 C.2   1 <1>   0.5690 
 15 O        1.7840     5.3380     2.9640 O.2   1 <1>  -0.5700 
 16 C        1.3540     6.8380     1.2050 C.3   1 <1>   0.1810 
 17 O        1.9760     6.6040    -0.0500 O.3   1 <1>  -0.3630 
 18 C        2.9250     7.4820    -0.4350 C.ar  1 <1>   0.0820 
 19 C        4.1950     7.4970     0.1460 C.ar  1 <1>  -0.1430 
 20 C        2.5930     8.3700    -1.4440 C.ar  1 <1>  -0.1500 
 21 C        5.1150     8.4510    -0.2820 C.ar  1 <1>  -0.1430 
 22 C        4.5750     6.4850     1.2280 C.3   1 <1>  -0.0970 
 23 C        3.5160     9.3040    -1.8700 C.ar  1 <1>  -0.1500 
 24 C        4.7680     9.3440    -1.2860 C.ar  1 <1>  -0.1500 
 25 C        6.5100     8.5520     0.3210 C.3   1 <1>  -0.0970 
 26 H       -0.5590     0.6600    -0.1240 H     1 <1>   0.0800 
 27 H        0.7210     0.7600     1.0110 H     1 <1>   0.0800 
 28 H        3.6620     4.4910    -0.8100 H     1 <1>   0.0800 
 29 H        2.1960     4.4270    -1.7440 H     1 <1>   0.0800 
 30 H        3.4760     3.2780    -2.0640 H     1 <1>   0.0800 
 31 H        4.0580     2.9490     0.9330 H     1 <1>   0.0800 
 32 H        4.0630     1.6490    -0.2470 H     1 <1>   0.0800 
 33 H        3.0270     1.5600     1.1620 H     1 <1>   0.0800 
 34 H       -1.3680     1.8350     1.6820 H     1 <1>   0.0800 
 35 H       -1.6640     3.0770    -0.7450 H     1 <1>   0.0800 
 36 H        1.1890     2.8390     2.1790 H     1 <1>   0.0800 
 37 H       -0.2720     3.2710     3.0390 H     1 <1>   0.0800 
 38 H       -2.3460     4.2040     1.7410 H     1 <1>   0.4000 
 39 H       -1.0960     5.5700     0.1590 H     1 <1>   0.0800 
 40 H        0.1800     4.6310    -0.5880 H     1 <1>   0.0800 
 41 H        1.9750     7.4890     1.7930 H     1 <1>   0.0800 
 42 H        0.4130     7.3210     1.0250 H     1 <1>   0.0800 
 43 H        1.6160     8.3270    -1.8880 H     1 <1>   0.1500 
 44 H        5.5830     6.1400     1.0930 H     1 <1>   0.0800 
 45 H        3.9400     5.6190     1.2000 H     1 <1>   0.0800 
 46 H        4.4880     6.9370     2.1990 H     1 <1>   0.0800 
 47 H        3.2620     9.9990    -2.6520 H     1 <1>   0.1500 
 48 H        5.4760    10.0800    -1.6240 H     1 <1>   0.1500 
 49 H        7.0080     9.4480    -0.0040 H     1 <1>   0.0800 
 50 H        7.1030     7.7080     0.0200 H     1 <1>   0.0800 
 51 H        6.4510     8.5770     1.3950 H     1 <1>   0.0800 
@<TRIPOS>BOND
  1   1   2  2   
  2   1   3  2   
  3   1   4  am  
  4   1   5  1   
  5   4   6  1   
  6   4   7  1   
  7   5   8  1   
  8   5  26  1   
  9   5  27  1   
 10   6  28  1   
 11   6  29  1   
 12   6  30  1   
 13   7  31  1   
 14   7  32  1   
 15   7  33  1   
 16   8   9  1   
 17   8  10  1   
 18   8  34  1   
 19   9  11  1   
 20   9  12  1   
 21   9  35  1   
 22  10  13  1   
 23  10  36  1   
 24  10  37  1   
 25  11  38  1   
 26  12  13  1   
 27  12  39  1   
 28  12  40  1   
 29  13  14  am  
 30  14  15  2   
 31  14  16  1   
 32  16  17  1   
 33  16  41  1   
 34  16  42  1   
 35  17  18  1   
 36  18  19  ar  
 37  18  20  ar  
 38  19  21  ar  
 39  19  22  1   
 40  20  23  ar  
 41  20  43  1   
 42  21  24  ar  
 43  21  25  1   
 44  22  44  1   
 45  22  45  1   
 46  22  46  1   
 47  23  24  ar  
 48  23  47  1   
 49  24  48  1   
 50  25  49  1   
 51  25  50  1   
 52  25  51  1   
@<TRIPOS>SUBSTRUCTURE
  1 ****  17 GROUP 4 **** **** 0

# MOE 2024.06 (io_trps.svl 2023.06)
