@<TRIPOS>MOLECULE
NONAME
49 50 1 0 0 
SMALL
USER_CHARGES


@<TRIPOS>ATOM
  1 F       -2.6870    -1.0090    -1.1750 F     1 <1>  -0.1900 
  2 C       -2.9840     0.1230    -0.5930 C.ar  1 <1>   0.1900 
  3 C       -3.3340     0.1250     0.7490 C.ar  1 <1>  -0.1440 
  4 C       -2.9460     1.2690    -1.3670 C.ar  1 <1>  -0.1500 
  5 C       -3.6420     1.3620     1.2950 C.ar  1 <1>   0.1900 
  6 C       -3.3710    -1.1590     1.5650 C.3   1 <1>   0.2540 
  7 C       -3.2750     2.4880    -0.7820 C.ar  1 <1>   0.0830 
  8 F       -3.9790     1.4390     2.5550 F     1 <1>  -0.1900 
  9 C       -3.6230     2.5320     0.5590 C.ar  1 <1>  -0.1500 
 10 N       -4.5640    -1.9540     1.2050 N.3   1 <1>  -0.8100 
 11 O       -3.2820     3.6640    -1.4530 O.3   1 <1>  -0.3630 
 12 C       -4.3620    -3.3670     1.5800 C.3   1 <1>   0.2900 
 13 C       -5.8180    -1.3730     1.7690 C.3   1 <1>   0.1100 
 14 C       -2.7090     3.7820    -2.7380 C.3   1 <1>   0.0400 
 15 C       -5.3800    -4.2200     0.8560 C.2   1 <1>  -0.3320 
 16 C       -7.0180    -1.5510     0.8170 C.3   1 <1>   0.3430 
 17 N       -6.4140    -4.8460     1.4530 N.pl3 1 <1>   0.0330 
 18 C       -5.4500    -4.5380    -0.4550 C.2   1 <1>   0.0460 
 19 N       -6.5620    -1.4040    -0.5910 N.4   1 <1>  -0.9590 
 20 C       -7.0700    -5.4680     0.4530 C.2   1 <1>   0.0360 
 21 N       -6.5340    -5.2890    -0.7100 N.2   1 <1>  -0.5650 
 22 C       -4.4980    -4.1770    -1.5760 C.3   1 <1>  -0.0590 
 23 C       -6.3690     0.0160    -1.0000 C.3   1 <1>   0.2630 
 24 C       -7.4320    -2.1610    -1.5380 C.3   1 <1>   0.2630 
 25 H       -2.6620     1.1900    -2.3990 H     1 <1>   0.1500 
 26 H       -3.3650    -0.9530     2.6230 H     1 <1>   0.0800 
 27 H       -2.4760    -1.7160     1.3390 H     1 <1>   0.0800 
 28 H       -3.8700     3.4710     1.0200 H     1 <1>   0.1500 
 29 H       -4.4310    -3.4940     2.6480 H     1 <1>   0.0800 
 30 H       -3.3810    -3.6900     1.2690 H     1 <1>   0.0800 
 31 H       -5.6980    -0.3160     1.9260 H     1 <1>   0.0800 
 32 H       -6.0400    -1.8050     2.7300 H     1 <1>   0.0800 
 33 H       -2.7460     4.8180    -3.0260 H     1 <1>   0.0800 
 34 H       -3.2770     3.1910    -3.4340 H     1 <1>   0.0800 
 35 H       -1.6850     3.4530    -2.6970 H     1 <1>   0.0800 
 36 H       -7.7980    -0.8440     1.0470 H     1 <1>   0.0800 
 37 H       -7.4130    -2.5430     0.9550 H     1 <1>   0.0800 
 38 H       -6.6440    -4.8890     2.4510 H     1 <1>   0.2700 
 39 H       -5.6250    -1.8640    -0.5440 H     1 <1>   0.4500 
 40 H       -7.9530    -6.0610     0.6260 H     1 <1>   0.1500 
 41 H       -3.7080    -3.5440    -1.2170 H     1 <1>   0.0800 
 42 H       -5.0240    -3.6740    -2.3640 H     1 <1>   0.0800 
 43 H       -4.0650    -5.0760    -1.9740 H     1 <1>   0.0800 
 44 H       -7.3150     0.5310    -1.0260 H     1 <1>   0.0800 
 45 H       -5.9210     0.0620    -1.9790 H     1 <1>   0.0800 
 46 H       -5.7190     0.5190    -0.3040 H     1 <1>   0.0800 
 47 H       -8.4110    -1.7140    -1.5890 H     1 <1>   0.0800 
 48 H       -7.5370    -3.1830    -1.2140 H     1 <1>   0.0800 
 49 H       -6.9970    -2.1620    -2.5240 H     1 <1>   0.0800 
@<TRIPOS>BOND
  1   1   2  1   
  2   2   3  ar  
  3   2   4  ar  
  4   3   5  ar  
  5   3   6  1   
  6   4   7  ar  
  7   4  25  1   
  8   5   8  1   
  9   5   9  ar  
 10   6  10  1   
 11   6  26  1   
 12   6  27  1   
 13   7   9  ar  
 14   7  11  1   
 15   9  28  1   
 16  10  12  1   
 17  10  13  1   
 18  11  14  1   
 19  12  15  1   
 20  12  29  1   
 21  12  30  1   
 22  13  16  1   
 23  13  31  1   
 24  13  32  1   
 25  14  33  1   
 26  14  34  1   
 27  14  35  1   
 28  15  17  1   
 29  15  18  2   
 30  16  19  1   
 31  16  36  1   
 32  16  37  1   
 33  17  20  1   
 34  17  38  1   
 35  18  21  1   
 36  18  22  1   
 37  19  23  1   
 38  19  24  1   
 39  19  39  1   
 40  20  21  2   
 41  20  40  1   
 42  22  41  1   
 43  22  42  1   
 44  22  43  1   
 45  23  44  1   
 46  23  45  1   
 47  23  46  1   
 48  24  47  1   
 49  24  48  1   
 50  24  49  1   
@<TRIPOS>SUBSTRUCTURE
  1 ****  10 GROUP 4 **** **** 0

# MOE 2024.06 (io_trps.svl 2023.06)
