@<TRIPOS>MOLECULE
NONAME
40 42 1 0 0 
SMALL
USER_CHARGES


@<TRIPOS>ATOM
  1 O       -2.4730     0.9360    -2.3460 O.2   1 <1>  -0.5700 
  2 C       -2.1630     1.0970    -1.1790 C.2   1 <1>   0.5440 
  3 N       -2.1420    -0.0040    -0.3670 N.am  1 <1>  -0.7300 
  4 C       -1.8290     2.4180    -0.6520 C.ar  1 <1>   0.3960 
  5 C       -2.4760    -1.3910    -0.7610 C.3   1 <1>   0.2200 
  6 N       -1.5480     2.5570     0.6560 N.ar  1 <1>  -0.6200 
  7 C       -1.8090     3.5170    -1.5180 C.ar  1 <1>   0.1600 
  8 C       -3.8390    -1.7540    -0.1990 C.3   1 <1>  -0.0800 
  9 C       -1.5570    -2.3740    -0.0380 C.3   1 <1>   0.1200 
 10 C       -1.2640     3.8020     0.9950 C.ar  1 <1>   0.1600 
 11 N       -1.5250     4.7630    -1.1730 N.ar  1 <1>  -0.6200 
 12 C       -3.4800    -2.1870     1.2240 C.3   1 <1>   0.1200 
 13 C       -4.4990    -2.8880    -1.0050 C.3   1 <1>  -0.0160 
 14 O       -2.1810    -2.6990     1.1710 O.3   1 <1>  -0.5600 
 15 C       -1.2520     4.8780     0.1120 C.ar  1 <1>   0.1670 
 16 C       -5.8710    -3.2390    -0.4500 C.ar  1 <1>  -0.1430 
 17 C       -0.9140     6.2740     0.5950 C.3   1 <1>  -0.0970 
 18 C       -6.9700    -2.4320    -0.6660 C.ar  1 <1>  -0.1500 
 19 C       -6.0900    -4.3780     0.2970 C.ar  1 <1>  -0.1500 
 20 C       -8.1980    -2.7900    -0.1360 C.ar  1 <1>   0.1600 
 21 C       -7.3600    -4.6460     0.7820 C.ar  1 <1>   0.1600 
 22 N       -8.4190    -3.8780     0.5850 N.ar  1 <1>  -0.6200 
 23 H       -1.8980     0.1360     0.6190 H     1 <1>   0.3700 
 24 H       -2.4170    -1.4980    -1.8320 H     1 <1>   0.0800 
 25 H       -2.0430     3.3460    -2.5550 H     1 <1>   0.1500 
 26 H       -4.4970    -0.9030    -0.1910 H     1 <1>   0.0800 
 27 H       -0.5830    -1.9600     0.1580 H     1 <1>   0.0800 
 28 H       -1.4570    -3.2840    -0.6030 H     1 <1>   0.0800 
 29 H       -1.0290     3.9820     2.0290 H     1 <1>   0.1500 
 30 H       -4.1400    -2.9360     1.6240 H     1 <1>   0.0800 
 31 H       -3.4650    -1.3370     1.8840 H     1 <1>   0.0800 
 32 H       -3.8740    -3.7630    -1.0000 H     1 <1>   0.0800 
 33 H       -4.6130    -2.5770    -2.0290 H     1 <1>   0.0800 
 34 H       -0.7050     6.2840     1.6480 H     1 <1>   0.0800 
 35 H       -1.7420     6.9320     0.3980 H     1 <1>   0.0800 
 36 H       -0.0530     6.6390     0.0650 H     1 <1>   0.0800 
 37 H       -6.8820    -1.5280    -1.2410 H     1 <1>   0.1500 
 38 H       -5.2860    -5.0600     0.5090 H     1 <1>   0.1500 
 39 H       -9.0430    -2.1480    -0.3140 H     1 <1>   0.1500 
 40 H       -7.5110    -5.5390     1.3640 H     1 <1>   0.1500 
@<TRIPOS>BOND
  1   1   2  2   
  2   2   3  am  
  3   2   4  1   
  4   3   5  1   
  5   3  23  1   
  6   4   6  ar  
  7   4   7  ar  
  8   5   8  1   
  9   5   9  1   
 10   5  24  1   
 11   6  10  ar  
 12   7  11  ar  
 13   7  25  1   
 14   8  12  1   
 15   8  13  1   
 16   8  26  1   
 17   9  14  1   
 18   9  27  1   
 19   9  28  1   
 20  10  15  ar  
 21  10  29  1   
 22  11  15  ar  
 23  12  14  1   
 24  12  30  1   
 25  12  31  1   
 26  13  16  1   
 27  13  32  1   
 28  13  33  1   
 29  15  17  1   
 30  16  18  ar  
 31  16  19  ar  
 32  17  34  1   
 33  17  35  1   
 34  17  36  1   
 35  18  20  ar  
 36  18  37  1   
 37  19  21  ar  
 38  19  38  1   
 39  20  22  ar  
 40  20  39  1   
 41  21  22  ar  
 42  21  40  1   
@<TRIPOS>SUBSTRUCTURE
  1 ****   3 GROUP 4 **** **** 0

# MOE 2024.06 (io_trps.svl 2023.06)
