@<TRIPOS>MOLECULE
NONAME
55 57 1 0 0 
SMALL
USER_CHARGES


@<TRIPOS>ATOM
  1 O       -0.0140     0.1490     0.5150 O.2   1 <1>  -0.5700 
  2 C       -0.0220     1.3530     0.6210 C.2   1 <1>   0.5690 
  3 N       -1.1610     2.0950     0.4450 N.am  1 <1>  -0.6600 
  4 C        1.3030     2.0540     0.9340 C.3   1 <1>   0.1810 
  5 C       -1.1420     3.5890     0.5780 C.3   1 <1>   0.3640 
  6 C       -2.5010     1.4650     0.2640 C.3   1 <1>   0.0600 
  7 O        1.1400     3.3580     1.4370 O.3   1 <1>  -0.5600 
  8 C       -1.8750     4.2320    -0.6100 C.ar  1 <1>  -0.1430 
  9 C        0.2870     4.1720     0.6550 C.3   1 <1>   0.2610 
 10 C       -2.8800     5.1860    -0.4470 C.ar  1 <1>  -0.1430 
 11 C       -1.5030     3.8590    -1.8980 C.ar  1 <1>  -0.1500 
 12 C        0.2170     5.6060     1.2080 C.2   1 <1>   0.5690 
 13 C       -3.4720     5.7530    -1.5660 C.ar  1 <1>  -0.1500 
 14 C       -3.3690     5.6370     0.9240 C.3   1 <1>  -0.0960 
 15 C       -2.1000     4.4290    -3.0060 C.ar  1 <1>  -0.1500 
 16 O       -0.1580     5.7470     2.3520 O.2   1 <1>  -0.5700 
 17 N        0.5370     6.7030     0.4390 N.am  1 <1>  -0.6600 
 18 C       -3.0850     5.3810    -2.8400 C.ar  1 <1>  -0.1500 
 19 C        0.5180     8.0700     1.0360 C.3   1 <1>   0.2840 
 20 C        0.8610     6.6570    -1.0140 C.3   1 <1>   0.1400 
 21 C        1.9410     8.5520     1.2670 C.ar  1 <1>  -0.1430 
 22 C        2.3380     6.3070    -1.2290 C.3   1 <1>  -0.1600 
 23 C        2.4840     9.6210     0.5810 C.ar  1 <1>  -0.1500 
 24 C        2.7670     7.9280     2.1800 C.ar  1 <1>  -0.1500 
 25 C        2.6440     6.0940    -2.7150 C.3   1 <1>  -0.2400 
 26 C        3.7920     9.9990     0.8340 C.ar  1 <1>   0.1600 
 27 C        4.0610     8.3860     2.3570 C.ar  1 <1>   0.1600 
 28 N        4.5940     9.4070     1.7040 N.ar  1 <1>  -0.6200 
 29 H        1.9000     2.1060     0.0430 H     1 <1>   0.0800 
 30 H        1.8360     1.4860     1.6750 H     1 <1>   0.0800 
 31 H       -1.6420     3.8280     1.4990 H     1 <1>   0.0800 
 32 H       -3.1880     1.8500     0.9960 H     1 <1>   0.0800 
 33 H       -2.4380     0.3960     0.3800 H     1 <1>   0.0800 
 34 H       -2.8780     1.6800    -0.7210 H     1 <1>   0.0800 
 35 H        0.7050     4.1860    -0.3300 H     1 <1>   0.0800 
 36 H       -0.7440     3.1110    -2.0470 H     1 <1>   0.1500 
 37 H       -4.2460     6.4920    -1.4550 H     1 <1>   0.1500 
 38 H       -4.2120     6.2980     0.8350 H     1 <1>   0.0800 
 39 H       -2.5920     6.1630     1.4470 H     1 <1>   0.0800 
 40 H       -3.6790     4.7910     1.5100 H     1 <1>   0.0800 
 41 H       -1.8020     4.1290    -3.9960 H     1 <1>   0.1500 
 42 H       -3.5540     5.8300    -3.6980 H     1 <1>   0.1500 
 43 H       -0.0040     8.7420     0.3790 H     1 <1>   0.0800 
 44 H       -0.0070     8.0710     1.9760 H     1 <1>   0.0800 
 45 H        0.2310     5.9350    -1.5030 H     1 <1>   0.0800 
 46 H        0.6500     7.6120    -1.4660 H     1 <1>   0.0800 
 47 H        2.9550     7.1060    -0.8570 H     1 <1>   0.0800 
 48 H        2.5920     5.4130    -0.6870 H     1 <1>   0.0800 
 49 H        1.9070    10.1600    -0.1470 H     1 <1>   0.1500 
 50 H        2.4100     7.0870     2.7490 H     1 <1>   0.1500 
 51 H        2.4270     6.9860    -3.2760 H     1 <1>   0.0800 
 52 H        2.0590     5.2820    -3.1100 H     1 <1>   0.0800 
 53 H        3.6860     5.8570    -2.8430 H     1 <1>   0.0800 
 54 H        4.2010    10.8340     0.2910 H     1 <1>   0.1500 
 55 H        4.6900     7.8850     3.0730 H     1 <1>   0.1500 
@<TRIPOS>BOND
  1   1   2  2   
  2   2   3  am  
  3   2   4  1   
  4   3   5  1   
  5   3   6  1   
  6   4   7  1   
  7   4  29  1   
  8   4  30  1   
  9   5   8  1   
 10   5   9  1   
 11   5  31  1   
 12   6  32  1   
 13   6  33  1   
 14   6  34  1   
 15   7   9  1   
 16   8  10  ar  
 17   8  11  ar  
 18   9  12  1   
 19   9  35  1   
 20  10  13  ar  
 21  10  14  1   
 22  11  15  ar  
 23  11  36  1   
 24  12  16  2   
 25  12  17  am  
 26  13  18  ar  
 27  13  37  1   
 28  14  38  1   
 29  14  39  1   
 30  14  40  1   
 31  15  18  ar  
 32  15  41  1   
 33  17  19  1   
 34  17  20  1   
 35  18  42  1   
 36  19  21  1   
 37  19  43  1   
 38  19  44  1   
 39  20  22  1   
 40  20  45  1   
 41  20  46  1   
 42  21  23  ar  
 43  21  24  ar  
 44  22  25  1   
 45  22  47  1   
 46  22  48  1   
 47  23  26  ar  
 48  23  49  1   
 49  24  27  ar  
 50  24  50  1   
 51  25  51  1   
 52  25  52  1   
 53  25  53  1   
 54  26  28  ar  
 55  26  54  1   
 56  27  28  ar  
 57  27  55  1   
@<TRIPOS>SUBSTRUCTURE
  1 ****  12 GROUP 4 **** **** 0

# MOE 2024.06 (io_trps.svl 2023.06)
