@<TRIPOS>MOLECULE
NONAME
46 47 1 0 0 
SMALL
USER_CHARGES


@<TRIPOS>ATOM
  1 F       -0.0370    -1.4090     0.2820 F     1 <1>  -0.3400 
  2 C       -0.9670    -0.6810    -0.3250 C.3   1 <1>   1.0200 
  3 F       -1.6020    -1.5040    -1.1490 F     1 <1>  -0.3400 
  4 F       -1.8440    -0.3360     0.6100 F     1 <1>  -0.3400 
  5 C       -0.3740     0.5410    -1.0860 C.3   1 <1>   0.1100 
  6 N        0.1970     1.6900    -0.2990 N.3   1 <1>  -0.8100 
  7 C        0.4850     2.8460    -1.1800 C.3   1 <1>   0.1100 
  8 C        1.3980     1.3120     0.4910 C.3   1 <1>   0.1100 
  9 C        1.0250     4.0570    -0.3930 C.3   1 <1>   0.3430 
 10 C        1.9710     2.4970     1.2930 C.3   1 <1>   0.3430 
 11 N        2.2220     3.6780     0.4110 N.4   1 <1>  -0.9590 
 12 C        2.8180     4.8400     1.1810 C.3   1 <1>   0.4600 
 13 C        3.1280     5.9580     0.1890 C.ar  1 <1>  -0.1430 
 14 C        4.0580     4.4910     2.0530 C.2   1 <1>   0.9060 
 15 C        3.8960     5.7490    -0.9530 C.ar  1 <1>   0.0820 
 16 C        2.6300     7.2290     0.4310 C.ar  1 <1>   0.0820 
 17 O        4.7160     3.4740     1.7730 O.co2 1 <1>  -0.9000 
 18 O        4.3080     5.1700     3.0540 O.co2 1 <1>  -0.9000 
 19 O        4.3740     4.5180    -1.2350 O.3   1 <1>  -0.3630 
 20 C        4.1530     6.7920    -1.8320 C.ar  1 <1>  -0.1500 
 21 O        1.8710     7.4510     1.5230 O.3   1 <1>  -0.3620 
 22 C        2.8830     8.2730    -0.4460 C.ar  1 <1>  -0.1500 
 23 C        5.7620     4.3360    -1.0350 C.3   1 <1>   0.0400 
 24 C        3.6480     8.0550    -1.5780 C.ar  1 <1>  -0.1500 
 25 C        2.5320     8.0640     2.6100 C.3   1 <1>   0.0400 
 26 H       -1.1770     0.9240    -1.6890 H     1 <1>   0.0800 
 27 H        0.3780     0.1680    -1.7580 H     1 <1>   0.0800 
 28 H       -0.4200     3.1450    -1.6820 H     1 <1>   0.0800 
 29 H        1.2050     2.5670    -1.9310 H     1 <1>   0.0800 
 30 H        2.1650     0.9280    -0.1600 H     1 <1>   0.0800 
 31 H        1.1430     0.5400     1.1950 H     1 <1>   0.0800 
 32 H        0.2520     4.4220     0.2600 H     1 <1>   0.0800 
 33 H        1.2820     4.8450    -1.0820 H     1 <1>   0.0800 
 34 H        2.8890     2.1870     1.7690 H     1 <1>   0.0800 
 35 H        1.2710     2.7650     2.0660 H     1 <1>   0.0800 
 36 H        3.0060     3.4330    -0.2180 H     1 <1>   0.4500 
 37 H        2.0790     5.2010     1.8720 H     1 <1>   0.0800 
 38 H        4.7440     6.6120    -2.7120 H     1 <1>   0.1500 
 39 H        2.4800     9.2480    -0.2400 H     1 <1>   0.1500 
 40 H        5.9770     3.2840    -1.0890 H     1 <1>   0.0800 
 41 H        6.0320     4.7070    -0.0610 H     1 <1>   0.0800 
 42 H        6.3010     4.8670    -1.7990 H     1 <1>   0.0800 
 43 H        3.8480     8.8640    -2.2590 H     1 <1>   0.1500 
 44 H        1.8560     8.0940     3.4460 H     1 <1>   0.0800 
 45 H        2.8190     9.0620     2.3300 H     1 <1>   0.0800 
 46 H        3.4040     7.4870     2.8680 H     1 <1>   0.0800 
@<TRIPOS>BOND
  1   1   2  1   
  2   2   3  1   
  3   2   4  1   
  4   2   5  1   
  5   5   6  1   
  6   5  26  1   
  7   5  27  1   
  8   6   7  1   
  9   6   8  1   
 10   7   9  1   
 11   7  28  1   
 12   7  29  1   
 13   8  10  1   
 14   8  30  1   
 15   8  31  1   
 16   9  11  1   
 17   9  32  1   
 18   9  33  1   
 19  10  11  1   
 20  10  34  1   
 21  10  35  1   
 22  11  12  1   
 23  11  36  1   
 24  12  13  1   
 25  12  14  1   
 26  12  37  1   
 27  13  15  ar  
 28  13  16  ar  
 29  14  17  ar  
 30  14  18  ar  
 31  15  19  1   
 32  15  20  ar  
 33  16  21  1   
 34  16  22  ar  
 35  19  23  1   
 36  20  24  ar  
 37  20  38  1   
 38  21  25  1   
 39  22  24  ar  
 40  22  39  1   
 41  23  40  1   
 42  23  41  1   
 43  23  42  1   
 44  24  43  1   
 45  25  44  1   
 46  25  45  1   
 47  25  46  1   
@<TRIPOS>SUBSTRUCTURE
  1 ****  11 GROUP 4 **** **** 0

# MOE 2024.06 (io_trps.svl 2023.06)
