@<TRIPOS>MOLECULE
NONAME
52 55 1 0 0 
SMALL
USER_CHARGES


@<TRIPOS>ATOM
  1 O       -1.8150     1.1430    -1.2740 O.2   1 <1>  -0.5700 
  2 C       -2.5710     1.4220    -0.3620 C.2   1 <1>   0.6900 
  3 N       -3.2040     0.4420     0.3490 N.am  1 <1>  -0.6600 
  4 N       -2.7280     2.7390    -0.0210 N.am  1 <1>  -0.6600 
  5 C       -2.8690    -1.0060     0.1480 C.3   1 <1>   0.1400 
  6 C       -4.5730     0.6350     0.9220 C.3   1 <1>   0.1400 
  7 C       -2.2630     3.1550     1.3300 C.3   1 <1>   0.1400 
  8 C       -2.4830     3.7700    -1.0700 C.3   1 <1>   0.1400 
  9 C       -4.0040    -1.7460    -0.5850 C.3   1 <1>   0.3440 
 10 C       -5.6170    -0.1980     0.1500 C.3   1 <1>   0.2950 
 11 C       -0.7620     3.5160     1.2810 C.3   1 <1>   0.3430 
 12 C       -0.9830     4.1190    -1.1260 C.3   1 <1>   0.3430 
 13 O       -5.2210    -1.5360     0.0820 O.3   1 <1>  -0.5600 
 14 C       -3.7070    -3.2420    -0.6580 C.ar  1 <1>  -0.1440 
 15 C       -6.9840    -0.1570     0.8380 C.3   1 <1>  -0.1950 
 16 N       -0.4500     4.5460     0.2210 N.4   1 <1>  -0.9590 
 17 C       -4.1310    -4.1190     0.3310 C.ar  1 <1>  -0.1500 
 18 C       -2.9820    -3.7400    -1.7320 C.ar  1 <1>  -0.1500 
 19 C       -8.2400    -0.4520     0.0800 C.3   1 <1>  -0.2000 
 20 C       -7.9600     0.9440     0.5600 C.3   1 <1>  -0.2000 
 21 C        1.0200     4.8000     0.1450 C.3   1 <1>   0.2630 
 22 C       -3.8360    -5.4690     0.2500 C.ar  1 <1>  -0.1500 
 23 C       -2.6860    -5.0900    -1.8150 C.ar  1 <1>  -0.1500 
 24 C       -3.1120    -5.9550    -0.8240 C.ar  1 <1>  -0.1500 
 25 H       -1.9590    -1.1130    -0.4150 H     1 <1>   0.0800 
 26 H       -2.7140    -1.4710     1.1050 H     1 <1>   0.0800 
 27 H       -4.5710     0.3290     1.9540 H     1 <1>   0.0800 
 28 H       -4.8610     1.6700     0.8830 H     1 <1>   0.0800 
 29 H       -2.8400     3.9970     1.6690 H     1 <1>   0.0800 
 30 H       -2.4090     2.3510     2.0320 H     1 <1>   0.0800 
 31 H       -2.7960     3.3910    -2.0290 H     1 <1>   0.0800 
 32 H       -3.0650     4.6500    -0.8580 H     1 <1>   0.0800 
 33 H       -4.1020    -1.3580    -1.5840 H     1 <1>   0.0800 
 34 H       -5.7110     0.1760    -0.8550 H     1 <1>   0.0800 
 35 H       -0.2090     2.6140     1.0770 H     1 <1>   0.0800 
 36 H       -0.4550     3.8800     2.2480 H     1 <1>   0.0800 
 37 H       -0.8280     4.9020    -1.8500 H     1 <1>   0.0800 
 38 H       -0.4510     3.2440    -1.4660 H     1 <1>   0.0800 
 39 H       -6.9350    -0.5210     1.8500 H     1 <1>   0.1000 
 40 H       -0.9260     5.4210     0.4810 H     1 <1>   0.4500 
 41 H       -4.6990    -3.7520     1.1700 H     1 <1>   0.1500 
 42 H       -2.6430    -3.0800    -2.5110 H     1 <1>   0.1500 
 43 H       -8.1670    -0.6740    -0.9710 H     1 <1>   0.1000 
 44 H       -9.0050    -1.0320     0.5680 H     1 <1>   0.1000 
 45 H       -8.5520     1.3340     1.3700 H     1 <1>   0.1000 
 46 H       -7.7290     1.6930    -0.1780 H     1 <1>   0.1000 
 47 H        1.5410     3.8970    -0.1310 H     1 <1>   0.0800 
 48 H        1.3940     5.1350     1.1000 H     1 <1>   0.0800 
 49 H        1.2330     5.5580    -0.5910 H     1 <1>   0.0800 
 50 H       -4.1720    -6.1390     1.0220 H     1 <1>   0.1500 
 51 H       -2.1230    -5.4660    -2.6520 H     1 <1>   0.1500 
 52 H       -2.8820    -7.0050    -0.8880 H     1 <1>   0.1500 
@<TRIPOS>BOND
  1   1   2  2   
  2   2   3  am  
  3   2   4  am  
  4   3   5  1   
  5   3   6  1   
  6   4   7  1   
  7   4   8  1   
  8   5   9  1   
  9   5  25  1   
 10   5  26  1   
 11   6  10  1   
 12   6  27  1   
 13   6  28  1   
 14   7  11  1   
 15   7  29  1   
 16   7  30  1   
 17   8  12  1   
 18   8  31  1   
 19   8  32  1   
 20   9  13  1   
 21   9  14  1   
 22   9  33  1   
 23  10  13  1   
 24  10  15  1   
 25  10  34  1   
 26  11  16  1   
 27  11  35  1   
 28  11  36  1   
 29  12  16  1   
 30  12  37  1   
 31  12  38  1   
 32  14  17  ar  
 33  14  18  ar  
 34  15  19  1   
 35  15  20  1   
 36  15  39  1   
 37  16  21  1   
 38  16  40  1   
 39  17  22  ar  
 40  17  41  1   
 41  18  23  ar  
 42  18  42  1   
 43  19  20  1   
 44  19  43  1   
 45  19  44  1   
 46  20  45  1   
 47  20  46  1   
 48  21  47  1   
 49  21  48  1   
 50  21  49  1   
 51  22  24  ar  
 52  22  50  1   
 53  23  24  ar  
 54  23  51  1   
 55  24  52  1   
@<TRIPOS>SUBSTRUCTURE
  1 ****   3 GROUP 4 **** **** 0

# MOE 2024.06 (io_trps.svl 2023.06)
