@<TRIPOS>MOLECULE
NONAME
50 52 1 0 0 
SMALL
USER_CHARGES


@<TRIPOS>ATOM
  1 O        1.0290     0.9970    -0.7090 O.2   1 <1>  -0.5700 
  2 C        1.8850     0.1500    -0.5360 C.2   1 <1>   0.5440 
  3 N        1.5650    -1.1780    -0.7330 N.am  1 <1>  -0.6600 
  4 C        3.2180     0.5610    -0.1370 C.ar  1 <1>   0.0860 
  5 C        0.1530    -1.6320    -0.8620 C.3   1 <1>   0.1400 
  6 C        2.5730    -2.2500    -0.9630 C.3   1 <1>   0.1400 
  7 C        3.8230     0.0530     1.0120 C.ar  1 <1>  -0.1500 
  8 C        3.9380     1.4840    -0.8910 C.ar  1 <1>  -0.1500 
  9 C       -0.1070    -2.7800     0.1210 C.3   1 <1>  -0.1600 
 10 C        2.3400    -3.3960     0.0270 C.3   1 <1>  -0.1600 
 11 C        5.0980     0.4360     1.3850 C.ar  1 <1>  -0.1500 
 12 C        5.2130     1.8700    -0.5240 C.ar  1 <1>  -0.1500 
 13 C        0.9010    -3.9250    -0.0570 C.3   1 <1>  -0.1600 
 14 C        5.8060     1.3470     0.6160 C.ar  1 <1>  -0.1430 
 15 C        7.2030     1.7900     1.0160 C.3   1 <1>   0.3530 
 16 N        7.1370     3.2250     1.3300 N.pl3 1 <1>  -0.8690 
 17 C        7.8580     4.0960     0.5320 C.ar  1 <1>   0.4100 
 18 N        9.1460     3.8410     0.3960 N.ar  1 <1>  -0.6200 
 19 C        7.1900     5.1920    -0.1060 C.ar  1 <1>   0.4100 
 20 C        9.7460     4.7270    -0.3900 C.ar  1 <1>   0.1600 
 21 N        7.8100     6.0530    -0.8940 N.ar  1 <1>  -0.6200 
 22 N        5.8160     5.3990     0.0880 N.pl3 1 <1>  -0.8380 
 23 C        9.1060     5.7860    -1.0090 C.ar  1 <1>   0.1600 
 24 C        5.4450     6.0800     1.3550 C.3   1 <1>   0.1290 
 25 C        5.0110     5.8450    -1.0820 C.3   1 <1>   0.1290 
 26 H       -0.0190    -1.9630    -1.8710 H     1 <1>   0.0800 
 27 H       -0.5270    -0.8230    -0.6540 H     1 <1>   0.0800 
 28 H        3.5750    -1.8720    -0.8590 H     1 <1>   0.0800 
 29 H        2.4630    -2.6150    -1.9690 H     1 <1>   0.0800 
 30 H        3.2760    -0.6480     1.6170 H     1 <1>   0.1500 
 31 H        3.4820     1.9020    -1.7710 H     1 <1>   0.1500 
 32 H       -1.1060    -3.1500    -0.0250 H     1 <1>   0.0800 
 33 H       -0.0460    -2.3940     1.1230 H     1 <1>   0.0800 
 34 H        2.5390    -3.0440     1.0240 H     1 <1>   0.0800 
 35 H        3.0300    -4.1930    -0.1840 H     1 <1>   0.0800 
 36 H        5.5360     0.0280     2.2800 H     1 <1>   0.1500 
 37 H        5.7460     2.5910    -1.1230 H     1 <1>   0.1500 
 38 H        0.7470    -4.3880    -1.0170 H     1 <1>   0.0800 
 39 H        0.7410    -4.6710     0.7020 H     1 <1>   0.0800 
 40 H        7.8910     1.6030     0.2080 H     1 <1>   0.0800 
 41 H        7.5440     1.2550     1.8850 H     1 <1>   0.0800 
 42 H        6.1520     3.5180     1.2930 H     1 <1>   0.4000 
 43 H       10.8020     4.5960    -0.5450 H     1 <1>   0.1500 
 44 H        9.6820     6.4490    -1.6290 H     1 <1>   0.1500 
 45 H        6.1050     5.7740     2.1490 H     1 <1>   0.0800 
 46 H        4.4350     5.8230     1.6250 H     1 <1>   0.0800 
 47 H        5.5220     7.1460     1.2330 H     1 <1>   0.0800 
 48 H        5.3590     5.3540    -1.9740 H     1 <1>   0.0800 
 49 H        5.1090     6.9090    -1.2120 H     1 <1>   0.0800 
 50 H        3.9750     5.5960    -0.9300 H     1 <1>   0.0800 
@<TRIPOS>BOND
  1   1   2  2   
  2   2   3  am  
  3   2   4  1   
  4   3   5  1   
  5   3   6  1   
  6   4   7  ar  
  7   4   8  ar  
  8   5   9  1   
  9   5  26  1   
 10   5  27  1   
 11   6  10  1   
 12   6  28  1   
 13   6  29  1   
 14   7  11  ar  
 15   7  30  1   
 16   8  12  ar  
 17   8  31  1   
 18   9  13  1   
 19   9  32  1   
 20   9  33  1   
 21  10  13  1   
 22  10  34  1   
 23  10  35  1   
 24  11  14  ar  
 25  11  36  1   
 26  12  14  ar  
 27  12  37  1   
 28  13  38  1   
 29  13  39  1   
 30  14  15  1   
 31  15  16  1   
 32  15  40  1   
 33  15  41  1   
 34  16  17  1   
 35  16  42  1   
 36  17  18  ar  
 37  17  19  ar  
 38  18  20  ar  
 39  19  21  ar  
 40  19  22  1   
 41  20  23  ar  
 42  20  43  1   
 43  21  23  ar  
 44  22  24  1   
 45  22  25  1   
 46  23  44  1   
 47  24  45  1   
 48  24  46  1   
 49  24  47  1   
 50  25  48  1   
 51  25  49  1   
 52  25  50  1   
@<TRIPOS>SUBSTRUCTURE
  1 ****  12 GROUP 4 **** **** 0

# MOE 2024.06 (io_trps.svl 2023.06)
