@<TRIPOS>MOLECULE
NONAME
44 46 1 0 0 
SMALL
USER_CHARGES


@<TRIPOS>ATOM
  1 O       -0.0190    -0.0080    -1.0190 O.2   1 <1>  -0.5700 
  2 C       -1.0070     0.6800    -0.9380 C.2   1 <1>   0.5690 
  3 N       -2.2550     0.1340    -0.8040 N.am  1 <1>  -0.6600 
  4 C       -0.8220     2.1840    -0.9690 C.3   1 <1>  -0.0990 
  5 C       -3.5350     0.8610    -0.6330 C.3   1 <1>   0.1400 
  6 C       -2.4780    -1.3310    -0.7500 C.3   1 <1>   0.1400 
  7 C       -0.5660     2.7310     0.4380 C.3   1 <1>   0.0200 
  8 C       -4.5890    -0.2240    -0.4000 C.3   1 <1>   0.2000 
  9 C       -3.8220    -1.4950    -0.0390 C.3   1 <1>  -0.0800 
 10 C       -0.4230     4.2440     0.4090 C.2   1 <1>  -0.3320 
 11 O       -5.4430     0.1200     0.6370 O.3   1 <1>  -0.6800 
 12 C       -4.5880    -2.7740    -0.4210 C.3   1 <1>  -0.0170 
 13 N       -1.4410     5.1350     0.3570 N.pl3 1 <1>   0.3140 
 14 C        0.7190     4.9630     0.4320 C.2   1 <1>  -0.1500 
 15 C       -3.8290    -4.0310    -0.0240 C.ar  1 <1>   0.1670 
 16 N       -0.9840     6.3980     0.3390 N.2   1 <1>  -0.7070 
 17 C       -2.8840     4.8630     0.3320 C.3   1 <1>   0.0160 
 18 C        0.3070     6.2880     0.3850 C.2   1 <1>   0.1390 
 19 N       -2.8790    -4.4320    -0.8530 N.ar  1 <1>  -0.6200 
 20 C       -4.1480    -4.6950     1.1600 C.ar  1 <1>   0.1600 
 21 C       -2.2720    -5.5250    -0.4210 C.ar  1 <1>   0.1600 
 22 N       -3.5420    -5.7880     1.5930 N.ar  1 <1>  -0.6200 
 23 C       -2.5920    -6.1800     0.7620 C.ar  1 <1>   0.1600 
 24 H        0.0260     2.4090    -1.5900 H     1 <1>   0.0800 
 25 H       -1.6760     2.6560    -1.4120 H     1 <1>   0.0800 
 26 H       -3.4670     1.5200     0.2140 H     1 <1>   0.0800 
 27 H       -3.7650     1.4180    -1.5240 H     1 <1>   0.0800 
 28 H       -2.5230    -1.7160    -1.7550 H     1 <1>   0.0800 
 29 H       -1.6840    -1.8280    -0.2180 H     1 <1>   0.0800 
 30 H        0.3440     2.2970     0.8160 H     1 <1>   0.0800 
 31 H       -1.3600     2.4470     1.1050 H     1 <1>   0.0800 
 32 H       -5.1770    -0.3560    -1.2930 H     1 <1>   0.0800 
 33 H       -3.6170    -1.5050     1.0170 H     1 <1>   0.0800 
 34 H       -4.9550     0.1570     1.4830 H     1 <1>   0.4000 
 35 H       -4.7640    -2.7950    -1.4820 H     1 <1>   0.0800 
 36 H       -5.5480    -2.7680     0.0640 H     1 <1>   0.0800 
 37 H        1.7370     4.6190     0.4740 H     1 <1>   0.1500 
 38 H       -3.1290     4.1730     1.1160 H     1 <1>   0.0800 
 39 H       -3.1490     4.4530    -0.6230 H     1 <1>   0.0800 
 40 H       -3.4160     5.7830     0.4860 H     1 <1>   0.0800 
 41 H        0.9740     7.1330     0.3870 H     1 <1>   0.1500 
 42 H       -4.9380    -4.3040     1.7770 H     1 <1>   0.1500 
 43 H       -1.4820    -5.9230    -1.0330 H     1 <1>   0.1500 
 44 H       -2.0400    -7.0640     1.0290 H     1 <1>   0.1500 
@<TRIPOS>BOND
  1   1   2  2   
  2   2   3  am  
  3   2   4  1   
  4   3   5  1   
  5   3   6  1   
  6   4   7  1   
  7   4  24  1   
  8   4  25  1   
  9   5   8  1   
 10   5  26  1   
 11   5  27  1   
 12   6   9  1   
 13   6  28  1   
 14   6  29  1   
 15   7  10  1   
 16   7  30  1   
 17   7  31  1   
 18   8   9  1   
 19   8  11  1   
 20   8  32  1   
 21   9  12  1   
 22   9  33  1   
 23  10  13  1   
 24  10  14  2   
 25  11  34  1   
 26  12  15  1   
 27  12  35  1   
 28  12  36  1   
 29  13  16  1   
 30  13  17  1   
 31  14  18  1   
 32  14  37  1   
 33  15  19  ar  
 34  15  20  ar  
 35  16  18  2   
 36  17  38  1   
 37  17  39  1   
 38  17  40  1   
 39  18  41  1   
 40  19  21  ar  
 41  20  22  ar  
 42  20  42  1   
 43  21  23  ar  
 44  21  43  1   
 45  22  23  ar  
 46  23  44  1   
@<TRIPOS>SUBSTRUCTURE
  1 ****   3 GROUP 4 **** **** 0

# MOE 2024.06 (io_trps.svl 2023.06)
