@<TRIPOS>MOLECULE
NONAME
44 45 1 0 0 
SMALL
USER_CHARGES


@<TRIPOS>ATOM
  1 O       -0.5040    -1.6430     1.1750 O.3   1 <1>  -0.3630 
  2 C       -1.6880    -1.4910     0.5340 C.ar  1 <1>   0.0820 
  3 C        0.0650    -0.5980     1.9330 C.3   1 <1>   0.0400 
  4 C       -2.4790    -0.3500     0.6210 C.ar  1 <1>  -0.1500 
  5 C       -2.1040    -2.5610    -0.2400 C.ar  1 <1>  -0.1500 
  6 C       -3.6840    -0.2930    -0.0710 C.ar  1 <1>   0.0820 
  7 C       -3.3090    -2.5140    -0.9240 C.ar  1 <1>  -0.1430 
  8 O       -4.5210     0.7730    -0.0500 O.3   1 <1>  -0.3630 
  9 C       -4.0900    -1.3730    -0.8390 C.ar  1 <1>  -0.1500 
 10 C       -3.7720    -3.7020    -1.7410 C.3   1 <1>   0.4860 
 11 C       -4.1790     1.9670     0.6210 C.3   1 <1>   0.0400 
 12 N       -4.8030    -4.4270    -0.9550 N.4   1 <1>  -0.9590 
 13 C       -4.2250    -4.9660     0.3370 C.3   1 <1>   0.3430 
 14 C       -5.4720    -5.4840    -1.7600 C.3   1 <1>   0.3430 
 15 C       -4.9530    -6.2170     0.8850 C.3   1 <1>   0.2000 
 16 C       -6.6740    -6.0410    -0.9860 C.3   1 <1>  -0.1600 
 17 O       -4.3980    -7.3430     0.2840 O.3   1 <1>  -0.6800 
 18 C       -6.4530    -6.1460     0.5460 C.3   1 <1>  -0.0800 
 19 C       -7.2570    -7.2950     1.1720 C.3   1 <1>   0.1200 
 20 O       -8.5950    -7.0830     0.8980 O.3   1 <1>  -0.6800 
 21 H        1.0100    -0.9400     2.3170 H     1 <1>   0.0800 
 22 H       -0.5930    -0.3580     2.7490 H     1 <1>   0.0800 
 23 H        0.2180     0.2540     1.2950 H     1 <1>   0.0800 
 24 H       -2.1630     0.4800     1.2190 H     1 <1>   0.1500 
 25 H       -1.4630    -3.4230    -0.2920 H     1 <1>   0.1500 
 26 H       -5.0250    -1.2920    -1.3650 H     1 <1>   0.1500 
 27 H       -2.9400    -4.3530    -1.9560 H     1 <1>   0.0800 
 28 H       -4.1880    -3.3550    -2.6730 H     1 <1>   0.0800 
 29 H       -4.9740     2.6750     0.4690 H     1 <1>   0.0800 
 30 H       -3.2640     2.3520     0.2070 H     1 <1>   0.0800 
 31 H       -4.0720     1.7610     1.6710 H     1 <1>   0.0800 
 32 H       -5.5180    -3.7350    -0.7000 H     1 <1>   0.4500 
 33 H       -3.1870    -5.2230     0.2010 H     1 <1>   0.0800 
 34 H       -4.2680    -4.1870     1.0800 H     1 <1>   0.0800 
 35 H       -5.8010    -5.0940    -2.7100 H     1 <1>   0.0800 
 36 H       -4.7710    -6.2840    -1.9440 H     1 <1>   0.0800 
 37 H       -4.7890    -6.2970     1.9470 H     1 <1>   0.0800 
 38 H       -7.5420    -5.4350    -1.1780 H     1 <1>   0.0800 
 39 H       -6.8860    -7.0160    -1.3890 H     1 <1>   0.0800 
 40 H       -4.6920    -8.1660     0.7270 H     1 <1>   0.4000 
 41 H       -6.8210    -5.2390     0.9960 H     1 <1>   0.0800 
 42 H       -7.1330    -7.3170     2.2420 H     1 <1>   0.0800 
 43 H       -6.9750    -8.2470     0.7540 H     1 <1>   0.0800 
 44 H       -9.1550    -7.7850     1.2880 H     1 <1>   0.4000 
@<TRIPOS>BOND
  1   1   2  1   
  2   1   3  1   
  3   2   4  ar  
  4   2   5  ar  
  5   3  21  1   
  6   3  22  1   
  7   3  23  1   
  8   4   6  ar  
  9   4  24  1   
 10   5   7  ar  
 11   5  25  1   
 12   6   8  1   
 13   6   9  ar  
 14   7   9  ar  
 15   7  10  1   
 16   8  11  1   
 17   9  26  1   
 18  10  12  1   
 19  10  27  1   
 20  10  28  1   
 21  11  29  1   
 22  11  30  1   
 23  11  31  1   
 24  12  13  1   
 25  12  14  1   
 26  12  32  1   
 27  13  15  1   
 28  13  33  1   
 29  13  34  1   
 30  14  16  1   
 31  14  35  1   
 32  14  36  1   
 33  15  17  1   
 34  15  18  1   
 35  15  37  1   
 36  16  18  1   
 37  16  38  1   
 38  16  39  1   
 39  17  40  1   
 40  18  19  1   
 41  18  41  1   
 42  19  20  1   
 43  19  42  1   
 44  19  43  1   
 45  20  44  1   
@<TRIPOS>SUBSTRUCTURE
  1 ****   7 GROUP 4 **** **** 0

# MOE 2024.06 (io_trps.svl 2023.06)
