@<TRIPOS>MOLECULE
NONAME
62 64 1 0 0 
SMALL
USER_CHARGES


@<TRIPOS>ATOM
  1 S       -0.8770     2.7860     0.2510 S.o2  1 <1>   1.0900 
  2 O       -0.3780     3.0520    -1.0770 O.2   1 <1>  -0.6500 
  3 O       -0.1400     3.1310     1.4440 O.2   1 <1>  -0.6500 
  4 C       -2.5310     3.4430     0.3860 C.3   1 <1>  -0.0550 
  5 C       -1.3900     1.0780     0.3740 C.3   1 <1>  -0.0550 
  6 C       -3.4340     2.3330     0.9500 C.3   1 <1>  -0.0800 
  7 C       -2.9260     1.0250     0.3180 C.3   1 <1>  -0.1600 
  8 C       -4.9180     2.6210     0.6700 C.3   1 <1>  -0.1600 
  9 C       -5.8520     1.5780     1.3050 C.3   1 <1>   0.3430 
 10 N       -7.2920     1.7890     0.9460 N.4   1 <1>  -0.9590 
 11 C       -7.5610     1.4770    -0.4890 C.3   1 <1>   0.3430 
 12 C       -7.7790     3.1500     1.3260 C.3   1 <1>   0.3430 
 13 C       -9.0580     1.5880    -0.7780 C.3   1 <1>  -0.1600 
 14 C       -9.2730     3.2620     1.0540 C.3   1 <1>  -0.1600 
 15 C       -9.6190     2.9700    -0.4170 C.3   1 <1>   0.2800 
 16 O      -11.0070     2.8160    -0.4710 O.3   1 <1>  -0.5600 
 17 C       -9.0850     4.0330    -1.4230 C.3   1 <1>   0.1400 
 18 C      -11.8330     3.7740    -1.0730 C.3   1 <1>   0.1200 
 19 N       -9.3410     5.4550    -1.0400 N.am  1 <1>  -0.6600 
 20 C      -11.7710     5.1140    -0.3420 C.3   1 <1>  -0.0990 
 21 C      -10.5230     5.9540    -0.5530 C.2   1 <1>   0.5690 
 22 C       -8.1670     6.3760    -1.2730 C.3   1 <1>   0.2010 
 23 O      -10.6160     7.1150    -0.2370 O.2   1 <1>  -0.5700 
 24 C       -7.0090     6.1350    -0.2930 C.2   1 <1>   0.5690 
 25 O       -6.1910     5.2930    -0.6000 O.2   1 <1>  -0.5700 
 26 N       -6.9270     6.7980     0.9090 N.am  1 <1>  -0.6600 
 27 C       -7.9970     7.7080     1.4170 C.3   1 <1>   0.0600 
 28 C       -5.7110     6.7400     1.7690 C.3   1 <1>   0.0600 
 29 H       -2.8740     3.7190    -0.5940 H     1 <1>   0.0800 
 30 H       -2.5490     4.3170     1.0090 H     1 <1>   0.0800 
 31 H       -1.0590     0.6840     1.3160 H     1 <1>   0.0800 
 32 H       -0.9550     0.4870    -0.4110 H     1 <1>   0.0800 
 33 H       -3.2690     2.2860     2.0150 H     1 <1>   0.0800 
 34 H       -3.2930     0.1530     0.8300 H     1 <1>   0.0800 
 35 H       -3.2290     0.9770    -0.7150 H     1 <1>   0.0800 
 36 H       -5.0690     2.6640    -0.3940 H     1 <1>   0.0800 
 37 H       -5.1400     3.5890     1.0810 H     1 <1>   0.0800 
 38 H       -5.7410     1.6220     2.3760 H     1 <1>   0.0800 
 39 H       -5.5500     0.5930     0.9860 H     1 <1>   0.0800 
 40 H       -7.8470     1.1190     1.4980 H     1 <1>   0.4500 
 41 H       -7.2270     0.4770    -0.7160 H     1 <1>   0.0800 
 42 H       -7.0170     2.1630    -1.1190 H     1 <1>   0.0800 
 43 H       -7.2560     3.8980     0.7590 H     1 <1>   0.0800 
 44 H       -7.5910     3.3320     2.3720 H     1 <1>   0.0800 
 45 H       -9.5770     0.8280    -0.2190 H     1 <1>   0.0800 
 46 H       -9.2290     1.3930    -1.8220 H     1 <1>   0.0800 
 47 H       -9.5880     4.2500     1.3310 H     1 <1>   0.0800 
 48 H       -9.7960     2.5720     1.6920 H     1 <1>   0.0800 
 49 H       -9.4870     3.8490    -2.4040 H     1 <1>   0.0800 
 50 H       -8.0240     3.9020    -1.5160 H     1 <1>   0.0800 
 51 H      -12.8370     3.3900    -1.0070 H     1 <1>   0.0800 
 52 H      -11.5920     3.8700    -2.1160 H     1 <1>   0.0800 
 53 H      -11.9160     4.9560     0.7100 H     1 <1>   0.0800 
 54 H      -12.6000     5.7050    -0.6850 H     1 <1>   0.0800 
 55 H       -8.4720     7.4050    -1.2220 H     1 <1>   0.0800 
 56 H       -7.7980     6.2190    -2.2700 H     1 <1>   0.0800 
 57 H       -8.8780     7.1400     1.6570 H     1 <1>   0.0800 
 58 H       -8.2480     8.4470     0.6750 H     1 <1>   0.0800 
 59 H       -7.6700     8.2220     2.3040 H     1 <1>   0.0800 
 60 H       -4.9440     6.1390     1.3120 H     1 <1>   0.0800 
 61 H       -5.9600     6.3230     2.7280 H     1 <1>   0.0800 
 62 H       -5.3200     7.7340     1.9090 H     1 <1>   0.0800 
@<TRIPOS>BOND
  1   1   2  2   
  2   1   3  2   
  3   1   4  1   
  4   1   5  1   
  5   4   6  1   
  6   4  29  1   
  7   4  30  1   
  8   5   7  1   
  9   5  31  1   
 10   5  32  1   
 11   6   7  1   
 12   6   8  1   
 13   6  33  1   
 14   7  34  1   
 15   7  35  1   
 16   8   9  1   
 17   8  36  1   
 18   8  37  1   
 19   9  10  1   
 20   9  38  1   
 21   9  39  1   
 22  10  11  1   
 23  10  12  1   
 24  10  40  1   
 25  11  13  1   
 26  11  41  1   
 27  11  42  1   
 28  12  14  1   
 29  12  43  1   
 30  12  44  1   
 31  13  15  1   
 32  13  45  1   
 33  13  46  1   
 34  14  15  1   
 35  14  47  1   
 36  14  48  1   
 37  15  16  1   
 38  15  17  1   
 39  16  18  1   
 40  17  19  1   
 41  17  49  1   
 42  17  50  1   
 43  18  20  1   
 44  18  51  1   
 45  18  52  1   
 46  19  21  am  
 47  19  22  1   
 48  20  21  1   
 49  20  53  1   
 50  20  54  1   
 51  21  23  2   
 52  22  24  1   
 53  22  55  1   
 54  22  56  1   
 55  24  25  2   
 56  24  26  am  
 57  26  27  1   
 58  26  28  1   
 59  27  57  1   
 60  27  58  1   
 61  27  59  1   
 62  28  60  1   
 63  28  61  1   
 64  28  62  1   
@<TRIPOS>SUBSTRUCTURE
  1 ****  25 GROUP 4 **** **** 0

# MOE 2024.06 (io_trps.svl 2023.06)
