@<TRIPOS>MOLECULE
NONAME
45 47 1 0 0 
SMALL
USER_CHARGES


@<TRIPOS>ATOM
  1 O       -1.0290     0.3320    -1.3820 O.2   1 <1>  -0.5700 
  2 C       -1.7220     0.8850    -0.5410 C.2   1 <1>   0.7160 
  3 N       -2.8860     0.2570    -0.1430 N.am  1 <1>  -0.6600 
  4 C       -1.3300     2.1550    -0.0180 C.2   1 <1>  -0.0860 
  5 C       -3.5490    -0.7460    -1.0470 C.3   1 <1>   0.1400 
  6 C       -3.5110     0.4400     1.2050 C.3   1 <1>   0.1400 
  7 C       -0.0800     2.6440     0.2690 C.2   1 <1>  -0.0680 
  8 C       -2.1610     3.2400     0.3020 C.2   1 <1>   0.1390 
  9 C       -4.6510    -1.5300    -0.3210 C.3   1 <1>   0.2000 
 10 C       -5.0160     0.6210     1.0160 C.3   1 <1>  -0.1600 
 11 N       -0.2310     3.8960     0.7230 N.pl3 1 <1>   0.6010 
 12 N        1.2600     2.3140     0.2550 N.pl3 1 <1>  -0.5530 
 13 N       -1.5300     4.2850     0.7510 N.2   1 <1>  -0.7070 
 14 O       -5.2850    -2.4080    -1.1820 O.3   1 <1>  -0.6800 
 15 C       -5.7000    -0.6560     0.4230 C.3   1 <1>  -0.1060 
 16 C        1.0270     4.3950     1.0060 C.2   1 <1>  -0.1810 
 17 C        1.9310     3.4350     0.7180 C.2   1 <1>  -0.0500 
 18 C        1.8380     1.0640    -0.2830 C.3   1 <1>   0.1290 
 19 C       -6.1980    -1.6070     1.5280 C.2   1 <1>   0.9060 
 20 C       -6.9280    -0.2050    -0.4350 C.3   1 <1>  -0.1600 
 21 O       -5.9590    -1.3690     2.7170 O.co2 1 <1>  -0.9000 
 22 O       -6.7760    -2.6480     1.1800 O.co2 1 <1>  -0.9000 
 23 C       -6.6270     0.5020    -1.7710 C.3   1 <1>  -0.1600 
 24 C       -7.9180     1.0060    -2.4230 C.3   1 <1>  -0.2400 
 25 H       -3.9660    -0.2260    -1.8890 H     1 <1>   0.0800 
 26 H       -2.8120    -1.4430    -1.4070 H     1 <1>   0.0800 
 27 H       -3.3250    -0.4300     1.8140 H     1 <1>   0.0800 
 28 H       -3.0980     1.2880     1.7200 H     1 <1>   0.0800 
 29 H       -3.2320     3.2120     0.1820 H     1 <1>   0.1500 
 30 H       -4.1480    -2.1500     0.4040 H     1 <1>   0.0800 
 31 H       -5.4650     0.8770     1.9590 H     1 <1>   0.0800 
 32 H       -5.1600     1.4730     0.3820 H     1 <1>   0.0800 
 33 H       -6.0010    -2.8300    -0.6360 H     1 <1>   0.4000 
 34 H        1.1400     5.3920     1.3820 H     1 <1>   0.1500 
 35 H        3.0060     3.4610     0.8030 H     1 <1>   0.1500 
 36 H        2.8850     1.0080    -0.0440 H     1 <1>   0.0800 
 37 H        1.7110     1.0420    -1.3510 H     1 <1>   0.0800 
 38 H        1.3280     0.2190     0.1460 H     1 <1>   0.0800 
 39 H       -7.5330    -1.0680    -0.6570 H     1 <1>   0.0800 
 40 H       -7.5380     0.4380     0.1770 H     1 <1>   0.0800 
 41 H       -5.9630     1.3340    -1.6300 H     1 <1>   0.0800 
 42 H       -6.1560    -0.1930    -2.4430 H     1 <1>   0.0800 
 43 H       -8.4070     1.7210    -1.7850 H     1 <1>   0.0800 
 44 H       -8.5890     0.1840    -2.6000 H     1 <1>   0.0800 
 45 H       -7.6960     1.4770    -3.3640 H     1 <1>   0.0800 
@<TRIPOS>BOND
  1   1   2  2   
  2   2   3  am  
  3   2   4  1   
  4   3   5  1   
  5   3   6  1   
  6   4   7  2   
  7   4   8  1   
  8   5   9  1   
  9   5  25  1   
 10   5  26  1   
 11   6  10  1   
 12   6  27  1   
 13   6  28  1   
 14   7  11  1   
 15   7  12  1   
 16   8  13  2   
 17   8  29  1   
 18   9  14  1   
 19   9  15  1   
 20   9  30  1   
 21  10  15  1   
 22  10  31  1   
 23  10  32  1   
 24  11  13  1   
 25  11  16  1   
 26  12  17  1   
 27  12  18  1   
 28  14  33  1   
 29  15  19  1   
 30  15  20  1   
 31  16  17  2   
 32  16  34  1   
 33  17  35  1   
 34  18  36  1   
 35  18  37  1   
 36  18  38  1   
 37  19  21  ar  
 38  19  22  ar  
 39  20  23  1   
 40  20  39  1   
 41  20  40  1   
 42  23  24  1   
 43  23  41  1   
 44  23  42  1   
 45  24  43  1   
 46  24  44  1   
 47  24  45  1   
@<TRIPOS>SUBSTRUCTURE
  1 ****   3 GROUP 4 **** **** 0

# MOE 2024.06 (io_trps.svl 2023.06)
