@<TRIPOS>MOLECULE
NONAME
54 58 1 0 0 
SMALL
USER_CHARGES


@<TRIPOS>ATOM
  1 O        0.2730     0.9490     1.0660 O.2   1 <1>  -0.5700 
  2 C       -0.4100     1.5140     0.2230 C.2   1 <1>   0.7160 
  3 N       -1.7850     1.3380     0.2920 N.am  1 <1>  -0.6600 
  4 C        0.2560     2.3700    -0.7600 C.2   1 <1>   0.2030 
  5 C       -2.7810     2.2390    -0.3690 C.3   1 <1>   0.1400 
  6 C       -2.4170     0.3900     1.2500 C.3   1 <1>   0.1400 
  7 N       -0.1060     2.5980    -2.0170 N.2   1 <1>  -0.7070 
  8 C        1.4270     3.0900    -0.4820 C.2   1 <1>  -0.1810 
  9 C       -3.4920     3.1070     0.6870 C.3   1 <1>   0.1430 
 10 C       -3.1310     1.1820     2.3520 C.3   1 <1>  -0.1600 
 11 N        0.8090     3.4430    -2.5180 N.pl3 1 <1>   0.3000 
 12 C        1.7450     3.7470    -1.6050 C.2   1 <1>  -0.3320 
 13 C        2.2580     3.1840     0.7890 C.3   1 <1>   0.3010 
 14 C       -4.5630     3.9680     0.0440 C.ar  1 <1>   0.1670 
 15 C       -4.1260     2.2080     1.7740 C.3   1 <1>  -0.1600 
 16 C       -2.5340     4.1670     1.2960 C.3   1 <1>  -0.1600 
 17 C        2.9590     4.6480    -1.7010 C.3   1 <1>   0.0200 
 18 O        3.1220     4.2940     0.6990 O.3   1 <1>  -0.5600 
 19 N       -5.4830     3.5390    -0.7850 N.ar  1 <1>  -0.6200 
 20 C       -4.4650     5.2680     0.4350 C.ar  1 <1>  -0.1430 
 21 C       -3.3240     5.4830     1.3970 C.3   1 <1>  -0.0170 
 22 C        3.8730     4.3750    -0.4870 C.3   1 <1>   0.1200 
 23 C       -6.3270     4.4720    -1.2320 C.ar  1 <1>   0.7200 
 24 C       -5.3770     6.1570    -0.0740 C.ar  1 <1>   0.1600 
 25 N       -6.3130     5.7700    -0.9080 N.ar  1 <1>  -0.6200 
 26 N       -7.3080     4.0560    -2.1120 N.pl3 1 <1>  -0.8380 
 27 C       -8.4650     4.9200    -2.4720 C.3   1 <1>   0.1290 
 28 C       -7.2520     2.7300    -2.7870 C.3   1 <1>   0.1290 
 29 H       -3.5080     1.6340    -0.8830 H     1 <1>   0.0800 
 30 H       -2.3270     2.8790    -1.1000 H     1 <1>   0.0800 
 31 H       -1.6820    -0.2660     1.6860 H     1 <1>   0.0800 
 32 H       -3.1270    -0.2200     0.7190 H     1 <1>   0.0800 
 33 H       -2.3890     1.6780     2.9520 H     1 <1>   0.0800 
 34 H       -3.6560     0.4960     2.9930 H     1 <1>   0.0800 
 35 H        0.7680     3.7910    -3.4840 H     1 <1>   0.2700 
 36 H        2.8480     2.2950     0.9230 H     1 <1>   0.0800 
 37 H        1.6270     3.3250     1.6480 H     1 <1>   0.0800 
 38 H       -4.9480     1.6710     1.3300 H     1 <1>   0.0800 
 39 H       -4.5300     2.8160     2.5640 H     1 <1>   0.0800 
 40 H       -1.7070     4.3290     0.6250 H     1 <1>   0.0800 
 41 H       -2.1350     3.8720     2.2490 H     1 <1>   0.0800 
 42 H        2.6510     5.6780    -1.6930 H     1 <1>   0.0800 
 43 H        3.5040     4.4580    -2.6080 H     1 <1>   0.0800 
 44 H       -2.7200     6.3290     1.1180 H     1 <1>   0.0800 
 45 H       -3.7110     5.6190     2.3920 H     1 <1>   0.0800 
 46 H        4.5900     5.1690    -0.3710 H     1 <1>   0.0800 
 47 H        4.4000     3.4450    -0.6130 H     1 <1>   0.0800 
 48 H       -5.3390     7.1950     0.2050 H     1 <1>   0.1500 
 49 H       -8.7160     5.5740    -1.6540 H     1 <1>   0.0800 
 50 H       -9.3250     4.3150    -2.6960 H     1 <1>   0.0800 
 51 H       -8.2130     5.5160    -3.3320 H     1 <1>   0.0800 
 52 H       -6.2300     2.4230    -2.9290 H     1 <1>   0.0800 
 53 H       -7.7260     2.7840    -3.7520 H     1 <1>   0.0800 
 54 H       -7.7570     1.9980    -2.1820 H     1 <1>   0.0800 
@<TRIPOS>BOND
  1   1   2  2   
  2   2   3  am  
  3   2   4  1   
  4   3   5  1   
  5   3   6  1   
  6   4   7  2   
  7   4   8  1   
  8   5   9  1   
  9   5  29  1   
 10   5  30  1   
 11   6  10  1   
 12   6  31  1   
 13   6  32  1   
 14   7  11  1   
 15   8  12  2   
 16   8  13  1   
 17   9  14  1   
 18   9  15  1   
 19   9  16  1   
 20  10  15  1   
 21  10  33  1   
 22  10  34  1   
 23  11  12  1   
 24  11  35  1   
 25  12  17  1   
 26  13  18  1   
 27  13  36  1   
 28  13  37  1   
 29  14  19  ar  
 30  14  20  ar  
 31  15  38  1   
 32  15  39  1   
 33  16  21  1   
 34  16  40  1   
 35  16  41  1   
 36  17  22  1   
 37  17  42  1   
 38  17  43  1   
 39  18  22  1   
 40  19  23  ar  
 41  20  21  1   
 42  20  24  ar  
 43  21  44  1   
 44  21  45  1   
 45  22  46  1   
 46  22  47  1   
 47  23  25  ar  
 48  23  26  1   
 49  24  25  ar  
 50  24  48  1   
 51  26  27  1   
 52  26  28  1   
 53  27  49  1   
 54  27  50  1   
 55  27  51  1   
 56  28  52  1   
 57  28  53  1   
 58  28  54  1   
@<TRIPOS>SUBSTRUCTURE
  1 ****   5 GROUP 4 **** **** 0

# MOE 2024.06 (io_trps.svl 2023.06)
