@<TRIPOS>MOLECULE
NONAME
47 50 1 0 0 
SMALL
USER_CHARGES


@<TRIPOS>ATOM
  1 S       -0.6720     0.6520     0.8230 S.o2  1 <1>   1.4470 
  2 O       -1.1000     1.9830     1.1940 O.2   1 <1>  -0.6500 
  3 O       -0.7330    -0.4030     1.8110 O.2   1 <1>  -0.6500 
  4 N       -1.6180     0.1900    -0.5090 N.am  1 <1>  -0.8490 
  5 C        0.9980     0.7410     0.1170 C.ar  1 <1>  -0.0090 
  6 C       -3.0560     0.4760    -0.3400 C.3   1 <1>   0.1960 
  7 C       -1.4210    -1.2040    -0.9590 C.3   1 <1>   0.1960 
  8 C        1.2550     1.5200    -1.0060 C.ar  1 <1>  -0.1500 
  9 C        2.0580     0.0340     0.6750 C.ar  1 <1>  -0.1500 
 10 C       -3.7690    -0.5500     0.5670 C.3   1 <1>   0.1900 
 11 C       -2.1920    -2.2560    -0.1280 C.3   1 <1>   0.1100 
 12 C        2.5230     1.5880    -1.5580 C.ar  1 <1>  -0.1500 
 13 C        3.3290     0.0970     0.1290 C.ar  1 <1>  -0.1500 
 14 N       -3.6240    -1.9130     0.0010 N.3   1 <1>  -0.8100 
 15 C       -5.2590    -0.1910     0.7240 C.3   1 <1>   0.1200 
 16 C        3.5610     0.8740    -0.9900 C.ar  1 <1>  -0.1500 
 17 C       -4.3500    -2.8810     0.8550 C.3   1 <1>   0.3330 
 18 O       -5.9110    -1.1330     1.5280 O.3   1 <1>  -0.5600 
 19 C       -4.3030    -4.2840     0.2520 C.ar  1 <1>  -0.1430 
 20 C       -5.8200    -2.4450     1.0370 C.3   1 <1>   0.1200 
 21 C       -3.9380    -5.3680     1.0390 C.ar  1 <1>  -0.1500 
 22 C       -4.6220    -4.4980    -1.0820 C.ar  1 <1>  -0.1500 
 23 C       -3.8940    -6.6420     0.5020 C.ar  1 <1>  -0.1500 
 24 C       -4.5780    -5.7710    -1.6220 C.ar  1 <1>  -0.1500 
 25 C       -4.2140    -6.8450    -0.8290 C.ar  1 <1>  -0.1500 
 26 H       -3.1910     1.4670     0.0560 H     1 <1>   0.0800 
 27 H       -3.5270     0.4540    -1.3080 H     1 <1>   0.0800 
 28 H       -1.7620    -1.2820    -1.9770 H     1 <1>   0.0800 
 29 H       -0.3730    -1.4470    -0.9580 H     1 <1>   0.0800 
 30 H        0.4490     2.0790    -1.4510 H     1 <1>   0.1500 
 31 H        1.8870    -0.5730     1.5480 H     1 <1>   0.1500 
 32 H       -3.3220    -0.5110     1.5460 H     1 <1>   0.0800 
 33 H       -1.7490    -2.3590     0.8460 H     1 <1>   0.0800 
 34 H       -2.0970    -3.2070    -0.6230 H     1 <1>   0.0800 
 35 H        2.7000     2.1970    -2.4280 H     1 <1>   0.1500 
 36 H        4.1360    -0.4580     0.5760 H     1 <1>   0.1500 
 37 H       -5.7470    -0.1630    -0.2350 H     1 <1>   0.0800 
 38 H       -5.3640     0.7690     1.1980 H     1 <1>   0.0800 
 39 H        4.5490     0.9250    -1.4160 H     1 <1>   0.1500 
 40 H       -3.8900    -2.9030     1.8290 H     1 <1>   0.0800 
 41 H       -6.3100    -3.0940     1.7400 H     1 <1>   0.0800 
 42 H       -6.3430    -2.4960     0.0990 H     1 <1>   0.0800 
 43 H       -3.6870    -5.2250     2.0760 H     1 <1>   0.1500 
 44 H       -4.8990    -3.6630    -1.7030 H     1 <1>   0.1500 
 45 H       -3.6110    -7.4780     1.1190 H     1 <1>   0.1500 
 46 H       -4.8270    -5.9260    -2.6570 H     1 <1>   0.1500 
 47 H       -4.1790    -7.8350    -1.2470 H     1 <1>   0.1500 
@<TRIPOS>BOND
  1   1   2  2   
  2   1   3  2   
  3   1   4  am  
  4   1   5  1   
  5   4   6  1   
  6   4   7  1   
  7   5   8  ar  
  8   5   9  ar  
  9   6  10  1   
 10   6  26  1   
 11   6  27  1   
 12   7  11  1   
 13   7  28  1   
 14   7  29  1   
 15   8  12  ar  
 16   8  30  1   
 17   9  13  ar  
 18   9  31  1   
 19  10  14  1   
 20  10  15  1   
 21  10  32  1   
 22  11  14  1   
 23  11  33  1   
 24  11  34  1   
 25  12  16  ar  
 26  12  35  1   
 27  13  16  ar  
 28  13  36  1   
 29  14  17  1   
 30  15  18  1   
 31  15  37  1   
 32  15  38  1   
 33  16  39  1   
 34  17  19  1   
 35  17  20  1   
 36  17  40  1   
 37  18  20  1   
 38  19  21  ar  
 39  19  22  ar  
 40  20  41  1   
 41  20  42  1   
 42  21  23  ar  
 43  21  43  1   
 44  22  24  ar  
 45  22  44  1   
 46  23  25  ar  
 47  23  45  1   
 48  24  25  ar  
 49  24  46  1   
 50  25  47  1   
@<TRIPOS>SUBSTRUCTURE
  1 ****  11 GROUP 4 **** **** 0

# MOE 2024.06 (io_trps.svl 2023.06)
