@<TRIPOS>MOLECULE
NONAME
55 57 1 0 0 
SMALL
USER_CHARGES


@<TRIPOS>ATOM
  1 O        0.3330     0.2930     0.7560 O.2   1 <1>  -0.5700 
  2 C        1.2650    -0.1540     1.3840 C.2   1 <1>   0.5690 
  3 N        2.2960     0.6940     1.7640 N.am  1 <1>  -0.6600 
  4 C        1.2140    -1.6640     1.7270 C.3   1 <1>   0.2610 
  5 C        3.5630     0.2720     2.4380 C.3   1 <1>   0.1400 
  6 C        2.2190     2.1600     1.4840 C.3   1 <1>   0.1400 
  7 O        2.5070    -2.2460     1.6440 O.3   1 <1>  -0.2170 
  8 C        0.4070    -2.5300     0.7480 C.3   1 <1>  -0.0990 
  9 C        4.6120    -0.2160     1.4140 C.3   1 <1>   0.3430 
 10 C        3.3890     2.6410     0.6180 C.3   1 <1>  -0.1600 
 11 N        2.6460    -3.0190     0.5880 N.2   1 <1>  -0.5130 
 12 C        1.5320    -3.2310     0.0460 C.2   1 <1>   0.3280 
 13 N        5.0520     0.8160     0.4190 N.4   1 <1>  -0.9590 
 14 C        3.9750     1.5620    -0.2940 C.3   1 <1>   0.3430 
 15 C        1.2330    -4.0920    -1.1840 C.3   1 <1>  -0.0190 
 16 C        6.0200     0.2440    -0.5530 C.3   1 <1>   0.5240 
 17 C        2.4000    -5.0290    -1.5370 C.3   1 <1>  -0.2400 
 18 C        0.8880    -3.2230    -2.4030 C.3   1 <1>  -0.2400 
 19 C        7.0270     1.3430    -0.8740 C.2   1 <1>   0.1080 
 20 N        7.2390     2.3530    -0.0750 N.2   1 <1>  -0.7070 
 21 C        7.8140     1.4060    -2.0180 C.2   1 <1>  -0.1500 
 22 N        8.1870     3.0900    -0.6940 N.pl3 1 <1>   0.3140 
 23 C        8.5400     2.5330    -1.8690 C.2   1 <1>  -0.3020 
 24 C        8.7370     4.3340    -0.1140 C.3   1 <1>   0.0960 
 25 C       10.0650     4.0690     0.6070 C.3   1 <1>  -0.2400 
 26 H        0.8580    -1.7890     2.7320 H     1 <1>   0.0800 
 27 H        3.3540    -0.5160     3.1390 H     1 <1>   0.0800 
 28 H        3.9690     1.0910     3.0070 H     1 <1>   0.0800 
 29 H        2.2040     2.7010     2.4150 H     1 <1>   0.0800 
 30 H        1.2980     2.3950     0.9750 H     1 <1>   0.0800 
 31 H       -0.2030    -1.9630     0.0710 H     1 <1>   0.0800 
 32 H       -0.2030    -3.2370     1.2780 H     1 <1>   0.0800 
 33 H        4.2050    -1.0590     0.8820 H     1 <1>   0.0800 
 34 H        5.4720    -0.5700     1.9570 H     1 <1>   0.0800 
 35 H        4.1590     3.0700     1.2340 H     1 <1>   0.0800 
 36 H        3.0170     3.4380    -0.0010 H     1 <1>   0.0800 
 37 H        5.6450     1.5360     0.8760 H     1 <1>   0.4500 
 38 H        4.4010     2.0510    -1.1560 H     1 <1>   0.0800 
 39 H        3.2000     0.8920    -0.6310 H     1 <1>   0.0800 
 40 H        0.3810    -4.7090    -0.9530 H     1 <1>   0.0800 
 41 H        5.5180    -0.0920    -1.4450 H     1 <1>   0.0800 
 42 H        6.5470    -0.5850    -0.1120 H     1 <1>   0.0800 
 43 H        3.2770    -4.4610    -1.7960 H     1 <1>   0.0800 
 44 H        2.1400    -5.6610    -2.3670 H     1 <1>   0.0800 
 45 H        2.6380    -5.6550    -0.6950 H     1 <1>   0.0800 
 46 H        1.7130    -2.5760    -2.6470 H     1 <1>   0.0800 
 47 H        0.0220    -2.6160    -2.2070 H     1 <1>   0.0800 
 48 H        0.6740    -3.8430    -3.2550 H     1 <1>   0.0800 
 49 H        7.8360     0.7050    -2.8360 H     1 <1>   0.1500 
 50 H        9.2800     2.9610    -2.5210 H     1 <1>   0.1500 
 51 H        8.0170     4.7330     0.5780 H     1 <1>   0.0800 
 52 H        8.8810     5.0460    -0.9060 H     1 <1>   0.0800 
 53 H        9.9200     3.3610     1.4050 H     1 <1>   0.0800 
 54 H       10.4400     4.9840     1.0280 H     1 <1>   0.0800 
 55 H       10.7970     3.6850    -0.0810 H     1 <1>   0.0800 
@<TRIPOS>BOND
  1   1   2  2   
  2   2   3  am  
  3   2   4  1   
  4   3   5  1   
  5   3   6  1   
  6   4   7  1   
  7   4   8  1   
  8   4  26  1   
  9   5   9  1   
 10   5  27  1   
 11   5  28  1   
 12   6  10  1   
 13   6  29  1   
 14   6  30  1   
 15   7  11  1   
 16   8  12  1   
 17   8  31  1   
 18   8  32  1   
 19   9  13  1   
 20   9  33  1   
 21   9  34  1   
 22  10  14  1   
 23  10  35  1   
 24  10  36  1   
 25  11  12  2   
 26  12  15  1   
 27  13  14  1   
 28  13  16  1   
 29  13  37  1   
 30  14  38  1   
 31  14  39  1   
 32  15  17  1   
 33  15  18  1   
 34  15  40  1   
 35  16  19  1   
 36  16  41  1   
 37  16  42  1   
 38  17  43  1   
 39  17  44  1   
 40  17  45  1   
 41  18  46  1   
 42  18  47  1   
 43  18  48  1   
 44  19  20  2   
 45  19  21  1   
 46  20  22  1   
 47  21  23  2   
 48  21  49  1   
 49  22  23  1   
 50  22  24  1   
 51  23  50  1   
 52  24  25  1   
 53  24  51  1   
 54  24  52  1   
 55  25  53  1   
 56  25  54  1   
 57  25  55  1   
@<TRIPOS>SUBSTRUCTURE
  1 ****  13 GROUP 4 **** **** 0

# MOE 2024.06 (io_trps.svl 2023.06)
