@<TRIPOS>MOLECULE
NONAME
49 51 1 0 0 
SMALL
USER_CHARGES


@<TRIPOS>ATOM
  1 S       -0.5920     0.6510    -1.6460 S.3   1 <1>  -0.0800 
  2 C        0.1800    -0.9040    -1.3790 C.2   1 <1>  -0.1400 
  3 C        0.7340     1.4900    -0.8670 C.2   1 <1>  -0.1100 
  4 C        1.3580    -0.7370    -0.7470 C.2   1 <1>  -0.1500 
  5 C       -0.5330    -2.1450    -1.8670 C.3   1 <1>   0.5230 
  6 C        1.6800     0.6270    -0.4460 C.2   1 <1>   0.0190 
  7 N       -1.5980    -2.4670    -0.8820 N.4   1 <1>  -0.9590 
  8 C        2.8920     0.9690     0.2320 C.1   1 <1>  -0.0190 
  9 C       -1.7920    -3.9540    -0.7420 C.3   1 <1>   0.3430 
 10 C       -2.8740    -1.7680    -1.2240 C.3   1 <1>   0.3430 
 11 C        3.9020     1.2540     0.7940 C.1   1 <1>  -0.2000 
 12 C       -2.6180    -4.3730     0.4950 C.3   1 <1>   0.1400 
 13 C       -3.5480    -1.2170     0.0330 C.3   1 <1>  -0.1600 
 14 C        5.1670     1.6180     1.4870 C.3   1 <1>   0.3200 
 15 N       -3.8970    -3.6070     0.6060 N.am  1 <1>  -0.6600 
 16 C       -3.7470    -2.2340     1.1610 C.3   1 <1>   0.1400 
 17 O        6.0220     2.1260     0.5340 O.3   1 <1>  -0.6800 
 18 C       -5.1390    -4.0540     0.2140 C.2   1 <1>   0.5690 
 19 O       -6.0600    -3.2790     0.1220 O.2   1 <1>  -0.5700 
 20 C       -5.3770    -5.5200    -0.1450 C.3   1 <1>  -0.0190 
 21 C       -6.7150    -5.7940    -0.8180 C.3   1 <1>   0.1200 
 22 C       -5.4400    -6.4590     1.0570 C.3   1 <1>  -0.1600 
 23 O       -6.9160    -7.1510    -0.6150 O.3   1 <1>  -0.5600 
 24 C       -6.4790    -7.5070     0.6570 C.3   1 <1>   0.1200 
 25 H        0.6780     2.5630    -0.7980 H     1 <1>   0.1500 
 26 H        2.0460    -1.5160    -0.4640 H     1 <1>   0.1500 
 27 H        0.1800    -2.9520    -1.9150 H     1 <1>   0.0800 
 28 H       -0.9450    -1.9880    -2.8510 H     1 <1>   0.0800 
 29 H       -1.2710    -2.0770     0.0110 H     1 <1>   0.4500 
 30 H       -0.8310    -4.4370    -0.6760 H     1 <1>   0.0800 
 31 H       -2.2820    -4.3330    -1.6240 H     1 <1>   0.0800 
 32 H       -3.5480    -2.4540    -1.7130 H     1 <1>   0.0800 
 33 H       -2.6880    -0.9500    -1.9000 H     1 <1>   0.0800 
 34 H       -2.0330    -4.2180     1.3850 H     1 <1>   0.0800 
 35 H       -2.8140    -5.4280     0.4400 H     1 <1>   0.0800 
 36 H       -4.5200    -0.8540    -0.2560 H     1 <1>   0.0800 
 37 H       -3.0040    -0.3670     0.4040 H     1 <1>   0.0800 
 38 H        5.6250     0.7510     1.9300 H     1 <1>   0.0800 
 39 H        5.0040     2.3720     2.2370 H     1 <1>   0.0800 
 40 H       -4.6260    -1.9720     1.7300 H     1 <1>   0.0800 
 41 H       -2.9110    -2.2050     1.8380 H     1 <1>   0.0800 
 42 H        5.9100     1.6190    -0.2920 H     1 <1>   0.4000 
 43 H       -4.6190    -5.8500    -0.8290 H     1 <1>   0.0800 
 44 H       -6.7060    -5.5860    -1.8730 H     1 <1>   0.0800 
 45 H       -7.5220    -5.2640    -0.3400 H     1 <1>   0.0800 
 46 H       -5.7860    -5.9410     1.9340 H     1 <1>   0.0800 
 47 H       -4.4910    -6.9160     1.2710 H     1 <1>   0.0800 
 48 H       -7.3270    -7.4950     1.3200 H     1 <1>   0.0800 
 49 H       -6.0640    -8.4990     0.6070 H     1 <1>   0.0800 
@<TRIPOS>BOND
  1   1   2  1   
  2   1   3  1   
  3   2   4  2   
  4   2   5  1   
  5   3   6  2   
  6   3  25  1   
  7   4   6  1   
  8   4  26  1   
  9   5   7  1   
 10   5  27  1   
 11   5  28  1   
 12   6   8  1   
 13   7   9  1   
 14   7  10  1   
 15   7  29  1   
 16   8  11  3   
 17   9  12  1   
 18   9  30  1   
 19   9  31  1   
 20  10  13  1   
 21  10  32  1   
 22  10  33  1   
 23  11  14  1   
 24  12  15  1   
 25  12  34  1   
 26  12  35  1   
 27  13  16  1   
 28  13  36  1   
 29  13  37  1   
 30  14  17  1   
 31  14  38  1   
 32  14  39  1   
 33  15  16  1   
 34  15  18  am  
 35  16  40  1   
 36  16  41  1   
 37  17  42  1   
 38  18  19  2   
 39  18  20  1   
 40  20  21  1   
 41  20  22  1   
 42  20  43  1   
 43  21  23  1   
 44  21  44  1   
 45  21  45  1   
 46  22  24  1   
 47  22  46  1   
 48  22  47  1   
 49  23  24  1   
 50  24  48  1   
 51  24  49  1   
@<TRIPOS>SUBSTRUCTURE
  1 ****   7 GROUP 4 **** **** 0

# MOE 2024.06 (io_trps.svl 2023.06)
