@<TRIPOS>MOLECULE
NONAME
47 50 1 0 0 
SMALL
USER_CHARGES


@<TRIPOS>ATOM
  1 S        3.6780    -1.2990     2.5870 S.3   1 <1>  -0.0800 
  2 C        2.2530    -0.9850     1.6280 C.2   1 <1>   0.1980 
  3 C        3.3380    -2.9940     2.4820 C.2   1 <1>  -0.1100 
  4 N        1.6160    -2.0320     1.2850 N.2   1 <1>  -0.5650 
  5 C        1.9240     0.4640     1.3210 C.3   1 <1>   0.1640 
  6 C        2.2170    -3.2170     1.7590 C.2   1 <1>   0.1410 
  7 C        2.9940     1.1190     0.4550 C.ar  1 <1>  -0.1440 
  8 C        1.6760    -4.5560     1.5050 C.2   1 <1>   0.7160 
  9 C        3.7470     2.1800     0.9380 C.ar  1 <1>  -0.1500 
 10 C        3.2210     0.6560    -0.8320 C.ar  1 <1>  -0.1500 
 11 O        2.1510    -5.4980     2.1160 O.2   1 <1>  -0.5700 
 12 N        0.6590    -4.8370     0.6100 N.am  1 <1>  -0.6600 
 13 C        4.7120     2.7720     0.1410 C.ar  1 <1>  -0.1500 
 14 C        4.1870     1.2470    -1.6290 C.ar  1 <1>  -0.1500 
 15 C        0.0160    -3.8840    -0.3290 C.3   1 <1>   0.1400 
 16 C        0.1220    -6.2050     0.4090 C.3   1 <1>   0.1400 
 17 C        4.9320     2.3060    -1.1430 C.ar  1 <1>  -0.1500 
 18 C       -0.9060    -4.7400    -1.1980 C.3   1 <1>   0.2000 
 19 C       -1.1660    -6.0100    -0.3920 C.3   1 <1>  -0.0800 
 20 O       -2.1050    -4.0970    -1.4640 O.3   1 <1>  -0.6800 
 21 C       -1.5460    -7.2080    -1.2780 C.3   1 <1>  -0.0160 
 22 C       -1.8240    -8.4510    -0.4480 C.ar  1 <1>   0.1670 
 23 N       -0.7760    -9.1900    -0.1190 N.ar  1 <1>  -0.6200 
 24 C       -3.1300    -8.7560    -0.0690 C.ar  1 <1>   0.1600 
 25 C       -1.1180   -10.2410     0.6070 C.ar  1 <1>   0.1600 
 26 N       -3.4740    -9.8060     0.6580 N.ar  1 <1>  -0.6200 
 27 C       -2.4220   -10.5380     0.9840 C.ar  1 <1>   0.1600 
 28 H        4.0060    -3.6800     2.9720 H     1 <1>   0.1500 
 29 H        0.9830     0.5050     0.8040 H     1 <1>   0.0800 
 30 H        1.8130     0.9970     2.2470 H     1 <1>   0.0800 
 31 H        3.5900     2.5530     1.9340 H     1 <1>   0.1500 
 32 H        2.6490    -0.1700    -1.2180 H     1 <1>   0.1500 
 33 H        5.2930     3.5950     0.5200 H     1 <1>   0.1500 
 34 H        4.3580     0.8810    -2.6260 H     1 <1>   0.1500 
 35 H       -0.5490    -3.1600     0.2320 H     1 <1>   0.0800 
 36 H        0.7590    -3.3900    -0.9310 H     1 <1>   0.0800 
 37 H        0.8390    -6.7850    -0.1480 H     1 <1>   0.0800 
 38 H       -0.0670    -6.6900     1.3520 H     1 <1>   0.0800 
 39 H        5.6830     2.7660    -1.7620 H     1 <1>   0.1500 
 40 H       -0.4230    -4.9610    -2.1350 H     1 <1>   0.0800 
 41 H       -1.9530    -5.8270     0.3180 H     1 <1>   0.0800 
 42 H       -2.5410    -3.8340    -0.6300 H     1 <1>   0.4000 
 43 H       -0.7520    -7.4200    -1.9720 H     1 <1>   0.0800 
 44 H       -2.4190    -6.9590    -1.8540 H     1 <1>   0.0800 
 45 H       -3.9250    -8.1020    -0.3790 H     1 <1>   0.1500 
 46 H       -0.3270   -10.8990     0.9210 H     1 <1>   0.1500 
 47 H       -2.6000   -11.4180     1.5770 H     1 <1>   0.1500 
@<TRIPOS>BOND
  1   1   2  1   
  2   1   3  1   
  3   2   4  2   
  4   2   5  1   
  5   3   6  2   
  6   3  28  1   
  7   4   6  1   
  8   5   7  1   
  9   5  29  1   
 10   5  30  1   
 11   6   8  1   
 12   7   9  ar  
 13   7  10  ar  
 14   8  11  2   
 15   8  12  am  
 16   9  13  ar  
 17   9  31  1   
 18  10  14  ar  
 19  10  32  1   
 20  12  15  1   
 21  12  16  1   
 22  13  17  ar  
 23  13  33  1   
 24  14  17  ar  
 25  14  34  1   
 26  15  18  1   
 27  15  35  1   
 28  15  36  1   
 29  16  19  1   
 30  16  37  1   
 31  16  38  1   
 32  17  39  1   
 33  18  19  1   
 34  18  20  1   
 35  18  40  1   
 36  19  21  1   
 37  19  41  1   
 38  20  42  1   
 39  21  22  1   
 40  21  43  1   
 41  21  44  1   
 42  22  23  ar  
 43  22  24  ar  
 44  23  25  ar  
 45  24  26  ar  
 46  24  45  1   
 47  25  27  ar  
 48  25  46  1   
 49  26  27  ar  
 50  27  47  1   
@<TRIPOS>SUBSTRUCTURE
  1 ****  12 GROUP 4 **** **** 0

# MOE 2024.06 (io_trps.svl 2023.06)
