@<TRIPOS>MOLECULE
NONAME
64 67 1 0 0 
SMALL
USER_CHARGES


@<TRIPOS>ATOM
  1 S       -0.2110     0.7560    -1.2560 S.3   1 <1>  -0.0800 
  2 C       -0.5650    -0.7780    -0.4480 C.2   1 <1>  -0.0450 
  3 C        1.2610     0.9840    -0.3420 C.2   1 <1>  -0.1100 
  4 C        0.4300    -1.0380     0.4450 C.2   1 <1>  -0.1810 
  5 C       -1.7510    -1.5050    -0.8400 C.2   1 <1>   0.7150 
  6 C        1.4510    -0.0430     0.5040 C.2   1 <1>  -0.1500 
  7 C        0.5240    -2.2640     1.3370 C.3   1 <1>  -0.0590 
  8 O       -1.6800    -2.7070    -1.0310 O.2   1 <1>  -0.5700 
  9 N       -2.9800    -0.8910    -0.9810 N.am  1 <1>  -0.6600 
 10 C       -3.3650     0.3570    -0.2730 C.3   1 <1>   0.1400 
 11 C       -4.0930    -1.5230    -1.7380 C.3   1 <1>   0.1400 
 12 C       -4.5080     0.0490     0.7000 C.3   1 <1>  -0.1600 
 13 C       -5.2370    -1.8450    -0.7740 C.3   1 <1>  -0.1600 
 14 C       -5.7160    -0.6050    -0.0020 C.3   1 <1>   0.2800 
 15 O       -6.2060     0.2760    -0.9740 O.3   1 <1>  -0.5600 
 16 C       -6.8430    -1.0070     0.9870 C.3   1 <1>  -0.1600 
 17 C       -6.8840     1.4520    -0.5910 C.3   1 <1>   0.1200 
 18 C       -8.1800    -0.2780     0.7640 C.3   1 <1>   0.3000 
 19 C       -7.8800     1.2320     0.5670 C.3   1 <1>   0.2000 
 20 N       -8.7730    -0.8370    -0.4720 N.am  1 <1>  -0.7300 
 21 C       -9.1140    -0.5490     1.9520 C.3   1 <1>  -0.2400 
 22 O       -7.3420     1.7860     1.7320 O.3   1 <1>  -0.6800 
 23 C       -9.8900    -0.3640    -1.0710 C.2   1 <1>   0.5690 
 24 O       -9.7720     0.3550    -2.0320 O.2   1 <1>  -0.5700 
 25 C      -11.2840    -0.7420    -0.5680 C.3   1 <1>  -0.0190 
 26 C      -12.0250    -1.6120    -1.6010 C.3   1 <1>  -0.1600 
 27 C      -12.1220     0.5060    -0.2220 C.3   1 <1>  -0.1600 
 28 C      -13.4270    -2.0000    -1.1080 C.3   1 <1>  -0.1600 
 29 C      -13.5210     0.1200     0.2790 C.3   1 <1>  -0.1600 
 30 C      -14.2510    -0.7570    -0.7470 C.3   1 <1>  -0.1600 
 31 H        1.8380     1.8710    -0.5360 H     1 <1>   0.1500 
 32 H        2.2860    -0.1420     1.1750 H     1 <1>   0.1500 
 33 H        1.4000    -2.8320     1.0820 H     1 <1>   0.0800 
 34 H       -0.3370    -2.8960     1.2170 H     1 <1>   0.0800 
 35 H        0.5880    -1.9650     2.3670 H     1 <1>   0.0800 
 36 H       -2.5330     0.7580     0.2780 H     1 <1>   0.0800 
 37 H       -3.6790     1.0900    -0.9970 H     1 <1>   0.0800 
 38 H       -4.4330    -0.8400    -2.4980 H     1 <1>   0.0800 
 39 H       -3.7590    -2.4230    -2.2260 H     1 <1>   0.0800 
 40 H       -4.7960     0.9540     1.1980 H     1 <1>   0.0800 
 41 H       -4.1300    -0.6210     1.4510 H     1 <1>   0.0800 
 42 H       -4.8910    -2.5940    -0.0850 H     1 <1>   0.0800 
 43 H       -6.0560    -2.2670    -1.3280 H     1 <1>   0.0800 
 44 H       -7.0180    -2.0680     0.9520 H     1 <1>   0.0800 
 45 H       -6.5010    -0.8120     1.9870 H     1 <1>   0.0800 
 46 H       -6.1610     2.2110    -0.3490 H     1 <1>   0.0800 
 47 H       -7.4310     1.7760    -1.4590 H     1 <1>   0.0800 
 48 H       -8.7900     1.7720     0.3690 H     1 <1>   0.0800 
 49 H       -8.0040    -0.8520    -1.1530 H     1 <1>   0.3700 
 50 H       -8.6350    -0.2780     2.8760 H     1 <1>   0.0800 
 51 H       -9.3700    -1.5930     2.0000 H     1 <1>   0.0800 
 52 H      -10.0080     0.0390     1.8760 H     1 <1>   0.0800 
 53 H       -6.5080     1.3380     1.9620 H     1 <1>   0.4000 
 54 H      -11.1710    -1.3330     0.3210 H     1 <1>   0.0800 
 55 H      -12.1110    -1.0670    -2.5270 H     1 <1>   0.0800 
 56 H      -11.4530    -2.5020    -1.7970 H     1 <1>   0.0800 
 57 H      -11.6210     1.0900     0.5290 H     1 <1>   0.0800 
 58 H      -12.2190     1.1210    -1.1000 H     1 <1>   0.0800 
 59 H      -13.9350    -2.5580    -1.8750 H     1 <1>   0.0800 
 60 H      -13.3390    -2.6330    -0.2420 H     1 <1>   0.0800 
 61 H      -13.4350    -0.4150     1.2090 H     1 <1>   0.0800 
 62 H      -14.0960     1.0110     0.4630 H     1 <1>   0.0800 
 63 H      -15.2050    -1.0600    -0.3500 H     1 <1>   0.0800 
 64 H      -14.4340    -0.1820    -1.6390 H     1 <1>   0.0800 
@<TRIPOS>BOND
  1   1   2  1   
  2   1   3  1   
  3   2   4  2   
  4   2   5  1   
  5   3   6  2   
  6   3  31  1   
  7   4   6  1   
  8   4   7  1   
  9   5   8  2   
 10   5   9  am  
 11   6  32  1   
 12   7  33  1   
 13   7  34  1   
 14   7  35  1   
 15   9  10  1   
 16   9  11  1   
 17  10  12  1   
 18  10  36  1   
 19  10  37  1   
 20  11  13  1   
 21  11  38  1   
 22  11  39  1   
 23  12  14  1   
 24  12  40  1   
 25  12  41  1   
 26  13  14  1   
 27  13  42  1   
 28  13  43  1   
 29  14  15  1   
 30  14  16  1   
 31  15  17  1   
 32  16  18  1   
 33  16  44  1   
 34  16  45  1   
 35  17  19  1   
 36  17  46  1   
 37  17  47  1   
 38  18  19  1   
 39  18  20  1   
 40  18  21  1   
 41  19  22  1   
 42  19  48  1   
 43  20  23  am  
 44  20  49  1   
 45  21  50  1   
 46  21  51  1   
 47  21  52  1   
 48  22  53  1   
 49  23  24  2   
 50  23  25  1   
 51  25  26  1   
 52  25  27  1   
 53  25  54  1   
 54  26  28  1   
 55  26  55  1   
 56  26  56  1   
 57  27  29  1   
 58  27  57  1   
 59  27  58  1   
 60  28  30  1   
 61  28  59  1   
 62  28  60  1   
 63  29  30  1   
 64  29  61  1   
 65  29  62  1   
 66  30  63  1   
 67  30  64  1   
@<TRIPOS>SUBSTRUCTURE
  1 ****  14 GROUP 4 **** **** 0

# MOE 2024.06 (io_trps.svl 2023.06)
