@<TRIPOS>MOLECULE
NONAME
48 51 1 0 0 
SMALL
USER_CHARGES


@<TRIPOS>ATOM
  1 S        1.1130    -1.3310    -1.6790 S.3   1 <1>  -0.0800 
  2 C        0.1400     0.0560    -2.1170 C.2   1 <1>   0.4620 
  3 C       -0.1030    -1.8110    -0.5060 C.2   1 <1>  -0.0450 
  4 N       -0.9580     0.1510    -1.4670 N.2   1 <1>  -0.5650 
  5 N        0.5850     0.9020    -3.0700 N.pl3 1 <1>  -0.8840 
  6 C        0.0520    -2.9700     0.3260 C.2   1 <1>   0.7150 
  7 C       -1.0800    -0.8770    -0.5710 C.2   1 <1>   0.0770 
  8 O       -0.5970    -3.0570     1.3530 O.2   1 <1>  -0.5700 
  9 N        0.8800    -4.0350     0.0270 N.am  1 <1>  -0.6600 
 10 C        1.4380    -4.8490     1.1570 C.3   1 <1>   0.2200 
 11 C        1.0190    -4.5390    -1.3630 C.3   1 <1>   0.1400 
 12 C        2.8020    -5.5040     0.8210 C.3   1 <1>   0.1200 
 13 C        0.3730    -5.8530     1.6740 C.3   1 <1>   0.3430 
 14 C        0.9480    -6.0680    -1.4500 C.3   1 <1>  -0.0800 
 15 O        2.6700    -6.7420     0.1690 O.3   1 <1>  -0.5600 
 16 N        0.1110    -7.0140     0.7560 N.4   1 <1>  -0.9590 
 17 C        2.3270    -6.7160    -1.1860 C.3   1 <1>   0.1200 
 18 C       -0.2410    -6.6530    -0.6540 C.3   1 <1>   0.3430 
 19 C       -0.8090    -8.0130     1.3550 C.3   1 <1>   0.4860 
 20 C       -0.7460    -9.2860     0.5290 C.ar  1 <1>  -0.1430 
 21 C       -1.8580    -9.6970    -0.1990 C.ar  1 <1>  -0.1500 
 22 C        0.4250   -10.0380     0.4920 C.ar  1 <1>  -0.1500 
 23 C       -1.8020   -10.8470    -0.9680 C.ar  1 <1>  -0.1500 
 24 C        0.4900   -11.1890    -0.2750 C.ar  1 <1>  -0.1500 
 25 C       -0.6260   -11.5710    -0.9930 C.ar  1 <1>   0.1900 
 26 F       -0.5680   -12.6520    -1.7210 F     1 <1>  -0.1900 
 27 H        1.4900     0.8060    -3.5300 H     1 <1>   0.4000 
 28 H        0.0340     1.7270    -3.3120 H     1 <1>   0.4000 
 29 H       -1.9600    -0.8930     0.0520 H     1 <1>   0.1500 
 30 H        1.6290    -4.1590     1.9620 H     1 <1>   0.0800 
 31 H        0.2260    -4.1250    -1.9640 H     1 <1>   0.0800 
 32 H        1.9510    -4.1880    -1.7760 H     1 <1>   0.0800 
 33 H        3.3240    -5.7040     1.7410 H     1 <1>   0.0800 
 34 H        3.4190    -4.8480     0.2310 H     1 <1>   0.0800 
 35 H       -0.5440    -5.3170     1.8570 H     1 <1>   0.0800 
 36 H        0.7170    -6.2340     2.6210 H     1 <1>   0.0800 
 37 H        0.7350    -6.2690    -2.4860 H     1 <1>   0.0800 
 38 H        1.0400    -7.4680     0.6600 H     1 <1>   0.4500 
 39 H        3.1080    -6.2020    -1.7230 H     1 <1>   0.0800 
 40 H        2.3160    -7.7390    -1.5250 H     1 <1>   0.0800 
 41 H       -0.5630    -7.5450    -1.1680 H     1 <1>   0.0800 
 42 H       -1.0640    -5.9570    -0.6610 H     1 <1>   0.0800 
 43 H       -0.5090    -8.2330     2.3660 H     1 <1>   0.0800 
 44 H       -1.8160    -7.6290     1.3710 H     1 <1>   0.0800 
 45 H       -2.7770    -9.1340    -0.1750 H     1 <1>   0.1500 
 46 H        1.2950    -9.7440     1.0560 H     1 <1>   0.1500 
 47 H       -2.6500   -11.1840    -1.5380 H     1 <1>   0.1500 
 48 H        1.3840   -11.7860    -0.3190 H     1 <1>   0.1500 
@<TRIPOS>BOND
  1   1   2  1   
  2   1   3  1   
  3   2   4  2   
  4   2   5  1   
  5   3   6  1   
  6   3   7  2   
  7   4   7  1   
  8   5  27  1   
  9   5  28  1   
 10   6   8  2   
 11   6   9  am  
 12   7  29  1   
 13   9  10  1   
 14   9  11  1   
 15  10  12  1   
 16  10  13  1   
 17  10  30  1   
 18  11  14  1   
 19  11  31  1   
 20  11  32  1   
 21  12  15  1   
 22  12  33  1   
 23  12  34  1   
 24  13  16  1   
 25  13  35  1   
 26  13  36  1   
 27  14  17  1   
 28  14  18  1   
 29  14  37  1   
 30  15  17  1   
 31  16  18  1   
 32  16  19  1   
 33  16  38  1   
 34  17  39  1   
 35  17  40  1   
 36  18  41  1   
 37  18  42  1   
 38  19  20  1   
 39  19  43  1   
 40  19  44  1   
 41  20  21  ar  
 42  20  22  ar  
 43  21  23  ar  
 44  21  45  1   
 45  22  24  ar  
 46  22  46  1   
 47  23  25  ar  
 48  23  47  1   
 49  24  25  ar  
 50  24  48  1   
 51  25  26  1   
@<TRIPOS>SUBSTRUCTURE
  1 ****  18 GROUP 4 **** **** 0

# MOE 2024.06 (io_trps.svl 2023.06)
