@<TRIPOS>MOLECULE
NONAME
42 45 1 0 0 
SMALL
USER_CHARGES


@<TRIPOS>ATOM
  1 O       -1.9250     0.4430    -2.1320 O.2   1 <1>  -0.5700 
  2 C       -2.0390    -0.3220    -1.2060 C.2   1 <1>   0.5690 
  3 N       -2.4730     0.1200    -0.0080 N.am  1 <1>  -0.7300 
  4 C       -1.6590    -1.7800    -1.3800 C.3   1 <1>  -0.0190 
  5 C       -2.7190    -0.7640     1.1610 C.3   1 <1>   0.2200 
  6 C       -0.5220    -2.1680    -0.4210 C.3   1 <1>   0.1200 
  7 C       -2.8670    -2.7350    -1.3040 C.3   1 <1>   0.1100 
  8 C       -1.4020    -1.4040     1.6470 C.3   1 <1>   0.1200 
  9 C       -3.8160    -1.8280     0.8880 C.3   1 <1>   0.1100 
 10 O       -0.9900    -2.4820     0.8560 O.3   1 <1>  -0.5600 
 11 N       -4.0200    -2.2110    -0.5360 N.3   1 <1>  -0.8100 
 12 C       -5.2890    -2.9130    -0.7980 C.3   1 <1>   0.2480 
 13 C       -5.4430    -4.3340    -0.2340 C.2   1 <1>  -0.0380 
 14 N       -6.6660    -4.9240    -0.4690 N.pl3 1 <1>  -0.6000 
 15 C       -4.5080    -5.0420     0.4550 C.2   1 <1>  -0.1360 
 16 C       -6.9850    -6.2050    -0.0350 C.ar  1 <1>   0.1000 
 17 C       -4.7500    -6.3540     0.9370 C.2   1 <1>   0.4690 
 18 C       -6.0340    -6.9500     0.6790 C.ar  1 <1>   0.0860 
 19 C       -8.2390    -6.7530    -0.3020 C.ar  1 <1>  -0.1500 
 20 O       -3.8780    -6.9480     1.5590 O.2   1 <1>  -0.5700 
 21 C       -6.3810    -8.2370     1.1040 C.ar  1 <1>  -0.1500 
 22 C       -8.5580    -8.0220     0.1270 C.ar  1 <1>  -0.1500 
 23 C       -7.6240    -8.7690     0.8340 C.ar  1 <1>  -0.1500 
 24 H       -2.8390     1.0710     0.0210 H     1 <1>   0.3700 
 25 H       -1.2490    -1.8710    -2.3690 H     1 <1>   0.0800 
 26 H       -3.0660    -0.1420     1.9660 H     1 <1>   0.0800 
 27 H        0.2120    -1.3840    -0.3470 H     1 <1>   0.0800 
 28 H       -0.0340    -3.0520    -0.7920 H     1 <1>   0.0800 
 29 H       -2.5490    -3.6840    -0.9130 H     1 <1>   0.0800 
 30 H       -3.1990    -2.9050    -2.3140 H     1 <1>   0.0800 
 31 H       -1.5500    -1.7950     2.6370 H     1 <1>   0.0800 
 32 H       -0.6120    -0.6740     1.6900 H     1 <1>   0.0800 
 33 H       -4.7420    -1.4200     1.2530 H     1 <1>   0.0800 
 34 H       -3.6110    -2.6980     1.4840 H     1 <1>   0.0800 
 35 H       -6.0880    -2.3100    -0.4040 H     1 <1>   0.0800 
 36 H       -5.4340    -2.9570    -1.8640 H     1 <1>   0.0800 
 37 H       -7.3860    -4.4120    -0.9890 H     1 <1>   0.4000 
 38 H       -3.5330    -4.6600     0.6780 H     1 <1>   0.1500 
 39 H       -8.9630    -6.1770    -0.8490 H     1 <1>   0.1500 
 40 H       -5.6550    -8.8140     1.6520 H     1 <1>   0.1500 
 41 H       -9.5270    -8.4420    -0.0810 H     1 <1>   0.1500 
 42 H       -7.8750    -9.7610     1.1690 H     1 <1>   0.1500 
@<TRIPOS>BOND
  1   1   2  2   
  2   2   3  am  
  3   2   4  1   
  4   3   5  1   
  5   3  24  1   
  6   4   6  1   
  7   4   7  1   
  8   4  25  1   
  9   5   8  1   
 10   5   9  1   
 11   5  26  1   
 12   6  10  1   
 13   6  27  1   
 14   6  28  1   
 15   7  11  1   
 16   7  29  1   
 17   7  30  1   
 18   8  10  1   
 19   8  31  1   
 20   8  32  1   
 21   9  11  1   
 22   9  33  1   
 23   9  34  1   
 24  11  12  1   
 25  12  13  1   
 26  12  35  1   
 27  12  36  1   
 28  13  14  1   
 29  13  15  2   
 30  14  16  1   
 31  14  37  1   
 32  15  17  1   
 33  15  38  1   
 34  16  18  ar  
 35  16  19  ar  
 36  17  18  1   
 37  17  20  2   
 38  18  21  ar  
 39  19  22  ar  
 40  19  39  1   
 41  21  23  ar  
 42  21  40  1   
 43  22  23  ar  
 44  22  41  1   
 45  23  42  1   
@<TRIPOS>SUBSTRUCTURE
  1 ****  15 GROUP 4 **** **** 0

# MOE 2024.06 (io_trps.svl 2023.06)
