@<TRIPOS>MOLECULE
NONAME
23 24 1 0 0 
SMALL
USER_CHARGES


@<TRIPOS>ATOM
  1 N        0.3720    -0.2860    -0.7960 N.1   1 <1>  -0.5570 
  2 C        1.3750    -0.8200    -0.7060 C.1   1 <1>   0.4840 
  3 C        2.6200    -1.5260    -0.5920 C.ar  1 <1>   0.0730 
  4 C        2.6470    -2.8590    -0.1970 C.ar  1 <1>  -0.1500 
  5 C        3.8250    -0.8950    -0.8730 C.ar  1 <1>  -0.1500 
  6 C        3.8410    -3.5610    -0.0870 C.ar  1 <1>  -0.1080 
  7 C        5.0230    -1.5760    -0.7560 C.ar  1 <1>  -0.1500 
  8 C        5.0320    -2.9010    -0.3610 C.ar  1 <1>  -0.1500 
  9 C        3.8410    -5.0250     0.3460 C.3   1 <1>   0.1080 
 10 C        4.8870    -5.9220    -0.3580 C.3   1 <1>   0.4720 
 11 C        2.7960    -5.9100    -0.3740 C.3   1 <1>   0.4720 
 12 N        3.8350    -6.9880    -0.4450 N.4   1 <1>  -0.8440 
 13 H        1.7080    -3.3340     0.0320 H     1 <1>   0.1500 
 14 H        3.8290     0.1380    -1.1820 H     1 <1>   0.1500 
 15 H        5.9490    -1.0680    -0.9700 H     1 <1>   0.1500 
 16 H        5.9860    -3.3930    -0.2670 H     1 <1>   0.1500 
 17 H        3.8310    -5.1550     1.4140 H     1 <1>   0.0000 
 18 H        5.7150    -6.2130     0.2630 H     1 <1>   0.0000 
 19 H        5.1600    -5.5690    -1.3360 H     1 <1>   0.0000 
 20 H        2.5420    -5.5530    -1.3560 H     1 <1>   0.0000 
 21 H        1.9550    -6.1910     0.2330 H     1 <1>   0.0000 
 22 H        3.8260    -7.6020     0.3770 H     1 <1>   0.4500 
 23 H        3.8400    -7.4990    -1.3340 H     1 <1>   0.4500 
@<TRIPOS>BOND
  1   1   2  3   
  2   2   3  1   
  3   3   4  ar  
  4   3   5  ar  
  5   4   6  ar  
  6   4  13  1   
  7   5   7  ar  
  8   5  14  1   
  9   6   8  ar  
 10   6   9  1   
 11   7   8  ar  
 12   7  15  1   
 13   8  16  1   
 14   9  10  1   
 15   9  11  1   
 16   9  17  1   
 17  10  12  1   
 18  10  18  1   
 19  10  19  1   
 20  11  12  1   
 21  11  20  1   
 22  11  21  1   
 23  12  22  1   
 24  12  23  1   
@<TRIPOS>SUBSTRUCTURE
  1 ****   6 GROUP 4 **** **** 0

# MOE 2024.06 (io_trps.svl 2023.06)
