@<TRIPOS>MOLECULE
NONAME
73 76 1 0 0 
SMALL
USER_CHARGES


@<TRIPOS>ATOM
  1 O        1.7110    -2.2660     0.5280 O.3   1 <1>  -0.5600 
  2 C        0.6000    -2.2230    -0.3380 C.3   1 <1>   0.2800 
  3 C        2.2240    -1.0440     0.9860 C.3   1 <1>   0.1200 
  4 C       -0.5430    -1.4150     0.3140 C.3   1 <1>  -0.1600 
  5 C        0.1520    -3.6890    -0.5130 C.3   1 <1>  -0.1600 
  6 C        1.0440    -1.7120    -1.7260 C.3   1 <1>  -0.1600 
  7 C        1.1530    -0.2960     1.7810 C.3   1 <1>  -0.1600 
  8 C       -0.1080    -0.0880     0.9430 C.3   1 <1>   0.2800 
  9 C        1.0640    -4.5290    -1.4190 C.3   1 <1>   0.3430 
 10 C        2.1890    -2.5330    -2.3330 C.3   1 <1>   0.3430 
 11 O        0.1860     0.7950    -0.0670 O.3   1 <1>  -0.6800 
 12 C       -1.2330     0.5490     1.7560 C.3   1 <1>  -0.2400 
 13 N        2.3520    -3.8230    -1.6030 N.4   1 <1>  -0.9590 
 14 C        3.4620    -4.6640    -2.1080 C.3   1 <1>   0.4860 
 15 C        4.7580    -3.9030    -1.9010 C.ar  1 <1>  -0.1430 
 16 C        5.2500    -3.6900    -0.6210 C.ar  1 <1>  -0.1500 
 17 C        5.4510    -3.4010    -2.9900 C.ar  1 <1>  -0.1500 
 18 C        6.4250    -2.9700    -0.4090 C.ar  1 <1>   0.0830 
 19 C        6.6190    -2.6890    -2.7950 C.ar  1 <1>  -0.1500 
 20 O        6.8920    -2.7390     0.8540 O.3   1 <1>  -0.3630 
 21 C        7.1220    -2.4690    -1.5240 C.ar  1 <1>   0.0830 
 22 C        6.1950    -3.1510     2.0130 C.3   1 <1>   0.0400 
 23 O        8.2880    -1.7590    -1.4990 O.3   1 <1>  -0.3630 
 24 C        9.1550    -1.7670    -0.3930 C.3   1 <1>   0.1200 
 25 C       10.4890    -1.1700    -0.8450 C.3   1 <1>   0.3430 
 26 N       11.4850    -1.0640     0.2710 N.4   1 <1>  -0.9590 
 27 C       12.6560    -0.2480    -0.1660 C.3   1 <1>   0.3430 
 28 C       11.9150    -2.4040     0.7760 C.3   1 <1>   0.3430 
 29 C       13.6000    -0.0250     1.0170 C.3   1 <1>  -0.1600 
 30 C       12.8450    -2.2290     1.9790 C.3   1 <1>  -0.1600 
 31 C       14.0560    -1.3510     1.6380 C.3   1 <1>  -0.1600 
 32 H        2.5630    -0.4600     0.1480 H     1 <1>   0.0800 
 33 H        3.0690    -1.2570     1.6170 H     1 <1>   0.0800 
 34 H       -0.9670    -2.0180     1.0970 H     1 <1>   0.0800 
 35 H       -1.3280    -1.2350    -0.3980 H     1 <1>   0.0800 
 36 H       -0.8350    -3.7130    -0.9390 H     1 <1>   0.0800 
 37 H        0.0810    -4.1560     0.4530 H     1 <1>   0.0800 
 38 H        1.3400    -0.6810    -1.6980 H     1 <1>   0.0800 
 39 H        0.2030    -1.7560    -2.3940 H     1 <1>   0.0800 
 40 H        1.5380     0.6500     2.1180 H     1 <1>   0.0800 
 41 H        0.9140    -0.8770     2.6540 H     1 <1>   0.0800 
 42 H        0.5930    -4.6740    -2.3780 H     1 <1>   0.0800 
 43 H        1.2250    -5.4940    -0.9660 H     1 <1>   0.0800 
 44 H        3.1030    -1.9650    -2.2510 H     1 <1>   0.0800 
 45 H        1.9960    -2.7110    -3.3780 H     1 <1>   0.0800 
 46 H        0.2710     1.6940     0.3040 H     1 <1>   0.4000 
 47 H       -1.5210    -0.1040     2.5610 H     1 <1>   0.0800 
 48 H       -2.0950     0.7170     1.1360 H     1 <1>   0.0800 
 49 H       -0.9160     1.4830     2.1840 H     1 <1>   0.0800 
 50 H        2.6060    -3.5100    -0.6460 H     1 <1>   0.4500 
 51 H        3.3190    -4.8860    -3.1530 H     1 <1>   0.0800 
 52 H        3.5030    -5.5920    -1.5600 H     1 <1>   0.0800 
 53 H        4.7030    -4.0930     0.2100 H     1 <1>   0.1500 
 54 H        5.0960    -3.5540    -3.9960 H     1 <1>   0.1500 
 55 H        7.1540    -2.2990    -3.6430 H     1 <1>   0.1500 
 56 H        6.7480    -2.8180     2.8730 H     1 <1>   0.0800 
 57 H        6.1280    -4.2250     2.0200 H     1 <1>   0.0800 
 58 H        5.2180    -2.7020     2.0150 H     1 <1>   0.0800 
 59 H        9.2720    -2.7860    -0.0710 H     1 <1>   0.0800 
 60 H        8.7110    -1.1650     0.3800 H     1 <1>   0.0800 
 61 H       10.2940    -0.1870    -1.2420 H     1 <1>   0.0800 
 62 H       10.8940    -1.7800    -1.6360 H     1 <1>   0.0800 
 63 H       11.0500    -0.5630     1.0560 H     1 <1>   0.4500 
 64 H       12.3230     0.7060    -0.5430 H     1 <1>   0.0800 
 65 H       13.1840    -0.7590    -0.9550 H     1 <1>   0.0800 
 66 H       12.4330    -2.9400    -0.0040 H     1 <1>   0.0800 
 67 H       11.0580    -2.9860     1.0750 H     1 <1>   0.0800 
 68 H       13.1080     0.5790     1.7600 H     1 <1>   0.0800 
 69 H       14.4630     0.5230     0.6790 H     1 <1>   0.0800 
 70 H       13.1880    -3.1970     2.3020 H     1 <1>   0.0800 
 71 H       12.2940    -1.7950     2.7960 H     1 <1>   0.0800 
 72 H       14.6320    -1.1600     2.5290 H     1 <1>   0.0800 
 73 H       14.6930    -1.8730     0.9430 H     1 <1>   0.0800 
@<TRIPOS>BOND
  1   1   2  1   
  2   1   3  1   
  3   2   4  1   
  4   2   5  1   
  5   2   6  1   
  6   3   7  1   
  7   3  32  1   
  8   3  33  1   
  9   4   8  1   
 10   4  34  1   
 11   4  35  1   
 12   5   9  1   
 13   5  36  1   
 14   5  37  1   
 15   6  10  1   
 16   6  38  1   
 17   6  39  1   
 18   7   8  1   
 19   7  40  1   
 20   7  41  1   
 21   8  11  1   
 22   8  12  1   
 23   9  13  1   
 24   9  42  1   
 25   9  43  1   
 26  10  13  1   
 27  10  44  1   
 28  10  45  1   
 29  11  46  1   
 30  12  47  1   
 31  12  48  1   
 32  12  49  1   
 33  13  14  1   
 34  13  50  1   
 35  14  15  1   
 36  14  51  1   
 37  14  52  1   
 38  15  16  ar  
 39  15  17  ar  
 40  16  18  ar  
 41  16  53  1   
 42  17  19  ar  
 43  17  54  1   
 44  18  20  1   
 45  18  21  ar  
 46  19  21  ar  
 47  19  55  1   
 48  20  22  1   
 49  21  23  1   
 50  22  56  1   
 51  22  57  1   
 52  22  58  1   
 53  23  24  1   
 54  24  25  1   
 55  24  59  1   
 56  24  60  1   
 57  25  26  1   
 58  25  61  1   
 59  25  62  1   
 60  26  27  1   
 61  26  28  1   
 62  26  63  1   
 63  27  29  1   
 64  27  64  1   
 65  27  65  1   
 66  28  30  1   
 67  28  66  1   
 68  28  67  1   
 69  29  31  1   
 70  29  68  1   
 71  29  69  1   
 72  30  31  1   
 73  30  70  1   
 74  30  71  1   
 75  31  72  1   
 76  31  73  1   
@<TRIPOS>SUBSTRUCTURE
  1 ****  18 GROUP 4 **** **** 0

# MOE 2024.06 (io_trps.svl 2023.06)
