@<TRIPOS>MOLECULE
NONAME
37 38 1 0 0 
SMALL
USER_CHARGES


@<TRIPOS>ATOM
  1 F        0.7480     0.1340     0.7930 F     1 <1>  -0.1900 
  2 C        1.7570     0.9500     0.6540 C.ar  1 <1>   0.1900 
  3 C        3.0340     0.5140     0.9610 C.ar  1 <1>   0.1600 
  4 C        1.5270     2.2290     0.2070 C.ar  1 <1>  -0.1500 
  5 N        4.1120     1.2800     0.8420 N.ar  1 <1>  -0.6200 
  6 C        2.6370     3.0570     0.0840 C.ar  1 <1>   0.0860 
  7 C        3.8840     2.5110     0.4020 C.ar  1 <1>   0.1600 
  8 C        2.5100     4.4270    -0.3590 C.2   1 <1>   0.5440 
  9 O        1.7400     4.6950    -1.2580 O.2   1 <1>  -0.5700 
 10 N        3.2520     5.4090     0.2440 N.am  1 <1>  -0.4930 
 11 C        3.3610     6.7870    -0.0720 C.2   1 <1>   0.0630 
 12 C        2.3660     7.7240    -0.3710 C.2   1 <1>   0.1080 
 13 C        4.5160     7.4890    -0.1080 C.2   1 <1>  -0.3320 
 14 N        2.8540     8.9070    -0.5770 N.2   1 <1>  -0.7070 
 15 C        0.8770     7.4670    -0.4450 C.3   1 <1>  -0.0590 
 16 N        4.1810     8.7680    -0.4210 N.pl3 1 <1>   0.3140 
 17 C        5.9430     7.0150     0.1290 C.3   1 <1>  -0.0600 
 18 C        5.0860     9.9230    -0.5930 C.3   1 <1>   0.0960 
 19 C        5.3350    10.6310     0.7470 C.3   1 <1>  -0.1600 
 20 C        6.2880    11.8210     0.5830 C.3   1 <1>  -0.2400 
 21 H        3.1690    -0.4950     1.3110 H     1 <1>   0.1500 
 22 H        0.5370     2.5730    -0.0380 H     1 <1>   0.1500 
 23 H        4.7540     3.1330     0.2780 H     1 <1>   0.1500 
 24 H        3.8470     5.1320     1.0210 H     1 <1>   0.3700 
 25 H        0.5960     6.7030     0.2530 H     1 <1>   0.0800 
 26 H        0.6190     7.1510    -1.4390 H     1 <1>   0.0800 
 27 H        0.3400     8.3680    -0.2140 H     1 <1>   0.0800 
 28 H        5.9650     5.9620     0.3380 H     1 <1>   0.0800 
 29 H        6.3760     7.5380     0.9630 H     1 <1>   0.0800 
 30 H        6.5410     7.1960    -0.7460 H     1 <1>   0.0800 
 31 H        4.6260    10.6040    -1.2860 H     1 <1>   0.0800 
 32 H        6.0100     9.5800    -1.0170 H     1 <1>   0.0800 
 33 H        5.7560     9.9350     1.4510 H     1 <1>   0.0800 
 34 H        4.3940    10.9810     1.1380 H     1 <1>   0.0800 
 35 H        7.2420    11.4940     0.2090 H     1 <1>   0.0800 
 36 H        6.4400    12.3020     1.5330 H     1 <1>   0.0800 
 37 H        5.8740    12.5420    -0.1010 H     1 <1>   0.0800 
@<TRIPOS>BOND
  1   1   2  1   
  2   2   3  ar  
  3   2   4  ar  
  4   3   5  ar  
  5   3  21  1   
  6   4   6  ar  
  7   4  22  1   
  8   5   7  ar  
  9   6   7  ar  
 10   6   8  1   
 11   7  23  1   
 12   8   9  2   
 13   8  10  am  
 14  10  11  1   
 15  10  24  1   
 16  11  12  1   
 17  11  13  2   
 18  12  14  2   
 19  12  15  1   
 20  13  16  1   
 21  13  17  1   
 22  14  16  1   
 23  15  25  1   
 24  15  26  1   
 25  15  27  1   
 26  16  18  1   
 27  17  28  1   
 28  17  29  1   
 29  17  30  1   
 30  18  19  1   
 31  18  31  1   
 32  18  32  1   
 33  19  20  1   
 34  19  33  1   
 35  19  34  1   
 36  20  35  1   
 37  20  36  1   
 38  20  37  1   
@<TRIPOS>SUBSTRUCTURE
  1 ****  10 GROUP 4 **** **** 0

# MOE 2024.06 (io_trps.svl 2023.06)
