@<TRIPOS>MOLECULE
NONAME
45 46 1 0 0 
SMALL
USER_CHARGES


@<TRIPOS>ATOM
  1 S       -0.9210     0.0600     0.9310 S.o2  1 <1>   1.5010 
  2 O       -0.6890    -1.1420     1.6940 O.2   1 <1>  -0.6500 
  3 O       -1.7560     1.0950     1.4930 O.2   1 <1>  -0.6500 
  4 N       -1.7680    -0.3650    -0.4580 N.am  1 <1>  -0.9140 
  5 C        0.6320     0.7540     0.3080 C.2   1 <1>  -0.0630 
  6 C       -1.6840    -1.7090    -1.0500 C.3   1 <1>   0.2760 
  7 C        0.7820     1.8210    -0.5080 C.2   1 <1>  -0.1400 
  8 C        1.8950     0.1630     0.6610 C.2   1 <1>  -0.1500 
  9 C       -2.4660    -2.8230    -0.3430 C.3   1 <1>  -0.0800 
 10 C       -0.2650    -2.2800    -1.2020 C.3   1 <1>   0.1200 
 11 S        2.4730     2.1170    -0.8700 S.3   1 <1>  -0.0800 
 12 C       -0.2110     2.7750    -1.1450 C.3   1 <1>  -0.0600 
 13 C        2.9690     0.7620     0.1190 C.2   1 <1>  -0.1400 
 14 C       -1.3680    -3.7940     0.0890 C.3   1 <1>   0.1200 
 15 C       -3.4470    -2.4280     0.7860 C.3   1 <1>  -0.0550 
 16 O       -0.3520    -3.6220    -0.8440 O.3   1 <1>  -0.5600 
 17 C        4.4530     0.4800     0.2160 C.3   1 <1>  -0.0600 
 18 S       -4.5360    -3.7550     1.3120 S.o2  1 <1>   1.3330 
 19 O       -3.7310    -4.8960     1.6850 O.2   1 <1>  -0.6500 
 20 O       -5.5020    -3.2230     2.2460 O.2   1 <1>  -0.6500 
 21 N       -5.3700    -4.1440    -0.1180 N.am  1 <1>  -0.8490 
 22 C       -6.5660    -3.3220    -0.3380 C.3   1 <1>   0.1160 
 23 C       -5.7250    -5.5650    -0.1880 C.3   1 <1>   0.1160 
 24 H       -2.7330    -0.1330    -0.2420 H     1 <1>   0.4200 
 25 H       -2.0900    -1.6250    -2.0440 H     1 <1>   0.0800 
 26 H        1.9310    -0.6950     1.3130 H     1 <1>   0.1500 
 27 H       -3.0280    -3.3330    -1.1060 H     1 <1>   0.0800 
 28 H        0.4500    -1.8230    -0.5480 H     1 <1>   0.0800 
 29 H        0.0810    -2.2230    -2.2190 H     1 <1>   0.0800 
 30 H       -1.2170     2.5270    -0.8610 H     1 <1>   0.0800 
 31 H       -0.1300     2.7270    -2.2160 H     1 <1>   0.0800 
 32 H       -0.0030     3.7810    -0.8270 H     1 <1>   0.0800 
 33 H       -1.6900    -4.8210     0.0710 H     1 <1>   0.0800 
 34 H       -0.9750    -3.5540     1.0620 H     1 <1>   0.0800 
 35 H       -4.0560    -1.6150     0.4480 H     1 <1>   0.0800 
 36 H       -2.9010    -2.0900     1.6430 H     1 <1>   0.0800 
 37 H        4.6280    -0.3720     0.8480 H     1 <1>   0.0800 
 38 H        4.9610     1.3320     0.6310 H     1 <1>   0.0800 
 39 H        4.8520     0.2770    -0.7610 H     1 <1>   0.0800 
 40 H       -6.9960    -3.5440    -1.2990 H     1 <1>   0.0800 
 41 H       -6.3090    -2.2770    -0.3130 H     1 <1>   0.0800 
 42 H       -7.3000    -3.5150     0.4270 H     1 <1>   0.0800 
 43 H       -6.2440    -5.7770    -1.1070 H     1 <1>   0.0800 
 44 H       -6.3530    -5.8350     0.6450 H     1 <1>   0.0800 
 45 H       -4.8340    -6.1710    -0.1600 H     1 <1>   0.0800 
@<TRIPOS>BOND
  1   1   2  2   
  2   1   3  2   
  3   1   4  am  
  4   1   5  1   
  5   4   6  1   
  6   4  24  1   
  7   5   7  2   
  8   5   8  1   
  9   6   9  1   
 10   6  10  1   
 11   6  25  1   
 12   7  11  1   
 13   7  12  1   
 14   8  13  2   
 15   8  26  1   
 16   9  14  1   
 17   9  15  1   
 18   9  27  1   
 19  10  16  1   
 20  10  28  1   
 21  10  29  1   
 22  11  13  1   
 23  12  30  1   
 24  12  31  1   
 25  12  32  1   
 26  13  17  1   
 27  14  16  1   
 28  14  33  1   
 29  14  34  1   
 30  15  18  1   
 31  15  35  1   
 32  15  36  1   
 33  17  37  1   
 34  17  38  1   
 35  17  39  1   
 36  18  19  2   
 37  18  20  2   
 38  18  21  am  
 39  21  22  1   
 40  21  23  1   
 41  22  40  1   
 42  22  41  1   
 43  22  42  1   
 44  23  43  1   
 45  23  44  1   
 46  23  45  1   
@<TRIPOS>SUBSTRUCTURE
  1 ****   4 GROUP 4 **** **** 0

# MOE 2024.06 (io_trps.svl 2023.06)
