@<TRIPOS>MOLECULE
NONAME
40 40 1 0 0 
SMALL
USER_CHARGES


@<TRIPOS>ATOM
  1 S       -0.0820     0.1560     0.2420 S.o2  1 <1>   1.4590 
  2 O        0.2110     1.4790    -0.3690 O.co2 1 <1>  -0.8170 
  3 O       -1.0980    -0.6250    -0.5040 O.co2 1 <1>  -0.8170 
  4 O       -0.3550     0.2340     1.6980 O.co2 1 <1>  -0.8170 
  5 C        1.4780    -0.8080     0.0970 C.ar  1 <1>  -0.0090 
  6 C        2.7120    -0.1820     0.0900 C.ar  1 <1>  -0.1500 
  7 C        1.4550    -2.1900     0.0190 C.ar  1 <1>  -0.1500 
  8 C        3.9150    -0.8760    -0.0010 C.ar  1 <1>  -0.1440 
  9 C        2.6070    -2.9650    -0.0760 C.ar  1 <1>  -0.1440 
 10 C        3.8290    -2.2750    -0.0840 C.ar  1 <1>   0.0830 
 11 C        5.2680    -0.0980    -0.0080 C.3   1 <1>   0.1440 
 12 C        2.4940    -4.5200    -0.1650 C.3   1 <1>   0.1440 
 13 O        4.9540    -2.9970    -0.1750 O.3   1 <1>  -0.5330 
 14 C        5.0910     1.4310     0.0940 C.3   1 <1>  -0.2400 
 15 C        6.0340    -0.3460    -1.3190 C.3   1 <1>  -0.2400 
 16 C        6.1350    -0.5020     1.1980 C.3   1 <1>  -0.2400 
 17 C        3.0860    -5.0390    -1.4890 C.3   1 <1>  -0.2400 
 18 C        1.0370    -5.0250    -0.1350 C.3   1 <1>  -0.2400 
 19 C        3.1910    -5.1910     1.0340 C.3   1 <1>  -0.2400 
 20 H        2.6690     0.8880     0.1600 H     1 <1>   0.1500 
 21 H        0.4700    -2.6170     0.0350 H     1 <1>   0.1500 
 22 H        4.7450    -3.9440    -0.2240 H     1 <1>   0.4500 
 23 H        4.5180     1.8020    -0.7370 H     1 <1>   0.0800 
 24 H        6.0430     1.9290     0.0850 H     1 <1>   0.0800 
 25 H        4.5900     1.6940     1.0090 H     1 <1>   0.0800 
 26 H        5.4030    -0.1090    -2.1580 H     1 <1>   0.0800 
 27 H        6.3420    -1.3690    -1.4100 H     1 <1>   0.0800 
 28 H        6.9160     0.2650    -1.3680 H     1 <1>   0.0800 
 29 H        5.5750    -0.3740     2.1070 H     1 <1>   0.0800 
 30 H        7.0210     0.1040     1.2510 H     1 <1>   0.0800 
 31 H        6.4460    -1.5260     1.1360 H     1 <1>   0.0800 
 32 H        2.6130    -4.5350    -2.3140 H     1 <1>   0.0800 
 33 H        2.9110    -6.0950    -1.5950 H     1 <1>   0.0800 
 34 H        4.1430    -4.8810    -1.5680 H     1 <1>   0.0800 
 35 H        0.4790    -4.6270    -0.9650 H     1 <1>   0.0800 
 36 H        0.5520    -4.7340     0.7810 H     1 <1>   0.0800 
 37 H        0.9970    -6.0970    -0.1990 H     1 <1>   0.0800 
 38 H        4.2520    -5.0390     1.0440 H     1 <1>   0.0800 
 39 H        3.0190    -6.2530     1.0270 H     1 <1>   0.0800 
 40 H        2.7920    -4.7910     1.9500 H     1 <1>   0.0800 
@<TRIPOS>BOND
  1   1   2  ar  
  2   1   3  ar  
  3   1   4  ar  
  4   1   5  1   
  5   5   6  ar  
  6   5   7  ar  
  7   6   8  ar  
  8   6  20  1   
  9   7   9  ar  
 10   7  21  1   
 11   8  10  ar  
 12   8  11  1   
 13   9  10  ar  
 14   9  12  1   
 15  10  13  1   
 16  11  14  1   
 17  11  15  1   
 18  11  16  1   
 19  12  17  1   
 20  12  18  1   
 21  12  19  1   
 22  13  22  1   
 23  14  23  1   
 24  14  24  1   
 25  14  25  1   
 26  15  26  1   
 27  15  27  1   
 28  15  28  1   
 29  16  29  1   
 30  16  30  1   
 31  16  31  1   
 32  17  32  1   
 33  17  33  1   
 34  17  34  1   
 35  18  35  1   
 36  18  36  1   
 37  18  37  1   
 38  19  38  1   
 39  19  39  1   
 40  19  40  1   
@<TRIPOS>SUBSTRUCTURE
  1 ****  10 GROUP 4 **** **** 0

# MOE 2024.06 (io_trps.svl 2023.06)
