@<TRIPOS>MOLECULE
NONAME
47 48 1 0 0 
SMALL
USER_CHARGES


@<TRIPOS>ATOM
  1 O       -1.1120    -0.0330     1.3730 O.2   1 <1>  -0.5700 
  2 C       -1.5690     0.8000     0.6140 C.2   1 <1>   0.5440 
  3 N       -2.3080     0.3630    -0.4640 N.am  1 <1>  -0.6600 
  4 C       -1.4450     2.2150     0.9200 C.ar  1 <1>   0.0860 
  5 C       -2.2090    -1.0530    -0.9100 C.3   1 <1>   0.3200 
  6 C       -3.5010     1.1170    -0.9530 C.3   1 <1>   0.1400 
  7 C       -0.8290     3.1420     0.0660 C.ar  1 <1>  -0.1440 
  8 C       -1.9840     2.6850     2.1180 C.ar  1 <1>  -0.1500 
  9 C       -3.3470    -1.7910    -0.2450 C.2   1 <1>  -0.3320 
 10 C       -4.5570     1.2190     0.1680 C.3   1 <1>   0.3430 
 11 C       -0.8130     4.4870     0.4020 C.ar  1 <1>  -0.1500 
 12 C       -0.1310     2.7180    -1.2250 C.3   1 <1>  -0.0160 
 13 C       -1.9620     4.0260     2.4470 C.ar  1 <1>  -0.1500 
 14 N       -3.3770    -1.9980     1.0830 N.pl3 1 <1>   0.0330 
 15 C       -4.4810    -2.3240    -0.7480 C.2   1 <1>   0.0770 
 16 N       -5.9570     1.4230    -0.3330 N.4   1 <1>  -0.9590 
 17 C       -1.3810     4.9320     1.5810 C.ar  1 <1>  -0.1500 
 18 C        1.2320     2.0910    -0.9200 C.3   1 <1>  -0.2400 
 19 C       -4.5600    -2.6060     1.3120 C.2   1 <1>   0.0360 
 20 N       -5.2620    -2.7980     0.2390 N.2   1 <1>  -0.5650 
 21 C       -6.8220     1.9470     0.7680 C.3   1 <1>   0.2630 
 22 C       -6.5320     0.1360    -0.8440 C.3   1 <1>   0.2630 
 23 H       -1.2620    -1.4800    -0.6220 H     1 <1>   0.0800 
 24 H       -2.2910    -1.1070    -1.9820 H     1 <1>   0.0800 
 25 H       -3.9130     0.6030    -1.8040 H     1 <1>   0.0800 
 26 H       -3.2020     2.1030    -1.2620 H     1 <1>   0.0800 
 27 H       -2.4180     1.9810     2.8070 H     1 <1>   0.1500 
 28 H       -4.2810     2.0380     0.8120 H     1 <1>   0.0800 
 29 H       -4.5280     0.3130     0.7510 H     1 <1>   0.0800 
 30 H       -0.3420     5.2050    -0.2480 H     1 <1>   0.1500 
 31 H        0.0180     3.5750    -1.8600 H     1 <1>   0.0800 
 32 H       -0.7310     2.0210    -1.7800 H     1 <1>   0.0800 
 33 H       -2.3840     4.3670     3.3770 H     1 <1>   0.1500 
 34 H       -2.6420    -1.7300     1.7540 H     1 <1>   0.2700 
 35 H       -4.7900    -2.3810    -1.7790 H     1 <1>   0.1500 
 36 H       -5.9480     2.1190    -1.0950 H     1 <1>   0.4500 
 37 H       -1.3580     5.9800     1.8300 H     1 <1>   0.1500 
 38 H        1.8500     2.7910    -0.3850 H     1 <1>   0.0800 
 39 H        1.7300     1.8230    -1.8350 H     1 <1>   0.0800 
 40 H        1.1180     1.2060    -0.3190 H     1 <1>   0.0800 
 41 H       -4.8690    -2.8970     2.3020 H     1 <1>   0.1500 
 42 H       -6.8590     1.2420     1.5830 H     1 <1>   0.0800 
 43 H       -7.8260     2.1110     0.4100 H     1 <1>   0.0800 
 44 H       -6.4340     2.8830     1.1380 H     1 <1>   0.0800 
 45 H       -6.5340    -0.6110    -0.0660 H     1 <1>   0.0800 
 46 H       -5.9490    -0.2380    -1.6700 H     1 <1>   0.0800 
 47 H       -7.5460     0.2820    -1.1800 H     1 <1>   0.0800 
@<TRIPOS>BOND
  1   1   2  2   
  2   2   3  am  
  3   2   4  1   
  4   3   5  1   
  5   3   6  1   
  6   4   7  ar  
  7   4   8  ar  
  8   5   9  1   
  9   5  23  1   
 10   5  24  1   
 11   6  10  1   
 12   6  25  1   
 13   6  26  1   
 14   7  11  ar  
 15   7  12  1   
 16   8  13  ar  
 17   8  27  1   
 18   9  14  1   
 19   9  15  2   
 20  10  16  1   
 21  10  28  1   
 22  10  29  1   
 23  11  17  ar  
 24  11  30  1   
 25  12  18  1   
 26  12  31  1   
 27  12  32  1   
 28  13  17  ar  
 29  13  33  1   
 30  14  19  1   
 31  14  34  1   
 32  15  20  1   
 33  15  35  1   
 34  16  21  1   
 35  16  22  1   
 36  16  36  1   
 37  17  37  1   
 38  18  38  1   
 39  18  39  1   
 40  18  40  1   
 41  19  20  2   
 42  19  41  1   
 43  21  42  1   
 44  21  43  1   
 45  21  44  1   
 46  22  45  1   
 47  22  46  1   
 48  22  47  1   
@<TRIPOS>SUBSTRUCTURE
  1 ****   3 GROUP 4 **** **** 0

# MOE 2024.06 (io_trps.svl 2023.06)
