@<TRIPOS>MOLECULE
NONAME
23 22 1 0 0 
SMALL
USER_CHARGES


@<TRIPOS>ATOM
  1 O       -0.7620     0.0180     1.1500 O.co2 1 <1>  -0.9000 
  2 C       -1.4890    -0.6350     0.3900 C.2   1 <1>   0.9060 
  3 O       -1.2490    -1.7960     0.0400 O.co2 1 <1>  -0.9000 
  4 C       -2.7830     0.0360    -0.1040 C.3   1 <1>   0.0940 
  5 O       -2.9780     1.2670     0.5330 O.3   1 <1>  -0.6800 
  6 C       -4.0140    -0.8290     0.1700 C.3   1 <1>  -0.1600 
  7 C       -5.2850    -0.0800    -0.2030 C.3   1 <1>   0.3430 
  8 N       -6.4830    -0.8660     0.2120 N.4   1 <1>  -0.9590 
  9 C       -6.6490    -2.1080    -0.6050 C.3   1 <1>   0.2630 
 10 C       -7.7030    -0.0100     0.1580 C.3   1 <1>   0.2630 
 11 H       -2.6720     0.2260    -1.1560 H     1 <1>   0.0800 
 12 H       -2.1330     1.4010     1.0450 H     1 <1>   0.4000 
 13 H       -4.0150    -1.0840     1.2160 H     1 <1>   0.0800 
 14 H       -3.9120    -1.7330    -0.4020 H     1 <1>   0.0800 
 15 H       -5.3020     0.1090    -1.2640 H     1 <1>   0.0800 
 16 H       -5.2820     0.8710     0.3060 H     1 <1>   0.0800 
 17 H       -6.3130    -1.1390     1.1930 H     1 <1>   0.4500 
 18 H       -6.7650    -1.8580    -1.6460 H     1 <1>   0.0800 
 19 H       -7.5180    -2.6570    -0.2800 H     1 <1>   0.0800 
 20 H       -5.7850    -2.7450    -0.4980 H     1 <1>   0.0800 
 21 H       -7.8900     0.3110    -0.8540 H     1 <1>   0.0800 
 22 H       -7.5720     0.8630     0.7780 H     1 <1>   0.0800 
 23 H       -8.5610    -0.5580     0.5130 H     1 <1>   0.0800 
@<TRIPOS>BOND
  1   1   2  ar  
  2   2   3  ar  
  3   2   4  1   
  4   4   5  1   
  5   4   6  1   
  6   4  11  1   
  7   5  12  1   
  8   6   7  1   
  9   6  13  1   
 10   6  14  1   
 11   7   8  1   
 12   7  15  1   
 13   7  16  1   
 14   8   9  1   
 15   8  10  1   
 16   8  17  1   
 17   9  18  1   
 18   9  19  1   
 19   9  20  1   
 20  10  21  1   
 21  10  22  1   
 22  10  23  1   
@<TRIPOS>SUBSTRUCTURE
  1 ****   6 GROUP 4 **** **** 0

# MOE 2024.06 (io_trps.svl 2023.06)
