@<TRIPOS>MOLECULE
NONAME
46 49 1 0 0 
SMALL
USER_CHARGES


@<TRIPOS>ATOM
  1 O       -0.4210     0.3200    -0.2030 O.2   1 <1>  -0.5700 
  2 C       -1.4470     0.9190     0.0560 C.2   1 <1>   0.5440 
  3 N       -2.5990     0.1940     0.2630 N.am  1 <1>  -0.6600 
  4 C       -1.4340     2.3690     0.1170 C.ar  1 <1>   0.0860 
  5 C       -3.9740     0.7280     0.0950 C.3   1 <1>   0.1400 
  6 C       -2.6120    -1.2910     0.2140 C.3   1 <1>   0.1400 
  7 C       -2.0450     3.0730     1.1550 C.ar  1 <1>  -0.1500 
  8 C       -0.7930     3.1180    -0.8690 C.ar  1 <1>  -0.1500 
  9 C       -4.8030    -0.4700    -0.3620 C.3   1 <1>   0.2000 
 10 C       -4.0890    -1.6890     0.2130 C.3   1 <1>  -0.0800 
 11 C       -2.0320     4.4540     1.1990 C.ar  1 <1>  -0.1500 
 12 C       -0.7750     4.4990    -0.8340 C.ar  1 <1>  -0.1500 
 13 O       -6.1020    -0.4000     0.1130 O.3   1 <1>  -0.6800 
 14 C       -4.3760    -2.9820    -0.5630 C.3   1 <1>   0.0210 
 15 C       -1.3980     5.1880     0.2020 C.ar  1 <1>  -0.0230 
 16 C       -3.5780    -4.1400     0.0040 C.2   1 <1>   0.1080 
 17 N       -1.3790     6.6050     0.2430 N.pl3 1 <1>   0.3260 
 18 N       -3.7590    -4.5950     1.2050 N.2   1 <1>  -0.7070 
 19 C       -2.5750    -4.8240    -0.6730 C.2   1 <1>  -0.1500 
 20 C       -2.3860     7.4620     0.4620 C.2   1 <1>   0.0360 
 21 C       -0.3500     7.4460     0.0710 C.2   1 <1>   0.0360 
 22 N       -2.8670    -5.5960     1.3260 N.pl3 1 <1>   0.3000 
 23 C       -2.1360    -5.7530     0.2030 C.2   1 <1>  -0.3320 
 24 N       -2.0070     8.6910     0.4280 N.2   1 <1>  -0.3380 
 25 N       -0.6960     8.6810     0.1760 N.2   1 <1>  -0.3380 
 26 C       -1.0470    -6.7960     0.0320 C.3   1 <1>  -0.0600 
 27 H       -4.3290     1.0920     1.0430 H     1 <1>   0.0800 
 28 H       -3.9970     1.5120    -0.6420 H     1 <1>   0.0800 
 29 H       -2.1230    -1.6180    -0.6890 H     1 <1>   0.0800 
 30 H       -2.0940    -1.7060     1.0630 H     1 <1>   0.0800 
 31 H       -2.5270     2.5190     1.9430 H     1 <1>   0.1500 
 32 H       -0.3020     2.5930    -1.6720 H     1 <1>   0.1500 
 33 H       -4.8340    -0.5000    -1.4380 H     1 <1>   0.0800 
 34 H       -4.3770    -1.8260     1.2410 H     1 <1>   0.0800 
 35 H       -2.5110     4.9620     2.0200 H     1 <1>   0.1500 
 36 H       -0.2740     5.0400    -1.6200 H     1 <1>   0.1500 
 37 H       -6.1280    -0.6230     1.0650 H     1 <1>   0.4000 
 38 H       -4.1300    -2.8540    -1.6020 H     1 <1>   0.0800 
 39 H       -5.4220    -3.2190    -0.4930 H     1 <1>   0.0800 
 40 H       -2.2390    -4.6320    -1.6760 H     1 <1>   0.1500 
 41 H       -3.3930     7.1340     0.6410 H     1 <1>   0.1500 
 42 H        0.6480     7.1000    -0.1260 H     1 <1>   0.1500 
 43 H       -2.7820    -6.1510     2.1860 H     1 <1>   0.2700 
 44 H       -0.6130    -6.7190    -0.9490 H     1 <1>   0.0800 
 45 H       -1.4550    -7.7840     0.1500 H     1 <1>   0.0800 
 46 H       -0.2710    -6.6460     0.7620 H     1 <1>   0.0800 
@<TRIPOS>BOND
  1   1   2  2   
  2   2   3  am  
  3   2   4  1   
  4   3   5  1   
  5   3   6  1   
  6   4   7  ar  
  7   4   8  ar  
  8   5   9  1   
  9   5  27  1   
 10   5  28  1   
 11   6  10  1   
 12   6  29  1   
 13   6  30  1   
 14   7  11  ar  
 15   7  31  1   
 16   8  12  ar  
 17   8  32  1   
 18   9  10  1   
 19   9  13  1   
 20   9  33  1   
 21  10  14  1   
 22  10  34  1   
 23  11  15  ar  
 24  11  35  1   
 25  12  15  ar  
 26  12  36  1   
 27  13  37  1   
 28  14  16  1   
 29  14  38  1   
 30  14  39  1   
 31  15  17  1   
 32  16  18  2   
 33  16  19  1   
 34  17  20  1   
 35  17  21  1   
 36  18  22  1   
 37  19  23  2   
 38  19  40  1   
 39  20  24  2   
 40  20  41  1   
 41  21  25  2   
 42  21  42  1   
 43  22  23  1   
 44  22  43  1   
 45  23  26  1   
 46  24  25  1   
 47  26  44  1   
 48  26  45  1   
 49  26  46  1   
@<TRIPOS>SUBSTRUCTURE
  1 ****   3 GROUP 4 **** **** 0

# MOE 2024.06 (io_trps.svl 2023.06)
