@<TRIPOS>MOLECULE
NONAME
48 51 1 0 0 
SMALL
USER_CHARGES


@<TRIPOS>ATOM
  1 O       -0.9380    -0.5620    -0.4350 O.2   1 <1>  -0.5700 
  2 C       -1.3340    -1.6810    -0.2360 C.2   1 <1>   0.5690 
  3 N       -2.5250    -2.1540    -0.6130 N.am  1 <1>  -0.7300 
  4 C       -0.5690    -2.7320     0.5190 C.3   1 <1>  -0.0990 
  5 C       -2.8250    -3.5070    -0.1380 C.3   1 <1>   0.2200 
  6 C       -1.4660    -3.9840     0.4120 C.3   1 <1>  -0.1600 
  7 C       -3.9290    -3.4790     0.9380 C.3   1 <1>   0.1100 
  8 N       -5.1810    -2.8750     0.4170 N.3   1 <1>  -0.8100 
  9 C       -5.3660    -1.4960     0.9040 C.3   1 <1>   0.2530 
 10 C       -6.3800    -3.7270     0.6580 C.3   1 <1>   0.2900 
 11 C       -6.4820    -0.7910     0.1440 C.ar  1 <1>  -0.1440 
 12 C       -6.3740    -5.0880    -0.0490 C.2   1 <1>   0.2980 
 13 C       -7.4400    -0.0350     0.7900 C.ar  1 <1>  -0.1500 
 14 C       -6.5950    -0.8700    -1.2300 C.ar  1 <1>  -0.1500 
 15 O       -7.3950    -5.8710     0.1510 O.3   1 <1>  -0.2800 
 16 N       -5.4770    -5.5720    -0.8200 N.2   1 <1>  -0.3380 
 17 C       -8.4370     0.5820     0.0520 C.ar  1 <1>   0.1600 
 18 C       -7.6320    -0.2150    -1.8730 C.ar  1 <1>   0.1600 
 19 C       -7.0520    -6.9070    -0.5810 C.2   1 <1>   0.4250 
 20 N       -5.9130    -6.7590    -1.1670 N.2   1 <1>  -0.3380 
 21 N       -8.5580     0.5070    -1.2630 N.ar  1 <1>  -0.6200 
 22 C       -7.9270    -8.0590    -0.6590 C.ar  1 <1>   0.0530 
 23 C       -9.1530    -8.1000     0.0100 C.ar  1 <1>  -0.1500 
 24 C       -7.5770    -9.1820    -1.4130 C.ar  1 <1>  -0.1500 
 25 C       -9.9840    -9.2030    -0.0670 C.ar  1 <1>  -0.1500 
 26 C       -8.4030   -10.2880    -1.4950 C.ar  1 <1>  -0.1500 
 27 C       -9.6100   -10.3010    -0.8200 C.ar  1 <1>  -0.1500 
 28 H       -3.2470    -1.5900    -1.0620 H     1 <1>   0.3700 
 29 H        0.3940    -2.8890     0.0710 H     1 <1>   0.0800 
 30 H       -0.4560    -2.4170     1.5400 H     1 <1>   0.0800 
 31 H       -3.1360    -4.1280    -0.9630 H     1 <1>   0.0800 
 32 H       -1.5630    -4.4910     1.3550 H     1 <1>   0.0800 
 33 H       -1.0370    -4.6720    -0.2960 H     1 <1>   0.0800 
 34 H       -3.5770    -2.9370     1.7990 H     1 <1>   0.0800 
 35 H       -4.1040    -4.4930     1.2530 H     1 <1>   0.0800 
 36 H       -5.5840    -1.5090     1.9580 H     1 <1>   0.0800 
 37 H       -4.4570    -0.9360     0.7610 H     1 <1>   0.0800 
 38 H       -6.4900    -3.8920     1.7150 H     1 <1>   0.0800 
 39 H       -7.2590    -3.2100     0.3170 H     1 <1>   0.0800 
 40 H       -7.4230     0.0830     1.8580 H     1 <1>   0.1500 
 41 H       -5.8860    -1.4420    -1.8020 H     1 <1>   0.1500 
 42 H       -9.1750     1.1690     0.5720 H     1 <1>   0.1500 
 43 H       -7.7030    -0.2920    -2.9440 H     1 <1>   0.1500 
 44 H       -9.4650    -7.2580     0.6020 H     1 <1>   0.1500 
 45 H       -6.6400    -9.1880    -1.9450 H     1 <1>   0.1500 
 46 H      -10.9230    -9.2090     0.4590 H     1 <1>   0.1500 
 47 H       -8.1070   -11.1390    -2.0830 H     1 <1>   0.1500 
 48 H      -10.2550   -11.1610    -0.8820 H     1 <1>   0.1500 
@<TRIPOS>BOND
  1   1   2  2   
  2   2   3  am  
  3   2   4  1   
  4   3   5  1   
  5   3  28  1   
  6   4   6  1   
  7   4  29  1   
  8   4  30  1   
  9   5   6  1   
 10   5   7  1   
 11   5  31  1   
 12   6  32  1   
 13   6  33  1   
 14   7   8  1   
 15   7  34  1   
 16   7  35  1   
 17   8   9  1   
 18   8  10  1   
 19   9  11  1   
 20   9  36  1   
 21   9  37  1   
 22  10  12  1   
 23  10  38  1   
 24  10  39  1   
 25  11  13  ar  
 26  11  14  ar  
 27  12  15  1   
 28  12  16  2   
 29  13  17  ar  
 30  13  40  1   
 31  14  18  ar  
 32  14  41  1   
 33  15  19  1   
 34  16  20  1   
 35  17  21  ar  
 36  17  42  1   
 37  18  21  ar  
 38  18  43  1   
 39  19  20  2   
 40  19  22  1   
 41  22  23  ar  
 42  22  24  ar  
 43  23  25  ar  
 44  23  44  1   
 45  24  26  ar  
 46  24  45  1   
 47  25  27  ar  
 48  25  46  1   
 49  26  27  ar  
 50  26  47  1   
 51  27  48  1   
@<TRIPOS>SUBSTRUCTURE
  1 ****  12 GROUP 4 **** **** 0

# MOE 2024.06 (io_trps.svl 2023.06)
