@<TRIPOS>MOLECULE
NONAME
39 41 1 0 0 
SMALL
USER_CHARGES


@<TRIPOS>ATOM
  1 CL      -2.5960     0.8400    -1.7510 Cl    1 <1>  -0.1770 
  2 C       -2.8030    -0.5490    -0.7160 C.ar  1 <1>   0.1770 
  3 C       -2.9330    -0.3800     0.6520 C.ar  1 <1>   0.1600 
  4 C       -2.8420    -1.8080    -1.2670 C.ar  1 <1>  -0.1500 
  5 N       -3.0910    -1.3810     1.5090 N.ar  1 <1>  -0.6200 
  6 C       -3.0240    -2.8770    -0.4000 C.ar  1 <1>   0.0860 
  7 C       -3.1150    -2.5890     0.9620 C.ar  1 <1>   0.1600 
  8 C       -3.1080    -4.2400    -0.8740 C.2   1 <1>   0.5440 
  9 O       -2.2560    -4.6460    -1.6400 O.2   1 <1>  -0.5700 
 10 N       -4.1040    -5.1060    -0.4700 N.am  1 <1>  -0.6600 
 11 C       -5.5710    -4.8230    -0.5110 C.3   1 <1>   0.2200 
 12 C       -3.7910    -6.5620    -0.3900 C.3   1 <1>   0.0600 
 13 C       -6.1280    -4.3820     0.8370 C.3   1 <1>  -0.1600 
 14 C       -6.0180    -3.7380    -1.4890 C.3   1 <1>  -0.1600 
 15 C       -7.4710    -3.7130     0.5090 C.3   1 <1>  -0.0800 
 16 C       -7.4100    -3.3280    -0.9910 C.3   1 <1>  -0.0800 
 17 C       -7.8090    -2.5580     1.4730 C.3   1 <1>   0.1400 
 18 C       -7.7460    -1.8510    -1.2880 C.3   1 <1>  -0.0990 
 19 N       -8.8720    -1.7230     0.8800 N.am  1 <1>  -0.7300 
 20 C       -8.8910    -1.3730    -0.4220 C.2   1 <1>   0.5690 
 21 O       -9.7750    -0.6970    -0.8830 O.2   1 <1>  -0.5700 
 22 H       -2.9030     0.6190     1.0520 H     1 <1>   0.1500 
 23 H       -2.7370    -1.9630    -2.3270 H     1 <1>   0.1500 
 24 H       -3.2160    -3.4220     1.6380 H     1 <1>   0.1500 
 25 H       -6.0860    -5.7270    -0.7960 H     1 <1>   0.0800 
 26 H       -4.3050    -7.0050     0.4450 H     1 <1>   0.0800 
 27 H       -2.7320    -6.7100    -0.2590 H     1 <1>   0.0800 
 28 H       -4.0960    -7.0500    -1.2990 H     1 <1>   0.0800 
 29 H       -6.2550    -5.2170     1.5020 H     1 <1>   0.0800 
 30 H       -5.4730    -3.6640     1.2880 H     1 <1>   0.0800 
 31 H       -5.3720    -2.8860    -1.4450 H     1 <1>   0.0800 
 32 H       -6.0520    -4.1090    -2.4980 H     1 <1>   0.0800 
 33 H       -8.2440    -4.4550     0.6180 H     1 <1>   0.0800 
 34 H       -8.1410    -3.9350    -1.5010 H     1 <1>   0.0800 
 35 H       -6.9430    -1.9400     1.6380 H     1 <1>   0.0800 
 36 H       -8.1360    -2.9510     2.4210 H     1 <1>   0.0800 
 37 H       -8.0030    -1.7300    -2.3250 H     1 <1>   0.0800 
 38 H       -6.9030    -1.2200    -1.0750 H     1 <1>   0.0800 
 39 H       -9.6210    -1.3690     1.4790 H     1 <1>   0.3700 
@<TRIPOS>BOND
  1   1   2  1   
  2   2   3  ar  
  3   2   4  ar  
  4   3   5  ar  
  5   3  22  1   
  6   4   6  ar  
  7   4  23  1   
  8   5   7  ar  
  9   6   7  ar  
 10   6   8  1   
 11   7  24  1   
 12   8   9  2   
 13   8  10  am  
 14  10  11  1   
 15  10  12  1   
 16  11  13  1   
 17  11  14  1   
 18  11  25  1   
 19  12  26  1   
 20  12  27  1   
 21  12  28  1   
 22  13  15  1   
 23  13  29  1   
 24  13  30  1   
 25  14  16  1   
 26  14  31  1   
 27  14  32  1   
 28  15  16  1   
 29  15  17  1   
 30  15  33  1   
 31  16  18  1   
 32  16  34  1   
 33  17  19  1   
 34  17  35  1   
 35  17  36  1   
 36  18  20  1   
 37  18  37  1   
 38  18  38  1   
 39  19  20  am  
 40  19  39  1   
 41  20  21  2   
@<TRIPOS>SUBSTRUCTURE
  1 ****  14 GROUP 4 **** **** 0

# MOE 2024.06 (io_trps.svl 2023.06)
