@<TRIPOS>MOLECULE
NONAME
51 53 1 0 0 
SMALL
USER_CHARGES


@<TRIPOS>ATOM
  1 O       -0.0670     0.8480    -0.3630 O.co2 1 <1>  -0.9000 
  2 C       -1.1240     1.3300     0.0510 C.2   1 <1>   0.9060 
  3 O       -2.0980     0.6690     0.4070 O.co2 1 <1>  -0.9000 
  4 C       -1.2370     2.8190     0.1220 C.3   1 <1>  -0.1860 
  5 C       -2.4520     3.2760    -0.6870 C.3   1 <1>   0.2000 
  6 C        0.0340     3.4380    -0.4230 C.3   1 <1>   0.3430 
  7 O       -3.5070     3.3110     0.1920 O.3   1 <1>  -0.6800 
  8 C       -2.2830     4.6750    -1.2880 C.3   1 <1>  -0.1600 
  9 N       -0.0160     4.9360    -0.2900 N.4   1 <1>  -0.9590 
 10 C       -1.4010     5.5210    -0.3790 C.3   1 <1>   0.3430 
 11 C        0.6450     5.3510     0.9720 C.3   1 <1>   0.4860 
 12 C        0.8630     6.8530     0.9350 C.ar  1 <1>  -0.1430 
 13 C        1.9010     7.3930     0.1870 C.ar  1 <1>  -0.1500 
 14 C        0.0260     7.6990     1.6470 C.ar  1 <1>  -0.1500 
 15 C        2.0940     8.7620     0.1410 C.ar  1 <1>  -0.1500 
 16 C        0.2190     9.0680     1.6020 C.ar  1 <1>  -0.1500 
 17 C        1.2490     9.6100     0.8510 C.ar  1 <1>   0.0820 
 18 O        1.3650    10.9600     0.8620 O.3   1 <1>  -0.3620 
 19 C        2.4240    11.6140     0.1970 C.3   1 <1>   0.1200 
 20 C        2.3010    13.1160     0.4440 C.3   1 <1>  -0.0170 
 21 C        3.4290    13.8520    -0.2590 C.ar  1 <1>  -0.1430 
 22 C        3.2610    14.3210    -1.5530 C.ar  1 <1>  -0.1500 
 23 C        4.6390    14.0570     0.3870 C.ar  1 <1>  -0.1500 
 24 C        4.2920    14.9850    -2.1950 C.ar  1 <1>  -0.1500 
 25 C        5.6700    14.7210    -0.2550 C.ar  1 <1>  -0.1500 
 26 C        5.4970    15.1850    -1.5470 C.ar  1 <1>  -0.1500 
 27 H       -1.3320     3.0770     1.1590 H     1 <1>   0.0800 
 28 H       -2.6980     2.5670    -1.4630 H     1 <1>   0.0800 
 29 H        0.1220     3.1590    -1.4610 H     1 <1>   0.0800 
 30 H        0.8880     3.0290     0.0940 H     1 <1>   0.0800 
 31 H       -3.6120     2.3900     0.5430 H     1 <1>   0.4000 
 32 H       -1.8280     4.6030    -2.2580 H     1 <1>   0.0800 
 33 H       -3.2470     5.1370    -1.4140 H     1 <1>   0.0800 
 34 H        0.5380     5.3320    -1.0560 H     1 <1>   0.4500 
 35 H       -1.8530     5.5350     0.6000 H     1 <1>   0.0800 
 36 H       -1.3510     6.5350    -0.7410 H     1 <1>   0.0800 
 37 H        0.0320     5.0820     1.8170 H     1 <1>   0.0800 
 38 H        1.5970     4.8550     1.0710 H     1 <1>   0.0800 
 39 H        2.5730     6.7560    -0.3650 H     1 <1>   0.1500 
 40 H       -0.7810     7.3080     2.2450 H     1 <1>   0.1500 
 41 H        2.9050     9.1530    -0.4460 H     1 <1>   0.1500 
 42 H       -0.4260     9.7320     2.1510 H     1 <1>   0.1500 
 43 H        3.3560    11.2460     0.5890 H     1 <1>   0.0800 
 44 H        2.3520    11.4010    -0.8550 H     1 <1>   0.0800 
 45 H        1.3530    13.4650     0.0740 H     1 <1>   0.0800 
 46 H        2.3450    13.3110     1.5010 H     1 <1>   0.0800 
 47 H        2.3280    14.1710    -2.0670 H     1 <1>   0.1500 
 48 H        4.7840    13.7000     1.3910 H     1 <1>   0.1500 
 49 H        4.1550    15.3460    -3.2000 H     1 <1>   0.1500 
 50 H        6.6070    14.8770     0.2510 H     1 <1>   0.1500 
 51 H        6.2980    15.7020    -2.0460 H     1 <1>   0.1500 
@<TRIPOS>BOND
  1   1   2  ar  
  2   2   3  ar  
  3   2   4  1   
  4   4   5  1   
  5   4   6  1   
  6   4  27  1   
  7   5   7  1   
  8   5   8  1   
  9   5  28  1   
 10   6   9  1   
 11   6  29  1   
 12   6  30  1   
 13   7  31  1   
 14   8  10  1   
 15   8  32  1   
 16   8  33  1   
 17   9  10  1   
 18   9  11  1   
 19   9  34  1   
 20  10  35  1   
 21  10  36  1   
 22  11  12  1   
 23  11  37  1   
 24  11  38  1   
 25  12  13  ar  
 26  12  14  ar  
 27  13  15  ar  
 28  13  39  1   
 29  14  16  ar  
 30  14  40  1   
 31  15  17  ar  
 32  15  41  1   
 33  16  17  ar  
 34  16  42  1   
 35  17  18  1   
 36  18  19  1   
 37  19  20  1   
 38  19  43  1   
 39  19  44  1   
 40  20  21  1   
 41  20  45  1   
 42  20  46  1   
 43  21  22  ar  
 44  21  23  ar  
 45  22  24  ar  
 46  22  47  1   
 47  23  25  ar  
 48  23  48  1   
 49  24  26  ar  
 50  24  49  1   
 51  25  26  ar  
 52  25  50  1   
 53  26  51  1   
@<TRIPOS>SUBSTRUCTURE
  1 ****  13 GROUP 4 **** **** 0

# MOE 2024.06 (io_trps.svl 2023.06)
