@<TRIPOS>MOLECULE
NONAME
53 55 1 0 0 
SMALL
USER_CHARGES


@<TRIPOS>ATOM
  1 S        0.3670     1.1550     0.6050 S.3   1 <1>  -0.0800 
  2 C        1.1540     1.9190    -0.7690 C.2   1 <1>  -0.1400 
  3 C        1.0000    -0.4160     0.1500 C.2   1 <1>  -0.1100 
  4 C        1.8340     1.0070    -1.4910 C.2   1 <1>  -0.1500 
  5 C        0.9630     3.4120    -0.9230 C.3   1 <1>   0.5230 
  6 C        1.7460    -0.3220    -0.9660 C.2   1 <1>  -0.1500 
  7 N        1.5080     4.0780     0.2890 N.4   1 <1>  -0.9590 
  8 C        3.0050     3.8780     0.3360 C.3   1 <1>   0.3430 
  9 C        1.0520     5.4990     0.3540 C.3   1 <1>   0.3430 
 10 C        3.7110     4.5890     1.5030 C.3   1 <1>   0.1400 
 11 C        1.1420     6.0380     1.7880 C.3   1 <1>  -0.1600 
 12 N        3.5930     6.0720     1.3660 N.am  1 <1>  -0.6600 
 13 C        2.4860     6.6980     2.1330 C.3   1 <1>   0.1400 
 14 C        4.3730     6.7120     0.4310 C.2   1 <1>   0.5690 
 15 O        4.8990     6.0620    -0.4430 O.2   1 <1>  -0.5700 
 16 C        4.5510     8.2370     0.4300 C.3   1 <1>  -0.0190 
 17 C        3.5290     8.9150    -0.5030 C.3   1 <1>  -0.1600 
 18 C        5.9950     8.6780     0.0670 C.3   1 <1>  -0.1600 
 19 C        3.5540    10.4480    -0.3610 C.3   1 <1>   0.2000 
 20 C        6.0850    10.0900    -0.5460 C.3   1 <1>  -0.1600 
 21 O        3.0700    10.9570    -1.5760 O.3   1 <1>  -0.5600 
 22 C        4.9700    11.0080    -0.0390 C.3   1 <1>   0.2000 
 23 C        2.1260    11.9770    -1.4570 C.3   1 <1>   0.0400 
 24 O        5.1390    12.2420    -0.6340 O.3   1 <1>  -0.6800 
 25 H        0.7430    -1.2570     0.7720 H     1 <1>   0.1500 
 26 H        2.4050     1.1950    -2.3850 H     1 <1>   0.1500 
 27 H       -0.0890     3.6220    -1.0240 H     1 <1>   0.0800 
 28 H        1.4720     3.7630    -1.8060 H     1 <1>   0.0800 
 29 H        2.2440    -1.1440    -1.4520 H     1 <1>   0.1500 
 30 H        1.1020     3.5660     1.0830 H     1 <1>   0.4500 
 31 H        3.2190     2.8240     0.4070 H     1 <1>   0.0800 
 32 H        3.4470     4.2310    -0.5820 H     1 <1>   0.0800 
 33 H        1.6360     6.1130    -0.3140 H     1 <1>   0.0800 
 34 H        0.0210     5.5510     0.0410 H     1 <1>   0.0800 
 35 H        4.7560     4.3250     1.4810 H     1 <1>   0.0800 
 36 H        3.3140     4.2590     2.4470 H     1 <1>   0.0800 
 37 H        0.3810     6.7880     1.9150 H     1 <1>   0.0800 
 38 H        0.9200     5.2600     2.4970 H     1 <1>   0.0800 
 39 H        2.6830     6.6110     3.1890 H     1 <1>   0.0800 
 40 H        2.4210     7.7460     1.9020 H     1 <1>   0.0800 
 41 H        4.3720     8.5870     1.4300 H     1 <1>   0.0800 
 42 H        2.5360     8.5650    -0.2960 H     1 <1>   0.0800 
 43 H        3.7730     8.6470    -1.5180 H     1 <1>   0.0800 
 44 H        6.5980     8.6360     0.9580 H     1 <1>   0.0800 
 45 H        6.4350     7.9950    -0.6390 H     1 <1>   0.0800 
 46 H        2.8890    10.7330     0.4360 H     1 <1>   0.0800 
 47 H        5.9980    10.0090    -1.6160 H     1 <1>   0.0800 
 48 H        7.0450    10.5200    -0.3200 H     1 <1>   0.0800 
 49 H        5.0810    11.1390     1.0230 H     1 <1>   0.0800 
 50 H        1.8750    12.3200    -2.4460 H     1 <1>   0.0800 
 51 H        2.5430    12.7900    -0.8860 H     1 <1>   0.0800 
 52 H        1.2450    11.5910    -0.9750 H     1 <1>   0.0800 
 53 H        4.6900    12.1900    -1.5060 H     1 <1>   0.4000 
@<TRIPOS>BOND
  1   1   2  1   
  2   1   3  1   
  3   2   4  2   
  4   2   5  1   
  5   3   6  2   
  6   3  25  1   
  7   4   6  1   
  8   4  26  1   
  9   5   7  1   
 10   5  27  1   
 11   5  28  1   
 12   6  29  1   
 13   7   8  1   
 14   7   9  1   
 15   7  30  1   
 16   8  10  1   
 17   8  31  1   
 18   8  32  1   
 19   9  11  1   
 20   9  33  1   
 21   9  34  1   
 22  10  12  1   
 23  10  35  1   
 24  10  36  1   
 25  11  13  1   
 26  11  37  1   
 27  11  38  1   
 28  12  13  1   
 29  12  14  am  
 30  13  39  1   
 31  13  40  1   
 32  14  15  2   
 33  14  16  1   
 34  16  17  1   
 35  16  18  1   
 36  16  41  1   
 37  17  19  1   
 38  17  42  1   
 39  17  43  1   
 40  18  20  1   
 41  18  44  1   
 42  18  45  1   
 43  19  21  1   
 44  19  22  1   
 45  19  46  1   
 46  20  22  1   
 47  20  47  1   
 48  20  48  1   
 49  21  23  1   
 50  22  24  1   
 51  22  49  1   
 52  23  50  1   
 53  23  51  1   
 54  23  52  1   
 55  24  53  1   
@<TRIPOS>SUBSTRUCTURE
  1 ****  12 GROUP 4 **** **** 0

# MOE 2024.06 (io_trps.svl 2023.06)
