@<TRIPOS>MOLECULE
NONAME
52 55 1 0 0 
SMALL
USER_CHARGES


@<TRIPOS>ATOM
  1 O       -2.4330    -0.7960    -2.8750 O.2   1 <1>  -0.5700 
  2 C       -2.4050    -1.0800    -1.7100 C.2   1 <1>   0.5690 
  3 N       -2.4250    -0.1080    -0.7710 N.am  1 <1>  -0.7300 
  4 C       -2.4250    -2.5330    -1.2950 C.3   1 <1>  -0.0190 
  5 C       -2.4750    -0.3400     0.7030 C.3   1 <1>   0.2200 
  6 C       -1.2100    -2.8910    -0.4290 C.3   1 <1>   0.1200 
  7 C       -3.7540    -2.9060    -0.6180 C.3   1 <1>   0.3430 
  8 C       -1.2500    -1.1460     1.1720 C.3   1 <1>   0.1200 
  9 C       -3.7820    -1.0690     1.1250 C.3   1 <1>   0.3430 
 10 O       -1.4160    -2.5070     0.8960 O.3   1 <1>  -0.5600 
 11 N       -4.5150    -1.7450    -0.0130 N.4   1 <1>  -0.9590 
 12 C       -5.9190    -2.0820     0.3680 C.3   1 <1>   0.4230 
 13 C       -5.9850    -3.2770     1.3340 C.3   1 <1>  -0.1600 
 14 C       -6.7630    -2.2980    -0.8930 C.3   1 <1>  -0.1600 
 15 C       -7.4380    -3.5900     1.6750 C.3   1 <1>   0.2090 
 16 C       -8.2010    -2.6320    -0.5100 C.3   1 <1>   0.2090 
 17 N       -8.1590    -3.7930     0.4010 N.pl3 1 <1>  -0.8380 
 18 C       -9.2770    -4.6240     0.3980 C.ar  1 <1>   0.1000 
 19 C       -9.4060    -5.5960    -0.5850 C.ar  1 <1>  -0.1500 
 20 C      -10.2810    -4.5020     1.3520 C.ar  1 <1>  -0.1500 
 21 C      -10.5070    -6.4350    -0.6230 C.ar  1 <1>  -0.1430 
 22 C      -11.3840    -5.3360     1.3230 C.ar  1 <1>  -0.1500 
 23 C      -11.4970    -6.3010     0.3370 C.ar  1 <1>  -0.1500 
 24 C      -10.6400    -7.4960    -1.7010 C.3   1 <1>  -0.0970 
 25 H       -2.3010     0.8550    -1.1080 H     1 <1>   0.3700 
 26 H       -2.3400    -3.1210    -2.1910 H     1 <1>   0.0800 
 27 H       -2.4370     0.6160     1.1970 H     1 <1>   0.0800 
 28 H       -0.3060    -2.4390    -0.8030 H     1 <1>   0.0800 
 29 H       -1.0720    -3.9590    -0.4240 H     1 <1>   0.0800 
 30 H       -3.5590    -3.6460     0.1420 H     1 <1>   0.0800 
 31 H       -4.3740    -3.3720    -1.3650 H     1 <1>   0.0800 
 32 H       -1.1500    -1.0590     2.2400 H     1 <1>   0.0800 
 33 H       -0.3390    -0.7880     0.7210 H     1 <1>   0.0800 
 34 H       -4.4320    -0.3360     1.5710 H     1 <1>   0.0800 
 35 H       -3.5480    -1.7930     1.8890 H     1 <1>   0.0800 
 36 H       -4.5720    -1.0310    -0.7560 H     1 <1>   0.4500 
 37 H       -6.3420    -1.2340     0.8820 H     1 <1>   0.0800 
 38 H       -5.5660    -4.1610     0.8900 H     1 <1>   0.0800 
 39 H       -5.4590    -3.0620     2.2450 H     1 <1>   0.0800 
 40 H       -6.7660    -1.4110    -1.4990 H     1 <1>   0.0800 
 41 H       -6.3900    -3.1180    -1.4790 H     1 <1>   0.0800 
 42 H       -7.8900    -2.7820     2.2240 H     1 <1>   0.0800 
 43 H       -7.4970    -4.4880     2.2700 H     1 <1>   0.0800 
 44 H       -8.7760    -2.8770    -1.3890 H     1 <1>   0.0800 
 45 H       -8.6750    -1.8010    -0.0150 H     1 <1>   0.0800 
 46 H       -8.6280    -5.6860    -1.3180 H     1 <1>   0.1500 
 47 H      -10.2030    -3.7520     2.1150 H     1 <1>   0.1500 
 48 H      -12.1550    -5.2350     2.0650 H     1 <1>   0.1500 
 49 H      -12.3580    -6.9460     0.3190 H     1 <1>   0.1500 
 50 H      -11.4230    -7.2240    -2.3840 H     1 <1>   0.0800 
 51 H      -10.8790    -8.4450    -1.2550 H     1 <1>   0.0800 
 52 H       -9.7220    -7.6000    -2.2510 H     1 <1>   0.0800 
@<TRIPOS>BOND
  1   1   2  2   
  2   2   3  am  
  3   2   4  1   
  4   3   5  1   
  5   3  25  1   
  6   4   6  1   
  7   4   7  1   
  8   4  26  1   
  9   5   8  1   
 10   5   9  1   
 11   5  27  1   
 12   6  10  1   
 13   6  28  1   
 14   6  29  1   
 15   7  11  1   
 16   7  30  1   
 17   7  31  1   
 18   8  10  1   
 19   8  32  1   
 20   8  33  1   
 21   9  11  1   
 22   9  34  1   
 23   9  35  1   
 24  11  12  1   
 25  11  36  1   
 26  12  13  1   
 27  12  14  1   
 28  12  37  1   
 29  13  15  1   
 30  13  38  1   
 31  13  39  1   
 32  14  16  1   
 33  14  40  1   
 34  14  41  1   
 35  15  17  1   
 36  15  42  1   
 37  15  43  1   
 38  16  17  1   
 39  16  44  1   
 40  16  45  1   
 41  17  18  1   
 42  18  19  ar  
 43  18  20  ar  
 44  19  21  ar  
 45  19  46  1   
 46  20  22  ar  
 47  20  47  1   
 48  21  23  ar  
 49  21  24  1   
 50  22  23  ar  
 51  22  48  1   
 52  23  49  1   
 53  24  50  1   
 54  24  51  1   
 55  24  52  1   
@<TRIPOS>SUBSTRUCTURE
  1 ****  12 GROUP 4 **** **** 0

# MOE 2024.06 (io_trps.svl 2023.06)
