@<TRIPOS>MOLECULE
NONAME
33 34 1 0 0 
SMALL
USER_CHARGES


@<TRIPOS>ATOM
  1 F        0.5190     0.1000    -0.3870 F     1 <1>  -0.1900 
  2 C        1.5900     0.8510    -0.2470 C.ar  1 <1>   0.1900 
  3 C        1.5070     2.2280    -0.2010 C.ar  1 <1>   0.3920 
  4 C        2.8220     0.2670    -0.1430 C.ar  1 <1>   0.1600 
  5 O        0.3010     2.8300    -0.3030 O.3   1 <1>  -0.3630 
  6 N        2.5880     2.9700    -0.0600 N.ar  1 <1>  -0.6200 
  7 N        3.9120     0.9930    -0.0020 N.ar  1 <1>  -0.6200 
  8 C        0.1830     4.2390    -0.2640 C.3   1 <1>   0.0400 
  9 C        3.7470     2.3200     0.0340 C.ar  1 <1>   0.7200 
 10 N        4.8860     3.0830     0.1900 N.pl3 1 <1>  -0.8380 
 11 C        4.8610     4.5740    -0.0780 C.3   1 <1>   0.3500 
 12 C        6.2340     2.4200     0.1740 C.3   1 <1>   0.2090 
 13 C        6.1650     5.1540    -0.6810 C.2   1 <1>   0.5690 
 14 C        4.5280     5.2760     1.2430 C.3   1 <1>  -0.2400 
 15 C        7.4040     3.3660     0.4990 C.3   1 <1>   0.1400 
 16 O        6.0910     6.1160    -1.4140 O.2   1 <1>  -0.5700 
 17 N        7.3720     4.5860    -0.3520 N.am  1 <1>  -0.6600 
 18 C        8.6790     5.1290    -0.8080 C.3   1 <1>   0.0600 
 19 H        2.9140    -0.8040    -0.1760 H     1 <1>   0.1500 
 20 H       -0.8570     4.4940    -0.3600 H     1 <1>   0.0800 
 21 H        0.7440     4.6590    -1.0800 H     1 <1>   0.0800 
 22 H        0.5650     4.5950     0.6770 H     1 <1>   0.0800 
 23 H        4.0830     4.7940    -0.7880 H     1 <1>   0.0800 
 24 H        6.3970     1.9930    -0.8010 H     1 <1>   0.0800 
 25 H        6.2410     1.6140     0.8880 H     1 <1>   0.0800 
 26 H        5.2950     5.0850     1.9710 H     1 <1>   0.0800 
 27 H        3.5830     4.9310     1.6210 H     1 <1>   0.0800 
 28 H        4.4640     6.3360     1.0800 H     1 <1>   0.0800 
 29 H        8.3290     2.8390     0.3440 H     1 <1>   0.0800 
 30 H        7.3530     3.6550     1.5340 H     1 <1>   0.0800 
 31 H        8.5360     6.0350    -1.3730 H     1 <1>   0.0800 
 32 H        9.1750     4.4090    -1.4340 H     1 <1>   0.0800 
 33 H        9.2990     5.3500     0.0430 H     1 <1>   0.0800 
@<TRIPOS>BOND
  1   1   2  1   
  2   2   3  ar  
  3   2   4  ar  
  4   3   5  1   
  5   3   6  ar  
  6   4   7  ar  
  7   4  19  1   
  8   5   8  1   
  9   6   9  ar  
 10   7   9  ar  
 11   8  20  1   
 12   8  21  1   
 13   8  22  1   
 14   9  10  1   
 15  10  11  1   
 16  10  12  1   
 17  11  13  1   
 18  11  14  1   
 19  11  23  1   
 20  12  15  1   
 21  12  24  1   
 22  12  25  1   
 23  13  16  2   
 24  13  17  am  
 25  14  26  1   
 26  14  27  1   
 27  14  28  1   
 28  15  17  1   
 29  15  29  1   
 30  15  30  1   
 31  17  18  1   
 32  18  31  1   
 33  18  32  1   
 34  18  33  1   
@<TRIPOS>SUBSTRUCTURE
  1 ****  10 GROUP 4 **** **** 0

# MOE 2024.06 (io_trps.svl 2023.06)
