@<TRIPOS>MOLECULE
NONAME
43 45 1 0 0 
SMALL
USER_CHARGES


@<TRIPOS>ATOM
  1 O        0.9990     0.5070    -2.3710 O.2   1 <1>  -0.5700 
  2 C        1.9980     0.3230    -1.7120 C.2   1 <1>   0.7150 
  3 N        2.3970    -0.9730    -1.6310 N.am  1 <1>  -0.7300 
  4 C        2.6620     1.4360    -1.0970 C.2   1 <1>  -0.2370 
  5 C        3.3050    -1.7140    -0.7140 C.3   1 <1>   0.1400 
  6 N        3.9120     1.4460    -0.5770 N.pl3 1 <1>   0.3140 
  7 C        2.2020     2.7020    -0.9280 C.2   1 <1>  -0.1500 
  8 C        4.1730    -0.8520     0.2150 C.3   1 <1>   0.2000 
  9 N        4.2570     2.6410    -0.0880 N.2   1 <1>  -0.7070 
 10 C        4.8510     0.3190    -0.4930 C.3   1 <1>   0.0960 
 11 C        3.2110     3.4250    -0.2990 C.2   1 <1>   0.2030 
 12 O        5.1570    -1.6670     0.7620 O.3   1 <1>  -0.6800 
 13 C        3.1230     4.8300     0.0710 C.2   1 <1>   0.7160 
 14 O        2.1240     5.4950    -0.1480 O.2   1 <1>  -0.5700 
 15 N        4.1910     5.4250     0.6840 N.am  1 <1>  -0.7300 
 16 C        4.2940     6.8290     1.1230 C.3   1 <1>   0.1400 
 17 C        5.5060     7.4720     0.4520 C.3   1 <1>  -0.1600 
 18 C        5.6200     8.9580     0.8180 C.3   1 <1>  -0.0170 
 19 C        6.8490     9.5850     0.1820 C.ar  1 <1>   0.1670 
 20 N        7.9970     9.3950     0.8130 N.ar  1 <1>  -0.6200 
 21 C        6.7210    10.3070    -0.9960 C.ar  1 <1>  -0.1500 
 22 C        9.0600     9.9460     0.2480 C.ar  1 <1>   0.1600 
 23 C        7.8360    10.8760    -1.5730 C.ar  1 <1>  -0.1500 
 24 C        9.0360    10.6830    -0.9240 C.ar  1 <1>  -0.1500 
 25 H        1.7830    -1.5770    -2.1820 H     1 <1>   0.3700 
 26 H        3.9510    -2.3220    -1.3240 H     1 <1>   0.0800 
 27 H        2.7090    -2.3730    -0.1050 H     1 <1>   0.0800 
 28 H        1.2440     3.0980    -1.2200 H     1 <1>   0.1500 
 29 H        3.5840    -0.4900     1.0420 H     1 <1>   0.0800 
 30 H        5.7030     0.6450     0.0760 H     1 <1>   0.0800 
 31 H        5.1600     0.0500    -1.4850 H     1 <1>   0.0800 
 32 H        5.7730    -2.0030     0.0820 H     1 <1>   0.4000 
 33 H        5.0010     4.8190     0.8370 H     1 <1>   0.3700 
 34 H        4.4020     6.8570     2.1940 H     1 <1>   0.0800 
 35 H        3.3970     7.3620     0.8560 H     1 <1>   0.0800 
 36 H        5.4140     7.3790    -0.6160 H     1 <1>   0.0800 
 37 H        6.4020     6.9650     0.7650 H     1 <1>   0.0800 
 38 H        5.6920     9.0670     1.8860 H     1 <1>   0.0800 
 39 H        4.7380     9.4800     0.4930 H     1 <1>   0.0800 
 40 H        5.7590    10.4220    -1.4610 H     1 <1>   0.1500 
 41 H       10.0030     9.8020     0.7470 H     1 <1>   0.1500 
 42 H        7.7730    11.4420    -2.4860 H     1 <1>   0.1500 
 43 H        9.9450    11.0990    -1.3180 H     1 <1>   0.1500 
@<TRIPOS>BOND
  1   1   2  2   
  2   2   3  am  
  3   2   4  1   
  4   3   5  1   
  5   3  25  1   
  6   4   6  1   
  7   4   7  2   
  8   5   8  1   
  9   5  26  1   
 10   5  27  1   
 11   6   9  1   
 12   6  10  1   
 13   7  11  1   
 14   7  28  1   
 15   8  10  1   
 16   8  12  1   
 17   8  29  1   
 18   9  11  2   
 19  10  30  1   
 20  10  31  1   
 21  11  13  1   
 22  12  32  1   
 23  13  14  2   
 24  13  15  am  
 25  15  16  1   
 26  15  33  1   
 27  16  17  1   
 28  16  34  1   
 29  16  35  1   
 30  17  18  1   
 31  17  36  1   
 32  17  37  1   
 33  18  19  1   
 34  18  38  1   
 35  18  39  1   
 36  19  20  ar  
 37  19  21  ar  
 38  20  22  ar  
 39  21  23  ar  
 40  21  40  1   
 41  22  24  ar  
 42  22  41  1   
 43  23  24  ar  
 44  23  42  1   
 45  24  43  1   
@<TRIPOS>SUBSTRUCTURE
  1 ****  15 GROUP 4 **** **** 0

# MOE 2024.06 (io_trps.svl 2023.06)
