@<TRIPOS>MOLECULE
NONAME
56 60 1 0 0 
SMALL
USER_CHARGES


@<TRIPOS>ATOM
  1 O        0.3080     0.0020    -1.4560 O.2   1 <1>  -0.5700 
  2 C       -0.2060     1.1010    -1.3760 C.2   1 <1>   0.5440 
  3 N       -1.5760     1.1990    -1.2620 N.am  1 <1>  -0.6600 
  4 C        0.6340     2.2810    -1.3760 C.ar  1 <1>   0.0860 
  5 C       -2.2950     2.4870    -1.0070 C.3   1 <1>   0.1400 
  6 C       -2.4340    -0.0250    -1.2600 C.3   1 <1>   0.1400 
  7 C        1.3880     2.6150    -0.2570 C.ar  1 <1>  -0.1500 
  8 C        0.6890     3.1310    -2.4780 C.ar  1 <1>  -0.1500 
  9 C       -3.0130     2.4570     0.3590 C.3   1 <1>   0.1440 
 10 C       -3.8260     0.2430    -0.6600 C.3   1 <1>  -0.1600 
 11 C        2.1530     3.7730    -0.1950 C.ar  1 <1>   0.0540 
 12 C        1.4550     4.2810    -2.4490 C.ar  1 <1>  -0.1500 
 13 C       -3.9580     3.6450     0.3840 C.ar  1 <1>   0.1660 
 14 C       -3.7270     1.1000     0.6130 C.3   1 <1>  -0.1600 
 15 C       -2.0380     2.8040     1.5160 C.3   1 <1>  -0.1600 
 16 C        2.8880     4.1050     1.0040 C.2   1 <1>  -0.0540 
 17 C        2.1780     4.5990    -1.3140 C.ar  1 <1>  -0.1500 
 18 N       -5.1050     3.7170    -0.2440 N.ar  1 <1>  -0.6200 
 19 C       -3.4550     4.6690     1.1300 C.ar  1 <1>  -0.1430 
 20 C       -2.1120     4.3260     1.7220 C.3   1 <1>  -0.0170 
 21 C        3.1030     5.3790     1.5390 C.2   1 <1>   0.1390 
 22 C        3.5180     3.2860     1.8840 C.2   1 <1>  -0.3020 
 23 C       -5.7680     4.8670    -0.0920 C.ar  1 <1>   0.7200 
 24 C       -4.2030     5.8140     1.2260 C.ar  1 <1>   0.1600 
 25 N        3.7910     5.3590     2.6370 N.2   1 <1>  -0.7070 
 26 N        4.0530     4.0570     2.8460 N.pl3 1 <1>   0.3000 
 27 N       -5.3610     5.9240     0.6190 N.ar  1 <1>  -0.6200 
 28 N       -6.9860     4.9740    -0.7350 N.pl3 1 <1>  -0.8380 
 29 C       -7.6890     6.2780    -0.8850 C.3   1 <1>   0.1290 
 30 C       -7.6990     3.7870    -1.2820 C.3   1 <1>   0.1290 
 31 H       -3.0240     2.6250    -1.7870 H     1 <1>   0.0800 
 32 H       -1.6300     3.3300    -1.0450 H     1 <1>   0.0800 
 33 H       -1.9430    -0.7880    -0.6790 H     1 <1>   0.0800 
 34 H       -2.5310    -0.3910    -2.2680 H     1 <1>   0.0800 
 35 H        1.3650     1.9540     0.5900 H     1 <1>   0.1500 
 36 H        0.1220     2.8810    -3.3590 H     1 <1>   0.1500 
 37 H       -4.2980    -0.6960    -0.4330 H     1 <1>   0.0800 
 38 H       -4.4410     0.7440    -1.3870 H     1 <1>   0.0800 
 39 H        1.4890     4.9280    -3.3090 H     1 <1>   0.1500 
 40 H       -4.7100     1.2700     1.0170 H     1 <1>   0.0800 
 41 H       -3.1750     0.5290     1.3390 H     1 <1>   0.0800 
 42 H       -1.0360     2.4680     1.3230 H     1 <1>   0.0800 
 43 H       -2.3810     2.3390     2.4240 H     1 <1>   0.0800 
 44 H        2.7740     5.4950    -1.2990 H     1 <1>   0.1500 
 45 H       -1.3320     4.8240     1.1720 H     1 <1>   0.0800 
 46 H       -2.0520     4.5890     2.7640 H     1 <1>   0.0800 
 47 H        2.7340     6.2870     1.0940 H     1 <1>   0.1500 
 48 H        3.6130     2.2160     1.8640 H     1 <1>   0.1500 
 49 H       -3.8490     6.6490     1.8050 H     1 <1>   0.1500 
 50 H        4.5990     3.7340     3.6550 H     1 <1>   0.2700 
 51 H       -6.9800     7.0870    -0.9300 H     1 <1>   0.0800 
 52 H       -8.3420     6.4330    -0.0450 H     1 <1>   0.0800 
 53 H       -8.2670     6.2850    -1.7930 H     1 <1>   0.0800 
 54 H       -7.4390     2.9010    -0.7280 H     1 <1>   0.0800 
 55 H       -7.4250     3.6470    -2.3130 H     1 <1>   0.0800 
 56 H       -8.7630     3.9280    -1.2110 H     1 <1>   0.0800 
@<TRIPOS>BOND
  1   1   2  2   
  2   2   3  am  
  3   2   4  1   
  4   3   5  1   
  5   3   6  1   
  6   4   7  ar  
  7   4   8  ar  
  8   5   9  1   
  9   5  31  1   
 10   5  32  1   
 11   6  10  1   
 12   6  33  1   
 13   6  34  1   
 14   7  11  ar  
 15   7  35  1   
 16   8  12  ar  
 17   8  36  1   
 18   9  13  1   
 19   9  14  1   
 20   9  15  1   
 21  10  14  1   
 22  10  37  1   
 23  10  38  1   
 24  11  16  1   
 25  11  17  ar  
 26  12  17  ar  
 27  12  39  1   
 28  13  18  ar  
 29  13  19  ar  
 30  14  40  1   
 31  14  41  1   
 32  15  20  1   
 33  15  42  1   
 34  15  43  1   
 35  16  21  1   
 36  16  22  2   
 37  17  44  1   
 38  18  23  ar  
 39  19  20  1   
 40  19  24  ar  
 41  20  45  1   
 42  20  46  1   
 43  21  25  2   
 44  21  47  1   
 45  22  26  1   
 46  22  48  1   
 47  23  27  ar  
 48  23  28  1   
 49  24  27  ar  
 50  24  49  1   
 51  25  26  1   
 52  26  50  1   
 53  28  29  1   
 54  28  30  1   
 55  29  51  1   
 56  29  52  1   
 57  29  53  1   
 58  30  54  1   
 59  30  55  1   
 60  30  56  1   
@<TRIPOS>SUBSTRUCTURE
  1 ****   5 GROUP 4 **** **** 0

# MOE 2024.06 (io_trps.svl 2023.06)
