@<TRIPOS>MOLECULE
NONAME
45 46 1 0 0 
SMALL
USER_CHARGES


@<TRIPOS>ATOM
  1 S       -0.9440     0.5590     1.4410 S.o2  1 <1>   1.5010 
  2 O       -0.7190    -0.7070     2.1050 O.2   1 <1>  -0.6500 
  3 O       -1.7030     1.5870     2.1240 O.2   1 <1>  -0.6500 
  4 N       -1.7260     0.2490    -0.0320 N.am  1 <1>  -0.8490 
  5 C        0.6240     1.2750     0.8870 C.2   1 <1>  -0.0630 
  6 C       -1.0970    -0.8260    -0.8460 C.3   1 <1>   0.1960 
  7 C       -3.1840     0.1190     0.0700 C.3   1 <1>   0.1960 
  8 C        1.8980     0.7880     1.1790 C.2   1 <1>   0.1080 
  9 C        0.8690     2.3640     0.1080 C.2   1 <1>  -0.3320 
 10 C       -1.9570    -2.0920    -1.0740 C.3   1 <1>   0.2000 
 11 C       -3.6160    -1.2300     0.6700 C.3   1 <1>  -0.1600 
 12 N        2.8390     1.4910     0.6350 N.2   1 <1>  -0.7070 
 13 C        2.2330    -0.4190     2.0290 C.3   1 <1>  -0.0590 
 14 N        2.2090     2.4760    -0.0310 N.pl3 1 <1>   0.3140 
 15 C       -0.1490     3.3110    -0.5160 C.3   1 <1>  -0.0600 
 16 O       -2.8170    -1.8850    -2.1430 O.3   1 <1>  -0.6800 
 17 C       -2.7870    -2.4390     0.1670 C.3   1 <1>  -0.1860 
 18 C        2.9580     3.5220    -0.7940 C.3   1 <1>   0.1760 
 19 C       -3.6280    -3.6750    -0.0910 C.2   1 <1>   0.9060 
 20 C        3.8040     2.8830    -1.9060 C.3   1 <1>  -0.2400 
 21 C        3.8370     4.3540     0.1500 C.3   1 <1>  -0.2400 
 22 O       -3.5040    -4.6510     0.6510 O.co2 1 <1>  -0.9000 
 23 O       -4.3950    -3.6700    -1.0640 O.co2 1 <1>  -0.9000 
 24 H       -0.8310    -0.4220    -1.8070 H     1 <1>   0.0800 
 25 H       -0.1820    -1.1390    -0.3760 H     1 <1>   0.0800 
 26 H       -3.5940     0.9280     0.6510 H     1 <1>   0.0800 
 27 H       -3.5990     0.2030    -0.9200 H     1 <1>   0.0800 
 28 H       -1.3270    -2.9240    -1.3380 H     1 <1>   0.0800 
 29 H       -3.5590    -1.1860     1.7430 H     1 <1>   0.0800 
 30 H       -4.6520    -1.3810     0.4190 H     1 <1>   0.0800 
 31 H        1.7990    -0.3150     3.0060 H     1 <1>   0.0800 
 32 H        3.2990    -0.5090     2.1350 H     1 <1>   0.0800 
 33 H        1.8560    -1.3120     1.5660 H     1 <1>   0.0800 
 34 H       -1.1500     3.0290    -0.2410 H     1 <1>   0.0800 
 35 H       -0.0750     3.2810    -1.5880 H     1 <1>   0.0800 
 36 H        0.0210     4.3170    -0.1760 H     1 <1>   0.0800 
 37 H       -3.5680    -2.5420    -2.0140 H     1 <1>   0.4000 
 38 H       -2.0930    -2.7010     0.9440 H     1 <1>   0.0800 
 39 H        2.2410     4.1770    -1.2530 H     1 <1>   0.0800 
 40 H        4.5440     2.2270    -1.4800 H     1 <1>   0.0800 
 41 H        4.3050     3.6430    -2.4760 H     1 <1>   0.0800 
 42 H        3.1740     2.3170    -2.5680 H     1 <1>   0.0800 
 43 H        4.5780     3.7300     0.6160 H     1 <1>   0.0800 
 44 H        3.2300     4.8070     0.9140 H     1 <1>   0.0800 
 45 H        4.3370     5.1330    -0.3970 H     1 <1>   0.0800 
@<TRIPOS>BOND
  1   1   2  2   
  2   1   3  2   
  3   1   4  am  
  4   1   5  1   
  5   4   6  1   
  6   4   7  1   
  7   5   8  1   
  8   5   9  2   
  9   6  10  1   
 10   6  24  1   
 11   6  25  1   
 12   7  11  1   
 13   7  26  1   
 14   7  27  1   
 15   8  12  2   
 16   8  13  1   
 17   9  14  1   
 18   9  15  1   
 19  10  16  1   
 20  10  17  1   
 21  10  28  1   
 22  11  17  1   
 23  11  29  1   
 24  11  30  1   
 25  12  14  1   
 26  13  31  1   
 27  13  32  1   
 28  13  33  1   
 29  14  18  1   
 30  15  34  1   
 31  15  35  1   
 32  15  36  1   
 33  16  37  1   
 34  17  19  1   
 35  17  38  1   
 36  18  20  1   
 37  18  21  1   
 38  18  39  1   
 39  19  22  ar  
 40  19  23  ar  
 41  20  40  1   
 42  20  41  1   
 43  20  42  1   
 44  21  43  1   
 45  21  44  1   
 46  21  45  1   
@<TRIPOS>SUBSTRUCTURE
  1 ****   4 GROUP 4 **** **** 0

# MOE 2024.06 (io_trps.svl 2023.06)
