@<TRIPOS>MOLECULE
NONAME
45 47 1 0 0 
SMALL
USER_CHARGES


@<TRIPOS>ATOM
  1 O       -1.5640    -0.7090    -0.3530 O.2   1 <1>  -0.5700 
  2 C       -1.5070    -1.6310     0.4290 C.2   1 <1>   0.6900 
  3 N       -2.2150    -2.7840     0.3390 N.am  1 <1>  -0.6600 
  4 N       -0.7380    -1.6270     1.5380 N.am  1 <1>  -0.4900 
  5 C       -1.9360    -3.6260     1.5390 C.3   1 <1>   0.2010 
  6 C       -3.3340    -3.0780    -0.6080 C.3   1 <1>   0.2010 
  7 C       -0.9170    -2.7540     2.2590 C.2   1 <1>   0.5690 
  8 C       -4.6960    -3.1880     0.0860 C.2   1 <1>   0.5690 
  9 O       -0.3640    -3.0160     3.2950 O.2   1 <1>  -0.5700 
 10 O       -5.0170    -4.2850     0.4870 O.2   1 <1>  -0.5700 
 11 N       -5.5110    -2.0950     0.2520 N.am  1 <1>  -0.6600 
 12 C       -6.8900    -2.2660     0.8180 C.3   1 <1>   0.1400 
 13 C       -5.1060    -0.7040    -0.1190 C.3   1 <1>   0.1400 
 14 C       -7.9040    -1.2630     0.2160 C.3   1 <1>   0.0000 
 15 C       -5.9030     0.3290     0.6800 C.3   1 <1>  -0.1600 
 16 C       -9.3060    -1.5520     0.7930 C.3   1 <1>   0.2000 
 17 C       -7.4260     0.1890     0.4920 C.3   1 <1>  -0.1600 
 18 C       -8.1110    -1.5500    -1.2860 C.3   1 <1>  -0.1600 
 19 O      -10.1420    -0.4530     0.5610 O.3   1 <1>  -0.5600 
 20 C       -9.8390    -2.7410    -0.0160 C.3   1 <1>  -0.1600 
 21 C       -9.1020    -2.7160    -1.3620 C.3   1 <1>  -0.1600 
 22 C      -11.2240    -0.3390     1.4310 C.3   1 <1>   0.0400 
 23 H       -0.1230    -0.8620     1.7890 H     1 <1>   0.3700 
 24 H       -2.8180    -3.7600     2.1400 H     1 <1>   0.0800 
 25 H       -1.5080    -4.5720     1.2600 H     1 <1>   0.0800 
 26 H       -3.3750    -2.3170    -1.3660 H     1 <1>   0.0800 
 27 H       -3.1310    -4.0120    -1.0990 H     1 <1>   0.0800 
 28 H       -7.2250    -3.2730     0.6440 H     1 <1>   0.0800 
 29 H       -6.8380    -2.1220     1.8830 H     1 <1>   0.0800 
 30 H       -4.0600    -0.5590     0.0800 H     1 <1>   0.0800 
 31 H       -5.2750    -0.5530    -1.1720 H     1 <1>   0.0800 
 32 H       -5.6580     0.2070     1.7200 H     1 <1>   0.0800 
 33 H       -5.5960     1.3190     0.3930 H     1 <1>   0.0800 
 34 H       -9.2670    -1.7500     1.8520 H     1 <1>   0.0800 
 35 H       -7.7510     0.8320    -0.3070 H     1 <1>   0.0800 
 36 H       -7.8950     0.5570     1.3880 H     1 <1>   0.0800 
 37 H       -8.5700    -0.6950    -1.7530 H     1 <1>   0.0800 
 38 H       -7.1990    -1.7740    -1.8090 H     1 <1>   0.0800 
 39 H       -9.6000    -3.6550     0.4970 H     1 <1>   0.0800 
 40 H      -10.9040    -2.6930    -0.1500 H     1 <1>   0.0800 
 41 H       -8.5740    -3.6430    -1.5080 H     1 <1>   0.0800 
 42 H       -9.7900    -2.5730    -2.1780 H     1 <1>   0.0800 
 43 H      -11.8020     0.5180     1.1320 H     1 <1>   0.0800 
 44 H      -10.8600    -0.1980     2.4330 H     1 <1>   0.0800 
 45 H      -11.8320    -1.2240     1.3690 H     1 <1>   0.0800 
@<TRIPOS>BOND
  1   1   2  2   
  2   2   3  am  
  3   2   4  am  
  4   3   5  1   
  5   3   6  1   
  6   4   7  am  
  7   4  23  1   
  8   5   7  1   
  9   5  24  1   
 10   5  25  1   
 11   6   8  1   
 12   6  26  1   
 13   6  27  1   
 14   7   9  2   
 15   8  10  2   
 16   8  11  am  
 17  11  12  1   
 18  11  13  1   
 19  12  14  1   
 20  12  28  1   
 21  12  29  1   
 22  13  15  1   
 23  13  30  1   
 24  13  31  1   
 25  14  16  1   
 26  14  17  1   
 27  14  18  1   
 28  15  17  1   
 29  15  32  1   
 30  15  33  1   
 31  16  19  1   
 32  16  20  1   
 33  16  34  1   
 34  17  35  1   
 35  17  36  1   
 36  18  21  1   
 37  18  37  1   
 38  18  38  1   
 39  19  22  1   
 40  20  21  1   
 41  20  39  1   
 42  20  40  1   
 43  21  41  1   
 44  21  42  1   
 45  22  43  1   
 46  22  44  1   
 47  22  45  1   
@<TRIPOS>SUBSTRUCTURE
  1 ****  11 GROUP 4 **** **** 0

# MOE 2024.06 (io_trps.svl 2023.06)
