@<TRIPOS>MOLECULE
NONAME
51 53 1 0 0 
SMALL
USER_CHARGES


@<TRIPOS>ATOM
  1 O        0.6370     0.3170    -0.5570 O.2   1 <1>  -0.5700 
  2 C        1.4280    -0.5390    -0.2130 C.2   1 <1>   0.7160 
  3 N        2.5180    -0.1760     0.5220 N.am  1 <1>  -0.7300 
  4 C        1.2400    -1.9210    -0.5790 C.2   1 <1>  -0.0860 
  5 C        2.8010     1.1950     1.0300 C.3   1 <1>   0.1400 
  6 C        0.0930    -2.5840    -0.9010 C.2   1 <1>  -0.0400 
  7 C        2.2480    -2.9060    -0.6860 C.2   1 <1>  -0.1500 
  8 C        3.9270     1.9100     0.2380 C.3   1 <1>   0.0000 
  9 O        0.3400    -3.8420    -1.1860 O.3   1 <1>  -0.2800 
 10 C       -1.3430    -2.0860    -0.9670 C.3   1 <1>   0.3000 
 11 C        1.6320    -4.0450    -1.0560 C.2   1 <1>  -0.0100 
 12 C        3.5120     2.1330    -1.2370 C.3   1 <1>  -0.1600 
 13 C        4.1690     3.3020     0.8730 C.3   1 <1>  -0.1600 
 14 C        5.2020     1.0350     0.3240 C.3   1 <1>   0.1200 
 15 O       -2.0900    -2.6900     0.0690 O.3   1 <1>  -0.3630 
 16 C        2.3800     3.1600    -1.3670 C.3   1 <1>   0.1200 
 17 C        3.0110     4.2750     0.6070 C.3   1 <1>   0.1200 
 18 O        6.3020     1.6630    -0.2390 O.3   1 <1>  -0.6800 
 19 C       -3.4130    -2.4300     0.2200 C.ar  1 <1>   0.0820 
 20 O        2.7790     4.3530    -0.7650 O.3   1 <1>  -0.5600 
 21 C       -4.0830    -3.1580     1.1890 C.ar  1 <1>  -0.1500 
 22 C       -4.1130    -1.4910    -0.5330 C.ar  1 <1>  -0.1500 
 23 C       -5.4350    -2.9590     1.4080 C.ar  1 <1>  -0.1500 
 24 C       -5.4650    -1.2940    -0.3100 C.ar  1 <1>  -0.1500 
 25 C       -6.1330    -2.0270     0.6580 C.ar  1 <1>  -0.1440 
 26 C       -7.6150    -1.8060     0.8990 C.3   1 <1>  -0.0970 
 27 H        3.1050    -0.9240     0.8900 H     1 <1>   0.3700 
 28 H        3.0850     1.1200     2.0660 H     1 <1>   0.0800 
 29 H        1.8950     1.7740     0.9960 H     1 <1>   0.0800 
 30 H        3.2960    -2.7530    -0.5080 H     1 <1>   0.1500 
 31 H       -1.7850    -2.3600    -1.9080 H     1 <1>   0.0800 
 32 H       -1.3890    -1.0220    -0.8350 H     1 <1>   0.0800 
 33 H        2.0220    -5.0300    -1.2490 H     1 <1>   0.1500 
 34 H        3.2030     1.2090    -1.6910 H     1 <1>   0.0800 
 35 H        4.3430     2.5050    -1.8080 H     1 <1>   0.0800 
 36 H        5.0570     3.7510     0.4650 H     1 <1>   0.0800 
 37 H        4.3230     3.2090     1.9330 H     1 <1>   0.0800 
 38 H        5.0590     0.1050    -0.1990 H     1 <1>   0.0800 
 39 H        5.4470     0.8220     1.3500 H     1 <1>   0.0800 
 40 H        1.4690     2.8210    -0.9040 H     1 <1>   0.0800 
 41 H        2.1810     3.3690    -2.4030 H     1 <1>   0.0800 
 42 H        3.2680     5.2630     0.9480 H     1 <1>   0.0800 
 43 H        2.1010     3.9690     1.0930 H     1 <1>   0.0800 
 44 H        6.0780     2.0180    -1.1210 H     1 <1>   0.4000 
 45 H       -3.5380    -3.8810     1.7680 H     1 <1>   0.1500 
 46 H       -3.6300    -0.9030    -1.2890 H     1 <1>   0.1500 
 47 H       -5.9380    -3.5330     2.1660 H     1 <1>   0.1500 
 48 H       -5.9970    -0.5650    -0.8950 H     1 <1>   0.1500 
 49 H       -8.0780    -2.7100     1.2530 H     1 <1>   0.0800 
 50 H       -8.1040    -1.5100    -0.0120 H     1 <1>   0.0800 
 51 H       -7.7520    -1.0340     1.6340 H     1 <1>   0.0800 
@<TRIPOS>BOND
  1   1   2  2   
  2   2   3  am  
  3   2   4  1   
  4   3   5  1   
  5   3  27  1   
  6   4   6  2   
  7   4   7  1   
  8   5   8  1   
  9   5  28  1   
 10   5  29  1   
 11   6   9  1   
 12   6  10  1   
 13   7  11  2   
 14   7  30  1   
 15   8  12  1   
 16   8  13  1   
 17   8  14  1   
 18   9  11  1   
 19  10  15  1   
 20  10  31  1   
 21  10  32  1   
 22  11  33  1   
 23  12  16  1   
 24  12  34  1   
 25  12  35  1   
 26  13  17  1   
 27  13  36  1   
 28  13  37  1   
 29  14  18  1   
 30  14  38  1   
 31  14  39  1   
 32  15  19  1   
 33  16  20  1   
 34  16  40  1   
 35  16  41  1   
 36  17  20  1   
 37  17  42  1   
 38  17  43  1   
 39  18  44  1   
 40  19  21  ar  
 41  19  22  ar  
 42  21  23  ar  
 43  21  45  1   
 44  22  24  ar  
 45  22  46  1   
 46  23  25  ar  
 47  23  47  1   
 48  24  25  ar  
 49  24  48  1   
 50  25  26  1   
 51  26  49  1   
 52  26  50  1   
 53  26  51  1   
@<TRIPOS>SUBSTRUCTURE
  1 ****   1 GROUP 4 **** **** 0

# MOE 2024.06 (io_trps.svl 2023.06)
