@<TRIPOS>MOLECULE
NONAME
61 64 1 0 0 
SMALL
USER_CHARGES


@<TRIPOS>ATOM
  1 O        0.5210    -1.4800    -1.9530 O.3   1 <1>  -0.6800 
  2 C        0.2210    -1.9280    -0.6730 C.3   1 <1>   0.1200 
  3 C        1.4600    -1.8630     0.2670 C.3   1 <1>   0.0000 
  4 C        2.7480    -2.4870    -0.3460 C.3   1 <1>   0.4230 
  5 C        1.7450    -0.3820     0.6380 C.3   1 <1>  -0.1600 
  6 C        1.1180    -2.6310     1.5750 C.3   1 <1>  -0.1600 
  7 N        2.5910    -3.9630    -0.7140 N.4   1 <1>  -0.9590 
  8 C        3.3830    -1.5810    -1.4520 C.3   1 <1>   0.3430 
  9 C        2.2840     0.4600    -0.5220 C.3   1 <1>   0.3430 
 10 C        1.6350    -4.0850     1.5980 C.3   1 <1>  -0.1600 
 11 C        1.6770    -4.7230     0.2090 C.3   1 <1>   0.3430 
 12 C        2.1680    -4.2270    -2.1320 C.3   1 <1>   0.2630 
 13 N        3.5530    -0.1400    -1.0390 N.4   1 <1>  -0.9590 
 14 C        4.0960     0.6920    -2.1490 C.3   1 <1>   0.5240 
 15 C        4.5020     2.0160    -1.5450 C.2   1 <1>  -0.1810 
 16 C        3.8370     3.2260    -1.7170 C.2   1 <1>   0.1080 
 17 C        5.5390     2.3030    -0.7250 C.2   1 <1>  -0.3320 
 18 N        4.3890     4.1750    -1.0440 N.2   1 <1>  -0.7070 
 19 C        2.6140     3.4960    -2.5700 C.3   1 <1>  -0.0590 
 20 N        5.4660     3.6350    -0.4290 N.pl3 1 <1>   0.5930 
 21 C        6.6410     1.4030    -0.1750 C.3   1 <1>  -0.0600 
 22 C        6.3220     4.3760     0.4300 C.ar  1 <1>  -0.0230 
 23 C        5.8470     4.8660     1.6420 C.ar  1 <1>  -0.1500 
 24 C        7.6480     4.6190     0.0820 C.ar  1 <1>  -0.1500 
 25 C        6.6820     5.5650     2.4960 C.ar  1 <1>  -0.1500 
 26 C        8.4830     5.3180     0.9350 C.ar  1 <1>  -0.1500 
 27 C        8.0010     5.7890     2.1440 C.ar  1 <1>  -0.1500 
 28 H       -0.3080    -1.3860    -2.4790 H     1 <1>   0.4000 
 29 H       -0.5760    -1.3140    -0.2850 H     1 <1>   0.0800 
 30 H       -0.1550    -2.9320    -0.7610 H     1 <1>   0.0800 
 31 H        3.4630    -2.4670     0.4590 H     1 <1>   0.0800 
 32 H        2.4580    -0.3230     1.4430 H     1 <1>   0.0800 
 33 H        0.8410     0.0800     0.9970 H     1 <1>   0.0800 
 34 H        1.5340    -2.1350     2.4370 H     1 <1>   0.0800 
 35 H        0.0500    -2.6340     1.7280 H     1 <1>   0.0800 
 36 H        3.5160    -4.4030    -0.5910 H     1 <1>   0.4500 
 37 H        2.7540    -1.6130    -2.3250 H     1 <1>   0.0800 
 38 H        4.3450    -1.9850    -1.7190 H     1 <1>   0.0800 
 39 H        2.4670     1.4670    -0.1750 H     1 <1>   0.0800 
 40 H        1.5500     0.5100    -1.3100 H     1 <1>   0.0800 
 41 H        0.9960    -4.6740     2.2360 H     1 <1>   0.0800 
 42 H        2.6200    -4.1230     2.0300 H     1 <1>   0.0800 
 43 H        0.6760    -4.7320    -0.1920 H     1 <1>   0.0800 
 44 H        2.0050    -5.7480     0.2890 H     1 <1>   0.0800 
 45 H        1.2030    -3.7900    -2.3280 H     1 <1>   0.0800 
 46 H        2.1000    -5.2890    -2.3090 H     1 <1>   0.0800 
 47 H        2.8800    -3.8170    -2.8280 H     1 <1>   0.0800 
 48 H        4.2520    -0.0370    -0.2890 H     1 <1>   0.4500 
 49 H        4.9650     0.2240    -2.5820 H     1 <1>   0.0800 
 50 H        3.3570     0.8370    -2.9200 H     1 <1>   0.0800 
 51 H        2.0060     2.6200    -2.6860 H     1 <1>   0.0800 
 52 H        2.9240     3.8450    -3.5380 H     1 <1>   0.0800 
 53 H        2.0210     4.2680    -2.1110 H     1 <1>   0.0800 
 54 H        6.5280     0.3900    -0.5110 H     1 <1>   0.0800 
 55 H        6.6300     1.4170     0.9010 H     1 <1>   0.0800 
 56 H        7.6030     1.7560    -0.5050 H     1 <1>   0.0800 
 57 H        4.8190     4.7050     1.9150 H     1 <1>   0.1500 
 58 H        8.0280     4.2670    -0.8610 H     1 <1>   0.1500 
 59 H        6.3050     5.9400     3.4320 H     1 <1>   0.1500 
 60 H        9.5070     5.5000     0.6590 H     1 <1>   0.1500 
 61 H        8.6510     6.3340     2.8080 H     1 <1>   0.1500 
@<TRIPOS>BOND
  1   1   2  1   
  2   1  28  1   
  3   2   3  1   
  4   2  29  1   
  5   2  30  1   
  6   3   4  1   
  7   3   5  1   
  8   3   6  1   
  9   4   7  1   
 10   4   8  1   
 11   4  31  1   
 12   5   9  1   
 13   5  32  1   
 14   5  33  1   
 15   6  10  1   
 16   6  34  1   
 17   6  35  1   
 18   7  11  1   
 19   7  12  1   
 20   7  36  1   
 21   8  13  1   
 22   8  37  1   
 23   8  38  1   
 24   9  13  1   
 25   9  39  1   
 26   9  40  1   
 27  10  11  1   
 28  10  41  1   
 29  10  42  1   
 30  11  43  1   
 31  11  44  1   
 32  12  45  1   
 33  12  46  1   
 34  12  47  1   
 35  13  14  1   
 36  13  48  1   
 37  14  15  1   
 38  14  49  1   
 39  14  50  1   
 40  15  16  1   
 41  15  17  2   
 42  16  18  2   
 43  16  19  1   
 44  17  20  1   
 45  17  21  1   
 46  18  20  1   
 47  19  51  1   
 48  19  52  1   
 49  19  53  1   
 50  20  22  1   
 51  21  54  1   
 52  21  55  1   
 53  21  56  1   
 54  22  23  ar  
 55  22  24  ar  
 56  23  25  ar  
 57  23  57  1   
 58  24  26  ar  
 59  24  58  1   
 60  25  27  ar  
 61  25  59  1   
 62  26  27  ar  
 63  26  60  1   
 64  27  61  1   
@<TRIPOS>SUBSTRUCTURE
  1 ****  13 GROUP 4 **** **** 0

# MOE 2024.06 (io_trps.svl 2023.06)
