@<TRIPOS>MOLECULE
NONAME
57 59 1 0 0 
SMALL
USER_CHARGES


@<TRIPOS>ATOM
  1 O       -1.3220     0.2950     2.6120 O.2   1 <1>  -0.5700 
  2 C       -1.8530     0.6960     1.5970 C.2   1 <1>   0.7150 
  3 N       -2.6770    -0.1420     0.8830 N.am  1 <1>  -0.6600 
  4 C       -1.7130     2.0760     1.2190 C.2   1 <1>  -0.2370 
  5 C       -2.9430    -1.5150     1.4380 C.3   1 <1>   0.3210 
  6 C       -3.5050     0.3530    -0.2630 C.3   1 <1>   0.1400 
  7 N       -2.1930     3.0580     2.0400 N.pl3 1 <1>   0.0330 
  8 C       -1.1820     2.6790     0.1120 C.2   1 <1>  -0.1810 
  9 C       -4.1010    -2.2710     0.7780 C.2   1 <1>   0.0460 
 10 C       -4.7370     1.1150     0.2610 C.3   1 <1>   0.3430 
 11 C       -2.0810     4.2650     1.4120 C.ar  1 <1>  -0.1520 
 12 C       -1.4360     4.0690     0.1910 C.ar  1 <1>   0.0000 
 13 C       -0.4150     1.9740    -0.9960 C.3   1 <1>  -0.0590 
 14 N       -5.3830    -1.8620     0.9240 N.2   1 <1>  -0.5650 
 15 C       -4.0420    -3.3930     0.0210 C.2   1 <1>  -0.3320 
 16 N       -5.2790     2.1170    -0.7190 N.4   1 <1>  -0.9590 
 17 C       -2.5110     5.5270     1.8310 C.ar  1 <1>  -0.1430 
 18 C       -1.2120     5.1800    -0.6440 C.ar  1 <1>  -0.1430 
 19 C       -6.0680    -2.7490     0.2780 C.2   1 <1>   0.0360 
 20 N       -5.3120    -3.7050    -0.2970 N.pl3 1 <1>   0.0330 
 21 C       -2.8640    -4.2400    -0.4350 C.3   1 <1>  -0.0600 
 22 C       -4.3820     3.3140    -0.8420 C.3   1 <1>   0.2630 
 23 C       -6.6470     2.5420    -0.2960 C.3   1 <1>   0.2630 
 24 C       -2.2900     6.5950     0.9950 C.ar  1 <1>  -0.1500 
 25 C       -3.1910     5.7060     3.1780 C.3   1 <1>  -0.0970 
 26 C       -1.6440     6.4200    -0.2330 C.ar  1 <1>  -0.1500 
 27 C       -0.4960     5.0400    -1.9780 C.3   1 <1>  -0.0970 
 28 H       -3.1640    -1.4310     2.4880 H     1 <1>   0.0800 
 29 H       -2.0430    -2.0950     1.3490 H     1 <1>   0.0800 
 30 H       -3.8140    -0.4650    -0.8900 H     1 <1>   0.0800 
 31 H       -2.9060     1.0000    -0.8710 H     1 <1>   0.0800 
 32 H       -2.4910     2.9180     3.0120 H     1 <1>   0.2700 
 33 H       -4.4640     1.6280     1.1670 H     1 <1>   0.0800 
 34 H       -5.5040     0.4000     0.5050 H     1 <1>   0.0800 
 35 H       -0.3250     0.9240    -0.7860 H     1 <1>   0.0800 
 36 H        0.5770     2.3830    -1.0650 H     1 <1>   0.0800 
 37 H       -0.9130     2.0950    -1.9390 H     1 <1>   0.0800 
 38 H       -5.3560     1.6560    -1.6380 H     1 <1>   0.4500 
 39 H       -7.1420    -2.7490     0.1970 H     1 <1>   0.1500 
 40 H       -5.6410    -4.5070    -0.8430 H     1 <1>   0.2700 
 41 H       -1.9330    -3.8130    -0.1110 H     1 <1>   0.0800 
 42 H       -2.8480    -4.3080    -1.5090 H     1 <1>   0.0800 
 43 H       -2.9420    -5.2320    -0.0270 H     1 <1>   0.0800 
 44 H       -4.2680     3.8010     0.1130 H     1 <1>   0.0800 
 45 H       -4.7940     4.0250    -1.5400 H     1 <1>   0.0800 
 46 H       -3.4050     3.0230    -1.1900 H     1 <1>   0.0800 
 47 H       -6.6060     3.0270     0.6660 H     1 <1>   0.0800 
 48 H       -7.2980     1.6860    -0.2220 H     1 <1>   0.0800 
 49 H       -7.0640     3.2310    -1.0120 H     1 <1>   0.0800 
 50 H       -2.6000     7.5870     1.2760 H     1 <1>   0.1500 
 51 H       -4.0880     5.1160     3.2240 H     1 <1>   0.0800 
 52 H       -3.4520     6.7370     3.3390 H     1 <1>   0.0800 
 53 H       -2.5260     5.4000     3.9650 H     1 <1>   0.0800 
 54 H       -1.4850     7.2880    -0.8480 H     1 <1>   0.1500 
 55 H       -1.0370     4.3750    -2.6250 H     1 <1>   0.0800 
 56 H        0.4960     4.6590    -1.8220 H     1 <1>   0.0800 
 57 H       -0.4110     5.9930    -2.4700 H     1 <1>   0.0800 
@<TRIPOS>BOND
  1   1   2  2   
  2   2   3  am  
  3   2   4  1   
  4   3   5  1   
  5   3   6  1   
  6   4   7  1   
  7   4   8  2   
  8   5   9  1   
  9   5  28  1   
 10   5  29  1   
 11   6  10  1   
 12   6  30  1   
 13   6  31  1   
 14   7  11  1   
 15   7  32  1   
 16   8  12  1   
 17   8  13  1   
 18   9  14  1   
 19   9  15  2   
 20  10  16  1   
 21  10  33  1   
 22  10  34  1   
 23  11  12  ar  
 24  11  17  ar  
 25  12  18  ar  
 26  13  35  1   
 27  13  36  1   
 28  13  37  1   
 29  14  19  2   
 30  15  20  1   
 31  15  21  1   
 32  16  22  1   
 33  16  23  1   
 34  16  38  1   
 35  17  24  ar  
 36  17  25  1   
 37  18  26  ar  
 38  18  27  1   
 39  19  20  1   
 40  19  39  1   
 41  20  40  1   
 42  21  41  1   
 43  21  42  1   
 44  21  43  1   
 45  22  44  1   
 46  22  45  1   
 47  22  46  1   
 48  23  47  1   
 49  23  48  1   
 50  23  49  1   
 51  24  26  ar  
 52  24  50  1   
 53  25  51  1   
 54  25  52  1   
 55  25  53  1   
 56  26  54  1   
 57  27  55  1   
 58  27  56  1   
 59  27  57  1   
@<TRIPOS>SUBSTRUCTURE
  1 ****   6 GROUP 4 **** **** 0

# MOE 2024.06 (io_trps.svl 2023.06)
