@<TRIPOS>MOLECULE
NONAME
54 58 1 0 0 
SMALL
USER_CHARGES


@<TRIPOS>ATOM
  1 S       -0.1630     0.2430    -1.2290 S.3   1 <1>  -0.0800 
  2 C       -0.0880     1.7880    -0.4080 C.2   1 <1>  -0.1400 
  3 C        1.4720     0.4660    -1.8350 C.2   1 <1>  -0.1100 
  4 C        1.0840     2.4040    -0.6060 C.2   1 <1>  -0.1810 
  5 C       -1.2260     2.3220     0.4200 C.3   1 <1>   0.0200 
  6 C        1.9850     1.6410    -1.4210 C.2   1 <1>  -0.1500 
  7 C        1.3620     3.7800     0.0050 C.3   1 <1>   0.4610 
  8 C       -0.6530     3.4330     1.3150 C.3   1 <1>   0.1200 
  9 O        0.1770     4.3010     0.5800 O.3   1 <1>  -0.5600 
 10 C        2.4520     3.7000     1.0830 C.3   1 <1>  -0.1600 
 11 C        1.7690     4.7770    -1.0850 C.3   1 <1>  -0.1600 
 12 C        2.7880     5.0810     1.6480 C.3   1 <1>   0.1400 
 13 C        2.1060     6.1480    -0.4960 C.3   1 <1>   0.1400 
 14 N        3.1760     5.9900     0.5310 N.am  1 <1>  -0.6600 
 15 C        4.4040     6.6120     0.5070 C.2   1 <1>   0.5690 
 16 O        5.2200     6.4020     1.3780 O.2   1 <1>  -0.5700 
 17 C        4.7470     7.5890    -0.6430 C.3   1 <1>   0.1710 
 18 N        6.0430     8.3240    -0.6140 N.3   1 <1>  -0.8100 
 19 C        6.2050     9.1420     0.5980 C.3   1 <1>   0.2540 
 20 C        7.1950     7.4350    -0.8590 C.3   1 <1>   0.1100 
 21 C        7.0210    10.3990     0.3060 C.ar  1 <1>  -0.1430 
 22 C        8.5630     8.0770    -0.5760 C.3   1 <1>   0.1200 
 23 C        8.1410    10.4370    -0.5340 C.ar  1 <1>   0.0820 
 24 C        6.6020    11.5800     0.9050 C.ar  1 <1>  -0.1500 
 25 O        8.6720     9.3570    -1.1590 O.3   1 <1>  -0.3620 
 26 C        8.7890    11.6390    -0.7700 C.ar  1 <1>  -0.1500 
 27 C        7.2620    12.7750     0.6740 C.ar  1 <1>  -0.1500 
 28 C        8.3570    12.8070    -0.1690 C.ar  1 <1>  -0.1500 
 29 H        1.8810    -0.3200    -2.4450 H     1 <1>   0.1500 
 30 H       -1.6460     1.5420     1.0290 H     1 <1>   0.0800 
 31 H       -1.9940     2.7160    -0.2210 H     1 <1>   0.0800 
 32 H        2.9700     2.0020    -1.6580 H     1 <1>   0.1500 
 33 H       -0.0780     3.0070     2.1180 H     1 <1>   0.0800 
 34 H       -1.4510     4.0180     1.7370 H     1 <1>   0.0800 
 35 H        3.3450     3.2840     0.6530 H     1 <1>   0.0800 
 36 H        2.1460     3.0410     1.8720 H     1 <1>   0.0800 
 37 H        0.9650     4.8690    -1.7930 H     1 <1>   0.0800 
 38 H        2.6280     4.4100    -1.6140 H     1 <1>   0.0800 
 39 H        3.5840     4.9910     2.3670 H     1 <1>   0.0800 
 40 H        1.9290     5.4910     2.1530 H     1 <1>   0.0800 
 41 H        1.2310     6.5690    -0.0290 H     1 <1>   0.0800 
 42 H        2.4080     6.8100    -1.2870 H     1 <1>   0.0800 
 43 H        3.9650     8.3250    -0.6790 H     1 <1>   0.0800 
 44 H        4.7010     7.0370    -1.5640 H     1 <1>   0.0800 
 45 H        6.6680     8.5680     1.3830 H     1 <1>   0.0800 
 46 H        5.2340     9.4420     0.9500 H     1 <1>   0.0800 
 47 H        7.1720     7.1220    -1.8880 H     1 <1>   0.0800 
 48 H        7.1150     6.5520    -0.2490 H     1 <1>   0.0800 
 49 H        9.3400     7.4670    -0.9970 H     1 <1>   0.0800 
 50 H        8.7430     8.1670     0.4810 H     1 <1>   0.0800 
 51 H        5.7470    11.5800     1.5580 H     1 <1>   0.1500 
 52 H        9.6380    11.6500    -1.4270 H     1 <1>   0.1500 
 53 H        6.9210    13.6790     1.1470 H     1 <1>   0.1500 
 54 H        8.8700    13.7330    -0.3570 H     1 <1>   0.1500 
@<TRIPOS>BOND
  1   1   2  1   
  2   1   3  1   
  3   2   4  2   
  4   2   5  1   
  5   3   6  2   
  6   3  29  1   
  7   4   6  1   
  8   4   7  1   
  9   5   8  1   
 10   5  30  1   
 11   5  31  1   
 12   6  32  1   
 13   7   9  1   
 14   7  10  1   
 15   7  11  1   
 16   8   9  1   
 17   8  33  1   
 18   8  34  1   
 19  10  12  1   
 20  10  35  1   
 21  10  36  1   
 22  11  13  1   
 23  11  37  1   
 24  11  38  1   
 25  12  14  1   
 26  12  39  1   
 27  12  40  1   
 28  13  14  1   
 29  13  41  1   
 30  13  42  1   
 31  14  15  am  
 32  15  16  2   
 33  15  17  1   
 34  17  18  1   
 35  17  43  1   
 36  17  44  1   
 37  18  19  1   
 38  18  20  1   
 39  19  21  1   
 40  19  45  1   
 41  19  46  1   
 42  20  22  1   
 43  20  47  1   
 44  20  48  1   
 45  21  23  ar  
 46  21  24  ar  
 47  22  25  1   
 48  22  49  1   
 49  22  50  1   
 50  23  25  1   
 51  23  26  ar  
 52  24  27  ar  
 53  24  51  1   
 54  26  28  ar  
 55  26  52  1   
 56  27  28  ar  
 57  27  53  1   
 58  28  54  1   
@<TRIPOS>SUBSTRUCTURE
  1 ****  15 GROUP 4 **** **** 0

# MOE 2024.06 (io_trps.svl 2023.06)
