@<TRIPOS>MOLECULE
NONAME
44 46 1 0 0 
SMALL
USER_CHARGES


@<TRIPOS>ATOM
  1 S        0.8170     0.0480    -1.5660 S.o2  1 <1>   1.3330 
  2 O        0.0750     0.8340    -2.5260 O.2   1 <1>  -0.6500 
  3 O        1.2660    -1.2780    -1.9260 O.2   1 <1>  -0.6500 
  4 N       -0.1550    -0.0930    -0.1790 N.am  1 <1>  -0.8490 
  5 C        2.2400     0.9820    -1.0050 C.3   1 <1>  -0.0550 
  6 C       -1.0350    -1.2640    -0.2400 C.3   1 <1>   0.1160 
  7 C       -0.9490     1.1090     0.0970 C.3   1 <1>   0.1160 
  8 C        3.1530     0.2190    -0.0210 C.3   1 <1>  -0.0800 
  9 C        4.4450     0.9380     0.3290 C.3   1 <1>   0.2890 
 10 C        2.5400    -0.0600     1.3570 C.3   1 <1>   0.1200 
 11 N        4.1860     2.3800     0.5790 N.pl3 1 <1>  -0.8690 
 12 C        4.7940     0.2580     1.6460 C.3   1 <1>   0.1200 
 13 O        3.5740     0.0520     2.2940 O.3   1 <1>  -0.5600 
 14 C        4.5540     3.4010    -0.2530 C.ar  1 <1>   0.4100 
 15 N        4.9270     3.0970    -1.4780 N.ar  1 <1>  -0.6200 
 16 C        4.5170     4.7100     0.1790 C.ar  1 <1>  -0.1500 
 17 C        5.2580     4.1220    -2.2410 C.ar  1 <1>   0.4700 
 18 C        4.8870     5.6890    -0.7020 C.ar  1 <1>   0.2780 
 19 N        5.2620     5.4060    -1.9340 N.ar  1 <1>  -0.6200 
 20 C        4.8750     7.1560    -0.3030 C.3   1 <1>  -0.0680 
 21 C        6.1680     7.8840    -0.0920 C.3   1 <1>  -0.2000 
 22 C        5.2640     7.6170     1.0720 C.3   1 <1>  -0.2000 
 23 H        2.8290     1.2440    -1.8630 H     1 <1>   0.0800 
 24 H        1.9110     1.9000    -0.5590 H     1 <1>   0.0800 
 25 H       -1.6270    -1.3340     0.6560 H     1 <1>   0.0800 
 26 H       -0.4480    -2.1630    -0.3250 H     1 <1>   0.0800 
 27 H       -1.6880    -1.1960    -1.0940 H     1 <1>   0.0800 
 28 H       -1.4750     0.9980     1.0300 H     1 <1>   0.0800 
 29 H       -1.6640     1.2780    -0.6910 H     1 <1>   0.0800 
 30 H       -0.3080     1.9700     0.1710 H     1 <1>   0.0800 
 31 H        3.4120    -0.7290    -0.4610 H     1 <1>   0.0800 
 32 H        5.2150     0.8020    -0.4120 H     1 <1>   0.0800 
 33 H        2.1160    -1.0480     1.4150 H     1 <1>   0.0800 
 34 H        1.7930     0.6720     1.6130 H     1 <1>   0.0800 
 35 H        3.8940     2.5790     1.5390 H     1 <1>   0.4000 
 36 H        5.4400     0.8560     2.2650 H     1 <1>   0.0800 
 37 H        5.2390    -0.7050     1.4700 H     1 <1>   0.0800 
 38 H        4.2050     4.9410     1.1760 H     1 <1>   0.1500 
 39 H        5.5640     3.8800    -3.2450 H     1 <1>   0.1500 
 40 H        4.0980     7.6970    -0.8130 H     1 <1>   0.1000 
 41 H        7.0830     7.3250    -0.1870 H     1 <1>   0.1000 
 42 H        6.2560     8.8860    -0.4730 H     1 <1>   0.1000 
 43 H        4.7280     8.4420     1.5090 H     1 <1>   0.1000 
 44 H        5.5980     6.9060     1.8080 H     1 <1>   0.1000 
@<TRIPOS>BOND
  1   1   2  2   
  2   1   3  2   
  3   1   4  am  
  4   1   5  1   
  5   4   6  1   
  6   4   7  1   
  7   5   8  1   
  8   5  23  1   
  9   5  24  1   
 10   6  25  1   
 11   6  26  1   
 12   6  27  1   
 13   7  28  1   
 14   7  29  1   
 15   7  30  1   
 16   8   9  1   
 17   8  10  1   
 18   8  31  1   
 19   9  11  1   
 20   9  12  1   
 21   9  32  1   
 22  10  13  1   
 23  10  33  1   
 24  10  34  1   
 25  11  14  1   
 26  11  35  1   
 27  12  13  1   
 28  12  36  1   
 29  12  37  1   
 30  14  15  ar  
 31  14  16  ar  
 32  15  17  ar  
 33  16  18  ar  
 34  16  38  1   
 35  17  19  ar  
 36  17  39  1   
 37  18  19  ar  
 38  18  20  1   
 39  20  21  1   
 40  20  22  1   
 41  20  40  1   
 42  21  22  1   
 43  21  41  1   
 44  21  42  1   
 45  22  43  1   
 46  22  44  1   
@<TRIPOS>SUBSTRUCTURE
  1 ****  11 GROUP 4 **** **** 0

# MOE 2024.06 (io_trps.svl 2023.06)
