@<TRIPOS>MOLECULE
NONAME
58 62 1 0 0 
SMALL
USER_CHARGES


@<TRIPOS>ATOM
  1 O       -0.5290     0.6740     1.1900 O.2   1 <1>  -0.5700 
  2 C       -1.5730     1.1120     0.7690 C.2   1 <1>   0.5690 
  3 N       -2.7690     0.5030     1.0590 N.am  1 <1>  -0.6600 
  4 C       -1.5130     2.3530    -0.1120 C.3   1 <1>   0.0690 
  5 C       -4.0820     0.7770     0.4040 C.3   1 <1>   0.1400 
  6 C       -2.8440    -0.6100     2.0530 C.3   1 <1>   0.1400 
  7 C       -0.2910     3.2470     0.1030 C.2   1 <1>   0.1820 
  8 C       -4.5560    -0.4860    -0.3200 C.3   1 <1>  -0.1600 
  9 C       -3.3100    -1.8890     1.3540 C.3   1 <1>  -0.1600 
 10 N       -0.0300     4.3220    -0.7350 N.pl3 1 <1>  -0.6290 
 11 C        0.6830     3.2160     1.0400 C.2   1 <1>   0.2000 
 12 C       -4.6500    -1.6910     0.6320 C.3   1 <1>   0.4240 
 13 C        1.1080     4.9130    -0.2880 C.cat 1 <1>   0.7910 
 14 C       -0.6750     4.8270    -1.8430 C.2   1 <1>   0.2290 
 15 N        1.5450     4.2480     0.7910 N.pl3 1 <1>  -0.7000 
 16 O       -5.5740    -1.3680     1.6450 O.3   1 <1>  -0.5600 
 17 C       -5.0490    -2.9760    -0.1260 C.ar  1 <1>  -0.1430 
 18 C        1.6510     6.0450    -0.9370 C.2   1 <1>  -0.1290 
 19 C       -0.1740     5.9190    -2.4900 C.2   1 <1>  -0.1500 
 20 C       -6.9260    -1.5870     1.3830 C.3   1 <1>   0.1200 
 21 C       -6.2390    -3.6390     0.1570 C.ar  1 <1>  -0.1440 
 22 C       -4.2210    -3.4970    -1.1150 C.ar  1 <1>  -0.1500 
 23 C        1.0060     6.5440    -2.0380 C.2   1 <1>  -0.1500 
 24 C        2.9300     6.6960    -0.4200 C.3   1 <1>  -0.1020 
 25 C       -7.1620    -3.0860     1.2240 C.3   1 <1>  -0.0170 
 26 C       -6.5880    -4.7930    -0.5260 C.ar  1 <1>  -0.1500 
 27 C       -4.5680    -4.6470    -1.7990 C.ar  1 <1>  -0.1500 
 28 C       -5.7500    -5.3050    -1.5120 C.ar  1 <1>   0.0830 
 29 O       -6.0170    -6.4270    -2.2260 O.3   1 <1>  -0.3630 
 30 C       -7.1840    -7.1820    -1.9970 C.3   1 <1>   0.0400 
 31 H       -2.3830     2.9540     0.0690 H     1 <1>   0.0800 
 32 H       -1.5280     2.0220    -1.1330 H     1 <1>   0.0800 
 33 H       -4.0140     1.5800    -0.3060 H     1 <1>   0.0800 
 34 H       -4.8000     1.0560     1.1580 H     1 <1>   0.0800 
 35 H       -3.5410    -0.3440     2.8310 H     1 <1>   0.0800 
 36 H       -1.8870    -0.7820     2.5150 H     1 <1>   0.0800 
 37 H       -3.8610    -0.7060    -1.1080 H     1 <1>   0.0800 
 38 H       -5.5090    -0.3120    -0.7820 H     1 <1>   0.0800 
 39 H       -3.4130    -2.6800     2.0740 H     1 <1>   0.0800 
 40 H       -2.5490    -2.1850     0.6580 H     1 <1>   0.0800 
 41 H        0.8230     2.5320     1.8640 H     1 <1>   0.1500 
 42 H       -1.5760     4.3400    -2.1810 H     1 <1>   0.1500 
 43 H        2.3870     4.4790     1.3200 H     1 <1>   0.4500 
 44 H       -0.6700     6.3220    -3.3570 H     1 <1>   0.1500 
 45 H       -7.2060    -1.0550     0.4910 H     1 <1>   0.0800 
 46 H       -7.4900    -1.2040     2.2150 H     1 <1>   0.0800 
 47 H       -3.2940    -3.0130    -1.3650 H     1 <1>   0.1500 
 48 H        1.3730     7.4050    -2.5730 H     1 <1>   0.1500 
 49 H        3.7440     5.9920    -0.4440 H     1 <1>   0.0800 
 50 H        2.7930     7.0410     0.5890 H     1 <1>   0.0800 
 51 H        3.2020     7.5410    -1.0290 H     1 <1>   0.0800 
 52 H       -8.1880    -3.2550     0.9550 H     1 <1>   0.0800 
 53 H       -6.9700    -3.5790     2.1600 H     1 <1>   0.0800 
 54 H       -7.5100    -5.2830    -0.2820 H     1 <1>   0.1500 
 55 H       -3.9230    -5.0440    -2.5620 H     1 <1>   0.1500 
 56 H       -7.1760    -8.0220    -2.6680 H     1 <1>   0.0800 
 57 H       -8.0430    -6.5660    -2.1940 H     1 <1>   0.0800 
 58 H       -7.1820    -7.5280    -0.9790 H     1 <1>   0.0800 
@<TRIPOS>BOND
  1   1   2  2   
  2   2   3  am  
  3   2   4  1   
  4   3   5  1   
  5   3   6  1   
  6   4   7  1   
  7   4  31  1   
  8   4  32  1   
  9   5   8  1   
 10   5  33  1   
 11   5  34  1   
 12   6   9  1   
 13   6  35  1   
 14   6  36  1   
 15   7  10  1   
 16   7  11  2   
 17   8  12  1   
 18   8  37  1   
 19   8  38  1   
 20   9  12  1   
 21   9  39  1   
 22   9  40  1   
 23  10  13  ar  
 24  10  14  1   
 25  11  15  1   
 26  11  41  1   
 27  12  16  1   
 28  12  17  1   
 29  13  15  ar  
 30  13  18  1   
 31  14  19  2   
 32  14  42  1   
 33  15  43  1   
 34  16  20  1   
 35  17  21  ar  
 36  17  22  ar  
 37  18  23  2   
 38  18  24  1   
 39  19  23  1   
 40  19  44  1   
 41  20  25  1   
 42  20  45  1   
 43  20  46  1   
 44  21  25  1   
 45  21  26  ar  
 46  22  27  ar  
 47  22  47  1   
 48  23  48  1   
 49  24  49  1   
 50  24  50  1   
 51  24  51  1   
 52  25  52  1   
 53  25  53  1   
 54  26  28  ar  
 55  26  54  1   
 56  27  28  ar  
 57  27  55  1   
 58  28  29  1   
 59  29  30  1   
 60  30  56  1   
 61  30  57  1   
 62  30  58  1   
@<TRIPOS>SUBSTRUCTURE
  1 ****   3 GROUP 4 **** **** 0

# MOE 2024.06 (io_trps.svl 2023.06)
