@<TRIPOS>MOLECULE
NONAME
48 50 1 0 0 
SMALL
USER_CHARGES


@<TRIPOS>ATOM
  1 O       -0.5960     1.0950    -1.3100 O.2   1 <1>  -0.5700 
  2 C       -0.4430     2.2080    -0.8750 C.2   1 <1>   0.5690 
  3 N       -1.3880     2.7800    -0.0970 N.am  1 <1>  -0.7300 
  4 C        0.8180     3.0030    -1.2320 C.3   1 <1>   0.1810 
  5 C       -1.2430     4.1260     0.5040 C.3   1 <1>   0.3640 
  6 O        1.0360     4.1180    -0.3910 O.3   1 <1>  -0.5600 
  7 C       -2.5670     4.8740     0.3790 C.ar  1 <1>  -0.1440 
  8 C       -0.1080     4.9290    -0.1770 C.3   1 <1>   0.2610 
  9 C       -3.2540     4.9220    -0.8250 C.ar  1 <1>  -0.1500 
 10 C       -3.0940     5.5400     1.4740 C.ar  1 <1>  -0.1500 
 11 C        0.2470     6.1880     0.6330 C.2   1 <1>   0.5690 
 12 C       -4.4430     5.6220    -0.9520 C.ar  1 <1>   0.0830 
 13 C       -4.2780     6.2480     1.3660 C.ar  1 <1>  -0.1500 
 14 O        0.0820     6.1770     1.8340 O.2   1 <1>  -0.5700 
 15 N        0.7300     7.3110     0.0060 N.am  1 <1>  -0.6600 
 16 O       -5.0000     5.5770    -2.1950 O.3   1 <1>  -0.3620 
 17 C       -4.9660     6.3090     0.1560 C.ar  1 <1>   0.0830 
 18 C        0.9740     8.5620     0.7840 C.3   1 <1>   0.3210 
 19 C        1.1920     7.3590    -1.4120 C.3   1 <1>   0.0600 
 20 C       -6.4000     5.5820    -2.3650 C.3   1 <1>   0.0400 
 21 O       -6.1140     7.0360     0.0280 O.3   1 <1>  -0.3630 
 22 C        2.4430     8.6850     1.1550 C.2   1 <1>   0.1080 
 23 C       -6.6170     7.8410     1.0720 C.3   1 <1>   0.0400 
 24 N        3.2340     9.6000     0.7120 N.2   1 <1>  -0.4100 
 25 C        3.1200     7.8210     2.0130 C.2   1 <1>  -0.1500 
 26 O        4.3970     9.3640     1.2510 O.3   1 <1>  -0.0190 
 27 C        4.3660     8.3150     2.0280 C.2   1 <1>  -0.0100 
 28 H       -2.2330     2.2520     0.1300 H     1 <1>   0.3700 
 29 H        0.7420     3.3540    -2.2440 H     1 <1>   0.0800 
 30 H        1.6760     2.3620    -1.1520 H     1 <1>   0.0800 
 31 H       -1.0050     3.9950     1.5460 H     1 <1>   0.0800 
 32 H       -0.4600     5.2480    -1.1410 H     1 <1>   0.0800 
 33 H       -2.8750     4.4110    -1.6920 H     1 <1>   0.1500 
 34 H       -2.5770     5.5210     2.4190 H     1 <1>   0.1500 
 35 H       -4.6410     6.7480     2.2420 H     1 <1>   0.1500 
 36 H        0.6820     9.4130     0.1930 H     1 <1>   0.0800 
 37 H        0.3830     8.5700     1.6820 H     1 <1>   0.0800 
 38 H        2.0650     7.9850    -1.4960 H     1 <1>   0.0800 
 39 H        0.4130     7.7640    -2.0350 H     1 <1>   0.0800 
 40 H        1.4560     6.3780    -1.7630 H     1 <1>   0.0800 
 41 H       -6.6210     5.1730    -3.3340 H     1 <1>   0.0800 
 42 H       -6.7520     6.5960    -2.3100 H     1 <1>   0.0800 
 43 H       -6.8510     4.9780    -1.5970 H     1 <1>   0.0800 
 44 H       -7.4950     8.3440     0.7120 H     1 <1>   0.0800 
 45 H       -5.8690     8.5640     1.3470 H     1 <1>   0.0800 
 46 H       -6.8730     7.2120     1.9060 H     1 <1>   0.0800 
 47 H        2.6990     6.9690     2.5170 H     1 <1>   0.1500 
 48 H        5.2580     8.0030     2.5390 H     1 <1>   0.1500 
@<TRIPOS>BOND
  1   1   2  2   
  2   2   3  am  
  3   2   4  1   
  4   3   5  1   
  5   3  28  1   
  6   4   6  1   
  7   4  29  1   
  8   4  30  1   
  9   5   7  1   
 10   5   8  1   
 11   5  31  1   
 12   6   8  1   
 13   7   9  ar  
 14   7  10  ar  
 15   8  11  1   
 16   8  32  1   
 17   9  12  ar  
 18   9  33  1   
 19  10  13  ar  
 20  10  34  1   
 21  11  14  2   
 22  11  15  am  
 23  12  16  1   
 24  12  17  ar  
 25  13  17  ar  
 26  13  35  1   
 27  15  18  1   
 28  15  19  1   
 29  16  20  1   
 30  17  21  1   
 31  18  22  1   
 32  18  36  1   
 33  18  37  1   
 34  19  38  1   
 35  19  39  1   
 36  19  40  1   
 37  20  41  1   
 38  20  42  1   
 39  20  43  1   
 40  21  23  1   
 41  22  24  2   
 42  22  25  1   
 43  23  44  1   
 44  23  45  1   
 45  23  46  1   
 46  24  26  1   
 47  25  27  2   
 48  25  47  1   
 49  26  27  1   
 50  27  48  1   
@<TRIPOS>SUBSTRUCTURE
  1 ****  11 GROUP 4 **** **** 0

# MOE 2024.06 (io_trps.svl 2023.06)
