@<TRIPOS>MOLECULE
NONAME
47 49 1 0 0 
SMALL
USER_CHARGES


@<TRIPOS>ATOM
  1 CL       0.8560    -2.4900     3.2690 Cl    1 <1>  -0.1230 
  2 C       -0.3510    -3.1370     2.1710 C.2   1 <1>   0.1230 
  3 C       -0.1240    -3.5530     0.8680 C.2   1 <1>   0.1390 
  4 C       -1.6600    -3.3300     2.4110 C.2   1 <1>  -0.3020 
  5 N       -1.2220    -3.9850     0.3160 N.2   1 <1>  -0.7070 
  6 N       -2.1700    -3.8440     1.2720 N.pl3 1 <1>   0.3140 
  7 C       -3.5690    -4.2210     1.0280 C.3   1 <1>   0.0960 
  8 C       -3.5990    -5.4640     0.1360 C.3   1 <1>   0.3430 
  9 N       -5.0010    -5.8670    -0.1220 N.4   1 <1>  -0.9590 
 10 C       -5.2200    -7.3540    -0.2500 C.3   1 <1>   0.3430 
 11 C       -5.7190    -5.1070    -1.1750 C.3   1 <1>   0.3430 
 12 C       -6.6710    -7.7040    -0.6800 C.3   1 <1>   0.2000 
 13 C       -7.2370    -5.2660    -0.9730 C.3   1 <1>  -0.1600 
 14 O       -6.6950    -7.8430    -2.0690 O.3   1 <1>  -0.6800 
 15 C       -7.6520    -6.5890    -0.2450 C.3   1 <1>  -0.1060 
 16 C       -7.4560    -6.5010     1.2770 C.2   1 <1>   0.9060 
 17 C       -9.1260    -6.9570    -0.5560 C.3   1 <1>  -0.0160 
 18 O       -6.8620    -5.5250     1.7620 O.co2 1 <1>  -0.9000 
 19 O       -7.6640    -7.5130     1.9440 O.co2 1 <1>  -0.9000 
 20 C      -10.0980    -5.8130    -0.2880 C.ar  1 <1>  -0.1430 
 21 C      -10.6160    -5.0680    -1.3380 C.ar  1 <1>  -0.1500 
 22 C      -10.4760    -5.5060     1.0100 C.ar  1 <1>  -0.1500 
 23 C      -11.4940    -4.0260    -1.0920 C.ar  1 <1>  -0.1500 
 24 C      -11.3520    -4.4640     1.2570 C.ar  1 <1>  -0.1500 
 25 C      -11.8610    -3.7220     0.2070 C.ar  1 <1>  -0.1500 
 26 H        0.8350    -3.5230     0.3780 H     1 <1>   0.1500 
 27 H       -2.2320    -3.1340     3.2980 H     1 <1>   0.1500 
 28 H       -4.0460    -4.4270     1.9690 H     1 <1>   0.0800 
 29 H       -4.0590    -3.3970     0.5460 H     1 <1>   0.0800 
 30 H       -3.0840    -6.2610     0.6460 H     1 <1>   0.0800 
 31 H       -3.0930    -5.2660    -0.7950 H     1 <1>   0.0800 
 32 H       -5.5460    -5.6250     0.7480 H     1 <1>   0.4500 
 33 H       -4.5330    -7.7810    -0.9610 H     1 <1>   0.0800 
 34 H       -5.0420    -7.8050     0.7130 H     1 <1>   0.0800 
 35 H       -5.4600    -4.0620    -1.1370 H     1 <1>   0.0800 
 36 H       -5.4430    -5.4980    -2.1420 H     1 <1>   0.0800 
 37 H       -6.9490    -8.6540    -0.2520 H     1 <1>   0.0800 
 38 H       -7.6130    -4.4210    -0.4220 H     1 <1>   0.0800 
 39 H       -7.6940    -5.2240    -1.9450 H     1 <1>   0.0800 
 40 H       -7.5680    -8.1830    -2.3530 H     1 <1>   0.4000 
 41 H       -9.2240    -7.2490    -1.5840 H     1 <1>   0.0800 
 42 H       -9.4200    -7.8060     0.0400 H     1 <1>   0.0800 
 43 H      -10.3410    -5.2940    -2.3520 H     1 <1>   0.1500 
 44 H      -10.0870    -6.0770     1.8380 H     1 <1>   0.1500 
 45 H      -11.8910    -3.4520    -1.9100 H     1 <1>   0.1500 
 46 H      -11.6320    -4.2340     2.2700 H     1 <1>   0.1500 
 47 H      -12.5410    -2.9120     0.4010 H     1 <1>   0.1500 
@<TRIPOS>BOND
  1   1   2  1   
  2   2   3  1   
  3   2   4  2   
  4   3   5  2   
  5   3  26  1   
  6   4   6  1   
  7   4  27  1   
  8   5   6  1   
  9   6   7  1   
 10   7   8  1   
 11   7  28  1   
 12   7  29  1   
 13   8   9  1   
 14   8  30  1   
 15   8  31  1   
 16   9  10  1   
 17   9  11  1   
 18   9  32  1   
 19  10  12  1   
 20  10  33  1   
 21  10  34  1   
 22  11  13  1   
 23  11  35  1   
 24  11  36  1   
 25  12  14  1   
 26  12  15  1   
 27  12  37  1   
 28  13  15  1   
 29  13  38  1   
 30  13  39  1   
 31  14  40  1   
 32  15  16  1   
 33  15  17  1   
 34  16  18  ar  
 35  16  19  ar  
 36  17  20  1   
 37  17  41  1   
 38  17  42  1   
 39  20  21  ar  
 40  20  22  ar  
 41  21  23  ar  
 42  21  43  1   
 43  22  24  ar  
 44  22  44  1   
 45  23  25  ar  
 46  23  45  1   
 47  24  25  ar  
 48  24  46  1   
 49  25  47  1   
@<TRIPOS>SUBSTRUCTURE
  1 ****   9 GROUP 4 **** **** 0

# MOE 2024.06 (io_trps.svl 2023.06)
