@<TRIPOS>MOLECULE
NONAME
47 49 1 0 0 
SMALL
USER_CHARGES


@<TRIPOS>ATOM
  1 S       -0.2120    -0.0780     0.4070 S.o2  1 <1>   1.3330 
  2 O       -0.0700    -0.6940     1.7070 O.2   1 <1>  -0.6500 
  3 O       -0.9260     1.1730     0.2870 O.2   1 <1>  -0.6500 
  4 N       -0.9430    -1.2110    -0.6250 N.am  1 <1>  -0.8490 
  5 C        1.4030     0.1430    -0.3400 C.3   1 <1>  -0.0550 
  6 C       -2.3990    -1.0540    -0.6810 C.3   1 <1>   0.1160 
  7 C       -0.6020    -2.6000    -0.2990 C.3   1 <1>   0.1160 
  8 C        2.2650     1.2130     0.3610 C.3   1 <1>  -0.0800 
  9 C        3.5130     1.5250    -0.4460 C.3   1 <1>   0.2200 
 10 C        2.8570     0.7030     1.6800 C.3   1 <1>   0.1200 
 11 N        4.0000     2.8740    -0.0800 N.am  1 <1>  -0.7300 
 12 C        4.4890     0.4720     0.0630 C.3   1 <1>   0.1200 
 13 O        4.1380     0.2230     1.3920 O.3   1 <1>  -0.5600 
 14 C        4.1360     3.9260    -0.9420 C.2   1 <1>   0.5440 
 15 O        3.8570     3.7480    -2.1110 O.2   1 <1>  -0.5700 
 16 C        4.6140     5.2130    -0.4740 C.ar  1 <1>   0.0860 
 17 C        5.3080     6.0680    -1.3190 C.ar  1 <1>  -0.1500 
 18 C        4.3890     5.6380     0.8560 C.ar  1 <1>  -0.1500 
 19 C        5.7770     7.2920    -0.8590 C.ar  1 <1>   0.2270 
 20 C        4.8460     6.8480     1.3250 C.ar  1 <1>  -0.1500 
 21 N        6.4780     8.2560    -1.5190 N.2   1 <1>  -0.5650 
 22 C        5.5490     7.6750     0.4490 C.ar  1 <1>  -0.1520 
 23 C        6.6600     9.1790    -0.6420 C.2   1 <1>   0.0060 
 24 N        6.1240     8.8950     0.5720 N.pl3 1 <1>   0.0330 
 25 C        7.4000    10.4690    -0.9200 C.3   1 <1>  -0.0600 
 26 H        1.9260    -0.7930    -0.3490 H     1 <1>   0.0800 
 27 H        1.2520     0.4440    -1.3590 H     1 <1>   0.0800 
 28 H       -2.8280    -1.7760    -1.3540 H     1 <1>   0.0800 
 29 H       -2.6510    -0.0700    -1.0400 H     1 <1>   0.0800 
 30 H       -2.8280    -1.1840     0.3000 H     1 <1>   0.0800 
 31 H       -1.0150    -3.2650    -1.0390 H     1 <1>   0.0800 
 32 H       -0.9940    -2.8670     0.6690 H     1 <1>   0.0800 
 33 H        0.4660    -2.7280    -0.2860 H     1 <1>   0.0800 
 34 H        1.6690     2.0970     0.5100 H     1 <1>   0.0800 
 35 H        3.3600     1.4520    -1.5110 H     1 <1>   0.0800 
 36 H        2.2870    -0.0870     2.1350 H     1 <1>   0.0800 
 37 H        2.9660     1.5100     2.3840 H     1 <1>   0.0800 
 38 H        4.3780     2.9430     0.8660 H     1 <1>   0.3700 
 39 H        5.5130     0.7980     0.0120 H     1 <1>   0.0800 
 40 H        4.3740    -0.4480    -0.4830 H     1 <1>   0.0800 
 41 H        5.4970     5.8000    -2.3430 H     1 <1>   0.1500 
 42 H        3.8340     4.9970     1.5170 H     1 <1>   0.1500 
 43 H        4.6680     7.1610     2.3400 H     1 <1>   0.1500 
 44 H        6.1460     9.4820     1.4090 H     1 <1>   0.2700 
 45 H        7.7360    10.4810    -1.9420 H     1 <1>   0.0800 
 46 H        8.2560    10.5510    -0.2760 H     1 <1>   0.0800 
 47 H        6.7500    11.3100    -0.7630 H     1 <1>   0.0800 
@<TRIPOS>BOND
  1   1   2  2   
  2   1   3  2   
  3   1   4  am  
  4   1   5  1   
  5   4   6  1   
  6   4   7  1   
  7   5   8  1   
  8   5  26  1   
  9   5  27  1   
 10   6  28  1   
 11   6  29  1   
 12   6  30  1   
 13   7  31  1   
 14   7  32  1   
 15   7  33  1   
 16   8   9  1   
 17   8  10  1   
 18   8  34  1   
 19   9  11  1   
 20   9  12  1   
 21   9  35  1   
 22  10  13  1   
 23  10  36  1   
 24  10  37  1   
 25  11  14  am  
 26  11  38  1   
 27  12  13  1   
 28  12  39  1   
 29  12  40  1   
 30  14  15  2   
 31  14  16  1   
 32  16  17  ar  
 33  16  18  ar  
 34  17  19  ar  
 35  17  41  1   
 36  18  20  ar  
 37  18  42  1   
 38  19  21  1   
 39  19  22  ar  
 40  20  22  ar  
 41  20  43  1   
 42  21  23  2   
 43  22  24  1   
 44  23  24  1   
 45  23  25  1   
 46  24  44  1   
 47  25  45  1   
 48  25  46  1   
 49  25  47  1   
@<TRIPOS>SUBSTRUCTURE
  1 ****  11 GROUP 4 **** **** 0

# MOE 2024.06 (io_trps.svl 2023.06)
