@<TRIPOS>MOLECULE
NONAME
57 60 1 0 0 
SMALL
USER_CHARGES


@<TRIPOS>ATOM
  1 O        0.6720    -4.6570    -0.8080 O.2   1 <1>  -0.5700 
  2 C        0.7380    -3.4500    -0.8190 C.2   1 <1>   0.5690 
  3 N        1.7760    -2.7000    -0.3800 N.am  1 <1>  -0.6600 
  4 C       -0.3600    -2.5860    -1.3720 C.3   1 <1>  -0.0990 
  5 C        1.5380    -1.2550    -0.5590 C.3   1 <1>   0.1400 
  6 C        3.0140    -3.1410     0.3510 C.3   1 <1>   0.2010 
  7 C        0.0700    -1.1600    -0.9950 C.3   1 <1>  -0.1600 
  8 C        2.9400    -4.5100     1.0440 C.2   1 <1>   0.5690 
  9 O        2.4620    -4.5510     2.1550 O.2   1 <1>  -0.5700 
 10 N        3.4060    -5.6610     0.4480 N.am  1 <1>  -0.6600 
 11 C        3.4160    -6.9270     1.2670 C.3   1 <1>   0.2200 
 12 C        3.6350    -5.7630    -1.0280 C.3   1 <1>   0.1400 
 13 C        4.5680    -7.8850     0.9220 C.3   1 <1>   0.1200 
 14 C        2.0460    -7.6340     1.1850 C.3   1 <1>   0.3430 
 15 C        3.2620    -7.1260    -1.6480 C.3   1 <1>  -0.0800 
 16 O        4.2190    -8.7340    -0.1290 O.3   1 <1>  -0.5600 
 17 N        1.2530    -7.2590    -0.0390 N.4   1 <1>  -0.9590 
 18 C        4.3390    -8.1920    -1.3990 C.3   1 <1>   0.1200 
 19 C        1.8450    -7.6660    -1.3510 C.3   1 <1>   0.3430 
 20 C       -0.1950    -7.6020     0.0780 C.3   1 <1>   0.3430 
 21 C       -0.4580    -9.1110     0.1410 C.3   1 <1>  -0.0170 
 22 C       -1.9530    -9.3440     0.2460 C.ar  1 <1>  -0.1440 
 23 C       -2.5740    -9.3450     1.4870 C.ar  1 <1>  -0.1500 
 24 C       -2.7130    -9.5480    -0.8950 C.ar  1 <1>  -0.1500 
 25 C       -3.9400    -9.5440     1.5840 C.ar  1 <1>  -0.1500 
 26 C       -4.0790    -9.7480    -0.7980 C.ar  1 <1>  -0.1500 
 27 C       -4.6940    -9.7450     0.4410 C.ar  1 <1>  -0.1500 
 28 H       -0.4030    -2.7080    -2.4380 H     1 <1>   0.0800 
 29 H       -1.3070    -2.8440    -0.9330 H     1 <1>   0.0800 
 30 H        1.7010    -0.7210     0.3630 H     1 <1>   0.0800 
 31 H        2.1920    -0.8730    -1.3250 H     1 <1>   0.0800 
 32 H        3.8440    -3.1310    -0.3310 H     1 <1>   0.0800 
 33 H        3.2260    -2.4180     1.1180 H     1 <1>   0.0800 
 34 H       -0.5180    -0.8100    -0.1650 H     1 <1>   0.0800 
 35 H       -0.0510    -0.4720    -1.8140 H     1 <1>   0.0800 
 36 H        3.5760    -6.6570     2.2970 H     1 <1>   0.0800 
 37 H        3.0610    -5.0040    -1.5310 H     1 <1>   0.0800 
 38 H        4.6730    -5.5550    -1.2270 H     1 <1>   0.0800 
 39 H        4.7600    -8.5180     1.7710 H     1 <1>   0.0800 
 40 H        5.4760    -7.3530     0.6900 H     1 <1>   0.0800 
 41 H        1.4860    -7.3470     2.0590 H     1 <1>   0.0800 
 42 H        2.1920    -8.7000     1.2230 H     1 <1>   0.0800 
 43 H        3.2920    -6.9690    -2.7110 H     1 <1>   0.0800 
 44 H        1.2800    -6.2140    -0.0630 H     1 <1>   0.4500 
 45 H        5.3340    -7.7960    -1.5220 H     1 <1>   0.0800 
 46 H        4.2170    -9.0040    -2.0950 H     1 <1>   0.0800 
 47 H        1.8660    -8.7410    -1.4180 H     1 <1>   0.0800 
 48 H        1.1920    -7.3060    -2.1300 H     1 <1>   0.0800 
 49 H       -0.5980    -7.1420     0.9650 H     1 <1>   0.0800 
 50 H       -0.7270    -7.1890    -0.7640 H     1 <1>   0.0800 
 51 H       -0.0870    -9.5970    -0.7420 H     1 <1>   0.0800 
 52 H        0.0250    -9.5430     0.9980 H     1 <1>   0.0800 
 53 H       -2.0050    -9.1940     2.3880 H     1 <1>   0.1500 
 54 H       -2.2550    -9.5560    -1.8690 H     1 <1>   0.1500 
 55 H       -4.4190    -9.5450     2.5480 H     1 <1>   0.1500 
 56 H       -4.6670    -9.9070    -1.6860 H     1 <1>   0.1500 
 57 H       -5.7560    -9.9000     0.5170 H     1 <1>   0.1500 
@<TRIPOS>BOND
  1   1   2  2   
  2   2   3  am  
  3   2   4  1   
  4   3   5  1   
  5   3   6  1   
  6   4   7  1   
  7   4  28  1   
  8   4  29  1   
  9   5   7  1   
 10   5  30  1   
 11   5  31  1   
 12   6   8  1   
 13   6  32  1   
 14   6  33  1   
 15   7  34  1   
 16   7  35  1   
 17   8   9  2   
 18   8  10  am  
 19  10  11  1   
 20  10  12  1   
 21  11  13  1   
 22  11  14  1   
 23  11  36  1   
 24  12  15  1   
 25  12  37  1   
 26  12  38  1   
 27  13  16  1   
 28  13  39  1   
 29  13  40  1   
 30  14  17  1   
 31  14  41  1   
 32  14  42  1   
 33  15  18  1   
 34  15  19  1   
 35  15  43  1   
 36  16  18  1   
 37  17  19  1   
 38  17  20  1   
 39  17  44  1   
 40  18  45  1   
 41  18  46  1   
 42  19  47  1   
 43  19  48  1   
 44  20  21  1   
 45  20  49  1   
 46  20  50  1   
 47  21  22  1   
 48  21  51  1   
 49  21  52  1   
 50  22  23  ar  
 51  22  24  ar  
 52  23  25  ar  
 53  23  53  1   
 54  24  26  ar  
 55  24  54  1   
 56  25  27  ar  
 57  25  55  1   
 58  26  27  ar  
 59  26  56  1   
 60  27  57  1   
@<TRIPOS>SUBSTRUCTURE
  1 ****  17 GROUP 4 **** **** 0

# MOE 2024.06 (io_trps.svl 2023.06)
