@<TRIPOS>MOLECULE
NONAME
54 57 1 0 0 
SMALL
USER_CHARGES


@<TRIPOS>ATOM
  1 O        0.9360    -0.4300     1.2720 O.3   1 <1>  -0.5600 
  2 C        1.9660    -1.0040     0.5050 C.3   1 <1>   0.4240 
  3 C       -0.3780    -0.7410     0.9210 C.3   1 <1>   0.1200 
  4 C        1.6450    -2.4560     0.0990 C.ar  1 <1>  -0.1440 
  5 C        2.1970    -0.1110    -0.7240 C.3   1 <1>  -0.1600 
  6 C        3.2000    -0.9710     1.4180 C.3   1 <1>  -0.1600 
  7 C       -0.6160    -2.2300     1.1600 C.3   1 <1>  -0.0160 
  8 C        0.4270    -3.0410     0.4170 C.ar  1 <1>  -0.1440 
  9 C        2.5740    -3.2130    -0.6020 C.ar  1 <1>  -0.1500 
 10 C        2.6160     1.3020    -0.3220 C.3   1 <1>   0.2090 
 11 C        3.5880     0.4620     1.7820 C.3   1 <1>   0.2090 
 12 C        0.1610    -4.3530     0.0590 C.ar  1 <1>  -0.1500 
 13 C        2.3230    -4.5220    -0.9780 C.ar  1 <1>   0.0820 
 14 N        3.8570     1.2230     0.5210 N.pl3 1 <1>  -0.8380 
 15 C        1.0990    -5.1160    -0.6310 C.ar  1 <1>   0.0820 
 16 O        3.3430    -5.1100    -1.6690 O.3   1 <1>  -0.3630 
 17 C        5.0370     1.7670     0.1140 C.ar  1 <1>   0.7710 
 18 O        0.8480    -6.4190    -0.9560 O.3   1 <1>  -0.3630 
 19 C        3.1250    -6.1870    -2.5520 C.3   1 <1>   0.0400 
 20 N        5.1100     2.3750    -1.0620 N.ar  1 <1>  -0.6200 
 21 N        6.1120     1.6710     0.9180 N.ar  1 <1>  -0.1790 
 22 C       -0.2420    -7.1310    -0.4130 C.3   1 <1>   0.0400 
 23 C        6.2600     2.8840    -1.4280 C.ar  1 <1>   0.4100 
 24 C        7.3160     2.1880     0.5710 C.ar  1 <1>   0.2110 
 25 N        6.2590     3.4780    -2.6240 N.pl3 1 <1>  -0.9000 
 26 C        7.4210     2.8160    -0.6270 C.ar  1 <1>  -0.1440 
 27 C        8.7370     3.4290    -1.0990 C.3   1 <1>  -0.0970 
 28 H       -0.5410    -0.4850    -0.1120 H     1 <1>   0.0800 
 29 H       -1.0350    -0.1520     1.5370 H     1 <1>   0.0800 
 30 H        1.3070    -0.0750    -1.3230 H     1 <1>   0.0800 
 31 H        2.9710    -0.5300    -1.3410 H     1 <1>   0.0800 
 32 H        4.0330    -1.4450     0.9340 H     1 <1>   0.0800 
 33 H        2.9830    -1.5310     2.3100 H     1 <1>   0.0800 
 34 H       -1.6020    -2.4890     0.8200 H     1 <1>   0.0800 
 35 H       -0.5550    -2.4380     2.2130 H     1 <1>   0.0800 
 36 H        3.5230    -2.7960    -0.8800 H     1 <1>   0.1500 
 37 H        1.8280     1.7690     0.2460 H     1 <1>   0.0800 
 38 H        2.7610     1.8930    -1.2100 H     1 <1>   0.0800 
 39 H        4.4370     0.4440     2.4380 H     1 <1>   0.0800 
 40 H        2.7760     0.9330     2.3160 H     1 <1>   0.0800 
 41 H       -0.7920    -4.7660     0.3290 H     1 <1>   0.1500 
 42 H        3.9900    -6.2830    -3.1820 H     1 <1>   0.0800 
 43 H        2.2540    -5.9820    -3.1480 H     1 <1>   0.0800 
 44 H        2.9930    -7.0850    -1.9760 H     1 <1>   0.0800 
 45 H        5.9580     1.1890     1.7940 H     1 <1>   0.4570 
 46 H       -0.1590    -8.1560    -0.7260 H     1 <1>   0.0800 
 47 H       -1.1570    -6.7090    -0.7870 H     1 <1>   0.0800 
 48 H       -0.1980    -7.0730     0.6610 H     1 <1>   0.0800 
 49 H        8.1450     2.0840     1.2520 H     1 <1>   0.1500 
 50 H        7.0650     3.9300    -3.0580 H     1 <1>   0.4000 
 51 H        5.3980     3.5090    -3.1770 H     1 <1>   0.4000 
 52 H        9.0500     2.9700    -2.0220 H     1 <1>   0.0800 
 53 H        9.5190     3.2910    -0.3730 H     1 <1>   0.0800 
 54 H        8.6150     4.4860    -1.2650 H     1 <1>   0.0800 
@<TRIPOS>BOND
  1   1   2  1   
  2   1   3  1   
  3   2   4  1   
  4   2   5  1   
  5   2   6  1   
  6   3   7  1   
  7   3  28  1   
  8   3  29  1   
  9   4   8  ar  
 10   4   9  ar  
 11   5  10  1   
 12   5  30  1   
 13   5  31  1   
 14   6  11  1   
 15   6  32  1   
 16   6  33  1   
 17   7   8  1   
 18   7  34  1   
 19   7  35  1   
 20   8  12  ar  
 21   9  13  ar  
 22   9  36  1   
 23  10  14  1   
 24  10  37  1   
 25  10  38  1   
 26  11  14  1   
 27  11  39  1   
 28  11  40  1   
 29  12  15  ar  
 30  12  41  1   
 31  13  15  ar  
 32  13  16  1   
 33  14  17  1   
 34  15  18  1   
 35  16  19  1   
 36  17  20  ar  
 37  17  21  ar  
 38  18  22  1   
 39  19  42  1   
 40  19  43  1   
 41  19  44  1   
 42  20  23  ar  
 43  21  24  ar  
 44  21  45  1   
 45  22  46  1   
 46  22  47  1   
 47  22  48  1   
 48  23  25  1   
 49  23  26  ar  
 50  24  26  ar  
 51  24  49  1   
 52  25  50  1   
 53  25  51  1   
 54  26  27  1   
 55  27  52  1   
 56  27  53  1   
 57  27  54  1   
@<TRIPOS>SUBSTRUCTURE
  1 ****   2 GROUP 4 **** **** 0

# MOE 2024.06 (io_trps.svl 2023.06)
