@<TRIPOS>MOLECULE
NONAME
50 52 1 0 0 
SMALL
USER_CHARGES


@<TRIPOS>ATOM
  1 F       -1.6620    -0.3110    -1.8640 F     1 <1>  -0.1900 
  2 C       -2.1190     0.6690    -1.1330 C.ar  1 <1>   0.1900 
  3 C       -1.9220     1.9650    -1.5590 C.ar  1 <1>  -0.1500 
  4 C       -2.7810     0.3690     0.0400 C.ar  1 <1>  -0.1500 
  5 C       -2.3970     3.0250    -0.7900 C.ar  1 <1>   0.0860 
  6 C       -3.2620     1.4150     0.8080 C.ar  1 <1>  -0.1500 
  7 C       -3.0760     2.7300     0.4020 C.ar  1 <1>  -0.1440 
  8 C       -2.1650     4.3860    -1.2320 C.2   1 <1>   0.5440 
  9 C       -3.6250     3.8580     1.2660 C.3   1 <1>  -0.0960 
 10 O       -3.0790     5.0090    -1.7380 O.2   1 <1>  -0.5700 
 11 N       -0.9340     4.9930    -1.0810 N.am  1 <1>  -0.6600 
 12 C        0.1980     4.3800    -0.3170 C.3   1 <1>   0.1400 
 13 C       -0.6820     6.3610    -1.6140 C.3   1 <1>   0.1400 
 14 C        0.5610     5.2000     0.9290 C.3   1 <1>   0.1400 
 15 C       -0.8660     7.3900    -0.4950 C.3   1 <1>  -0.1600 
 16 N        1.2550     6.4710     0.5610 N.am  1 <1>  -0.6600 
 17 C        0.4000     7.6730     0.3290 C.3   1 <1>   0.1400 
 18 C        2.6190     6.4680     0.3380 C.2   1 <1>   0.5440 
 19 O        3.1880     5.3980     0.2260 O.2   1 <1>  -0.5700 
 20 C        3.3890     7.6930     0.2250 C.ar  1 <1>   0.0860 
 21 C        3.3380     8.6840     1.2060 C.ar  1 <1>  -0.1500 
 22 C        4.2160     7.9190    -0.8720 C.ar  1 <1>  -0.1500 
 23 C        4.0660     9.8540     1.0880 C.ar  1 <1>  -0.1500 
 24 C        4.9460     9.0870    -0.9960 C.ar  1 <1>  -0.1500 
 25 C        4.8750    10.0650    -0.0170 C.ar  1 <1>  -0.1430 
 26 C        5.6820    11.3460    -0.1550 C.3   1 <1>   0.2630 
 27 O        7.0180    11.0150    -0.0640 O.3   1 <1>  -0.6800 
 28 H       -1.4040     2.1560    -2.4810 H     1 <1>   0.1500 
 29 H       -2.9150    -0.6540     0.3400 H     1 <1>   0.1500 
 30 H       -3.7850     1.1960     1.7240 H     1 <1>   0.1500 
 31 H       -2.8320     4.5230     1.5570 H     1 <1>   0.0800 
 32 H       -4.0930     3.4760     2.1560 H     1 <1>   0.0800 
 33 H       -4.3570     4.4180     0.7120 H     1 <1>   0.0800 
 34 H        1.0610     4.2960    -0.9550 H     1 <1>   0.0800 
 35 H       -0.0600     3.3880     0.0040 H     1 <1>   0.0800 
 36 H       -1.3800     6.5700    -2.4070 H     1 <1>   0.0800 
 37 H        0.3100     6.4190    -2.0310 H     1 <1>   0.0800 
 38 H        1.2220     4.6130     1.5430 H     1 <1>   0.0800 
 39 H       -0.3210     5.4070     1.5080 H     1 <1>   0.0800 
 40 H       -1.6680     7.0800     0.1510 H     1 <1>   0.0800 
 41 H       -1.1740     8.3190    -0.9390 H     1 <1>   0.0800 
 42 H        0.1200     8.0950     1.2790 H     1 <1>   0.0800 
 43 H        0.9710     8.4150    -0.2010 H     1 <1>   0.0800 
 44 H        2.7200     8.5250     2.0730 H     1 <1>   0.1500 
 45 H        4.2860     7.1600    -1.6330 H     1 <1>   0.1500 
 46 H        4.0020    10.5970     1.8650 H     1 <1>   0.1500 
 47 H        5.5800     9.2340    -1.8550 H     1 <1>   0.1500 
 48 H        5.4530    12.0420     0.6340 H     1 <1>   0.0800 
 49 H        5.5140    11.8160    -1.1090 H     1 <1>   0.0800 
 50 H        7.1180    10.2860     0.5790 H     1 <1>   0.4000 
@<TRIPOS>BOND
  1   1   2  1   
  2   2   3  ar  
  3   2   4  ar  
  4   3   5  ar  
  5   3  28  1   
  6   4   6  ar  
  7   4  29  1   
  8   5   7  ar  
  9   5   8  1   
 10   6   7  ar  
 11   6  30  1   
 12   7   9  1   
 13   8  10  2   
 14   8  11  am  
 15   9  31  1   
 16   9  32  1   
 17   9  33  1   
 18  11  12  1   
 19  11  13  1   
 20  12  14  1   
 21  12  34  1   
 22  12  35  1   
 23  13  15  1   
 24  13  36  1   
 25  13  37  1   
 26  14  16  1   
 27  14  38  1   
 28  14  39  1   
 29  15  17  1   
 30  15  40  1   
 31  15  41  1   
 32  16  17  1   
 33  16  18  am  
 34  17  42  1   
 35  17  43  1   
 36  18  19  2   
 37  18  20  1   
 38  20  21  ar  
 39  20  22  ar  
 40  21  23  ar  
 41  21  44  1   
 42  22  24  ar  
 43  22  45  1   
 44  23  25  ar  
 45  23  46  1   
 46  24  25  ar  
 47  24  47  1   
 48  25  26  1   
 49  26  27  1   
 50  26  48  1   
 51  26  49  1   
 52  27  50  1   
@<TRIPOS>SUBSTRUCTURE
  1 ****  14 GROUP 4 **** **** 0

# MOE 2024.06 (io_trps.svl 2023.06)
