@<TRIPOS>MOLECULE
NONAME
43 44 1 0 0 
SMALL
USER_CHARGES


@<TRIPOS>ATOM
  1 O       -0.8270     1.6800     2.7110 O.2   1 <1>  -0.5700 
  2 C       -0.4240     2.3730     1.8030 C.2   1 <1>   0.5690 
  3 N       -1.2690     3.2050     1.1020 N.am  1 <1>  -0.6600 
  4 C        1.0760     2.3000     1.4980 C.3   1 <1>   0.1810 
  5 C       -2.7480     3.1750     1.3180 C.3   1 <1>   0.1400 
  6 C       -0.8650     4.0630    -0.0420 C.3   1 <1>   0.1400 
  7 O        1.3450     1.9100     0.1720 O.3   1 <1>  -0.5600 
  8 C       -3.4720     2.6310     0.0590 C.3   1 <1>   0.0000 
  9 C       -1.5260     3.5440    -1.3230 C.3   1 <1>  -0.1600 
 10 C        2.6920     1.7410    -0.1060 C.3   1 <1>   0.1200 
 11 C       -4.9990     2.6300     0.2500 C.3   1 <1>   0.2000 
 12 C       -3.0560     3.4600    -1.1770 C.3   1 <1>  -0.1600 
 13 C       -3.1840     1.1300    -0.1220 C.3   1 <1>  -0.1600 
 14 C        2.8080     1.3730    -1.5800 C.3   1 <1>  -0.2400 
 15 O       -5.4360     3.7850     0.9030 O.3   1 <1>  -0.5600 
 16 C       -5.3150     1.3710     1.0650 C.3   1 <1>  -0.1600 
 17 C       -4.1400     0.4110     0.8340 C.3   1 <1>  -0.1600 
 18 C       -6.8090     4.0070     0.8460 C.3   1 <1>   0.0400 
 19 H        1.5260     1.5820     2.1590 H     1 <1>   0.0800 
 20 H        1.5170     3.2650     1.6680 H     1 <1>   0.0800 
 21 H       -2.9940     2.5740     2.1760 H     1 <1>   0.0800 
 22 H       -3.0800     4.1770     1.5240 H     1 <1>   0.0800 
 23 H       -1.1900     5.0720     0.1490 H     1 <1>   0.0800 
 24 H        0.2020     4.0790    -0.1650 H     1 <1>   0.0800 
 25 H       -1.2780     4.1990    -2.1390 H     1 <1>   0.0800 
 26 H       -1.1210     2.5730    -1.5500 H     1 <1>   0.0800 
 27 H        3.2110     2.6630     0.0970 H     1 <1>   0.0800 
 28 H        3.0800     0.9510     0.5150 H     1 <1>   0.0800 
 29 H       -5.4730     2.5700    -0.7150 H     1 <1>   0.0800 
 30 H       -3.4810     3.0380    -2.0700 H     1 <1>   0.0800 
 31 H       -3.4480     4.4570    -1.0680 H     1 <1>   0.0800 
 32 H       -3.4160     0.8360    -1.1310 H     1 <1>   0.0800 
 33 H       -2.1580     0.8740     0.0770 H     1 <1>   0.0800 
 34 H        2.4030     2.1600    -2.1900 H     1 <1>   0.0800 
 35 H        2.2750     0.4590    -1.7730 H     1 <1>   0.0800 
 36 H        3.8410     1.2310    -1.8410 H     1 <1>   0.0800 
 37 H       -5.3790     1.6120     2.1120 H     1 <1>   0.0800 
 38 H       -6.2390     0.9310     0.7370 H     1 <1>   0.0800 
 39 H       -3.6380     0.2230     1.7690 H     1 <1>   0.0800 
 40 H       -4.4650    -0.5280     0.4210 H     1 <1>   0.0800 
 41 H       -7.0190     4.9280     1.3610 H     1 <1>   0.0800 
 42 H       -7.3250     3.1980     1.3320 H     1 <1>   0.0800 
 43 H       -7.1140     4.0900    -0.1820 H     1 <1>   0.0800 
@<TRIPOS>BOND
  1   1   2  2   
  2   2   3  am  
  3   2   4  1   
  4   3   5  1   
  5   3   6  1   
  6   4   7  1   
  7   4  19  1   
  8   4  20  1   
  9   5   8  1   
 10   5  21  1   
 11   5  22  1   
 12   6   9  1   
 13   6  23  1   
 14   6  24  1   
 15   7  10  1   
 16   8  11  1   
 17   8  12  1   
 18   8  13  1   
 19   9  12  1   
 20   9  25  1   
 21   9  26  1   
 22  10  14  1   
 23  10  27  1   
 24  10  28  1   
 25  11  15  1   
 26  11  16  1   
 27  11  29  1   
 28  12  30  1   
 29  12  31  1   
 30  13  17  1   
 31  13  32  1   
 32  13  33  1   
 33  14  34  1   
 34  14  35  1   
 35  14  36  1   
 36  15  18  1   
 37  16  17  1   
 38  16  37  1   
 39  16  38  1   
 40  17  39  1   
 41  17  40  1   
 42  18  41  1   
 43  18  42  1   
 44  18  43  1   
@<TRIPOS>SUBSTRUCTURE
  1 ****   3 GROUP 4 **** **** 0

# MOE 2024.06 (io_trps.svl 2023.06)
