@<TRIPOS>MOLECULE
NONAME
44 45 1 0 0 
SMALL
USER_CHARGES


@<TRIPOS>ATOM
  1 F       -0.3200     0.5840    -1.2970 F     1 <1>  -0.1900 
  2 C       -1.4520     1.1670    -1.0050 C.ar  1 <1>   0.1900 
  3 C       -1.5940     1.7680     0.2290 C.ar  1 <1>  -0.1500 
  4 C       -2.4640     1.1620    -1.9400 C.ar  1 <1>  -0.1500 
  5 C       -2.7910     2.3930     0.5480 C.ar  1 <1>  -0.1440 
  6 C       -3.6560     1.7860    -1.6190 C.ar  1 <1>  -0.1500 
  7 C       -3.8340     2.4080    -0.3840 C.ar  1 <1>  -0.1430 
  8 C       -2.9210     3.0310     1.9250 C.3   1 <1>  -0.0960 
  9 C       -5.1730     3.0980    -0.0860 C.3   1 <1>   0.3640 
 10 N       -6.3150     2.1830    -0.3840 N.am  1 <1>  -0.6600 
 11 C       -5.2660     4.4100    -0.8680 C.3   1 <1>  -0.0990 
 12 C       -6.5510     1.1300     0.4590 C.2   1 <1>   0.7800 
 13 C       -7.2560     2.5670    -1.4720 C.3   1 <1>   0.1400 
 14 C       -6.6810     4.9380    -0.8390 C.2   1 <1>   0.4480 
 15 O       -5.9590     1.0030     1.5120 O.2   1 <1>  -0.5700 
 16 O       -7.4810     0.2490     0.0830 O.3   1 <1>  -0.4300 
 17 C       -7.7930     3.9710    -1.1920 C.3   1 <1>  -0.0990 
 18 O       -6.9150     6.0710    -0.5530 O.2   1 <1>  -0.5700 
 19 C       -7.8800    -0.9190     0.7680 C.3   1 <1>   0.2800 
 20 C       -8.9510    -1.5540    -0.1190 C.3   1 <1>  -0.2400 
 21 C       -8.4990    -0.5550     2.1230 C.3   1 <1>  -0.2400 
 22 C       -6.6980    -1.8860     0.9030 C.3   1 <1>  -0.2400 
 23 H       -0.7750     1.7360     0.9230 H     1 <1>   0.1500 
 24 H       -2.3210     0.6800    -2.8890 H     1 <1>   0.1500 
 25 H       -4.4520     1.7790    -2.3410 H     1 <1>   0.1500 
 26 H       -2.0040     2.9470     2.4790 H     1 <1>   0.0800 
 27 H       -3.6950     2.5350     2.4850 H     1 <1>   0.0800 
 28 H       -3.1620     4.0750     1.8340 H     1 <1>   0.0800 
 29 H       -5.2390     3.3460     0.9590 H     1 <1>   0.0800 
 30 H       -4.9670     4.2630    -1.8890 H     1 <1>   0.0800 
 31 H       -4.6000     5.1320    -0.4330 H     1 <1>   0.0800 
 32 H       -8.0790     1.8760    -1.5410 H     1 <1>   0.0800 
 33 H       -6.7330     2.5510    -2.4130 H     1 <1>   0.0800 
 34 H       -8.4860     3.9300    -0.3710 H     1 <1>   0.0800 
 35 H       -8.3220     4.3380    -2.0520 H     1 <1>   0.0800 
 36 H       -9.7800    -0.8810    -0.2460 H     1 <1>   0.0800 
 37 H       -9.3170    -2.4610     0.3280 H     1 <1>   0.0800 
 38 H       -8.5420    -1.7940    -1.0840 H     1 <1>   0.0800 
 39 H       -9.2740     0.1780     1.9960 H     1 <1>   0.0800 
 40 H       -7.7560    -0.1710     2.7980 H     1 <1>   0.0800 
 41 H       -8.9270    -1.4290     2.5770 H     1 <1>   0.0800 
 42 H       -6.2450    -2.0590    -0.0560 H     1 <1>   0.0800 
 43 H       -7.0360    -2.8270     1.2960 H     1 <1>   0.0800 
 44 H       -5.9560    -1.5010     1.5780 H     1 <1>   0.0800 
@<TRIPOS>BOND
  1   1   2  1   
  2   2   3  ar  
  3   2   4  ar  
  4   3   5  ar  
  5   3  23  1   
  6   4   6  ar  
  7   4  24  1   
  8   5   7  ar  
  9   5   8  1   
 10   6   7  ar  
 11   6  25  1   
 12   7   9  1   
 13   8  26  1   
 14   8  27  1   
 15   8  28  1   
 16   9  10  1   
 17   9  11  1   
 18   9  29  1   
 19  10  12  am  
 20  10  13  1   
 21  11  14  1   
 22  11  30  1   
 23  11  31  1   
 24  12  15  2   
 25  12  16  1   
 26  13  17  1   
 27  13  32  1   
 28  13  33  1   
 29  14  17  1   
 30  14  18  2   
 31  16  19  1   
 32  17  34  1   
 33  17  35  1   
 34  19  20  1   
 35  19  21  1   
 36  19  22  1   
 37  20  36  1   
 38  20  37  1   
 39  20  38  1   
 40  21  39  1   
 41  21  40  1   
 42  21  41  1   
 43  22  42  1   
 44  22  43  1   
 45  22  44  1   
@<TRIPOS>SUBSTRUCTURE
  1 ****  10 GROUP 4 **** **** 0

# MOE 2024.06 (io_trps.svl 2023.06)
