@<TRIPOS>MOLECULE
NONAME
45 46 1 0 0 
SMALL
USER_CHARGES


@<TRIPOS>ATOM
  1 S        0.6380     0.0640    -0.2040 S.o2  1 <1>   1.3330 
  2 O        1.6750     0.0640     0.8030 O.2   1 <1>  -0.6500 
  3 O        0.9910    -0.1230    -1.5940 O.2   1 <1>  -0.6500 
  4 N       -0.4930    -1.1290     0.2190 N.am  1 <1>  -0.8490 
  5 C       -0.3070     1.5800    -0.0860 C.3   1 <1>  -0.0550 
  6 C       -0.1710    -2.4300    -0.3740 C.3   1 <1>   0.1160 
  7 C       -0.6720    -1.2720     1.6680 C.3   1 <1>   0.1160 
  8 C        0.4850     2.8290    -0.5200 C.3   1 <1>  -0.0800 
  9 C       -0.3590     4.1030    -0.6180 C.3   1 <1>   0.2000 
 10 C        1.6390     3.2030     0.4240 C.3   1 <1>   0.1400 
 11 O       -1.1780     4.1910     0.4990 O.3   1 <1>  -0.6800 
 12 C        0.6720     5.2250    -0.5350 C.3   1 <1>   0.1400 
 13 N        1.7030     4.6840     0.3800 N.am  1 <1>  -0.6600 
 14 C        2.5810     5.4300     1.1310 C.2   1 <1>   0.5440 
 15 O        3.3300     4.8490     1.8930 O.2   1 <1>  -0.5700 
 16 C        2.6080     6.8700     1.0480 C.ar  1 <1>   0.0860 
 17 C        2.1050     7.6540     2.0820 C.ar  1 <1>   0.1900 
 18 C        3.1320     7.5480    -0.0600 C.ar  1 <1>   0.0820 
 19 F        1.5720     7.0740     3.1240 F     1 <1>  -0.1900 
 20 C        2.1190     9.0340     2.0670 C.ar  1 <1>  -0.1500 
 21 O        3.6060     6.8020    -1.0880 O.3   1 <1>  -0.3630 
 22 C        3.1520     8.9430    -0.0900 C.ar  1 <1>  -0.1500 
 23 C        2.6520     9.6830     0.9670 C.ar  1 <1>  -0.1500 
 24 C        4.3620     7.3530    -2.1450 C.3   1 <1>   0.0400 
 25 H       -1.1720     1.4910    -0.7150 H     1 <1>   0.0800 
 26 H       -0.6530     1.7070     0.9210 H     1 <1>   0.0800 
 27 H       -0.9150    -3.1590    -0.1010 H     1 <1>   0.0800 
 28 H        0.7960    -2.7650    -0.0380 H     1 <1>   0.0800 
 29 H       -0.1560    -2.3520    -1.4480 H     1 <1>   0.0800 
 30 H       -1.4570    -1.9790     1.8750 H     1 <1>   0.0800 
 31 H       -0.9440    -0.3270     2.1050 H     1 <1>   0.0800 
 32 H        0.2400    -1.6160     2.1280 H     1 <1>   0.0800 
 33 H        0.9100     2.6440    -1.4920 H     1 <1>   0.0800 
 34 H       -0.9720     4.1490    -1.5020 H     1 <1>   0.0800 
 35 H        2.5740     2.7750     0.1010 H     1 <1>   0.0800 
 36 H        1.4400     2.8900     1.4350 H     1 <1>   0.0800 
 37 H       -0.6110     4.3560     1.2820 H     1 <1>   0.4000 
 38 H        0.2390     6.1400    -0.1680 H     1 <1>   0.0800 
 39 H        1.1170     5.3930    -1.5000 H     1 <1>   0.0800 
 40 H        1.7200     9.5870     2.8980 H     1 <1>   0.1500 
 41 H        3.5540     9.4740    -0.9330 H     1 <1>   0.1500 
 42 H        2.6750    10.7600     0.9360 H     1 <1>   0.1500 
 43 H        4.6990     6.5450    -2.7690 H     1 <1>   0.0800 
 44 H        5.2090     7.8730    -1.7340 H     1 <1>   0.0800 
 45 H        3.7370     8.0170    -2.7140 H     1 <1>   0.0800 
@<TRIPOS>BOND
  1   1   2  2   
  2   1   3  2   
  3   1   4  am  
  4   1   5  1   
  5   4   6  1   
  6   4   7  1   
  7   5   8  1   
  8   5  25  1   
  9   5  26  1   
 10   6  27  1   
 11   6  28  1   
 12   6  29  1   
 13   7  30  1   
 14   7  31  1   
 15   7  32  1   
 16   8   9  1   
 17   8  10  1   
 18   8  33  1   
 19   9  11  1   
 20   9  12  1   
 21   9  34  1   
 22  10  13  1   
 23  10  35  1   
 24  10  36  1   
 25  11  37  1   
 26  12  13  1   
 27  12  38  1   
 28  12  39  1   
 29  13  14  am  
 30  14  15  2   
 31  14  16  1   
 32  16  17  ar  
 33  16  18  ar  
 34  17  19  1   
 35  17  20  ar  
 36  18  21  1   
 37  18  22  ar  
 38  20  23  ar  
 39  20  40  1   
 40  21  24  1   
 41  22  23  ar  
 42  22  41  1   
 43  23  42  1   
 44  24  43  1   
 45  24  44  1   
 46  24  45  1   
@<TRIPOS>SUBSTRUCTURE
  1 ****  13 GROUP 4 **** **** 0

# MOE 2024.06 (io_trps.svl 2023.06)
