@<TRIPOS>MOLECULE
NONAME
39 40 1 0 0 
SMALL
USER_CHARGES


@<TRIPOS>ATOM
  1 O       -0.5340    -0.1560     0.8620 O.2   1 <1>  -0.5700 
  2 C       -1.1210    -1.1330     0.4420 C.2   1 <1>   0.7800 
  3 O       -0.4610    -2.2000    -0.0160 O.3   1 <1>  -0.4300 
  4 N       -2.4830    -1.2040     0.4230 N.am  1 <1>  -0.6600 
  5 C        0.9370    -2.3650    -0.1050 C.3   1 <1>   0.2800 
  6 C       -3.3730    -0.1270     0.9160 C.3   1 <1>   0.1400 
  7 C       -3.2710    -2.3950     0.0560 C.3   1 <1>   0.1400 
  8 C        1.5670    -2.3220     1.2920 C.3   1 <1>  -0.2400 
  9 C        1.1360    -3.7580    -0.7040 C.3   1 <1>  -0.2400 
 10 C        1.5370    -1.3180    -1.0520 C.3   1 <1>  -0.2400 
 11 C       -4.7700    -0.7470     0.9820 C.3   1 <1>   0.2000 
 12 C       -4.5920    -2.2470     0.8170 C.3   1 <1>  -0.0800 
 13 O       -5.5240    -0.3740    -0.1230 O.3   1 <1>  -0.5600 
 14 C       -5.8190    -2.6730     0.0150 C.3   1 <1>  -0.1600 
 15 C       -6.4700    -1.3540    -0.4150 C.3   1 <1>   0.2000 
 16 C       -7.7680    -1.0700     0.3460 C.3   1 <1>  -0.2660 
 17 C       -8.5280     0.0750    -0.2570 C.2   1 <1>   0.9060 
 18 O       -8.8160     1.0390     0.4580 O.co2 1 <1>  -0.9000 
 19 O       -8.9170    -0.0350    -1.4250 O.co2 1 <1>  -0.9000 
 20 H       -3.0520     0.1760     1.8960 H     1 <1>   0.0800 
 21 H       -3.3580     0.7180     0.2500 H     1 <1>   0.0800 
 22 H       -3.4380    -2.3730    -1.0070 H     1 <1>   0.0800 
 23 H       -2.7590    -3.3040     0.3250 H     1 <1>   0.0800 
 24 H        2.6070    -2.5870     1.2340 H     1 <1>   0.0800 
 25 H        1.0730    -3.0170     1.9460 H     1 <1>   0.0800 
 26 H        1.5080    -1.3360     1.7140 H     1 <1>   0.0800 
 27 H        2.1840    -3.9730    -0.8110 H     1 <1>   0.0800 
 28 H        0.6770    -3.8150    -1.6750 H     1 <1>   0.0800 
 29 H        0.7000    -4.5040    -0.0650 H     1 <1>   0.0800 
 30 H        2.5750    -1.5340    -1.2270 H     1 <1>   0.0800 
 31 H        1.4770    -0.3330    -0.6270 H     1 <1>   0.0800 
 32 H        1.0210    -1.3280    -1.9940 H     1 <1>   0.0800 
 33 H       -5.3110    -0.4690     1.8700 H     1 <1>   0.0800 
 34 H       -4.5290    -2.7350     1.7730 H     1 <1>   0.0800 
 35 H       -6.4930    -3.2530     0.6200 H     1 <1>   0.0800 
 36 H       -5.5580    -3.2540    -0.8500 H     1 <1>   0.0800 
 37 H       -6.6540    -1.3360    -1.4770 H     1 <1>   0.0800 
 38 H       -7.5820    -0.8680     1.3820 H     1 <1>   0.0800 
 39 H       -8.4150    -1.9210     0.2770 H     1 <1>   0.0800 
@<TRIPOS>BOND
  1   1   2  2   
  2   2   3  1   
  3   2   4  am  
  4   3   5  1   
  5   4   6  1   
  6   4   7  1   
  7   5   8  1   
  8   5   9  1   
  9   5  10  1   
 10   6  11  1   
 11   6  20  1   
 12   6  21  1   
 13   7  12  1   
 14   7  22  1   
 15   7  23  1   
 16   8  24  1   
 17   8  25  1   
 18   8  26  1   
 19   9  27  1   
 20   9  28  1   
 21   9  29  1   
 22  10  30  1   
 23  10  31  1   
 24  10  32  1   
 25  11  12  1   
 26  11  13  1   
 27  11  33  1   
 28  12  14  1   
 29  12  34  1   
 30  13  15  1   
 31  14  15  1   
 32  14  35  1   
 33  14  36  1   
 34  15  16  1   
 35  15  37  1   
 36  16  17  1   
 37  16  38  1   
 38  16  39  1   
 39  17  18  ar  
 40  17  19  ar  
@<TRIPOS>SUBSTRUCTURE
  1 ****   4 GROUP 4 **** **** 0

# MOE 2024.06 (io_trps.svl 2023.06)
