@<TRIPOS>MOLECULE
NONAME
45 47 1 0 0 
SMALL
USER_CHARGES


@<TRIPOS>ATOM
  1 O       -0.7470    -0.2440    -0.0600 O.2   1 <1>  -0.5700 
  2 C       -1.9600    -0.3500    -0.0180 C.2   1 <1>   0.5410 
  3 C       -2.6040    -1.5690     0.3080 C.2   1 <1>  -0.1360 
  4 C       -2.8200     0.7440    -0.2990 C.2   1 <1>  -0.1360 
  5 C       -3.9630    -1.6830     0.3360 C.2   1 <1>   0.0910 
  6 C       -4.1630     0.5900    -0.2520 C.2   1 <1>  -0.0620 
  7 O       -4.7060    -0.5910     0.0600 O.3   1 <1>  -0.1530 
  8 C       -4.6650    -2.9070     0.6780 C.2   1 <1>   0.6160 
  9 C       -5.1750     1.6830    -0.5310 C.3   1 <1>  -0.1020 
 10 O       -4.1570    -3.6290     1.5170 O.2   1 <1>  -0.5700 
 11 N       -5.8550    -3.3160     0.0990 N.am  1 <1>  -0.6600 
 12 C       -6.4730    -4.6450     0.4400 C.3   1 <1>   0.1400 
 13 C       -6.5460    -2.6290    -1.0310 C.3   1 <1>   0.1400 
 14 C       -7.7700    -4.5010     1.2510 C.3   1 <1>   0.1400 
 15 C       -7.6640    -1.6890    -0.5500 C.3   1 <1>  -0.1600 
 16 N       -8.7640    -3.6130     0.5750 N.am  1 <1>  -0.6600 
 17 C       -8.4470    -2.1660     0.6790 C.3   1 <1>   0.1400 
 18 C       -9.8630    -4.0710    -0.1370 C.2   1 <1>   0.7160 
 19 O      -10.6810    -3.2390    -0.5020 O.2   1 <1>  -0.5700 
 20 C      -10.0770    -5.4820    -0.4660 C.2   1 <1>   0.1410 
 21 N       -9.0710    -6.3450    -0.8190 N.2   1 <1>  -0.5650 
 22 C      -11.2620    -6.1700    -0.5100 C.2   1 <1>  -0.3320 
 23 C       -9.6560    -7.4680    -1.0590 C.2   1 <1>   0.0360 
 24 N      -10.9900    -7.4250    -0.8900 N.pl3 1 <1>   0.0330 
 25 C      -12.6800    -5.7040    -0.2140 C.3   1 <1>  -0.0600 
 26 H       -1.9650    -2.4010     0.5370 H     1 <1>   0.1500 
 27 H       -2.3420     1.6730    -0.5450 H     1 <1>   0.1500 
 28 H       -5.7950     1.8370     0.3340 H     1 <1>   0.0800 
 29 H       -5.7990     1.4020    -1.3600 H     1 <1>   0.0800 
 30 H       -4.6800     2.6070    -0.7700 H     1 <1>   0.0800 
 31 H       -5.7850    -5.2480     1.0050 H     1 <1>   0.0800 
 32 H       -6.6830    -5.1860    -0.4660 H     1 <1>   0.0800 
 33 H       -6.9840    -3.3770    -1.6720 H     1 <1>   0.0800 
 34 H       -5.8370    -2.0840    -1.6300 H     1 <1>   0.0800 
 35 H       -7.5300    -4.0980     2.2190 H     1 <1>   0.0800 
 36 H       -8.1940    -5.4750     1.4170 H     1 <1>   0.0800 
 37 H       -8.3570    -1.5480    -1.3600 H     1 <1>   0.0800 
 38 H       -7.2520    -0.7240    -0.3300 H     1 <1>   0.0800 
 39 H       -9.3560    -1.5950     0.7760 H     1 <1>   0.0800 
 40 H       -7.8610    -1.9910     1.5650 H     1 <1>   0.0800 
 41 H       -9.1480    -8.3650    -1.3680 H     1 <1>   0.1500 
 42 H      -11.6510    -8.1950    -1.0300 H     1 <1>   0.2700 
 43 H      -12.6820    -4.6980     0.1660 H     1 <1>   0.0800 
 44 H      -13.1360    -6.3410     0.5230 H     1 <1>   0.0800 
 45 H      -13.2710    -5.7260    -1.1120 H     1 <1>   0.0800 
@<TRIPOS>BOND
  1   1   2  2   
  2   2   3  1   
  3   2   4  1   
  4   3   5  2   
  5   3  26  1   
  6   4   6  2   
  7   4  27  1   
  8   5   7  1   
  9   5   8  1   
 10   6   7  1   
 11   6   9  1   
 12   8  10  2   
 13   8  11  am  
 14   9  28  1   
 15   9  29  1   
 16   9  30  1   
 17  11  12  1   
 18  11  13  1   
 19  12  14  1   
 20  12  31  1   
 21  12  32  1   
 22  13  15  1   
 23  13  33  1   
 24  13  34  1   
 25  14  16  1   
 26  14  35  1   
 27  14  36  1   
 28  15  17  1   
 29  15  37  1   
 30  15  38  1   
 31  16  17  1   
 32  16  18  am  
 33  17  39  1   
 34  17  40  1   
 35  18  19  2   
 36  18  20  1   
 37  20  21  1   
 38  20  22  2   
 39  21  23  2   
 40  22  24  1   
 41  22  25  1   
 42  23  24  1   
 43  23  41  1   
 44  24  42  1   
 45  25  43  1   
 46  25  44  1   
 47  25  45  1   
@<TRIPOS>SUBSTRUCTURE
  1 ****  11 GROUP 4 **** **** 0

# MOE 2024.06 (io_trps.svl 2023.06)
