@<TRIPOS>MOLECULE
NONAME
51 53 1 0 0 
SMALL
USER_CHARGES


@<TRIPOS>ATOM
  1 O       -1.4840    -0.4140     0.4470 O.2   1 <1>  -0.5700 
  2 C       -2.2800     0.4720     0.1380 C.2   1 <1>   0.6160 
  3 N       -1.9850     1.7870     0.5050 N.am  1 <1>  -0.4690 
  4 C       -3.4990     0.1780    -0.5660 C.2   1 <1>   0.0290 
  5 C       -2.8850     2.7990     0.2320 C.2   1 <1>  -0.0290 
  6 C       -0.6750     2.0570     1.1760 C.3   1 <1>   0.1400 
  7 C       -4.3850     1.2090    -0.8020 C.2   1 <1>  -0.1380 
  8 C       -3.7220    -1.1840    -0.9990 C.2   1 <1>   0.6160 
  9 C       -4.0550     2.5180    -0.4020 C.2   1 <1>  -0.1500 
 10 C       -2.5770     4.2350     0.6370 C.3   1 <1>  -0.1020 
 11 C        0.4120     2.2860     0.1240 C.3   1 <1>  -0.2400 
 12 C       -5.7380     1.0280    -1.4860 C.3   1 <1>  -0.1020 
 13 O       -4.2450    -1.4260    -2.0720 O.2   1 <1>  -0.5700 
 14 N       -3.3820    -2.2520    -0.2190 N.am  1 <1>  -0.7300 
 15 C       -3.4780    -3.6720    -0.6240 C.3   1 <1>   0.2200 
 16 C       -4.6680    -4.3320     0.0560 C.3   1 <1>  -0.0800 
 17 C       -2.2760    -4.4970    -0.1550 C.3   1 <1>   0.1200 
 18 C       -4.1190    -5.6970     0.4460 C.3   1 <1>   0.1200 
 19 C       -5.9140    -4.3850    -0.8400 C.3   1 <1>  -0.0170 
 20 O       -2.7700    -5.4810     0.7030 O.3   1 <1>  -0.5600 
 21 C       -7.0500    -5.1340    -0.1610 C.ar  1 <1>  -0.1430 
 22 C       -7.4000    -6.4200    -0.5190 C.ar  1 <1>  -0.1500 
 23 C       -7.7890    -4.5620     0.8550 C.ar  1 <1>  -0.1500 
 24 C       -8.4400    -7.0550     0.1410 C.ar  1 <1>   0.1600 
 25 C       -8.8100    -5.2850     1.4500 C.ar  1 <1>   0.1600 
 26 N       -9.1520    -6.5190     1.1180 N.ar  1 <1>  -0.6200 
 27 H       -0.7490     2.9130     1.8200 H     1 <1>   0.0800 
 28 H       -0.4030     1.2240     1.8010 H     1 <1>   0.0800 
 29 H       -4.7590     3.3040    -0.6150 H     1 <1>   0.1500 
 30 H       -1.6530     4.5610     0.1970 H     1 <1>   0.0800 
 31 H       -2.5100     4.3120     1.7070 H     1 <1>   0.0800 
 32 H       -3.3540     4.9010     0.3060 H     1 <1>   0.0800 
 33 H        0.1570     3.1140    -0.5110 H     1 <1>   0.0800 
 34 H        0.5350     1.4020    -0.4760 H     1 <1>   0.0800 
 35 H        1.3470     2.4990     0.6100 H     1 <1>   0.0800 
 36 H       -6.4290     1.7930    -1.1840 H     1 <1>   0.0800 
 37 H       -6.1740     0.0780    -1.2340 H     1 <1>   0.0800 
 38 H       -5.6140     1.0760    -2.5540 H     1 <1>   0.0800 
 39 H       -2.7250    -2.0600     0.5470 H     1 <1>   0.3700 
 40 H       -3.5490    -3.7480    -1.6960 H     1 <1>   0.0800 
 41 H       -4.9030    -3.8090     0.9670 H     1 <1>   0.0800 
 42 H       -1.5520    -3.9070     0.3800 H     1 <1>   0.0800 
 43 H       -1.8070    -4.9910    -0.9870 H     1 <1>   0.0800 
 44 H       -4.1930    -6.4020    -0.3640 H     1 <1>   0.0800 
 45 H       -4.5910    -6.0950     1.3280 H     1 <1>   0.0800 
 46 H       -5.6740    -4.8600    -1.7750 H     1 <1>   0.0800 
 47 H       -6.2320    -3.3810    -1.0640 H     1 <1>   0.0800 
 48 H       -6.8770    -6.9360    -1.3030 H     1 <1>   0.1500 
 49 H       -7.5780    -3.5630     1.1890 H     1 <1>   0.1500 
 50 H       -8.6990    -8.0580    -0.1520 H     1 <1>   0.1500 
 51 H       -9.3740    -4.8230     2.2420 H     1 <1>   0.1500 
@<TRIPOS>BOND
  1   1   2  2   
  2   2   3  am  
  3   2   4  1   
  4   3   5  1   
  5   3   6  1   
  6   4   7  2   
  7   4   8  1   
  8   5   9  2   
  9   5  10  1   
 10   6  11  1   
 11   6  27  1   
 12   6  28  1   
 13   7   9  1   
 14   7  12  1   
 15   8  13  2   
 16   8  14  am  
 17   9  29  1   
 18  10  30  1   
 19  10  31  1   
 20  10  32  1   
 21  11  33  1   
 22  11  34  1   
 23  11  35  1   
 24  12  36  1   
 25  12  37  1   
 26  12  38  1   
 27  14  15  1   
 28  14  39  1   
 29  15  16  1   
 30  15  17  1   
 31  15  40  1   
 32  16  18  1   
 33  16  19  1   
 34  16  41  1   
 35  17  20  1   
 36  17  42  1   
 37  17  43  1   
 38  18  20  1   
 39  18  44  1   
 40  18  45  1   
 41  19  21  1   
 42  19  46  1   
 43  19  47  1   
 44  21  22  ar  
 45  21  23  ar  
 46  22  24  ar  
 47  22  48  1   
 48  23  25  ar  
 49  23  49  1   
 50  24  26  ar  
 51  24  50  1   
 52  25  26  ar  
 53  25  51  1   
@<TRIPOS>SUBSTRUCTURE
  1 ****  14 GROUP 4 **** **** 0

# MOE 2024.06 (io_trps.svl 2023.06)
