@<TRIPOS>MOLECULE
NONAME
59 62 1 0 0 
SMALL
USER_CHARGES


@<TRIPOS>ATOM
  1 S        0.4700     0.2400    -0.7400 S.3   1 <1>  -0.0800 
  2 C        0.3810    -0.9800     0.5240 C.2   1 <1>  -0.1400 
  3 C       -0.2010     1.4680     0.3260 C.2   1 <1>  -0.1400 
  4 C       -0.1300    -0.4470     1.6500 C.2   1 <1>  -0.1500 
  5 C        0.8840    -2.3740     0.1980 C.3   1 <1>   0.5230 
  6 C       -0.4670     0.9390     1.5350 C.2   1 <1>  -0.1500 
  7 C       -0.3910     2.8670    -0.2330 C.3   1 <1>   0.5230 
  8 N       -0.2500    -3.2330    -0.2340 N.4   1 <1>  -0.9590 
  9 N        0.7800     3.7120     0.1250 N.4   1 <1>  -0.9590 
 10 C        0.1480    -4.6820    -0.3350 C.3   1 <1>   0.5660 
 11 C       -0.9230    -2.7540    -1.4870 C.3   1 <1>   0.3430 
 12 C        0.4920     5.1540    -0.1200 C.3   1 <1>   0.3430 
 13 C        2.0310     3.2720    -0.5650 C.3   1 <1>   0.3430 
 14 C        1.4280    -4.8150    -1.1650 C.ar  1 <1>  -0.1440 
 15 C       -1.0200    -5.5770    -0.8490 C.3   1 <1>   0.2000 
 16 C       -1.9940    -3.7470    -1.9980 C.3   1 <1>   0.1200 
 17 C        1.6480     6.0090     0.4030 C.3   1 <1>  -0.1600 
 18 C        3.2180     4.0910    -0.0540 C.3   1 <1>  -0.1600 
 19 C        2.6160    -5.0730    -0.4930 C.ar  1 <1>  -0.1500 
 20 C        1.4590    -4.6800    -2.5490 C.ar  1 <1>  -0.1500 
 21 O       -2.1760    -4.8120    -1.1070 O.3   1 <1>  -0.5600 
 22 C       -1.4130    -6.6500     0.1770 C.3   1 <1>   0.1200 
 23 C        2.9870     5.5980    -0.2240 C.3   1 <1>  -0.1600 
 24 C        3.8110    -5.1680    -1.1830 C.ar  1 <1>  -0.1500 
 25 C        2.6540    -4.7750    -3.2390 C.ar  1 <1>  -0.1500 
 26 O       -0.2710    -7.1860     0.7600 O.3   1 <1>  -0.6800 
 27 C        3.8320    -5.0140    -2.5560 C.ar  1 <1>  -0.1500 
 28 H       -0.2890    -0.9640     2.5830 H     1 <1>   0.1500 
 29 H        1.3380    -2.7960     1.0800 H     1 <1>   0.0800 
 30 H        1.6360    -2.3250    -0.5740 H     1 <1>   0.0800 
 31 H       -0.8930     1.4600     2.3780 H     1 <1>   0.1500 
 32 H       -1.2830     3.2900     0.2000 H     1 <1>   0.0800 
 33 H       -0.5200     2.8270    -1.3020 H     1 <1>   0.0800 
 34 H       -0.9740    -3.2080     0.4930 H     1 <1>   0.4500 
 35 H        0.9410     3.5940     1.1330 H     1 <1>   0.4500 
 36 H        0.3950    -5.0250     0.6550 H     1 <1>   0.0800 
 37 H       -1.3950    -1.8020    -1.3050 H     1 <1>   0.0800 
 38 H       -0.1900    -2.6020    -2.2630 H     1 <1>   0.0800 
 39 H        0.3700     5.3290    -1.1780 H     1 <1>   0.0800 
 40 H       -0.4180     5.4440     0.3800 H     1 <1>   0.0800 
 41 H        2.2160     2.2280    -0.3710 H     1 <1>   0.0800 
 42 H        1.9310     3.4100    -1.6290 H     1 <1>   0.0800 
 43 H       -0.7380    -6.0740    -1.7610 H     1 <1>   0.0800 
 44 H       -1.7220    -4.1460    -2.9600 H     1 <1>   0.0800 
 45 H       -2.9400    -3.2440    -2.1060 H     1 <1>   0.0800 
 46 H        1.4530     7.0420     0.1740 H     1 <1>   0.0800 
 47 H        1.7020     5.9230     1.4740 H     1 <1>   0.0800 
 48 H        3.3910     3.8610     0.9830 H     1 <1>   0.0800 
 49 H        4.1020     3.8040    -0.5970 H     1 <1>   0.0800 
 50 H        2.6300    -5.2130     0.5760 H     1 <1>   0.1500 
 51 H        0.5660    -4.5080    -3.1210 H     1 <1>   0.1500 
 52 H       -1.9540    -7.4450    -0.3070 H     1 <1>   0.0800 
 53 H       -2.0150    -6.2250     0.9620 H     1 <1>   0.0800 
 54 H        3.7910     6.1460     0.2390 H     1 <1>   0.0800 
 55 H        2.9850     5.8450    -1.2730 H     1 <1>   0.0800 
 56 H        4.7290    -5.3670    -0.6540 H     1 <1>   0.1500 
 57 H        2.6740    -4.6700    -4.3110 H     1 <1>   0.1500 
 58 H       -0.4900    -7.9900     1.2790 H     1 <1>   0.4000 
 59 H        4.7630    -5.0890    -3.0930 H     1 <1>   0.1500 
@<TRIPOS>BOND
  1   1   2  1   
  2   1   3  1   
  3   2   4  2   
  4   2   5  1   
  5   3   6  2   
  6   3   7  1   
  7   4   6  1   
  8   4  28  1   
  9   5   8  1   
 10   5  29  1   
 11   5  30  1   
 12   6  31  1   
 13   7   9  1   
 14   7  32  1   
 15   7  33  1   
 16   8  10  1   
 17   8  11  1   
 18   8  34  1   
 19   9  12  1   
 20   9  13  1   
 21   9  35  1   
 22  10  14  1   
 23  10  15  1   
 24  10  36  1   
 25  11  16  1   
 26  11  37  1   
 27  11  38  1   
 28  12  17  1   
 29  12  39  1   
 30  12  40  1   
 31  13  18  1   
 32  13  41  1   
 33  13  42  1   
 34  14  19  ar  
 35  14  20  ar  
 36  15  21  1   
 37  15  22  1   
 38  15  43  1   
 39  16  21  1   
 40  16  44  1   
 41  16  45  1   
 42  17  23  1   
 43  17  46  1   
 44  17  47  1   
 45  18  23  1   
 46  18  48  1   
 47  18  49  1   
 48  19  24  ar  
 49  19  50  1   
 50  20  25  ar  
 51  20  51  1   
 52  22  26  1   
 53  22  52  1   
 54  22  53  1   
 55  23  54  1   
 56  23  55  1   
 57  24  27  ar  
 58  24  56  1   
 59  25  27  ar  
 60  25  57  1   
 61  26  58  1   
 62  27  59  1   
@<TRIPOS>SUBSTRUCTURE
  1 ****   2 GROUP 4 **** **** 0

# MOE 2024.06 (io_trps.svl 2023.06)
