@<TRIPOS>MOLECULE
NONAME
48 51 1 0 0 
SMALL
USER_CHARGES


@<TRIPOS>ATOM
  1 S       -0.0640    -0.1930     1.1470 S.o2  1 <1>   1.5010 
  2 O       -0.2320     0.7840     2.1950 O.2   1 <1>  -0.6500 
  3 O       -0.0850    -1.5950     1.4910 O.2   1 <1>  -0.6500 
  4 N       -1.3780     0.1100     0.1420 N.am  1 <1>  -0.9140 
  5 C        1.3620     0.2250     0.1380 C.2   1 <1>  -0.0630 
  6 C       -1.9240    -0.9420    -0.7250 C.3   1 <1>   0.2760 
  7 C        2.4020    -0.5010    -0.3130 C.2   1 <1>  -0.0400 
  8 C        1.6340     1.4680    -0.3970 C.2   1 <1>   0.1080 
  9 C       -2.6610    -2.0540     0.0310 C.3   1 <1>  -0.0800 
 10 C       -0.9140    -1.6800    -1.6120 C.3   1 <1>   0.1200 
 11 O        3.2170     0.2190    -1.0520 O.3   1 <1>  -0.0190 
 12 C        2.7670    -1.9610    -0.1140 C.3   1 <1>  -0.0600 
 13 N        2.7130     1.4300    -1.0850 N.2   1 <1>  -0.4100 
 14 C        0.8080     2.7270    -0.2220 C.3   1 <1>  -0.0590 
 15 C       -1.9450    -3.3220    -0.4500 C.3   1 <1>   0.1200 
 16 C       -4.1620    -2.0820    -0.3250 C.3   1 <1>  -0.0160 
 17 O       -1.3760    -2.9880    -1.6730 O.3   1 <1>  -0.5600 
 18 C       -5.0190    -3.1180     0.4150 C.ar  1 <1>  -0.1440 
 19 C       -6.3600    -3.3390     0.0120 C.ar  1 <1>   0.0000 
 20 C       -4.5630    -3.8550     1.4730 C.ar  1 <1>  -0.1500 
 21 C       -7.1150    -4.3110     0.7130 C.ar  1 <1>   0.3100 
 22 C       -7.0000    -2.6490    -1.0460 C.ar  1 <1>  -0.1500 
 23 C       -5.3960    -4.7880     2.1010 C.ar  1 <1>   0.1600 
 24 N       -6.6190    -5.0260     1.7530 N.ar  1 <1>  -0.6200 
 25 C       -8.4430    -4.5560     0.3270 C.ar  1 <1>  -0.1500 
 26 C       -8.2970    -2.9090    -1.3960 C.ar  1 <1>  -0.1500 
 27 C       -9.0300    -3.8750    -0.7040 C.ar  1 <1>  -0.1500 
 28 H       -2.1050     0.4070     0.7890 H     1 <1>   0.4200 
 29 H       -2.6190    -0.4640    -1.3940 H     1 <1>   0.0800 
 30 H       -2.5530    -1.9450     1.0940 H     1 <1>   0.0800 
 31 H        0.0720    -1.7130    -1.1920 H     1 <1>   0.0800 
 32 H       -0.8810    -1.2780    -2.6090 H     1 <1>   0.0800 
 33 H        2.0620    -2.4660     0.5190 H     1 <1>   0.0800 
 34 H        3.7410    -2.0300     0.3380 H     1 <1>   0.0800 
 35 H        2.7940    -2.4610    -1.0650 H     1 <1>   0.0800 
 36 H       -0.1710     2.5890    -0.6420 H     1 <1>   0.0800 
 37 H        1.2840     3.5500    -0.7230 H     1 <1>   0.0800 
 38 H        0.7170     2.9670     0.8220 H     1 <1>   0.0800 
 39 H       -2.6070    -4.1600    -0.5900 H     1 <1>   0.0800 
 40 H       -1.1490    -3.5970     0.2220 H     1 <1>   0.0800 
 41 H       -4.2420    -2.2670    -1.3830 H     1 <1>   0.0800 
 42 H       -4.5820    -1.1110    -0.1290 H     1 <1>   0.0800 
 43 H       -3.5700    -3.7600     1.8670 H     1 <1>   0.1500 
 44 H       -6.4630    -1.8990    -1.5930 H     1 <1>   0.1500 
 45 H       -4.9900    -5.3460     2.9280 H     1 <1>   0.1500 
 46 H       -8.9870    -5.3030     0.8750 H     1 <1>   0.1500 
 47 H       -8.7690    -2.3760    -2.2040 H     1 <1>   0.1500 
 48 H      -10.0490    -4.0730    -0.9890 H     1 <1>   0.1500 
@<TRIPOS>BOND
  1   1   2  2   
  2   1   3  2   
  3   1   4  am  
  4   1   5  1   
  5   4   6  1   
  6   4  28  1   
  7   5   7  2   
  8   5   8  1   
  9   6   9  1   
 10   6  10  1   
 11   6  29  1   
 12   7  11  1   
 13   7  12  1   
 14   8  13  2   
 15   8  14  1   
 16   9  15  1   
 17   9  16  1   
 18   9  30  1   
 19  10  17  1   
 20  10  31  1   
 21  10  32  1   
 22  11  13  1   
 23  12  33  1   
 24  12  34  1   
 25  12  35  1   
 26  14  36  1   
 27  14  37  1   
 28  14  38  1   
 29  15  17  1   
 30  15  39  1   
 31  15  40  1   
 32  16  18  1   
 33  16  41  1   
 34  16  42  1   
 35  18  19  ar  
 36  18  20  ar  
 37  19  21  ar  
 38  19  22  ar  
 39  20  23  ar  
 40  20  43  1   
 41  21  24  ar  
 42  21  25  ar  
 43  22  26  ar  
 44  22  44  1   
 45  23  24  ar  
 46  23  45  1   
 47  25  27  ar  
 48  25  46  1   
 49  26  27  ar  
 50  26  47  1   
 51  27  48  1   
@<TRIPOS>SUBSTRUCTURE
  1 ****   9 GROUP 4 **** **** 0

# MOE 2024.06 (io_trps.svl 2023.06)
