@<TRIPOS>MOLECULE
NONAME
50 52 1 0 0 
SMALL
USER_CHARGES


@<TRIPOS>ATOM
  1 S       -0.1710    -0.1430    -0.7750 S.3   1 <1>  -0.0800 
  2 C        0.4670     1.4660    -1.0190 C.2   1 <1>  -0.1100 
  3 C       -1.5950     0.5030     0.0140 C.2   1 <1>  -0.1100 
  4 C       -0.3510     2.4230    -0.5140 C.2   1 <1>  -0.0860 
  5 C       -1.5370     1.8450     0.0680 C.2   1 <1>  -0.1500 
  6 C       -0.1380     3.8580    -0.5370 C.2   1 <1>   0.7160 
  7 O       -1.0930     4.5960    -0.6950 O.2   1 <1>  -0.5700 
  8 N        1.1140     4.4160    -0.3790 N.am  1 <1>  -0.6600 
  9 C        2.2190     3.7340     0.3710 C.3   1 <1>   0.1400 
 10 C        1.3840     5.8020    -0.8590 C.3   1 <1>   0.1400 
 11 C        2.7000     4.5370     1.5890 C.3   1 <1>   0.1400 
 12 C        1.2650     6.8000     0.2990 C.3   1 <1>  -0.1600 
 13 N        3.4070     5.7810     1.1660 N.am  1 <1>  -0.6600 
 14 C        2.5590     7.0080     1.0990 C.3   1 <1>   0.1400 
 15 C        4.7270     5.7140     0.7690 C.2   1 <1>   0.5690 
 16 O        5.3020     4.6470     0.7650 O.2   1 <1>  -0.5700 
 17 C        5.5000     6.9830     0.3220 C.3   1 <1>   0.2610 
 18 O        5.0430     7.4420    -0.9210 O.3   1 <1>  -0.6800 
 19 C        7.0460     6.8500     0.2690 C.3   1 <1>  -0.0800 
 20 C        7.7150     8.2400     0.2530 C.3   1 <1>  -0.1600 
 21 C        7.5750     6.0040    -0.9150 C.3   1 <1>  -0.1600 
 22 C        9.2470     8.1310     0.2810 C.3   1 <1>  -0.1600 
 23 C        9.1040     5.8870    -0.8760 C.3   1 <1>  -0.1600 
 24 C        9.7650     7.2700    -0.8770 C.3   1 <1>  -0.1600 
 25 H        1.4100     1.5490    -1.5300 H     1 <1>   0.1500 
 26 H       -2.3350    -0.1990     0.3560 H     1 <1>   0.1500 
 27 H       -2.2910     2.4840     0.4960 H     1 <1>   0.1500 
 28 H        1.8820     2.7800     0.7330 H     1 <1>   0.0800 
 29 H        3.0480     3.5570    -0.2920 H     1 <1>   0.0800 
 30 H        2.3600     5.8550    -1.3120 H     1 <1>   0.0800 
 31 H        0.6620     6.0580    -1.6170 H     1 <1>   0.0800 
 32 H        3.3790     3.9260     2.1580 H     1 <1>   0.0800 
 33 H        1.8660     4.7750     2.2260 H     1 <1>   0.0800 
 34 H        0.4680     6.4960     0.9540 H     1 <1>   0.0800 
 35 H        0.9800     7.7540    -0.1060 H     1 <1>   0.0800 
 36 H        2.3120     7.3200     2.1000 H     1 <1>   0.0800 
 37 H        3.1020     7.8130     0.6400 H     1 <1>   0.0800 
 38 H        5.2670     7.7500     1.0370 H     1 <1>   0.0800 
 39 H        5.3270     6.8080    -1.6070 H     1 <1>   0.4000 
 40 H        7.3480     6.3620     1.1800 H     1 <1>   0.0800 
 41 H        7.4160     8.7740    -0.6330 H     1 <1>   0.0800 
 42 H        7.3910     8.8110     1.1050 H     1 <1>   0.0800 
 43 H        7.1550     5.0140    -0.8890 H     1 <1>   0.0800 
 44 H        7.2940     6.4580    -1.8490 H     1 <1>   0.0800 
 45 H        9.6790     9.1150     0.2180 H     1 <1>   0.0800 
 46 H        9.5560     7.6940     1.2140 H     1 <1>   0.0800 
 47 H        9.3970     5.3500     0.0100 H     1 <1>   0.0800 
 48 H        9.4440     5.3250    -1.7290 H     1 <1>   0.0800 
 49 H       10.8330     7.1600    -0.7960 H     1 <1>   0.0800 
 50 H        9.5550     7.7650    -1.8110 H     1 <1>   0.0800 
@<TRIPOS>BOND
  1   1   2  1   
  2   1   3  1   
  3   2   4  2   
  4   2  25  1   
  5   3   5  2   
  6   3  26  1   
  7   4   5  1   
  8   4   6  1   
  9   5  27  1   
 10   6   7  2   
 11   6   8  am  
 12   8   9  1   
 13   8  10  1   
 14   9  11  1   
 15   9  28  1   
 16   9  29  1   
 17  10  12  1   
 18  10  30  1   
 19  10  31  1   
 20  11  13  1   
 21  11  32  1   
 22  11  33  1   
 23  12  14  1   
 24  12  34  1   
 25  12  35  1   
 26  13  14  1   
 27  13  15  am  
 28  14  36  1   
 29  14  37  1   
 30  15  16  2   
 31  15  17  1   
 32  17  18  1   
 33  17  19  1   
 34  17  38  1   
 35  18  39  1   
 36  19  20  1   
 37  19  21  1   
 38  19  40  1   
 39  20  22  1   
 40  20  41  1   
 41  20  42  1   
 42  21  23  1   
 43  21  43  1   
 44  21  44  1   
 45  22  24  1   
 46  22  45  1   
 47  22  46  1   
 48  23  24  1   
 49  23  47  1   
 50  23  48  1   
 51  24  49  1   
 52  24  50  1   
@<TRIPOS>SUBSTRUCTURE
  1 ****  13 GROUP 4 **** **** 0

# MOE 2024.06 (io_trps.svl 2023.06)
