@<TRIPOS>MOLECULE
NONAME
38 39 1 0 0 
SMALL
USER_CHARGES


@<TRIPOS>ATOM
  1 S       -0.9790    -0.2550     1.5610 S.3   1 <1>  -0.2860 
  2 C       -1.1630     0.9890     0.2790 C.2   1 <1>   0.2420 
  3 C        0.1240    -1.5530     0.8110 C.3   1 <1>   0.1310 
  4 N       -0.5280     0.9520    -0.8460 N.2   1 <1>  -0.5650 
  5 N       -2.0050     2.0340     0.4400 N.pl3 1 <1>   0.0480 
  6 C       -0.5850    -2.9020     0.8080 C.2   1 <1>   0.5690 
  7 C       -0.9830     2.0570    -1.4730 C.2   1 <1>   0.0770 
  8 C       -1.8800     2.7240    -0.7110 C.2   1 <1>  -0.3020 
  9 C       -2.8730     2.3430     1.5890 C.3   1 <1>   0.0160 
 10 O       -0.1860    -3.7300     1.5940 O.2   1 <1>  -0.5700 
 11 N       -1.6290    -3.1790    -0.0450 N.am  1 <1>  -0.6600 
 12 C       -2.4280    -4.4410     0.1270 C.3   1 <1>   0.1400 
 13 C       -2.1570    -2.2380    -1.0700 C.3   1 <1>   0.1400 
 14 C       -3.9370    -4.2430    -0.1370 C.3   1 <1>   0.2000 
 15 C       -3.5730    -1.7730    -0.6880 C.3   1 <1>  -0.1600 
 16 O       -4.2230    -4.5330    -1.4640 O.3   1 <1>  -0.6800 
 17 C       -4.3700    -2.7950     0.1640 C.3   1 <1>  -0.0800 
 18 C       -5.8880    -2.6180     0.0120 C.3   1 <1>   0.1200 
 19 O       -6.2460    -1.3400     0.4160 O.3   1 <1>  -0.6800 
 20 H        0.4000    -1.2580    -0.1810 H     1 <1>   0.0800 
 21 H        1.0030    -1.6000     1.4250 H     1 <1>   0.0800 
 22 H       -0.6350     2.3210    -2.4590 H     1 <1>   0.1500 
 23 H       -2.4210     3.6290    -0.9210 H     1 <1>   0.1500 
 24 H       -3.3530     3.2920     1.4350 H     1 <1>   0.0800 
 25 H       -2.2780     2.3830     2.4840 H     1 <1>   0.0800 
 26 H       -3.6180     1.5750     1.6870 H     1 <1>   0.0800 
 27 H       -2.0360    -5.2130    -0.5110 H     1 <1>   0.0800 
 28 H       -2.3200    -4.7770     1.1440 H     1 <1>   0.0800 
 29 H       -1.5150    -1.3890    -1.2030 H     1 <1>   0.0800 
 30 H       -2.1880    -2.7540    -2.0140 H     1 <1>   0.0800 
 31 H       -4.4970    -4.9410     0.4610 H     1 <1>   0.0800 
 32 H       -3.5020    -0.8480    -0.1430 H     1 <1>   0.0800 
 33 H       -4.1060    -1.5510    -1.5960 H     1 <1>   0.0800 
 34 H       -3.7440    -3.9110    -2.0420 H     1 <1>   0.4000 
 35 H       -4.1240    -2.6240     1.1980 H     1 <1>   0.0800 
 36 H       -6.4250    -3.3260     0.6200 H     1 <1>   0.0800 
 37 H       -6.1890    -2.7390    -1.0150 H     1 <1>   0.0800 
 38 H       -6.0520    -1.2150     1.3640 H     1 <1>   0.4000 
@<TRIPOS>BOND
  1   1   2  1   
  2   1   3  1   
  3   2   4  2   
  4   2   5  1   
  5   3   6  1   
  6   3  20  1   
  7   3  21  1   
  8   4   7  1   
  9   5   8  1   
 10   5   9  1   
 11   6  10  2   
 12   6  11  am  
 13   7   8  2   
 14   7  22  1   
 15   8  23  1   
 16   9  24  1   
 17   9  25  1   
 18   9  26  1   
 19  11  12  1   
 20  11  13  1   
 21  12  14  1   
 22  12  27  1   
 23  12  28  1   
 24  13  15  1   
 25  13  29  1   
 26  13  30  1   
 27  14  16  1   
 28  14  17  1   
 29  14  31  1   
 30  15  17  1   
 31  15  32  1   
 32  15  33  1   
 33  16  34  1   
 34  17  18  1   
 35  17  35  1   
 36  18  19  1   
 37  18  36  1   
 38  18  37  1   
 39  19  38  1   
@<TRIPOS>SUBSTRUCTURE
  1 ****  15 GROUP 4 **** **** 0

# MOE 2024.06 (io_trps.svl 2023.06)
