@<TRIPOS>MOLECULE
NONAME
53 56 1 0 0 
SMALL
USER_CHARGES


@<TRIPOS>ATOM
  1 O        0.3720     0.3190     0.1930 O.2   1 <1>  -0.5700 
  2 C        1.2470     1.0290    -0.2770 C.2   1 <1>   0.5440 
  3 N        1.2940     2.3570     0.0850 N.am  1 <1>  -0.6600 
  4 C        2.2580     0.4810    -1.1480 C.ar  1 <1>   0.0860 
  5 C        0.0400     3.0990     0.4650 C.3   1 <1>   0.2200 
  6 C        2.5410     2.7790     0.7960 C.3   1 <1>   0.1400 
  7 C        2.9730    -0.6810    -0.8010 C.ar  1 <1>   0.4100 
  8 C        2.5700     1.1010    -2.3500 C.ar  1 <1>  -0.1500 
  9 C        0.2280     4.6280     0.7080 C.3   1 <1>   0.1380 
 10 C       -1.1460     2.8970    -0.4900 C.3   1 <1>  -0.1600 
 11 C        2.2410     3.6480     2.0230 C.3   1 <1>  -0.1600 
 12 N        3.9390    -1.2060    -1.5530 N.ar  1 <1>  -0.6200 
 13 N        2.6980    -1.3410     0.3760 N.pl3 1 <1>  -0.8690 
 14 C        3.5630     0.5520    -3.1280 C.ar  1 <1>  -0.1500 
 15 C        0.4400     5.4700    -0.5930 C.2   1 <1>  -0.2760 
 16 C       -1.0990     5.0360     1.4040 C.3   1 <1>   0.1200 
 17 C        1.4060     4.8980     1.6860 C.3   1 <1>  -0.1600 
 18 C       -2.4070     3.4570     0.1830 C.3   1 <1>   0.1200 
 19 C        4.2090    -0.5890    -2.6850 C.ar  1 <1>   0.1600 
 20 C        3.2210    -2.6890     0.7110 C.3   1 <1>   0.1290 
 21 C       -0.3400     6.4800    -1.0100 C.2   1 <1>  -0.2880 
 22 C        1.6300     5.1010    -1.4800 C.3   1 <1>  -0.0220 
 23 O       -2.2170     4.7810     0.5890 O.3   1 <1>  -0.5600 
 24 C       -0.1500     7.2440    -2.3130 C.3   1 <1>   0.2580 
 25 C        1.9160     6.1720    -2.5430 C.3   1 <1>   0.1200 
 26 O        0.7310     6.5630    -3.1570 O.3   1 <1>  -0.5600 
 27 H       -0.2610     2.6650     1.4040 H     1 <1>   0.0800 
 28 H        3.0770     1.9030     1.1260 H     1 <1>   0.0800 
 29 H        3.1850     3.3010     0.1140 H     1 <1>   0.0800 
 30 H        2.0420     1.9850    -2.6600 H     1 <1>   0.1500 
 31 H       -1.3200     1.8580    -0.6920 H     1 <1>   0.0800 
 32 H       -0.9830     3.3970    -1.4270 H     1 <1>   0.0800 
 33 H        1.7170     3.0460     2.7460 H     1 <1>   0.0800 
 34 H        3.1680     3.9510     2.4770 H     1 <1>   0.0800 
 35 H        1.7640    -1.1270     0.7630 H     1 <1>   0.4000 
 36 H        3.8370     0.9970    -4.0680 H     1 <1>   0.1500 
 37 H       -1.0950     6.0870     1.6310 H     1 <1>   0.0800 
 38 H       -1.2330     4.4950     2.3250 H     1 <1>   0.0800 
 39 H        2.0560     5.6440     1.2660 H     1 <1>   0.0800 
 40 H        1.0410     5.3130     2.6090 H     1 <1>   0.0800 
 41 H       -2.6650     2.8750     1.0510 H     1 <1>   0.0800 
 42 H       -3.2360     3.4410    -0.5030 H     1 <1>   0.0800 
 43 H        4.9860    -1.0130    -3.2980 H     1 <1>   0.1500 
 44 H        4.2900    -2.7090     0.5840 H     1 <1>   0.0800 
 45 H        2.7770    -3.4220     0.0600 H     1 <1>   0.0800 
 46 H        2.9860    -2.9290     1.7330 H     1 <1>   0.0800 
 47 H       -1.1970     6.8470    -0.4760 H     1 <1>   0.1500 
 48 H        1.4380     4.1660    -1.9700 H     1 <1>   0.0800 
 49 H        2.5220     5.0060    -0.8980 H     1 <1>   0.0800 
 50 H        0.2410     8.2290    -2.1280 H     1 <1>   0.0800 
 51 H       -1.0880     7.3280    -2.8340 H     1 <1>   0.0800 
 52 H        2.5710     5.7840    -3.3030 H     1 <1>   0.0800 
 53 H        2.3700     7.0400    -2.0970 H     1 <1>   0.0800 
@<TRIPOS>BOND
  1   1   2  2   
  2   2   3  am  
  3   2   4  1   
  4   3   5  1   
  5   3   6  1   
  6   4   7  ar  
  7   4   8  ar  
  8   5   9  1   
  9   5  10  1   
 10   5  27  1   
 11   6  11  1   
 12   6  28  1   
 13   6  29  1   
 14   7  12  ar  
 15   7  13  1   
 16   8  14  ar  
 17   8  30  1   
 18   9  15  1   
 19   9  16  1   
 20   9  17  1   
 21  10  18  1   
 22  10  31  1   
 23  10  32  1   
 24  11  17  1   
 25  11  33  1   
 26  11  34  1   
 27  12  19  ar  
 28  13  20  1   
 29  13  35  1   
 30  14  19  ar  
 31  14  36  1   
 32  15  21  2   
 33  15  22  1   
 34  16  23  1   
 35  16  37  1   
 36  16  38  1   
 37  17  39  1   
 38  17  40  1   
 39  18  23  1   
 40  18  41  1   
 41  18  42  1   
 42  19  43  1   
 43  20  44  1   
 44  20  45  1   
 45  20  46  1   
 46  21  24  1   
 47  21  47  1   
 48  22  25  1   
 49  22  48  1   
 50  22  49  1   
 51  24  26  1   
 52  24  50  1   
 53  24  51  1   
 54  25  26  1   
 55  25  52  1   
 56  25  53  1   
@<TRIPOS>SUBSTRUCTURE
  1 ****   3 GROUP 4 **** **** 0

# MOE 2024.06 (io_trps.svl 2023.06)
