@<TRIPOS>MOLECULE
NONAME
54 56 1 0 0 
SMALL
USER_CHARGES


@<TRIPOS>ATOM
  1 O       -0.3320     1.0100    -0.7290 O.2   1 <1>  -0.5700 
  2 C       -0.4860     2.2080    -0.6840 C.2   1 <1>   0.5690 
  3 N       -1.3900     2.8330     0.1370 N.am  1 <1>  -0.6600 
  4 C        0.3760     3.0650    -1.6050 C.3   1 <1>   0.1810 
  5 C       -1.5310     4.3290     0.1150 C.3   1 <1>   0.3640 
  6 C       -2.2380     2.1430     1.1490 C.3   1 <1>   0.2200 
  7 O        0.6930     4.2970    -1.0130 O.3   1 <1>  -0.5600 
  8 C       -2.9160     4.6990    -0.4220 C.ar  1 <1>  -0.1440 
  9 C       -0.4420     5.0920    -0.6910 C.3   1 <1>   0.2610 
 10 C       -1.3590     1.5140     2.2280 C.3   1 <1>  -0.2400 
 11 C       -3.1670     1.1180     0.4970 C.3   1 <1>  -0.2400 
 12 C       -3.4410     4.0880    -1.5540 C.ar  1 <1>  -0.1500 
 13 C       -3.6670     5.6730     0.2220 C.ar  1 <1>  -0.1500 
 14 C       -0.0090     6.3340     0.0970 C.2   1 <1>   0.5690 
 15 C       -4.6920     4.4390    -2.0290 C.ar  1 <1>  -0.1500 
 16 C       -4.9190     6.0250    -0.2520 C.ar  1 <1>  -0.1500 
 17 O       -0.8330     7.1600     0.4110 O.2   1 <1>  -0.5700 
 18 N        1.3000     6.4740     0.4340 N.am  1 <1>  -0.7300 
 19 C       -5.4330     5.4080    -1.3770 C.ar  1 <1>  -0.1500 
 20 C        1.9070     7.6140     1.1560 C.3   1 <1>   0.1400 
 21 C        2.8320     8.4050     0.2210 C.3   1 <1>  -0.0800 
 22 C        3.9850     7.5490    -0.3360 C.3   1 <1>  -0.1600 
 23 C        3.4170     9.6230     0.9540 C.3   1 <1>  -0.1600 
 24 C        4.9770     8.4100    -1.1250 C.3   1 <1>   0.1200 
 25 C        4.4430    10.3520     0.0800 C.3   1 <1>   0.1200 
 26 O        5.4300     9.4510    -0.3170 O.3   1 <1>  -0.5600 
 27 H       -0.1380     3.2430    -2.5320 H     1 <1>   0.0800 
 28 H        1.2980     2.5520    -1.8080 H     1 <1>   0.0800 
 29 H       -1.4700     4.6640     1.1370 H     1 <1>   0.0800 
 30 H       -2.8660     2.8770     1.6290 H     1 <1>   0.0800 
 31 H       -0.8630     5.4310    -1.6200 H     1 <1>   0.0800 
 32 H       -0.7580     0.7220     1.8180 H     1 <1>   0.0800 
 33 H       -1.9760     1.0980     3.0040 H     1 <1>   0.0800 
 34 H       -0.7170     2.2570     2.6650 H     1 <1>   0.0800 
 35 H       -2.6110     0.3050     0.0680 H     1 <1>   0.0800 
 36 H       -3.7600     1.5850    -0.2660 H     1 <1>   0.0800 
 37 H       -3.8310     0.7110     1.2370 H     1 <1>   0.0800 
 38 H       -2.8820     3.3280    -2.0710 H     1 <1>   0.1500 
 39 H       -3.2800     6.1720     1.0950 H     1 <1>   0.1500 
 40 H       -5.0910     3.9570    -2.9050 H     1 <1>   0.1500 
 41 H       -5.4910     6.7830     0.2550 H     1 <1>   0.1500 
 42 H        1.9390     5.7390     0.1140 H     1 <1>   0.3700 
 43 H       -6.4060     5.6820    -1.7460 H     1 <1>   0.1500 
 44 H        1.1290     8.2610     1.5250 H     1 <1>   0.0800 
 45 H        2.4620     7.2420     2.0000 H     1 <1>   0.0800 
 46 H        2.2420     8.7690    -0.6040 H     1 <1>   0.0800 
 47 H        3.6010     6.7830    -0.9840 H     1 <1>   0.0800 
 48 H        4.5140     7.0700     0.4700 H     1 <1>   0.0800 
 49 H        3.9050     9.3130     1.8620 H     1 <1>   0.0800 
 50 H        2.6290    10.3060     1.2190 H     1 <1>   0.0800 
 51 H        4.5200     8.8300    -2.0050 H     1 <1>   0.0800 
 52 H        5.8330     7.8280    -1.4190 H     1 <1>   0.0800 
 53 H        4.9220    11.1390     0.6350 H     1 <1>   0.0800 
 54 H        3.9850    10.7710    -0.8000 H     1 <1>   0.0800 
@<TRIPOS>BOND
  1   1   2  2   
  2   2   3  am  
  3   2   4  1   
  4   3   5  1   
  5   3   6  1   
  6   4   7  1   
  7   4  27  1   
  8   4  28  1   
  9   5   8  1   
 10   5   9  1   
 11   5  29  1   
 12   6  10  1   
 13   6  11  1   
 14   6  30  1   
 15   7   9  1   
 16   8  12  ar  
 17   8  13  ar  
 18   9  14  1   
 19   9  31  1   
 20  10  32  1   
 21  10  33  1   
 22  10  34  1   
 23  11  35  1   
 24  11  36  1   
 25  11  37  1   
 26  12  15  ar  
 27  12  38  1   
 28  13  16  ar  
 29  13  39  1   
 30  14  17  2   
 31  14  18  am  
 32  15  19  ar  
 33  15  40  1   
 34  16  19  ar  
 35  16  41  1   
 36  18  20  1   
 37  18  42  1   
 38  19  43  1   
 39  20  21  1   
 40  20  44  1   
 41  20  45  1   
 42  21  22  1   
 43  21  23  1   
 44  21  46  1   
 45  22  24  1   
 46  22  47  1   
 47  22  48  1   
 48  23  25  1   
 49  23  49  1   
 50  23  50  1   
 51  24  26  1   
 52  24  51  1   
 53  24  52  1   
 54  25  26  1   
 55  25  53  1   
 56  25  54  1   
@<TRIPOS>SUBSTRUCTURE
  1 ****   9 GROUP 4 **** **** 0

# MOE 2024.06 (io_trps.svl 2023.06)
