@<TRIPOS>MOLECULE
NONAME
49 51 1 0 0 
SMALL
USER_CHARGES


@<TRIPOS>ATOM
  1 O        2.4200    -0.9180    -2.1230 O.2   1 <1>  -0.5700 
  2 C        1.8470    -1.2120    -1.1020 C.2   1 <1>   0.5690 
  3 N        1.4330    -0.2800    -0.2060 N.am  1 <1>  -0.7300 
  4 C        1.5830    -2.6890    -0.7830 C.3   1 <1>   0.1710 
  5 C        1.5830     1.1930    -0.3340 C.3   1 <1>   0.1400 
  6 N        0.4760    -2.9260     0.1960 N.3   1 <1>  -0.8100 
  7 C        2.7160     1.7160     0.5580 C.3   1 <1>   0.2000 
  8 C       -0.8310    -2.6760    -0.4280 C.3   1 <1>   0.1100 
  9 C        0.5480    -4.2850     0.7370 C.3   1 <1>   0.1100 
 10 O        2.7660     3.1080     0.4720 O.3   1 <1>  -0.5600 
 11 C        4.1050     1.2230     0.1670 C.3   1 <1>  -0.1600 
 12 C       -1.9060    -2.7480     0.6530 C.3   1 <1>  -0.1600 
 13 C       -0.5230    -4.4610     1.8200 C.3   1 <1>  -0.1600 
 14 C        4.0770     3.5800     0.3920 C.3   1 <1>   0.1200 
 15 C        4.9890     2.3770     0.5890 C.3   1 <1>  -0.1600 
 16 C       -1.9520    -4.1440     1.3160 C.3   1 <1>   0.3430 
 17 C       -2.8580    -4.0750     2.5120 C.1   1 <1>   0.3570 
 18 C       -2.5350    -5.1980     0.3360 C.ar  1 <1>  -0.1440 
 19 N       -3.5330    -3.9890     3.4260 N.1   1 <1>  -0.5570 
 20 C       -1.8850    -6.3850     0.0030 C.ar  1 <1>  -0.1500 
 21 C       -3.7890    -4.9740    -0.2300 C.ar  1 <1>  -0.1500 
 22 C       -2.4490    -7.2900    -0.8800 C.ar  1 <1>  -0.1500 
 23 C       -4.3560    -5.8770    -1.1110 C.ar  1 <1>  -0.1500 
 24 C       -3.6850    -7.0370    -1.4420 C.ar  1 <1>  -0.1500 
 25 H        0.9380    -0.6410     0.6160 H     1 <1>   0.3700 
 26 H        2.5000    -3.0830    -0.3830 H     1 <1>   0.0800 
 27 H        1.3770    -3.2080    -1.7020 H     1 <1>   0.0800 
 28 H        0.6590     1.6650    -0.0490 H     1 <1>   0.0800 
 29 H        1.7950     1.4450    -1.3590 H     1 <1>   0.0800 
 30 H        2.5150     1.4790     1.5890 H     1 <1>   0.0800 
 31 H       -1.0230    -3.4010    -1.2030 H     1 <1>   0.0800 
 32 H       -0.8460    -1.6950    -0.8730 H     1 <1>   0.0800 
 33 H        1.5180    -4.4440     1.1780 H     1 <1>   0.0800 
 34 H        0.4200    -4.9970    -0.0610 H     1 <1>   0.0800 
 35 H        4.1560     1.0830    -0.9000 H     1 <1>   0.0800 
 36 H        4.3570     0.3000     0.6560 H     1 <1>   0.0800 
 37 H       -2.8540    -2.4890     0.2240 H     1 <1>   0.0800 
 38 H       -1.6830    -2.0010     1.3950 H     1 <1>   0.0800 
 39 H       -0.2760    -3.7890     2.6240 H     1 <1>   0.0800 
 40 H       -0.4810    -5.4540     2.2290 H     1 <1>   0.0800 
 41 H        4.2260     4.3340     1.1450 H     1 <1>   0.0800 
 42 H        4.2090     4.0060    -0.5870 H     1 <1>   0.0800 
 43 H        5.8870     2.4490     0.0020 H     1 <1>   0.0800 
 44 H        5.2470     2.2920     1.6300 H     1 <1>   0.0800 
 45 H       -0.9320    -6.6480     0.4190 H     1 <1>   0.1500 
 46 H       -4.3560    -4.0930     0.0140 H     1 <1>   0.1500 
 47 H       -1.9260    -8.1980    -1.1270 H     1 <1>   0.1500 
 48 H       -5.3250    -5.6780    -1.5370 H     1 <1>   0.1500 
 49 H       -4.1240    -7.7410    -2.1270 H     1 <1>   0.1500 
@<TRIPOS>BOND
  1   1   2  2   
  2   2   3  am  
  3   2   4  1   
  4   3   5  1   
  5   3  25  1   
  6   4   6  1   
  7   4  26  1   
  8   4  27  1   
  9   5   7  1   
 10   5  28  1   
 11   5  29  1   
 12   6   8  1   
 13   6   9  1   
 14   7  10  1   
 15   7  11  1   
 16   7  30  1   
 17   8  12  1   
 18   8  31  1   
 19   8  32  1   
 20   9  13  1   
 21   9  33  1   
 22   9  34  1   
 23  10  14  1   
 24  11  15  1   
 25  11  35  1   
 26  11  36  1   
 27  12  16  1   
 28  12  37  1   
 29  12  38  1   
 30  13  16  1   
 31  13  39  1   
 32  13  40  1   
 33  14  15  1   
 34  14  41  1   
 35  14  42  1   
 36  15  43  1   
 37  15  44  1   
 38  16  17  1   
 39  16  18  1   
 40  17  19  3   
 41  18  20  ar  
 42  18  21  ar  
 43  20  22  ar  
 44  20  45  1   
 45  21  23  ar  
 46  21  46  1   
 47  22  24  ar  
 48  22  47  1   
 49  23  24  ar  
 50  23  48  1   
 51  24  49  1   
@<TRIPOS>SUBSTRUCTURE
  1 ****   6 GROUP 4 **** **** 0

# MOE 2024.06 (io_trps.svl 2023.06)
