@<TRIPOS>MOLECULE
NONAME
44 46 1 0 0 
SMALL
USER_CHARGES


@<TRIPOS>ATOM
  1 O       -0.3470     0.3650     1.4440 O.2   1 <1>  -0.5700 
  2 C       -1.3730     0.9330     1.0850 C.2   1 <1>   0.5440 
  3 N       -2.5600     0.2430     1.3100 N.am  1 <1>  -0.6600 
  4 C       -1.2980     2.2420     0.4740 C.ar  1 <1>   0.3960 
  5 C       -2.6210    -1.2440     1.1920 C.3   1 <1>   0.1400 
  6 C       -3.9140     0.8710     1.2620 C.3   1 <1>   0.1400 
  7 N       -2.1730     2.6020    -0.5060 N.ar  1 <1>  -0.6200 
  8 C       -0.3030     3.1310     0.9080 C.ar  1 <1>   0.1600 
  9 C       -3.4720    -1.6490    -0.0270 C.3   1 <1>   0.3440 
 10 C       -4.6840     0.3810     0.0160 C.3   1 <1>   0.2000 
 11 C       -1.9930     3.8220    -0.9350 C.ar  1 <1>   0.1600 
 12 N       -0.1200     4.3580     0.4870 N.ar  1 <1>  -0.6200 
 13 O       -4.7300    -1.0230     0.0270 O.3   1 <1>  -0.5600 
 14 C       -3.6550    -3.1630    -0.0790 C.ar  1 <1>  -0.1430 
 15 C       -6.1320     0.9180    -0.0600 C.3   1 <1>  -0.0800 
 16 C       -1.0030     4.7140    -0.4620 C.ar  1 <1>   0.1390 
 17 C       -4.6950    -3.7900     0.5950 C.ar  1 <1>  -0.1500 
 18 C       -2.7580    -3.9380    -0.8010 C.ar  1 <1>  -0.1500 
 19 C       -6.8800     0.3520    -1.2790 C.3   1 <1>  -0.2400 
 20 C       -6.1710     2.4550    -0.1310 C.3   1 <1>  -0.2400 
 21 O       -0.9330     5.8650    -0.9220 O.3   1 <1>  -0.8290 
 22 C       -4.8350    -5.1660     0.5490 C.ar  1 <1>  -0.1500 
 23 C       -2.8960    -5.3140    -0.8480 C.ar  1 <1>  -0.1500 
 24 C       -3.9350    -5.9300    -0.1720 C.ar  1 <1>  -0.1500 
 25 H       -1.6340    -1.6570     1.0840 H     1 <1>   0.0800 
 26 H       -3.0560    -1.6560     2.0840 H     1 <1>   0.0800 
 27 H       -4.4620     0.5940     2.1450 H     1 <1>   0.0800 
 28 H       -3.8290     1.9410     1.2590 H     1 <1>   0.0800 
 29 H        0.3740     2.7810     1.6640 H     1 <1>   0.1500 
 30 H       -2.9830    -1.3210    -0.9290 H     1 <1>   0.0800 
 31 H       -4.1550     0.6920    -0.8700 H     1 <1>   0.0800 
 32 H       -2.6290     4.2130    -1.7070 H     1 <1>   0.1500 
 33 H       -6.6530     0.6090     0.8310 H     1 <1>   0.0800 
 34 H       -5.4020    -3.2030     1.1560 H     1 <1>   0.1500 
 35 H       -1.9450    -3.4730    -1.3310 H     1 <1>   0.1500 
 36 H       -6.3730     0.6210    -2.1900 H     1 <1>   0.0800 
 37 H       -7.8850     0.7330    -1.3170 H     1 <1>   0.0800 
 38 H       -6.9330    -0.7210    -1.2230 H     1 <1>   0.0800 
 39 H       -5.5850     2.8090    -0.9620 H     1 <1>   0.0800 
 40 H       -5.7860     2.8960     0.7700 H     1 <1>   0.0800 
 41 H       -7.1830     2.7990    -0.2550 H     1 <1>   0.0800 
 42 H       -5.6450    -5.6410     1.0740 H     1 <1>   0.1500 
 43 H       -2.1960    -5.9060    -1.4110 H     1 <1>   0.1500 
 44 H       -4.0430    -7.0000    -0.2080 H     1 <1>   0.1500 
@<TRIPOS>BOND
  1   1   2  2   
  2   2   3  am  
  3   2   4  1   
  4   3   5  1   
  5   3   6  1   
  6   4   7  ar  
  7   4   8  ar  
  8   5   9  1   
  9   5  25  1   
 10   5  26  1   
 11   6  10  1   
 12   6  27  1   
 13   6  28  1   
 14   7  11  ar  
 15   8  12  ar  
 16   8  29  1   
 17   9  13  1   
 18   9  14  1   
 19   9  30  1   
 20  10  13  1   
 21  10  15  1   
 22  10  31  1   
 23  11  16  ar  
 24  11  32  1   
 25  12  16  ar  
 26  14  17  ar  
 27  14  18  ar  
 28  15  19  1   
 29  15  20  1   
 30  15  33  1   
 31  16  21  1   
 32  17  22  ar  
 33  17  34  1   
 34  18  23  ar  
 35  18  35  1   
 36  19  36  1   
 37  19  37  1   
 38  19  38  1   
 39  20  39  1   
 40  20  40  1   
 41  20  41  1   
 42  22  24  ar  
 43  22  42  1   
 44  23  24  ar  
 45  23  43  1   
 46  24  44  1   
@<TRIPOS>SUBSTRUCTURE
  1 ****   3 GROUP 4 **** **** 0

# MOE 2024.06 (io_trps.svl 2023.06)
