@<TRIPOS>MOLECULE
NONAME
48 50 1 0 0 
SMALL
USER_CHARGES


@<TRIPOS>ATOM
  1 S       -1.8900    -0.0080     1.3390 S.3   1 <1>  -0.0800 
  2 C       -0.4950     0.1220     0.2790 C.2   1 <1>  -0.1400 
  3 C       -1.7910    -1.7620     1.3420 C.2   1 <1>  -0.1400 
  4 C       -0.0240    -1.1040    -0.0200 C.2   1 <1>  -0.1500 
  5 C       -0.0610     1.5270    -0.1170 C.3   1 <1>   0.1000 
  6 C       -0.7560    -2.1730     0.5860 C.2   1 <1>  -0.1500 
  7 C       -2.8120    -2.5430     2.1500 C.3   1 <1>   0.5230 
  8 C        1.1370     1.5680    -1.0620 C.3   1 <1>  -0.1600 
  9 C        0.4060     2.3620     1.0740 C.3   1 <1>  -0.1600 
 10 N       -4.1470    -2.5380     1.4840 N.4   1 <1>  -0.9590 
 11 C        1.6850     2.9890    -0.9270 C.3   1 <1>  -0.1600 
 12 C        1.3130     3.4490     0.4880 C.3   1 <1>  -0.1600 
 13 C       -4.0470    -3.0310     0.0780 C.3   1 <1>   0.5240 
 14 C       -4.8780    -1.2380     1.5930 C.3   1 <1>   0.3430 
 15 C       -3.5650    -4.4790     0.1130 C.2   1 <1>   0.0460 
 16 C       -6.4100    -1.4090     1.6470 C.3   1 <1>   0.1200 
 17 N       -3.9840    -5.3070     1.0970 N.2   1 <1>  -0.5650 
 18 C       -2.7160    -5.1180    -0.7260 C.2   1 <1>  -0.3320 
 19 O       -6.8570    -2.2210     0.6110 O.3   1 <1>  -0.6800 
 20 C       -3.3990    -6.4290     0.8260 C.2   1 <1>   0.0360 
 21 N       -2.6140    -6.3820    -0.2700 N.pl3 1 <1>   0.0330 
 22 C       -1.9770    -4.6320    -1.9640 C.3   1 <1>  -0.0600 
 23 H        0.8240    -1.3100    -0.6500 H     1 <1>   0.1500 
 24 H       -0.8860     2.0320    -0.5910 H     1 <1>   0.0800 
 25 H       -0.4600    -3.1960     0.4210 H     1 <1>   0.1500 
 26 H       -2.8870    -2.1300     3.1410 H     1 <1>   0.0800 
 27 H       -2.4690    -3.5620     2.2410 H     1 <1>   0.0800 
 28 H        0.8600     1.3340    -2.0750 H     1 <1>   0.0800 
 29 H        1.8880     0.8740    -0.7280 H     1 <1>   0.0800 
 30 H        0.9820     1.7400     1.7380 H     1 <1>   0.0800 
 31 H       -0.4230     2.7800     1.6170 H     1 <1>   0.0800 
 32 H       -4.7010    -3.2910     1.9220 H     1 <1>   0.4500 
 33 H        1.2080     3.6300    -1.6480 H     1 <1>   0.0800 
 34 H        2.7490     3.0160    -1.0880 H     1 <1>   0.0800 
 35 H        2.1920     3.5710     1.0980 H     1 <1>   0.0800 
 36 H        0.7910     4.3890     0.4410 H     1 <1>   0.0800 
 37 H       -3.3670    -2.4250    -0.4960 H     1 <1>   0.0800 
 38 H       -5.0120    -3.0080    -0.3960 H     1 <1>   0.0800 
 39 H       -4.6200    -0.6060     0.7600 H     1 <1>   0.0800 
 40 H       -4.5680    -0.7270     2.4890 H     1 <1>   0.0800 
 41 H       -6.8920    -0.4490     1.5570 H     1 <1>   0.0800 
 42 H       -6.7040    -1.8590     2.5800 H     1 <1>   0.0800 
 43 H       -7.8330    -2.3250     0.6360 H     1 <1>   0.4000 
 44 H       -3.5140    -7.3310     1.4040 H     1 <1>   0.1500 
 45 H       -2.0680    -7.1530    -0.6690 H     1 <1>   0.2700 
 46 H       -2.1760    -3.5920    -2.1480 H     1 <1>   0.0800 
 47 H       -2.2910    -5.1950    -2.8260 H     1 <1>   0.0800 
 48 H       -0.9160    -4.7580    -1.8390 H     1 <1>   0.0800 
@<TRIPOS>BOND
  1   1   2  1   
  2   1   3  1   
  3   2   4  2   
  4   2   5  1   
  5   3   6  2   
  6   3   7  1   
  7   4   6  1   
  8   4  23  1   
  9   5   8  1   
 10   5   9  1   
 11   5  24  1   
 12   6  25  1   
 13   7  10  1   
 14   7  26  1   
 15   7  27  1   
 16   8  11  1   
 17   8  28  1   
 18   8  29  1   
 19   9  12  1   
 20   9  30  1   
 21   9  31  1   
 22  10  13  1   
 23  10  14  1   
 24  10  32  1   
 25  11  12  1   
 26  11  33  1   
 27  11  34  1   
 28  12  35  1   
 29  12  36  1   
 30  13  15  1   
 31  13  37  1   
 32  13  38  1   
 33  14  16  1   
 34  14  39  1   
 35  14  40  1   
 36  15  17  1   
 37  15  18  2   
 38  16  19  1   
 39  16  41  1   
 40  16  42  1   
 41  17  20  2   
 42  18  21  1   
 43  18  22  1   
 44  19  43  1   
 45  20  21  1   
 46  20  44  1   
 47  21  45  1   
 48  22  46  1   
 49  22  47  1   
 50  22  48  1   
@<TRIPOS>SUBSTRUCTURE
  1 ****   3 GROUP 4 **** **** 0

# MOE 2024.06 (io_trps.svl 2023.06)
