@<TRIPOS>MOLECULE
NONAME
40 41 1 0 0 
SMALL
USER_CHARGES


@<TRIPOS>ATOM
  1 O        0.5680     0.3200    -0.8310 O.3   1 <1>  -0.0190 
  2 N        1.3580     1.3070    -0.5030 N.2   1 <1>  -0.4100 
  3 C        1.3170    -0.7430    -0.6800 C.2   1 <1>   0.2980 
  4 C        2.4880     0.7960    -0.1920 C.2   1 <1>   0.5990 
  5 N        2.5050    -0.5290    -0.2890 N.2   1 <1>  -0.5650 
  6 C        0.7190    -2.1040    -0.9810 C.3   1 <1>   0.0200 
  7 N        3.6140     1.5120     0.2160 N.pl3 1 <1>  -0.8210 
  8 C       -0.3740    -2.4800     0.0310 C.3   1 <1>  -0.1600 
  9 C        4.7960     0.7140     0.6510 C.3   1 <1>   0.3900 
 10 C        3.3680     2.7750     0.9620 C.3   1 <1>   0.2090 
 11 C       -0.9660    -3.8630    -0.2640 C.3   1 <1>  -0.2400 
 12 C        6.0510     1.5670     0.7240 C.2   1 <1>  -0.1810 
 13 C        3.5970     3.9530     0.0220 C.3   1 <1>  -0.2400 
 14 C        6.7010     1.9740     1.8830 C.2   1 <1>   0.1390 
 15 C        6.7850     2.0970    -0.2780 C.2   1 <1>  -0.3020 
 16 N        7.7480     2.6980     1.6320 N.2   1 <1>  -0.7070 
 17 N        7.8010     2.7750     0.2890 N.pl3 1 <1>   0.3140 
 18 C        8.8570     3.5320    -0.4130 C.3   1 <1>   0.0960 
 19 C        9.9690     2.6000    -0.9110 C.3   1 <1>  -0.2400 
 20 H        1.5040    -2.8390    -0.9530 H     1 <1>   0.0800 
 21 H        0.3100    -2.0890    -1.9750 H     1 <1>   0.0800 
 22 H       -1.1590    -1.7440     0.0020 H     1 <1>   0.0800 
 23 H        0.0460    -2.4770     1.0230 H     1 <1>   0.0800 
 24 H        4.9750    -0.0770    -0.0570 H     1 <1>   0.0800 
 25 H        4.5940     0.2680     1.6090 H     1 <1>   0.0800 
 26 H        4.0270     2.8520     1.8090 H     1 <1>   0.0800 
 27 H        2.3570     2.8010     1.3330 H     1 <1>   0.0800 
 28 H       -1.4120    -3.8830    -1.2430 H     1 <1>   0.0800 
 29 H       -1.7260    -4.0990     0.4610 H     1 <1>   0.0800 
 30 H       -0.2020    -4.6200    -0.2140 H     1 <1>   0.0800 
 31 H        4.6120     3.9560    -0.3290 H     1 <1>   0.0800 
 32 H        3.4090     4.8740     0.5410 H     1 <1>   0.0800 
 33 H        2.9290     3.8860    -0.8180 H     1 <1>   0.0800 
 34 H        6.3850     1.7260     2.8820 H     1 <1>   0.1500 
 35 H        6.6350     2.0310    -1.3400 H     1 <1>   0.1500 
 36 H        9.2620     4.2540     0.2730 H     1 <1>   0.0800 
 37 H        8.4090     4.0550    -1.2370 H     1 <1>   0.0800 
 38 H       10.4110     2.0800    -0.0790 H     1 <1>   0.0800 
 39 H       10.7330     3.1740    -1.4020 H     1 <1>   0.0800 
 40 H        9.5730     1.8840    -1.6090 H     1 <1>   0.0800 
@<TRIPOS>BOND
  1   1   2  1   
  2   1   3  1   
  3   2   4  2   
  4   3   5  2   
  5   3   6  1   
  6   4   5  1   
  7   4   7  1   
  8   6   8  1   
  9   6  20  1   
 10   6  21  1   
 11   7   9  1   
 12   7  10  1   
 13   8  11  1   
 14   8  22  1   
 15   8  23  1   
 16   9  12  1   
 17   9  24  1   
 18   9  25  1   
 19  10  13  1   
 20  10  26  1   
 21  10  27  1   
 22  11  28  1   
 23  11  29  1   
 24  11  30  1   
 25  12  14  1   
 26  12  15  2   
 27  13  31  1   
 28  13  32  1   
 29  13  33  1   
 30  14  16  2   
 31  14  34  1   
 32  15  17  1   
 33  15  35  1   
 34  16  17  1   
 35  17  18  1   
 36  18  19  1   
 37  18  36  1   
 38  18  37  1   
 39  19  38  1   
 40  19  39  1   
 41  19  40  1   
@<TRIPOS>SUBSTRUCTURE
  1 ****   7 GROUP 4 **** **** 0

# MOE 2024.06 (io_trps.svl 2023.06)
