@<TRIPOS>MOLECULE
NONAME
45 48 1 0 0 
SMALL
USER_CHARGES


@<TRIPOS>ATOM
  1 F       -1.5460    -0.4520     0.4390 F     1 <1>  -0.1900 
  2 C       -0.7650    -1.5040     0.5150 C.ar  1 <1>   0.1900 
  3 C       -1.3520    -2.7700     0.6020 C.ar  1 <1>   0.1170 
  4 C        0.5990    -1.2970     0.5060 C.ar  1 <1>  -0.1500 
  5 N       -2.7550    -2.8870     0.6090 N.am  1 <1>  -0.5470 
  6 C       -0.4940    -3.8660     0.6930 C.ar  1 <1>  -0.1500 
  7 C        1.4030    -2.4160     0.5920 C.ar  1 <1>   0.1900 
  8 C       -3.5950    -3.9160     0.2930 C.2   1 <1>   0.6900 
  9 C        0.8830    -3.6950     0.6860 C.ar  1 <1>  -0.1500 
 10 F        2.7000    -2.2610     0.5860 F     1 <1>  -0.1900 
 11 O       -3.1540    -4.9940    -0.0580 O.2   1 <1>  -0.5700 
 12 N       -4.9510    -3.7120     0.3470 N.am  1 <1>  -0.6600 
 13 C       -5.6240    -2.4650     0.8280 C.3   1 <1>   0.1400 
 14 C       -5.8850    -4.7680    -0.1550 C.3   1 <1>   0.1400 
 15 C       -6.4000    -1.7860    -0.3230 C.3   1 <1>   0.1430 
 16 C       -7.2620    -4.1920    -0.5340 C.3   1 <1>  -0.1600 
 17 C       -7.3530    -0.7830     0.3060 C.ar  1 <1>   0.1670 
 18 C       -7.1240    -2.8250    -1.2240 C.3   1 <1>  -0.1600 
 19 C       -5.4740    -0.8670    -1.1650 C.3   1 <1>  -0.1600 
 20 N       -8.4690    -1.0770     0.9290 N.ar  1 <1>  -0.6200 
 21 C       -6.8970     0.4960     0.1660 C.ar  1 <1>  -0.1440 
 22 C       -5.5830     0.5480    -0.5730 C.3   1 <1>  -0.0170 
 23 C       -9.1160    -0.0240     1.4050 C.ar  1 <1>   0.7200 
 24 C       -7.6590     1.5100     0.6960 C.ar  1 <1>   0.1600 
 25 N       -8.7870     1.2580     1.3210 N.ar  1 <1>  -0.6200 
 26 N      -10.2630    -0.2850     2.0320 N.pl3 1 <1>  -0.9000 
 27 H        1.0220    -0.3120     0.4350 H     1 <1>   0.1500 
 28 H       -3.2430    -2.0110     0.7510 H     1 <1>   0.3700 
 29 H       -0.8960    -4.8610     0.7730 H     1 <1>   0.1500 
 30 H        1.5440    -4.5410     0.7530 H     1 <1>   0.1500 
 31 H       -4.9280    -1.7750     1.2680 H     1 <1>   0.0800 
 32 H       -6.3180    -2.7420     1.6040 H     1 <1>   0.0800 
 33 H       -5.9970    -5.5300     0.5970 H     1 <1>   0.0800 
 34 H       -5.4490    -5.2270    -1.0270 H     1 <1>   0.0800 
 35 H       -7.8650    -4.0910     0.3520 H     1 <1>   0.0800 
 36 H       -7.7660    -4.8840    -1.1850 H     1 <1>   0.0800 
 37 H       -6.5600    -2.9790    -2.1260 H     1 <1>   0.0800 
 38 H       -8.0950    -2.4550    -1.5070 H     1 <1>   0.0800 
 39 H       -5.8410    -0.8220    -2.1760 H     1 <1>   0.0800 
 40 H       -4.4580    -1.2200    -1.1940 H     1 <1>   0.0800 
 41 H       -5.5870     1.3000    -1.3430 H     1 <1>   0.0800 
 42 H       -4.7820     0.7380     0.1200 H     1 <1>   0.0800 
 43 H       -7.3410     2.5340     0.6070 H     1 <1>   0.1500 
 44 H      -10.8980     0.5040     2.1160 H     1 <1>   0.4000 
 45 H      -10.6760    -1.1880     1.8190 H     1 <1>   0.4000 
@<TRIPOS>BOND
  1   1   2  1   
  2   2   3  ar  
  3   2   4  ar  
  4   3   5  1   
  5   3   6  ar  
  6   4   7  ar  
  7   4  27  1   
  8   5   8  am  
  9   5  28  1   
 10   6   9  ar  
 11   6  29  1   
 12   7   9  ar  
 13   7  10  1   
 14   8  11  2   
 15   8  12  am  
 16   9  30  1   
 17  12  13  1   
 18  12  14  1   
 19  13  15  1   
 20  13  31  1   
 21  13  32  1   
 22  14  16  1   
 23  14  33  1   
 24  14  34  1   
 25  15  17  1   
 26  15  18  1   
 27  15  19  1   
 28  16  18  1   
 29  16  35  1   
 30  16  36  1   
 31  17  20  ar  
 32  17  21  ar  
 33  18  37  1   
 34  18  38  1   
 35  19  22  1   
 36  19  39  1   
 37  19  40  1   
 38  20  23  ar  
 39  21  22  1   
 40  21  24  ar  
 41  22  41  1   
 42  22  42  1   
 43  23  25  ar  
 44  23  26  1   
 45  24  25  ar  
 46  24  43  1   
 47  26  44  1   
 48  26  45  1   
@<TRIPOS>SUBSTRUCTURE
  1 ****  13 GROUP 4 **** **** 0

# MOE 2024.06 (io_trps.svl 2023.06)
