@<TRIPOS>MOLECULE
NONAME
45 48 1 0 0 
SMALL
USER_CHARGES


@<TRIPOS>ATOM
  1 CL      -0.7850    -1.0780    -0.3070 Cl    1 <1>  -0.1770 
  2 C       -1.5340     0.4590     0.0620 C.ar  1 <1>   0.1770 
  3 C       -2.8960     0.6630    -0.1610 C.ar  1 <1>   0.0540 
  4 C       -0.7220     1.4420     0.5970 C.ar  1 <1>  -0.1500 
  5 C       -3.7570    -0.3460    -0.7360 C.2   1 <1>   0.4620 
  6 C       -3.4150     1.9080     0.2000 C.ar  1 <1>  -0.1500 
  7 C       -1.2620     2.6690     0.9370 C.ar  1 <1>  -0.1500 
  8 N       -3.5420    -1.0070    -1.8160 N.2   1 <1>  -0.4100 
  9 N       -4.9250    -0.6720    -0.1770 N.2   1 <1>  -0.5650 
 10 C       -2.6120     2.8980     0.7400 C.ar  1 <1>  -0.1500 
 11 O       -4.5460    -1.8050    -1.9980 O.3   1 <1>  -0.0190 
 12 C       -5.3360    -1.5580    -0.9860 C.2   1 <1>   0.2980 
 13 C       -6.6400    -2.3220    -0.8700 C.3   1 <1>   0.0200 
 14 C       -6.3980    -3.8080    -0.5670 C.3   1 <1>  -0.1600 
 15 C       -7.7220    -4.5770    -0.4000 C.3   1 <1>  -0.0990 
 16 C       -7.5500    -6.0540    -0.0590 C.2   1 <1>   0.5690 
 17 O       -6.4700    -6.5710    -0.2340 O.2   1 <1>  -0.5700 
 18 N       -8.6150    -6.7440     0.4290 N.am  1 <1>  -0.6600 
 19 C      -10.0060    -6.2320     0.5820 C.3   1 <1>   0.2350 
 20 C       -8.5650    -8.1840     0.8060 C.3   1 <1>   0.2350 
 21 C      -10.8970    -7.4580     0.5710 C.3   1 <1>  -0.2420 
 22 C      -10.0040    -8.6670     0.7280 C.3   1 <1>  -0.2420 
 23 C      -12.2860    -7.1070     1.1150 C.2   1 <1>   0.9470 
 24 C      -10.7970    -8.4760    -0.5390 C.3   1 <1>  -0.2000 
 25 C      -10.1930    -9.9460     1.5470 C.2   1 <1>   0.9470 
 26 O      -13.2950    -7.3860     0.4540 O.co2 1 <1>  -0.9000 
 27 O      -12.3630    -6.3810     2.1160 O.co2 1 <1>  -0.9000 
 28 O      -10.5220   -10.9940     0.9720 O.co2 1 <1>  -0.9000 
 29 O       -9.8620    -9.9480     2.7400 O.co2 1 <1>  -0.9000 
 30 H        0.3240     1.2430     0.7490 H     1 <1>   0.1500 
 31 H       -4.4650     2.0970     0.0530 H     1 <1>   0.1500 
 32 H       -0.6370     3.4400     1.3550 H     1 <1>   0.1500 
 33 H       -3.0390     3.8500     1.0070 H     1 <1>   0.1500 
 34 H       -7.2240    -1.8840    -0.0800 H     1 <1>   0.0800 
 35 H       -7.1860    -2.2170    -1.7900 H     1 <1>   0.0800 
 36 H       -5.8220    -3.8990     0.3380 H     1 <1>   0.0800 
 37 H       -5.8270    -4.2510    -1.3650 H     1 <1>   0.0800 
 38 H       -8.2920    -4.5170    -1.3090 H     1 <1>   0.0800 
 39 H       -8.2910    -4.1160     0.3870 H     1 <1>   0.0800 
 40 H      -10.0910    -5.7210     1.5260 H     1 <1>   0.0800 
 41 H      -10.2790    -5.5700    -0.2200 H     1 <1>   0.0800 
 42 H       -7.9340    -8.7410     0.1370 H     1 <1>   0.0800 
 43 H       -8.1950    -8.2750     1.8140 H     1 <1>   0.0800 
 44 H      -10.2860    -8.2250    -1.4490 H     1 <1>   0.1000 
 45 H      -11.6370    -9.1310    -0.7020 H     1 <1>   0.1000 
@<TRIPOS>BOND
  1   1   2  1   
  2   2   3  ar  
  3   2   4  ar  
  4   3   5  1   
  5   3   6  ar  
  6   4   7  ar  
  7   4  30  1   
  8   5   8  2   
  9   5   9  1   
 10   6  10  ar  
 11   6  31  1   
 12   7  10  ar  
 13   7  32  1   
 14   8  11  1   
 15   9  12  2   
 16  10  33  1   
 17  11  12  1   
 18  12  13  1   
 19  13  14  1   
 20  13  34  1   
 21  13  35  1   
 22  14  15  1   
 23  14  36  1   
 24  14  37  1   
 25  15  16  1   
 26  15  38  1   
 27  15  39  1   
 28  16  17  2   
 29  16  18  am  
 30  18  19  1   
 31  18  20  1   
 32  19  21  1   
 33  19  40  1   
 34  19  41  1   
 35  20  22  1   
 36  20  42  1   
 37  20  43  1   
 38  21  22  1   
 39  21  23  1   
 40  21  24  1   
 41  22  24  1   
 42  22  25  1   
 43  23  26  ar  
 44  23  27  ar  
 45  24  44  1   
 46  24  45  1   
 47  25  28  ar  
 48  25  29  ar  
@<TRIPOS>SUBSTRUCTURE
  1 ****  14 GROUP 4 **** **** 0

# MOE 2024.06 (io_trps.svl 2023.06)
