@<TRIPOS>MOLECULE
NONAME
54 56 1 0 0 
SMALL
USER_CHARGES


@<TRIPOS>ATOM
  1 O       -1.0750     0.3770    -2.5310 O.2   1 <1>  -0.5700 
  2 C       -1.9240     0.8250    -1.7820 C.2   1 <1>   0.5440 
  3 N       -2.9980     0.0380    -1.4320 N.am  1 <1>  -0.6600 
  4 C       -1.7900     2.1790    -1.2800 C.ar  1 <1>   0.0860 
  5 C       -2.9010    -1.4560    -1.3960 C.3   1 <1>   0.1400 
  6 C       -4.3660     0.5850    -1.1860 C.3   1 <1>   0.1400 
  7 C       -1.9580     2.4700     0.0730 C.ar  1 <1>  -0.1500 
  8 C       -1.4820     3.2390    -2.1300 C.ar  1 <1>  -0.1500 
  9 C       -3.3230    -2.0400    -0.0200 C.3   1 <1>  -0.1060 
 10 C       -5.1430    -0.2590    -0.1660 C.3   1 <1>  -0.1600 
 11 C       -1.8430     3.7610     0.5540 C.ar  1 <1>  -0.1500 
 12 C       -1.3650     4.5330    -1.6550 C.ar  1 <1>  -0.1500 
 13 C       -4.1130    -3.3180    -0.3470 C.2   1 <1>   0.9060 
 14 C       -4.1730    -0.9930     0.7570 C.3   1 <1>   0.2000 
 15 C       -2.0880    -2.4730     0.8180 C.3   1 <1>  -0.0650 
 16 C       -1.5470     4.8040    -0.3080 C.ar  1 <1>  -0.1440 
 17 O       -3.6170    -4.1350    -1.1310 O.co2 1 <1>  -0.9000 
 18 O       -5.2200    -3.5330     0.1710 O.co2 1 <1>  -0.9000 
 19 O       -4.8940    -1.5770     1.7760 O.3   1 <1>  -0.6800 
 20 C       -1.1050    -1.3600     1.2280 C.3   1 <1>  -0.1950 
 21 C       -1.4210     6.2260     0.2230 C.3   1 <1>  -0.0170 
 22 C        0.0190    -0.9230     0.3440 C.3   1 <1>  -0.2000 
 23 C        0.3030    -1.7210     1.5830 C.3   1 <1>  -0.2000 
 24 C       -0.1010     6.4560     0.9830 C.3   1 <1>  -0.0800 
 25 C       -0.0710     7.8680     1.5830 C.3   1 <1>  -0.2400 
 26 C        1.1220     6.2550     0.0760 C.3   1 <1>  -0.2400 
 27 H       -3.5500    -1.8360    -2.1680 H     1 <1>   0.0800 
 28 H       -1.9070    -1.7820    -1.6470 H     1 <1>   0.0800 
 29 H       -4.2950     1.5940    -0.8210 H     1 <1>   0.0800 
 30 H       -4.9070     0.6090    -2.1160 H     1 <1>   0.0800 
 31 H       -2.1780     1.6640     0.7520 H     1 <1>   0.1500 
 32 H       -1.3310     3.0330    -3.1750 H     1 <1>   0.1500 
 33 H       -5.7530    -0.9750    -0.6880 H     1 <1>   0.0800 
 34 H       -5.7890     0.3800     0.4060 H     1 <1>   0.0800 
 35 H       -1.9820     3.9510     1.6040 H     1 <1>   0.1500 
 36 H       -1.1260     5.3280    -2.3390 H     1 <1>   0.1500 
 37 H       -3.5410    -0.2560     1.2140 H     1 <1>   0.0800 
 38 H       -2.4440    -2.9490     1.7150 H     1 <1>   0.0800 
 39 H       -1.5490    -3.2240     0.2650 H     1 <1>   0.0800 
 40 H       -5.2560    -2.4280     1.3780 H     1 <1>   0.4000 
 41 H       -1.5550    -0.6240     1.8700 H     1 <1>   0.1000 
 42 H       -1.4950     6.9260    -0.5900 H     1 <1>   0.0800 
 43 H       -2.2490     6.4170     0.8830 H     1 <1>   0.0800 
 44 H        0.1410    -1.3950    -0.6170 H     1 <1>   0.1000 
 45 H        0.2720     0.1220     0.3170 H     1 <1>   0.1000 
 46 H        0.7670    -1.2300     2.4200 H     1 <1>   0.1000 
 47 H        0.6240    -2.7420     1.4710 H     1 <1>   0.1000 
 48 H       -0.0430     5.7450     1.7900 H     1 <1>   0.0800 
 49 H       -0.1200     8.6120     0.8070 H     1 <1>   0.0800 
 50 H        0.8360     8.0160     2.1420 H     1 <1>   0.0800 
 51 H       -0.9030     8.0100     2.2500 H     1 <1>   0.0800 
 52 H        1.0890     6.9270    -0.7630 H     1 <1>   0.0800 
 53 H        1.1550     5.2450    -0.2940 H     1 <1>   0.0800 
 54 H        2.0280     6.4360     0.6260 H     1 <1>   0.0800 
@<TRIPOS>BOND
  1   1   2  2   
  2   2   3  am  
  3   2   4  1   
  4   3   5  1   
  5   3   6  1   
  6   4   7  ar  
  7   4   8  ar  
  8   5   9  1   
  9   5  27  1   
 10   5  28  1   
 11   6  10  1   
 12   6  29  1   
 13   6  30  1   
 14   7  11  ar  
 15   7  31  1   
 16   8  12  ar  
 17   8  32  1   
 18   9  13  1   
 19   9  14  1   
 20   9  15  1   
 21  10  14  1   
 22  10  33  1   
 23  10  34  1   
 24  11  16  ar  
 25  11  35  1   
 26  12  16  ar  
 27  12  36  1   
 28  13  17  ar  
 29  13  18  ar  
 30  14  19  1   
 31  14  37  1   
 32  15  20  1   
 33  15  38  1   
 34  15  39  1   
 35  16  21  1   
 36  19  40  1   
 37  20  22  1   
 38  20  23  1   
 39  20  41  1   
 40  21  24  1   
 41  21  42  1   
 42  21  43  1   
 43  22  23  1   
 44  22  44  1   
 45  22  45  1   
 46  23  46  1   
 47  23  47  1   
 48  24  25  1   
 49  24  26  1   
 50  24  48  1   
 51  25  49  1   
 52  25  50  1   
 53  25  51  1   
 54  26  52  1   
 55  26  53  1   
 56  26  54  1   
@<TRIPOS>SUBSTRUCTURE
  1 ****   7 GROUP 4 **** **** 0

# MOE 2024.06 (io_trps.svl 2023.06)
