@<TRIPOS>MOLECULE
NONAME
44 46 1 0 0 
SMALL
USER_CHARGES


@<TRIPOS>ATOM
  1 CL       0.3050    -1.7280     0.3150 Cl    1 <1>  -0.1770 
  2 C       -1.3870    -2.1380     0.1910 C.ar  1 <1>   0.1770 
  3 C       -1.9910    -2.1530    -1.0520 C.ar  1 <1>  -0.1500 
  4 C       -2.0960    -2.4420     1.3370 C.ar  1 <1>  -0.1500 
  5 C       -3.3340    -2.4790    -1.1470 C.ar  1 <1>  -0.1500 
  6 C       -3.4390    -2.7670     1.2350 C.ar  1 <1>  -0.1500 
  7 C       -4.0620    -2.7850    -0.0050 C.ar  1 <1>  -0.1440 
  8 C       -5.5370    -3.1410    -0.1100 C.3   1 <1>  -0.0160 
  9 C       -5.7210    -4.6590    -0.2130 C.3   1 <1>  -0.1600 
 10 C       -7.1990    -5.0300    -0.3220 C.3   1 <1>   0.1400 
 11 N       -7.3270    -6.4980    -0.3720 N.am  1 <1>  -0.7300 
 12 C       -8.0200    -7.2930     0.4980 C.2   1 <1>   0.7160 
 13 O       -8.6080    -6.7730     1.4310 O.2   1 <1>  -0.5700 
 14 C       -8.0300    -8.7340     0.2860 C.2   1 <1>   0.2030 
 15 N       -7.4190    -9.3670    -0.7020 N.2   1 <1>  -0.7070 
 16 C       -8.6860    -9.6530     1.0990 C.2   1 <1>  -0.1500 
 17 N       -7.6860   -10.6630    -0.5160 N.pl3 1 <1>   0.3140 
 18 C       -8.4550   -10.8850     0.5770 C.2   1 <1>  -0.2370 
 19 C       -7.1420   -11.6670    -1.4400 C.3   1 <1>   0.0960 
 20 C       -8.9320   -12.1530     1.0480 C.2   1 <1>   0.7150 
 21 C       -6.3570   -12.7110    -0.6500 C.3   1 <1>   0.2000 
 22 O       -9.8190   -12.1950     1.8710 O.2   1 <1>  -0.5700 
 23 N       -8.4730   -13.3660     0.6430 N.am  1 <1>  -0.7300 
 24 O       -5.4360   -13.3090    -1.5010 O.3   1 <1>  -0.6800 
 25 C       -7.2370   -13.8200    -0.0520 C.3   1 <1>   0.1400 
 26 H       -1.4170    -1.9130    -1.9280 H     1 <1>   0.1500 
 27 H       -1.6030    -2.4240     2.2920 H     1 <1>   0.1500 
 28 H       -3.8080    -2.4930    -2.1130 H     1 <1>   0.1500 
 29 H       -3.9960    -3.0070     2.1240 H     1 <1>   0.1500 
 30 H       -5.9630    -2.6610    -0.9740 H     1 <1>   0.0800 
 31 H       -6.0560    -2.7700     0.7580 H     1 <1>   0.0800 
 32 H       -5.3040    -5.1240     0.6640 H     1 <1>   0.0800 
 33 H       -5.1930    -5.0210    -1.0780 H     1 <1>   0.0800 
 34 H       -7.6270    -4.6070    -1.2150 H     1 <1>   0.0800 
 35 H       -7.7390    -4.6440     0.5280 H     1 <1>   0.0800 
 36 H       -6.8470    -6.9950    -1.1270 H     1 <1>   0.3700 
 37 H       -9.2670    -9.4070     1.9720 H     1 <1>   0.1500 
 38 H       -6.4860   -11.1590    -2.1240 H     1 <1>   0.0800 
 39 H       -7.9530   -12.1140    -1.9830 H     1 <1>   0.0800 
 40 H       -5.7870   -12.2310     0.1280 H     1 <1>   0.0800 
 41 H       -8.9950   -14.1210     1.0940 H     1 <1>   0.3700 
 42 H       -5.8670   -13.7320    -2.2700 H     1 <1>   0.4000 
 43 H       -6.6430   -14.3830     0.6470 H     1 <1>   0.0800 
 44 H       -7.5400   -14.4850    -0.8420 H     1 <1>   0.0800 
@<TRIPOS>BOND
  1   1   2  1   
  2   2   3  ar  
  3   2   4  ar  
  4   3   5  ar  
  5   3  26  1   
  6   4   6  ar  
  7   4  27  1   
  8   5   7  ar  
  9   5  28  1   
 10   6   7  ar  
 11   6  29  1   
 12   7   8  1   
 13   8   9  1   
 14   8  30  1   
 15   8  31  1   
 16   9  10  1   
 17   9  32  1   
 18   9  33  1   
 19  10  11  1   
 20  10  34  1   
 21  10  35  1   
 22  11  12  am  
 23  11  36  1   
 24  12  13  2   
 25  12  14  1   
 26  14  15  2   
 27  14  16  1   
 28  15  17  1   
 29  16  18  2   
 30  16  37  1   
 31  17  18  1   
 32  17  19  1   
 33  18  20  1   
 34  19  21  1   
 35  19  38  1   
 36  19  39  1   
 37  20  22  2   
 38  20  23  am  
 39  21  24  1   
 40  21  25  1   
 41  21  40  1   
 42  23  25  1   
 43  23  41  1   
 44  24  42  1   
 45  25  43  1   
 46  25  44  1   
@<TRIPOS>SUBSTRUCTURE
  1 ****  11 GROUP 4 **** **** 0

# MOE 2024.06 (io_trps.svl 2023.06)
