@<TRIPOS>MOLECULE
NONAME
40 40 1 0 0 
SMALL
USER_CHARGES


@<TRIPOS>ATOM
  1 O        2.4600    -0.7960     1.6040 O.2   1 <1>  -0.5700 
  2 C        2.2300    -1.0790     0.4300 C.2   1 <1>   0.5440 
  3 N        2.7430    -0.2060    -0.5250 N.am  1 <1>  -0.6600 
  4 C        1.5290    -2.3070     0.1380 C.ar  1 <1>   0.0860 
  5 C        2.4930     1.2560    -0.3220 C.3   1 <1>   0.1400 
  6 C        2.8450    -0.6520    -1.9460 C.3   1 <1>   0.0600 
  7 C        0.5200    -2.4870    -0.8400 C.ar  1 <1>  -0.1710 
  8 C        1.8230    -3.4540     0.8720 C.ar  1 <1>  -0.1500 
  9 C        3.7610     2.1150    -0.0450 C.3   1 <1>   0.0000 
 10 O        0.0990    -1.5490    -1.5640 O.3   1 <1>  -0.8290 
 11 C       -0.0450    -3.7690    -0.9980 C.ar  1 <1>   0.1600 
 12 C        1.1940    -4.6520     0.6270 C.ar  1 <1>   0.1600 
 13 C        4.7830     1.9710    -1.2000 C.3   1 <1>   0.1200 
 14 C        3.3430     3.6120     0.0540 C.3   1 <1>  -0.1600 
 15 C        4.4300     1.6220     1.2690 C.3   1 <1>  -0.1600 
 16 N        0.2620    -4.8390    -0.3090 N.ar  1 <1>  -0.6200 
 17 O        4.2190     2.3030    -2.4270 O.3   1 <1>  -0.6800 
 18 C        2.4070     3.9790     1.2190 C.3   1 <1>  -0.2400 
 19 C        5.6470     2.4250     1.7620 C.3   1 <1>  -0.2400 
 20 H        1.8160     1.3610     0.5080 H     1 <1>   0.0800 
 21 H        1.9700     1.6380    -1.1810 H     1 <1>   0.0800 
 22 H        2.8270    -1.7260    -2.0070 H     1 <1>   0.0800 
 23 H        3.7620    -0.3120    -2.3870 H     1 <1>   0.0800 
 24 H        2.0080    -0.2760    -2.5080 H     1 <1>   0.0800 
 25 H        2.5610    -3.3880     1.6470 H     1 <1>   0.1500 
 26 H       -0.7990    -3.8480    -1.7600 H     1 <1>   0.1500 
 27 H        1.4540    -5.5120     1.2170 H     1 <1>   0.1500 
 28 H        5.1460     0.9600    -1.2580 H     1 <1>   0.0800 
 29 H        5.6230     2.6250    -1.0500 H     1 <1>   0.0800 
 30 H        2.8510     3.8960    -0.8610 H     1 <1>   0.0800 
 31 H        4.2250     4.2230     0.1230 H     1 <1>   0.0800 
 32 H        4.7430     0.6010     1.1310 H     1 <1>   0.0800 
 33 H        3.6940     1.5990     2.0530 H     1 <1>   0.0800 
 34 H        3.4270     1.7480    -2.5730 H     1 <1>   0.4000 
 35 H        1.4780     3.4420     1.1570 H     1 <1>   0.0800 
 36 H        2.1860     5.0310     1.1850 H     1 <1>   0.0800 
 37 H        2.8670     3.7670     2.1680 H     1 <1>   0.0800 
 38 H        6.4380     2.4220     1.0350 H     1 <1>   0.0800 
 39 H        6.0240     1.9780     2.6650 H     1 <1>   0.0800 
 40 H        5.3760     3.4410     1.9850 H     1 <1>   0.0800 
@<TRIPOS>BOND
  1   1   2  2   
  2   2   3  am  
  3   2   4  1   
  4   3   5  1   
  5   3   6  1   
  6   4   7  ar  
  7   4   8  ar  
  8   5   9  1   
  9   5  20  1   
 10   5  21  1   
 11   6  22  1   
 12   6  23  1   
 13   6  24  1   
 14   7  10  1   
 15   7  11  ar  
 16   8  12  ar  
 17   8  25  1   
 18   9  13  1   
 19   9  14  1   
 20   9  15  1   
 21  11  16  ar  
 22  11  26  1   
 23  12  16  ar  
 24  12  27  1   
 25  13  17  1   
 26  13  28  1   
 27  13  29  1   
 28  14  18  1   
 29  14  30  1   
 30  14  31  1   
 31  15  19  1   
 32  15  32  1   
 33  15  33  1   
 34  17  34  1   
 35  18  35  1   
 36  18  36  1   
 37  18  37  1   
 38  19  38  1   
 39  19  39  1   
 40  19  40  1   
@<TRIPOS>SUBSTRUCTURE
  1 ****   3 GROUP 4 **** **** 0

# MOE 2024.06 (io_trps.svl 2023.06)
