@<TRIPOS>MOLECULE
NONAME
51 53 1 0 0 
SMALL
USER_CHARGES


@<TRIPOS>ATOM
  1 O       -4.5930     3.1180    -0.4390 O.2   1 <1>  -0.5700 
  2 C       -3.5730     2.4650    -0.3710 C.2   1 <1>   0.5690 
  3 N       -3.4560     1.3320    -1.1480 N.am  1 <1>  -0.6600 
  4 C       -2.5200     2.9650     0.6300 C.3   1 <1>   0.1250 
  5 C       -2.3120     0.3540    -1.1010 C.3   1 <1>   0.3210 
  6 C       -4.4020     1.1100    -2.2990 C.3   1 <1>   0.1400 
  7 C       -1.0920     3.0330     0.1320 C.ar  1 <1>  -0.1440 
  8 C       -2.4110     2.1140     1.9140 C.3   1 <1>  -0.1600 
  9 C       -2.6830    -0.9740    -0.4350 C.2   1 <1>   0.0460 
 10 C       -5.7360     0.4210    -1.9290 C.3   1 <1>   0.3430 
 11 C       -0.2190     2.5990     1.1000 C.ar  1 <1>  -0.1440 
 12 C       -0.6290     3.4480    -1.1040 C.ar  1 <1>  -0.1500 
 13 C       -0.9450     2.2170     2.3670 C.3   1 <1>  -0.0170 
 14 N       -3.7860    -1.6750    -0.7860 N.2   1 <1>  -0.5650 
 15 C       -1.9850    -1.6370     0.5200 C.2   1 <1>  -0.3320 
 16 N       -6.3550     0.9810    -0.6870 N.4   1 <1>  -0.9590 
 17 C        1.1410     2.5550     0.8560 C.ar  1 <1>  -0.1500 
 18 C        0.7320     3.4060    -1.3580 C.ar  1 <1>  -0.1500 
 19 C       -3.7290    -2.7390    -0.0530 C.2   1 <1>   0.0360 
 20 N       -2.6620    -2.7740     0.7680 N.pl3 1 <1>   0.0330 
 21 C       -0.6770    -1.3140     1.2260 C.3   1 <1>  -0.0600 
 22 C       -5.9890     0.1450     0.4930 C.3   1 <1>   0.2630 
 23 C       -7.8270     1.1670    -0.8070 C.3   1 <1>   0.2630 
 24 C        1.6140     2.9600    -0.3830 C.ar  1 <1>  -0.1500 
 25 H       -2.7890     3.9660     0.9170 H     1 <1>   0.0800 
 26 H       -1.4720     0.7640    -0.5860 H     1 <1>   0.0800 
 27 H       -1.9810     0.1480    -2.1040 H     1 <1>   0.0800 
 28 H       -3.9190     0.5220    -3.0600 H     1 <1>   0.0800 
 29 H       -4.6290     2.0630    -2.7450 H     1 <1>   0.0800 
 30 H       -2.6340     1.0870     1.6900 H     1 <1>   0.0800 
 31 H       -3.0870     2.4590     2.6760 H     1 <1>   0.0800 
 32 H       -5.5750    -0.6370    -1.8120 H     1 <1>   0.0800 
 33 H       -6.4120     0.5470    -2.7580 H     1 <1>   0.0800 
 34 H       -1.3120     3.7990    -1.8590 H     1 <1>   0.1500 
 35 H       -0.5830     1.2910     2.7760 H     1 <1>   0.0800 
 36 H       -0.8260     3.0030     3.0920 H     1 <1>   0.0800 
 37 H       -5.8990     1.9120    -0.5510 H     1 <1>   0.4500 
 38 H        1.8240     2.2170     1.6150 H     1 <1>   0.1500 
 39 H        1.1090     3.7250    -2.3140 H     1 <1>   0.1500 
 40 H       -4.4490    -3.5400    -0.0800 H     1 <1>   0.1500 
 41 H       -2.4080    -3.5230     1.4200 H     1 <1>   0.2700 
 42 H       -0.2490    -0.4010     0.8540 H     1 <1>   0.0800 
 43 H        0.0340    -2.1040     1.0640 H     1 <1>   0.0800 
 44 H       -0.8410    -1.2100     2.2840 H     1 <1>   0.0800 
 45 H       -6.3710    -0.8550     0.3770 H     1 <1>   0.0800 
 46 H       -6.3890     0.5740     1.3960 H     1 <1>   0.0800 
 47 H       -4.9160     0.0890     0.5840 H     1 <1>   0.0800 
 48 H       -8.3120     0.2170    -0.9610 H     1 <1>   0.0800 
 49 H       -8.0530     1.8140    -1.6380 H     1 <1>   0.0800 
 50 H       -8.2180     1.6150     0.0920 H     1 <1>   0.0800 
 51 H        2.6700     2.9340    -0.5880 H     1 <1>   0.1500 
@<TRIPOS>BOND
  1   1   2  2   
  2   2   3  am  
  3   2   4  1   
  4   3   5  1   
  5   3   6  1   
  6   4   7  1   
  7   4   8  1   
  8   4  25  1   
  9   5   9  1   
 10   5  26  1   
 11   5  27  1   
 12   6  10  1   
 13   6  28  1   
 14   6  29  1   
 15   7  11  ar  
 16   7  12  ar  
 17   8  13  1   
 18   8  30  1   
 19   8  31  1   
 20   9  14  1   
 21   9  15  2   
 22  10  16  1   
 23  10  32  1   
 24  10  33  1   
 25  11  13  1   
 26  11  17  ar  
 27  12  18  ar  
 28  12  34  1   
 29  13  35  1   
 30  13  36  1   
 31  14  19  2   
 32  15  20  1   
 33  15  21  1   
 34  16  22  1   
 35  16  23  1   
 36  16  37  1   
 37  17  24  ar  
 38  17  38  1   
 39  18  24  ar  
 40  18  39  1   
 41  19  20  1   
 42  19  40  1   
 43  20  41  1   
 44  21  42  1   
 45  21  43  1   
 46  21  44  1   
 47  22  45  1   
 48  22  46  1   
 49  22  47  1   
 50  23  48  1   
 51  23  49  1   
 52  23  50  1   
 53  24  51  1   
@<TRIPOS>SUBSTRUCTURE
  1 ****   5 GROUP 4 **** **** 0

# MOE 2024.06 (io_trps.svl 2023.06)
