@<TRIPOS>MOLECULE
NONAME
45 47 1 0 0 
SMALL
USER_CHARGES


@<TRIPOS>ATOM
  1 O        4.3590     3.1950    -2.4030 O.co2 1 <1>  -0.9000 
  2 C        3.3640     2.5760    -2.0080 C.2   1 <1>   0.9470 
  3 O        2.2510     2.7520    -2.5180 O.co2 1 <1>  -0.9000 
  4 C        3.4760     1.7160    -0.7530 C.3   1 <1>  -0.2420 
  5 C        3.8590     0.4360     0.1550 C.3   1 <1>  -0.2420 
  6 C        2.9110     2.7030     0.2630 C.3   1 <1>   0.2350 
  7 C        3.9870     0.4630    -1.3050 C.3   1 <1>  -0.2000 
  8 C        4.3870    -0.9660     0.4620 C.2   1 <1>   0.9470 
  9 C        3.4720     0.8790     1.5700 C.3   1 <1>   0.2350 
 10 N        3.5020     2.3400     1.5450 N.am  1 <1>  -0.6600 
 11 O        5.6060    -1.1690     0.5300 O.co2 1 <1>  -0.9000 
 12 O        3.5660    -1.8620     0.7030 O.co2 1 <1>  -0.9000 
 13 C        4.2990     3.0910     2.3560 C.2   1 <1>   0.5690 
 14 O        4.6740     2.6940     3.4340 O.2   1 <1>  -0.5700 
 15 C        4.7420     4.4750     1.9310 C.3   1 <1>  -0.0990 
 16 C        5.8370     4.3860     0.8600 C.3   1 <1>   0.0960 
 17 N        6.3370     5.7410     0.5330 N.pl3 1 <1>   0.3140 
 18 N        7.1650     6.3790     1.3790 N.2   1 <1>  -0.7070 
 19 C        6.0500     6.5120    -0.5340 C.2   1 <1>  -0.3320 
 20 C        7.3960     7.5240     0.8300 C.2   1 <1>   0.1080 
 21 C        6.7400     7.6880    -0.4000 C.2   1 <1>  -0.0860 
 22 C        5.0960     6.0670    -1.6380 C.3   1 <1>  -0.0600 
 23 C        8.3010     8.5400     1.4940 C.3   1 <1>  -0.0590 
 24 C        6.8480     8.8450    -1.2520 C.2   1 <1>   0.5950 
 25 O        7.1020     9.9550    -0.8530 O.2   1 <1>  -0.5700 
 26 C        6.6740     8.6990    -2.7480 C.3   1 <1>  -0.1790 
 27 H        1.8470     2.5520     0.3290 H     1 <1>   0.0800 
 28 H        3.0880     3.7310    -0.0020 H     1 <1>   0.0800 
 29 H        4.9790     0.4550    -1.7260 H     1 <1>   0.1000 
 30 H        3.3140    -0.1490    -1.8810 H     1 <1>   0.1000 
 31 H        4.1340     0.4810     2.3240 H     1 <1>   0.0800 
 32 H        2.4680     0.5570     1.7820 H     1 <1>   0.0800 
 33 H        3.9020     5.0350     1.5690 H     1 <1>   0.0800 
 34 H        5.1370     4.9810     2.7930 H     1 <1>   0.0800 
 35 H        5.4710     3.9110    -0.0330 H     1 <1>   0.0800 
 36 H        6.6610     3.8050     1.2310 H     1 <1>   0.0800 
 37 H        4.7140     6.8980    -2.1950 H     1 <1>   0.0800 
 38 H        4.2490     5.5480    -1.2250 H     1 <1>   0.0800 
 39 H        5.6010     5.3990    -2.3140 H     1 <1>   0.0800 
 40 H        9.0780     8.8380     0.8150 H     1 <1>   0.0800 
 41 H        8.7490     8.1140     2.3730 H     1 <1>   0.0800 
 42 H        7.7280     9.4030     1.7770 H     1 <1>   0.0800 
 43 H        6.9300     7.7030    -3.0590 H     1 <1>   0.0800 
 44 H        7.3190     9.3930    -3.2540 H     1 <1>   0.0800 
 45 H        5.6570     8.9130    -3.0150 H     1 <1>   0.0800 
@<TRIPOS>BOND
  1   1   2  ar  
  2   2   3  ar  
  3   2   4  1   
  4   4   5  1   
  5   4   6  1   
  6   4   7  1   
  7   5   7  1   
  8   5   8  1   
  9   5   9  1   
 10   6  10  1   
 11   6  27  1   
 12   6  28  1   
 13   7  29  1   
 14   7  30  1   
 15   8  11  ar  
 16   8  12  ar  
 17   9  10  1   
 18   9  31  1   
 19   9  32  1   
 20  10  13  am  
 21  13  14  2   
 22  13  15  1   
 23  15  16  1   
 24  15  33  1   
 25  15  34  1   
 26  16  17  1   
 27  16  35  1   
 28  16  36  1   
 29  17  18  1   
 30  17  19  1   
 31  18  20  2   
 32  19  21  2   
 33  19  22  1   
 34  20  21  1   
 35  20  23  1   
 36  21  24  1   
 37  22  37  1   
 38  22  38  1   
 39  22  39  1   
 40  23  40  1   
 41  23  41  1   
 42  23  42  1   
 43  24  25  2   
 44  24  26  1   
 45  26  43  1   
 46  26  44  1   
 47  26  45  1   
@<TRIPOS>SUBSTRUCTURE
  1 ****  16 GROUP 4 **** **** 0

# MOE 2024.06 (io_trps.svl 2023.06)
