@<TRIPOS>MOLECULE
NONAME
50 52 1 0 0 
SMALL
USER_CHARGES


@<TRIPOS>ATOM
  1 O        3.2470     0.2020     1.1680 O.2   1 <1>  -0.5700 
  2 C        2.8810    -0.4580     0.2100 C.2   1 <1>   0.5440 
  3 N        2.7200     0.2320    -0.9790 N.am  1 <1>  -0.6600 
  4 C        2.7950    -1.9130     0.3080 C.ar  1 <1>   0.3960 
  5 C        3.5160    -0.1790    -2.1790 C.3   1 <1>   0.1400 
  6 C        2.2700     1.6570    -1.0000 C.3   1 <1>   0.1400 
  7 N        3.7000    -2.6620    -0.3500 N.ar  1 <1>  -0.6200 
  8 C        1.7970    -2.4780     1.0920 C.ar  1 <1>  -0.1500 
  9 C        5.0260    -0.0160    -1.8880 C.3   1 <1>   0.3430 
 10 C        3.3990     2.6510    -0.6550 C.3   1 <1>  -0.1600 
 11 C        3.5850    -3.9740    -0.2190 C.ar  1 <1>   0.1600 
 12 C        1.6910    -3.8440     1.2170 C.ar  1 <1>   0.0830 
 13 N        5.2560     1.0530    -0.8530 N.4   1 <1>  -0.9590 
 14 C        4.7650     2.3850    -1.2990 C.3   1 <1>   0.3430 
 15 C        2.6180    -4.6100     0.5360 C.ar  1 <1>  -0.1500 
 16 O        0.7010    -4.3360     1.9890 O.3   1 <1>  -0.3630 
 17 C        6.6290     1.0210    -0.2700 C.3   1 <1>   0.3430 
 18 C        0.5320    -5.7230     2.1840 C.3   1 <1>   0.0400 
 19 C        6.6510     1.6300     1.1360 C.3   1 <1>   0.0960 
 20 N        7.9980     1.4510     1.6960 N.pl3 1 <1>   0.0480 
 21 C        9.0830     2.2250     1.5820 C.2   1 <1>   0.0060 
 22 C        8.4500     0.4100     2.3980 C.2   1 <1>   0.0360 
 23 N       10.1020     1.6880     2.1530 N.2   1 <1>  -0.3380 
 24 C        9.1350     3.5670     0.8760 C.3   1 <1>  -0.0600 
 25 N        9.6990     0.5290     2.6740 N.2   1 <1>  -0.3380 
 26 H        3.2450     0.4300    -3.0230 H     1 <1>   0.0800 
 27 H        3.2990    -1.1990    -2.4450 H     1 <1>   0.0800 
 28 H        1.4660     1.7790    -0.2910 H     1 <1>   0.0800 
 29 H        1.8690     1.8820    -1.9740 H     1 <1>   0.0800 
 30 H        1.0990    -1.8470     1.6110 H     1 <1>   0.1500 
 31 H        5.5580     0.2050    -2.7990 H     1 <1>   0.0800 
 32 H        5.3920    -0.9580    -1.5110 H     1 <1>   0.0800 
 33 H        3.5160     2.6890     0.4140 H     1 <1>   0.0800 
 34 H        3.0720     3.6320    -0.9510 H     1 <1>   0.0800 
 35 H        4.3030    -4.5840    -0.7420 H     1 <1>   0.1500 
 36 H        4.5860     0.7890    -0.0960 H     1 <1>   0.4500 
 37 H        5.4550     3.1560    -0.9950 H     1 <1>   0.0800 
 38 H        4.6800     2.4140    -2.3740 H     1 <1>   0.0800 
 39 H        2.6050    -5.6820     0.5800 H     1 <1>   0.1500 
 40 H        7.3150     1.5480    -0.9130 H     1 <1>   0.0800 
 41 H        6.9540    -0.0050    -0.1950 H     1 <1>   0.0800 
 42 H       -0.3110    -5.8690     2.8350 H     1 <1>   0.0800 
 43 H        1.4200    -6.1230     2.6410 H     1 <1>   0.0800 
 44 H        0.3440    -6.1900     1.2330 H     1 <1>   0.0800 
 45 H        5.9450     1.1270     1.7730 H     1 <1>   0.0800 
 46 H        6.4200     2.6790     1.1070 H     1 <1>   0.0800 
 47 H        7.8400    -0.4260     2.6900 H     1 <1>   0.1500 
 48 H        8.4430     4.2530     1.3300 H     1 <1>   0.0800 
 49 H        8.9070     3.4550    -0.1670 H     1 <1>   0.0800 
 50 H       10.1240     3.9810     0.9640 H     1 <1>   0.0800 
@<TRIPOS>BOND
  1   1   2  2   
  2   2   3  am  
  3   2   4  1   
  4   3   5  1   
  5   3   6  1   
  6   4   7  ar  
  7   4   8  ar  
  8   5   9  1   
  9   5  26  1   
 10   5  27  1   
 11   6  10  1   
 12   6  28  1   
 13   6  29  1   
 14   7  11  ar  
 15   8  12  ar  
 16   8  30  1   
 17   9  13  1   
 18   9  31  1   
 19   9  32  1   
 20  10  14  1   
 21  10  33  1   
 22  10  34  1   
 23  11  15  ar  
 24  11  35  1   
 25  12  15  ar  
 26  12  16  1   
 27  13  14  1   
 28  13  17  1   
 29  13  36  1   
 30  14  37  1   
 31  14  38  1   
 32  15  39  1   
 33  16  18  1   
 34  17  19  1   
 35  17  40  1   
 36  17  41  1   
 37  18  42  1   
 38  18  43  1   
 39  18  44  1   
 40  19  20  1   
 41  19  45  1   
 42  19  46  1   
 43  20  21  1   
 44  20  22  1   
 45  21  23  2   
 46  21  24  1   
 47  22  25  2   
 48  22  47  1   
 49  23  25  1   
 50  24  48  1   
 51  24  49  1   
 52  24  50  1   
@<TRIPOS>SUBSTRUCTURE
  1 ****   1 GROUP 4 **** **** 0

# MOE 2024.06 (io_trps.svl 2023.06)
