@<TRIPOS>MOLECULE
NONAME
37 38 1 0 0 
SMALL
USER_CHARGES


@<TRIPOS>ATOM
  1 F       -0.9870    -0.2770     1.3240 F     1 <1>  -0.1900 
  2 C       -1.6340    -0.9270     0.3980 C.ar  1 <1>   0.1900 
  3 C       -1.7440    -2.3140     0.4390 C.ar  1 <1>  -0.1440 
  4 C       -2.1950    -0.1550    -0.6000 C.ar  1 <1>  -0.1500 
  5 C       -2.4910    -2.9270    -0.5810 C.ar  1 <1>  -0.1440 
  6 C       -1.0760    -3.1390     1.5550 C.3   1 <1>   1.1640 
  7 C       -2.9020    -0.7750    -1.6080 C.ar  1 <1>  -0.1500 
  8 C       -3.0450    -2.1500    -1.5950 C.ar  1 <1>  -0.1500 
  9 C       -2.7420    -4.4340    -0.6620 C.3   1 <1>   0.4860 
 10 F       -0.2630    -2.5020     2.3820 F     1 <1>  -0.3400 
 11 F       -1.9970    -3.7180     2.3130 F     1 <1>  -0.3400 
 12 F       -0.3620    -4.1320     1.0410 F     1 <1>  -0.3400 
 13 N       -4.1920    -4.6820    -0.4670 N.4   1 <1>  -0.9590 
 14 C       -4.5800    -5.9720    -1.1400 C.3   1 <1>   0.3430 
 15 C       -4.5690    -4.6120     0.9890 C.3   1 <1>   0.3430 
 16 C       -4.6240    -7.1060    -0.1380 C.3   1 <1>  -0.1860 
 17 C       -5.8770    -5.3540     1.2340 C.3   1 <1>  -0.1600 
 18 C       -4.9360    -8.3770    -0.8590 C.2   1 <1>   0.9060 
 19 C       -5.6940    -6.8430     0.9220 C.3   1 <1>   0.2000 
 20 O       -5.0240    -8.3380    -2.0880 O.co2 1 <1>  -0.9000 
 21 O       -5.0950    -9.3920    -0.1820 O.co2 1 <1>  -0.9000 
 22 O       -5.2650    -7.4750     2.0630 O.3   1 <1>  -0.6800 
 23 H       -2.0740     0.9150    -0.5850 H     1 <1>   0.1500 
 24 H       -3.3370    -0.1860    -2.4000 H     1 <1>   0.1500 
 25 H       -3.5960    -2.6070    -2.4020 H     1 <1>   0.1500 
 26 H       -2.1780    -4.9860     0.0700 H     1 <1>   0.0800 
 27 H       -2.4430    -4.7800    -1.6380 H     1 <1>   0.0800 
 28 H       -4.6910    -3.9300    -0.9540 H     1 <1>   0.4500 
 29 H       -5.5600    -5.8810    -1.5810 H     1 <1>   0.0800 
 30 H       -3.8940    -6.2200    -1.9350 H     1 <1>   0.0800 
 31 H       -3.8070    -5.0890     1.5870 H     1 <1>   0.0800 
 32 H       -4.6550    -3.5850     1.3040 H     1 <1>   0.0800 
 33 H       -3.6510    -7.2230     0.3020 H     1 <1>   0.0800 
 34 H       -6.6420    -4.9410     0.6040 H     1 <1>   0.0800 
 35 H       -6.1930    -5.2310     2.2550 H     1 <1>   0.0800 
 36 H       -6.6400    -7.2820     0.6430 H     1 <1>   0.0800 
 37 H       -5.1670    -8.4340     1.8340 H     1 <1>   0.4000 
@<TRIPOS>BOND
  1   1   2  1   
  2   2   3  ar  
  3   2   4  ar  
  4   3   5  ar  
  5   3   6  1   
  6   4   7  ar  
  7   4  23  1   
  8   5   8  ar  
  9   5   9  1   
 10   6  10  1   
 11   6  11  1   
 12   6  12  1   
 13   7   8  ar  
 14   7  24  1   
 15   8  25  1   
 16   9  13  1   
 17   9  26  1   
 18   9  27  1   
 19  13  14  1   
 20  13  15  1   
 21  13  28  1   
 22  14  16  1   
 23  14  29  1   
 24  14  30  1   
 25  15  17  1   
 26  15  31  1   
 27  15  32  1   
 28  16  18  1   
 29  16  19  1   
 30  16  33  1   
 31  17  19  1   
 32  17  34  1   
 33  17  35  1   
 34  18  20  ar  
 35  18  21  ar  
 36  19  22  1   
 37  19  36  1   
 38  22  37  1   
@<TRIPOS>SUBSTRUCTURE
  1 ****   9 GROUP 4 **** **** 0

# MOE 2024.06 (io_trps.svl 2023.06)
