@<TRIPOS>MOLECULE
NONAME
50 53 1 0 0 
SMALL
USER_CHARGES


@<TRIPOS>ATOM
  1 S       -0.0830    -0.8100    -0.0740 S.3   1 <1>  -0.0800 
  2 C       -1.6090    -1.4410     0.5150 C.2   1 <1>  -0.1400 
  3 C       -0.5840     0.8440     0.2310 C.2   1 <1>  -0.1400 
  4 C       -2.4110    -0.4310     0.9110 C.2   1 <1>  -0.1500 
  5 C       -1.7430    -2.9490     0.4750 C.3   1 <1>   0.5230 
  6 C       -1.8280     0.8640     0.7470 C.2   1 <1>  -0.1500 
  7 C        0.4190     1.9300    -0.1170 C.3   1 <1>   0.0200 
  8 N       -3.1780    -3.3260     0.4850 N.4   1 <1>  -0.9590 
  9 C       -0.1150     3.3320     0.1890 C.3   1 <1>  -0.2400 
 10 C       -3.9560    -2.8480    -0.6900 C.3   1 <1>   0.3430 
 11 C       -3.4500    -4.7860     0.5930 C.3   1 <1>   0.3430 
 12 C       -5.2470    -3.6590    -0.6040 C.3   1 <1>   0.2000 
 13 C       -4.7620    -5.0460    -0.1730 C.3   1 <1>  -0.0800 
 14 O       -6.0070    -3.1290     0.4330 O.3   1 <1>  -0.6800 
 15 C       -4.5510    -5.9790    -1.3860 C.3   1 <1>  -0.0170 
 16 C       -3.7440    -7.2180    -1.0100 C.ar  1 <1>  -0.1440 
 17 C       -4.2650    -8.2460    -0.1870 C.ar  1 <1>   0.0000 
 18 C       -2.4610    -7.3570    -1.4560 C.ar  1 <1>  -0.1500 
 19 C       -3.3900    -9.2980     0.1810 C.ar  1 <1>   0.3100 
 20 C       -5.5970    -8.3010     0.2860 C.ar  1 <1>  -0.1500 
 21 C       -1.6910    -8.4560    -1.0590 C.ar  1 <1>   0.1600 
 22 N       -2.1110    -9.3810    -0.2590 N.ar  1 <1>  -0.6200 
 23 C       -3.8600   -10.3080     1.0350 C.ar  1 <1>  -0.1500 
 24 C       -6.0260    -9.3040     1.1120 C.ar  1 <1>  -0.1500 
 25 C       -5.1470   -10.3170     1.4990 C.ar  1 <1>  -0.1500 
 26 H       -3.4030    -0.5150     1.3220 H     1 <1>   0.1500 
 27 H       -1.2360    -3.3720     1.3270 H     1 <1>   0.0800 
 28 H       -1.2740    -3.3230    -0.4200 H     1 <1>   0.0800 
 29 H       -2.3710     1.7510     1.0270 H     1 <1>   0.1500 
 30 H        1.3230     1.7640     0.4440 H     1 <1>   0.0800 
 31 H        0.6610     1.8620    -1.1630 H     1 <1>   0.0800 
 32 H       -3.6250    -2.8750     1.2960 H     1 <1>   0.4500 
 33 H       -0.3410     3.4250     1.2370 H     1 <1>   0.0800 
 34 H       -1.0060     3.5240    -0.3810 H     1 <1>   0.0800 
 35 H        0.6230     4.0710    -0.0690 H     1 <1>   0.0800 
 36 H       -4.1520    -1.7890    -0.6460 H     1 <1>   0.0800 
 37 H       -3.4340    -3.0830    -1.6030 H     1 <1>   0.0800 
 38 H       -2.6450    -5.3520     0.1550 H     1 <1>   0.0800 
 39 H       -3.5530    -5.0750     1.6270 H     1 <1>   0.0800 
 40 H       -5.8260    -3.6400    -1.5130 H     1 <1>   0.0800 
 41 H       -5.4700    -5.5040     0.4940 H     1 <1>   0.0800 
 42 H       -6.9220    -3.4850     0.4270 H     1 <1>   0.4000 
 43 H       -4.0320    -5.4500    -2.1670 H     1 <1>   0.0800 
 44 H       -5.5020    -6.2780    -1.7940 H     1 <1>   0.0800 
 45 H       -2.0010    -6.6410    -2.1130 H     1 <1>   0.1500 
 46 H       -6.3020    -7.5500    -0.0150 H     1 <1>   0.1500 
 47 H       -0.6830    -8.5340    -1.4340 H     1 <1>   0.1500 
 48 H       -3.1700   -11.0850     1.3110 H     1 <1>   0.1500 
 49 H       -7.0420    -9.3340     1.4700 H     1 <1>   0.1500 
 50 H       -5.4940   -11.0990     2.1530 H     1 <1>   0.1500 
@<TRIPOS>BOND
  1   1   2  1   
  2   1   3  1   
  3   2   4  2   
  4   2   5  1   
  5   3   6  2   
  6   3   7  1   
  7   4   6  1   
  8   4  26  1   
  9   5   8  1   
 10   5  27  1   
 11   5  28  1   
 12   6  29  1   
 13   7   9  1   
 14   7  30  1   
 15   7  31  1   
 16   8  10  1   
 17   8  11  1   
 18   8  32  1   
 19   9  33  1   
 20   9  34  1   
 21   9  35  1   
 22  10  12  1   
 23  10  36  1   
 24  10  37  1   
 25  11  13  1   
 26  11  38  1   
 27  11  39  1   
 28  12  13  1   
 29  12  14  1   
 30  12  40  1   
 31  13  15  1   
 32  13  41  1   
 33  14  42  1   
 34  15  16  1   
 35  15  43  1   
 36  15  44  1   
 37  16  17  ar  
 38  16  18  ar  
 39  17  19  ar  
 40  17  20  ar  
 41  18  21  ar  
 42  18  45  1   
 43  19  22  ar  
 44  19  23  ar  
 45  20  24  ar  
 46  20  46  1   
 47  21  22  ar  
 48  21  47  1   
 49  23  25  ar  
 50  23  48  1   
 51  24  25  ar  
 52  24  49  1   
 53  25  50  1   
@<TRIPOS>SUBSTRUCTURE
  1 ****  11 GROUP 4 **** **** 0

# MOE 2024.06 (io_trps.svl 2023.06)
