@<TRIPOS>MOLECULE
NONAME
56 58 1 0 0 
SMALL
USER_CHARGES


@<TRIPOS>ATOM
  1 O       -4.7390    -1.5620    -1.4250 O.co2 1 <1>  -0.9000 
  2 C       -4.7540    -1.2450    -0.2280 C.2   1 <1>   0.9790 
  3 O       -5.7700    -1.5630     0.4040 O.co2 1 <1>  -0.9000 
  4 C       -3.9250    -0.1950     0.3190 C.ar  1 <1>  -0.1790 
  5 C       -4.1560     1.1310    -0.0630 C.ar  1 <1>  -0.1440 
  6 C       -2.9390    -0.4500     1.2690 C.ar  1 <1>  -0.1500 
  7 C       -3.4240     2.1620     0.5050 C.ar  1 <1>  -0.1500 
  8 C       -5.1880     1.4230    -1.1430 C.3   1 <1>   0.4870 
  9 C       -2.2080     0.5800     1.8290 C.ar  1 <1>  -0.1500 
 10 C       -2.4520     1.8880     1.4510 C.ar  1 <1>  -0.1500 
 11 N       -6.5370     0.9000    -0.7700 N.4   1 <1>  -0.9590 
 12 C       -7.2000     0.3520    -1.9860 C.3   1 <1>   0.3430 
 13 C       -7.3430     1.8470     0.0320 C.3   1 <1>   0.3430 
 14 C       -7.9610    -0.9590    -1.7130 C.3   1 <1>   0.1400 
 15 C       -8.5020     1.1590     0.7610 C.3   1 <1>  -0.1600 
 16 N       -8.8090    -0.9550    -0.4720 N.am  1 <1>  -0.6600 
 17 C       -9.4570     0.3390    -0.1170 C.3   1 <1>   0.1400 
 18 C       -8.9640    -2.0470     0.3630 C.2   1 <1>   0.5690 
 19 O       -9.9080    -2.1030     1.1210 O.2   1 <1>  -0.5700 
 20 C       -8.0170    -3.2830     0.3390 C.3   1 <1>   0.4840 
 21 N       -8.6360    -4.5290    -0.2660 N.4   1 <1>  -0.9590 
 22 C       -7.5520    -3.6460     1.7630 C.3   1 <1>  -0.1600 
 23 C       -7.6200    -5.6110    -0.3860 C.3   1 <1>   0.3430 
 24 C       -9.2940    -4.2530    -1.5740 C.3   1 <1>   0.2630 
 25 C       -6.5400    -4.7980     1.7550 C.3   1 <1>  -0.1600 
 26 C       -7.1130    -6.0040     1.0030 C.3   1 <1>  -0.1600 
 27 H       -2.7530    -1.4670     1.5740 H     1 <1>   0.1500 
 28 H       -3.5920     3.1850     0.2160 H     1 <1>   0.1500 
 29 H       -4.8490     0.9290    -2.0390 H     1 <1>   0.0800 
 30 H       -5.2360     2.4800    -1.3400 H     1 <1>   0.0800 
 31 H       -1.4500     0.3630     2.5620 H     1 <1>   0.1500 
 32 H       -1.8810     2.6870     1.8910 H     1 <1>   0.1500 
 33 H       -6.3560     0.0570    -0.1700 H     1 <1>   0.4500 
 34 H       -6.4540     0.1310    -2.7320 H     1 <1>   0.0800 
 35 H       -7.8720     1.0840    -2.3990 H     1 <1>   0.0800 
 36 H       -7.7280     2.6230    -0.6090 H     1 <1>   0.0800 
 37 H       -6.7080     2.3090     0.7710 H     1 <1>   0.0800 
 38 H       -7.2370    -1.7510    -1.6700 H     1 <1>   0.0800 
 39 H       -8.5930    -1.1580    -2.5590 H     1 <1>   0.0800 
 40 H       -9.0780     1.9300     1.2400 H     1 <1>   0.0800 
 41 H       -8.1120     0.5360     1.5470 H     1 <1>   0.0800 
 42 H       -9.7380     0.8820    -1.0030 H     1 <1>   0.0800 
 43 H      -10.3620     0.1480     0.4380 H     1 <1>   0.0800 
 44 H       -7.1500    -3.0290    -0.2400 H     1 <1>   0.0800 
 45 H       -9.3520    -4.8160     0.4150 H     1 <1>   0.4500 
 46 H       -8.4020    -3.9010     2.3720 H     1 <1>   0.0800 
 47 H       -7.0910    -2.7820     2.2100 H     1 <1>   0.0800 
 48 H       -6.7910    -5.2650    -0.9840 H     1 <1>   0.0800 
 49 H       -8.0520    -6.4740    -0.8660 H     1 <1>   0.0800 
 50 H       -8.5690    -3.9010    -2.2890 H     1 <1>   0.0800 
 51 H      -10.0600    -3.5020    -1.4560 H     1 <1>   0.0800 
 52 H       -9.7530    -5.1500    -1.9570 H     1 <1>   0.0800 
 53 H       -6.2900    -5.0740     2.7660 H     1 <1>   0.0800 
 54 H       -5.6360    -4.4640     1.2720 H     1 <1>   0.0800 
 55 H       -6.3470    -6.7520     0.8980 H     1 <1>   0.0800 
 56 H       -7.9180    -6.4420     1.5670 H     1 <1>   0.0800 
@<TRIPOS>BOND
  1   1   2  ar  
  2   2   3  ar  
  3   2   4  1   
  4   4   5  ar  
  5   4   6  ar  
  6   5   7  ar  
  7   5   8  1   
  8   6   9  ar  
  9   6  27  1   
 10   7  10  ar  
 11   7  28  1   
 12   8  11  1   
 13   8  29  1   
 14   8  30  1   
 15   9  10  ar  
 16   9  31  1   
 17  10  32  1   
 18  11  12  1   
 19  11  13  1   
 20  11  33  1   
 21  12  14  1   
 22  12  34  1   
 23  12  35  1   
 24  13  15  1   
 25  13  36  1   
 26  13  37  1   
 27  14  16  1   
 28  14  38  1   
 29  14  39  1   
 30  15  17  1   
 31  15  40  1   
 32  15  41  1   
 33  16  17  1   
 34  16  18  am  
 35  17  42  1   
 36  17  43  1   
 37  18  19  2   
 38  18  20  1   
 39  20  21  1   
 40  20  22  1   
 41  20  44  1   
 42  21  23  1   
 43  21  24  1   
 44  21  45  1   
 45  22  25  1   
 46  22  46  1   
 47  22  47  1   
 48  23  26  1   
 49  23  48  1   
 50  23  49  1   
 51  24  50  1   
 52  24  51  1   
 53  24  52  1   
 54  25  26  1   
 55  25  53  1   
 56  25  54  1   
 57  26  55  1   
 58  26  56  1   
@<TRIPOS>SUBSTRUCTURE
  1 ****   3 GROUP 4 **** **** 0

# MOE 2024.06 (io_trps.svl 2023.06)
