@<TRIPOS>MOLECULE
NONAME
54 56 1 0 0 
SMALL
USER_CHARGES


@<TRIPOS>ATOM
  1 S        3.6400     0.2260     0.3690 S.o2  1 <1>   1.3330 
  2 O        3.6970     0.7350     1.7210 O.2   1 <1>  -0.6500 
  3 O        4.8470    -0.2660    -0.2550 O.2   1 <1>  -0.6500 
  4 N        2.4870    -1.0190     0.3190 N.am  1 <1>  -0.8490 
  5 C        2.8910     1.4940    -0.6550 C.3   1 <1>  -0.0550 
  6 C        2.5020    -1.8400     1.5330 C.3   1 <1>   0.1160 
  7 C        2.6090    -1.8760    -0.8650 C.3   1 <1>   0.1160 
  8 C        3.7210     2.7920    -0.7300 C.3   1 <1>  -0.0800 
  9 C        2.9340     3.9100    -1.3920 C.3   1 <1>   0.2200 
 10 C        4.9090     2.6540    -1.6830 C.3   1 <1>   0.1200 
 11 N        3.5010     5.2050    -0.9620 N.am  1 <1>  -0.7300 
 12 C        3.2210     3.6800    -2.8750 C.3   1 <1>   0.1200 
 13 O        4.4180     2.9590    -2.9530 O.3   1 <1>  -0.5600 
 14 C        2.8540     6.1560    -0.2450 C.2   1 <1>   0.5690 
 15 O        1.6790     6.0650     0.0170 O.2   1 <1>  -0.5700 
 16 C        3.6310     7.3650     0.2470 C.3   1 <1>   0.0440 
 17 C        5.1350     7.1020     0.2990 C.ar  1 <1>  -0.1440 
 18 C        5.6680     6.3360     1.3220 C.ar  1 <1>  -0.1500 
 19 C        5.9780     7.5990    -0.6830 C.ar  1 <1>  -0.1500 
 20 C        7.0240     6.0670     1.3600 C.ar  1 <1>  -0.1500 
 21 C        7.3330     7.3260    -0.6400 C.ar  1 <1>  -0.1500 
 22 C        7.8810     6.5550     0.3800 C.ar  1 <1>   0.0000 
 23 C        9.2970     6.2700     0.4210 C.ar  1 <1>   0.0000 
 24 C        9.7650     4.9590     0.4120 C.ar  1 <1>  -0.1500 
 25 C       10.2340     7.2980     0.4730 C.ar  1 <1>  -0.1500 
 26 C       11.1200     4.6830     0.4530 C.ar  1 <1>  -0.1500 
 27 C       11.5900     7.0290     0.5140 C.ar  1 <1>  -0.1500 
 28 C       12.0360     5.7190     0.5050 C.ar  1 <1>  -0.1500 
 29 H        2.7330     1.1110    -1.6440 H     1 <1>   0.0800 
 30 H        1.9310     1.7270    -0.2360 H     1 <1>   0.0800 
 31 H        1.7490    -2.6070     1.4740 H     1 <1>   0.0800 
 32 H        2.2910    -1.2290     2.3950 H     1 <1>   0.0800 
 33 H        3.4680    -2.2990     1.6630 H     1 <1>   0.0800 
 34 H        1.7990    -2.5860    -0.8930 H     1 <1>   0.0800 
 35 H        3.5440    -2.4130    -0.8480 H     1 <1>   0.0800 
 36 H        2.5700    -1.2820    -1.7620 H     1 <1>   0.0800 
 37 H        4.0360     3.0680     0.2620 H     1 <1>   0.0800 
 38 H        1.8790     3.8770    -1.1760 H     1 <1>   0.0800 
 39 H        5.3450     1.6710    -1.7030 H     1 <1>   0.0800 
 40 H        5.6730     3.3760    -1.4470 H     1 <1>   0.0800 
 41 H        4.5050     5.3250    -1.1320 H     1 <1>   0.3700 
 42 H        3.3210     4.6020    -3.4210 H     1 <1>   0.0800 
 43 H        2.4510     3.0760    -3.3210 H     1 <1>   0.0800 
 44 H        3.4180     8.1930    -0.4020 H     1 <1>   0.0800 
 45 H        3.2790     7.6210     1.2300 H     1 <1>   0.0800 
 46 H        5.0290     5.9410     2.0940 H     1 <1>   0.1500 
 47 H        5.5860     8.1980    -1.4870 H     1 <1>   0.1500 
 48 H        7.4280     5.4720     2.1600 H     1 <1>   0.1500 
 49 H        7.9800     7.7120    -1.4080 H     1 <1>   0.1500 
 50 H        9.0590     4.1490     0.3690 H     1 <1>   0.1500 
 51 H        9.8920     8.3180     0.4860 H     1 <1>   0.1500 
 52 H       11.4630     3.6630     0.4450 H     1 <1>   0.1500 
 53 H       12.2990     7.8370     0.5560 H     1 <1>   0.1500 
 54 H       13.0910     5.5070     0.5370 H     1 <1>   0.1500 
@<TRIPOS>BOND
  1   1   2  2   
  2   1   3  2   
  3   1   4  am  
  4   1   5  1   
  5   4   6  1   
  6   4   7  1   
  7   5   8  1   
  8   5  29  1   
  9   5  30  1   
 10   6  31  1   
 11   6  32  1   
 12   6  33  1   
 13   7  34  1   
 14   7  35  1   
 15   7  36  1   
 16   8   9  1   
 17   8  10  1   
 18   8  37  1   
 19   9  11  1   
 20   9  12  1   
 21   9  38  1   
 22  10  13  1   
 23  10  39  1   
 24  10  40  1   
 25  11  14  am  
 26  11  41  1   
 27  12  13  1   
 28  12  42  1   
 29  12  43  1   
 30  14  15  2   
 31  14  16  1   
 32  16  17  1   
 33  16  44  1   
 34  16  45  1   
 35  17  18  ar  
 36  17  19  ar  
 37  18  20  ar  
 38  18  46  1   
 39  19  21  ar  
 40  19  47  1   
 41  20  22  ar  
 42  20  48  1   
 43  21  22  ar  
 44  21  49  1   
 45  22  23  1   
 46  23  24  ar  
 47  23  25  ar  
 48  24  26  ar  
 49  24  50  1   
 50  25  27  ar  
 51  25  51  1   
 52  26  28  ar  
 53  26  52  1   
 54  27  28  ar  
 55  27  53  1   
 56  28  54  1   
@<TRIPOS>SUBSTRUCTURE
  1 ****  10 GROUP 4 **** **** 0

# MOE 2024.06 (io_trps.svl 2023.06)
