@<TRIPOS>MOLECULE
NONAME
51 53 1 0 0 
SMALL
USER_CHARGES


@<TRIPOS>ATOM
  1 S        0.2740     0.7110    -1.9160 S.3   1 <1>  -0.3320 
  2 C        0.1330     1.9360    -0.6420 C.ar  1 <1>   0.7720 
  3 C       -1.2670    -0.3090    -1.7740 C.3   1 <1>  -0.0100 
  4 N        1.1650     2.7950    -0.5790 N.ar  1 <1>  -0.1790 
  5 N       -0.9030     1.9440     0.1280 N.ar  1 <1>  -0.6200 
  6 C        1.1900     3.7750     0.3350 C.ar  1 <1>   0.4610 
  7 C       -0.9240     2.9060     1.0560 C.ar  1 <1>   0.4100 
  8 N        2.2580     4.6220     0.3640 N.pl3 1 <1>  -0.8380 
  9 C        0.0940     3.8310     1.1810 C.ar  1 <1>  -0.1500 
 10 N       -2.0010     2.8900     1.8470 N.pl3 1 <1>  -0.9000 
 11 C        2.3010     5.8660     1.1940 C.3   1 <1>   0.4330 
 12 C        3.6060     4.3690    -0.2230 C.3   1 <1>   0.2090 
 13 C        1.2080     6.8600     0.7980 C.ar  1 <1>  -0.1430 
 14 C        3.6980     6.4440     0.9810 C.3   1 <1>  -0.1600 
 15 C        4.5550     5.2540     0.5700 C.3   1 <1>  -0.1600 
 16 C        0.4900     7.5250     1.7810 C.ar  1 <1>  -0.1500 
 17 C        0.9200     7.1250    -0.5340 C.ar  1 <1>  -0.1500 
 18 C       -0.4930     8.4370     1.4420 C.ar  1 <1>  -0.1500 
 19 C       -0.0630     8.0360    -0.8770 C.ar  1 <1>  -0.1500 
 20 C       -0.7720     8.7060     0.1100 C.ar  1 <1>  -0.1430 
 21 C       -1.8350     9.7240    -0.2650 C.3   1 <1>   0.4860 
 22 N       -1.2890    11.0950    -0.0440 N.4   1 <1>  -0.9590 
 23 C       -2.3580    12.1330    -0.1510 C.3   1 <1>   0.2630 
 24 C       -0.1510    11.3940    -0.9690 C.3   1 <1>   0.2630 
 25 H       -1.2310    -1.0700    -2.5340 H     1 <1>   0.0800 
 26 H       -2.1130     0.3380    -1.9230 H     1 <1>   0.0800 
 27 H       -1.2890    -0.7490    -0.7930 H     1 <1>   0.0800 
 28 H        1.9130     2.6990    -1.2520 H     1 <1>   0.4570 
 29 H        0.0220     4.5830     1.9410 H     1 <1>   0.1500 
 30 H       -2.1800     3.5390     2.6160 H     1 <1>   0.4000 
 31 H       -2.7270     2.1790     1.7150 H     1 <1>   0.4000 
 32 H        2.1980     5.5890     2.2300 H     1 <1>   0.0800 
 33 H        3.6110     4.6720    -1.2580 H     1 <1>   0.0800 
 34 H        3.8960     3.3340    -0.1390 H     1 <1>   0.0800 
 35 H        4.0650     6.9250     1.8700 H     1 <1>   0.0800 
 36 H        3.6770     7.1670     0.1840 H     1 <1>   0.0800 
 37 H        5.4120     5.5480    -0.0110 H     1 <1>   0.0800 
 38 H        4.8910     4.7220     1.4440 H     1 <1>   0.0800 
 39 H        0.6950     7.3400     2.8230 H     1 <1>   0.1500 
 40 H        1.4670     6.6220    -1.3130 H     1 <1>   0.1500 
 41 H       -1.0350     8.9320     2.2310 H     1 <1>   0.1500 
 42 H       -0.2640     8.2160    -1.9200 H     1 <1>   0.1500 
 43 H       -2.7060     9.5680     0.3510 H     1 <1>   0.0800 
 44 H       -2.1210     9.5980    -1.2970 H     1 <1>   0.0800 
 45 H       -0.9120    11.0960     0.9150 H     1 <1>   0.4500 
 46 H       -2.7740    12.1450    -1.1460 H     1 <1>   0.0800 
 47 H       -1.9530    13.1100     0.0630 H     1 <1>   0.0800 
 48 H       -3.1510    11.9320     0.5530 H     1 <1>   0.0800 
 49 H       -0.4810    11.3660    -1.9950 H     1 <1>   0.0800 
 50 H        0.6370    10.6690    -0.8400 H     1 <1>   0.0800 
 51 H        0.2520    12.3730    -0.7630 H     1 <1>   0.0800 
@<TRIPOS>BOND
  1   1   2  1   
  2   1   3  1   
  3   2   4  ar  
  4   2   5  ar  
  5   3  25  1   
  6   3  26  1   
  7   3  27  1   
  8   4   6  ar  
  9   4  28  1   
 10   5   7  ar  
 11   6   8  1   
 12   6   9  ar  
 13   7   9  ar  
 14   7  10  1   
 15   8  11  1   
 16   8  12  1   
 17   9  29  1   
 18  10  30  1   
 19  10  31  1   
 20  11  13  1   
 21  11  14  1   
 22  11  32  1   
 23  12  15  1   
 24  12  33  1   
 25  12  34  1   
 26  13  16  ar  
 27  13  17  ar  
 28  14  15  1   
 29  14  35  1   
 30  14  36  1   
 31  15  37  1   
 32  15  38  1   
 33  16  18  ar  
 34  16  39  1   
 35  17  19  ar  
 36  17  40  1   
 37  18  20  ar  
 38  18  41  1   
 39  19  20  ar  
 40  19  42  1   
 41  20  21  1   
 42  21  22  1   
 43  21  43  1   
 44  21  44  1   
 45  22  23  1   
 46  22  24  1   
 47  22  45  1   
 48  23  46  1   
 49  23  47  1   
 50  23  48  1   
 51  24  49  1   
 52  24  50  1   
 53  24  51  1   
@<TRIPOS>SUBSTRUCTURE
  1 ****  13 GROUP 4 **** **** 0

# MOE 2024.06 (io_trps.svl 2023.06)
