@<TRIPOS>MOLECULE
NONAME
47 48 1 0 0 
SMALL
USER_CHARGES


@<TRIPOS>ATOM
  1 S       -0.7690    -0.9670     0.7140 S.3   1 <1>  -0.0800 
  2 C       -1.8170    -1.3570    -0.6110 C.2   1 <1>   0.4420 
  3 C       -0.7680     0.6630     0.1350 C.2   1 <1>   0.1980 
  4 N       -2.0750    -0.3310    -1.3390 N.2   1 <1>  -0.3380 
  5 N       -2.2250    -2.6680    -0.7150 N.am  1 <1>  -0.4940 
  6 N       -1.4740     0.8170    -0.9080 N.2   1 <1>  -0.3380 
  7 C        0.0320     1.7030     0.8860 C.3   1 <1>   0.0200 
  8 C       -3.0680    -3.2590    -1.6150 C.2   1 <1>   0.5690 
  9 C       -0.1640     3.0620     0.2030 C.3   1 <1>   0.3430 
 10 O       -3.6300    -2.6560    -2.4950 O.2   1 <1>  -0.5700 
 11 C       -3.3070    -4.7690    -1.4870 C.3   1 <1>   0.2610 
 12 N        0.5400     4.1850     0.9090 N.4   1 <1>  -0.9590 
 13 O       -2.7990    -5.2240    -0.2340 O.3   1 <1>  -0.3630 
 14 C       -2.6060    -5.5560    -2.6050 C.3   1 <1>  -0.2400 
 15 C        0.0790     5.4940     0.3490 C.3   1 <1>   0.2630 
 16 C        2.0320     4.0840     0.8060 C.3   1 <1>   0.2630 
 17 C       -3.2240    -6.3680     0.3630 C.ar  1 <1>   0.0820 
 18 C       -4.2340    -7.1840    -0.1380 C.ar  1 <1>  -0.1500 
 19 C       -2.5940    -6.7180     1.5470 C.ar  1 <1>  -0.1500 
 20 C       -4.6070    -8.3330     0.5380 C.ar  1 <1>   0.0820 
 21 C       -2.9620    -7.8650     2.2270 C.ar  1 <1>  -0.1500 
 22 O       -5.6000    -9.0700    -0.0210 O.3   1 <1>  -0.3630 
 23 C       -3.9670    -8.6750     1.7270 C.ar  1 <1>  -0.1500 
 24 C       -6.0630   -10.2560     0.5850 C.3   1 <1>   0.0400 
 25 H       -1.8730    -3.3100    -0.0060 H     1 <1>   0.3700 
 26 H        1.0660     1.4140     0.8710 H     1 <1>   0.0800 
 27 H       -0.3200     1.7430     1.9010 H     1 <1>   0.0800 
 28 H       -1.2220     3.2690     0.1690 H     1 <1>   0.0800 
 29 H        0.1820     2.9970    -0.8170 H     1 <1>   0.0800 
 30 H       -4.3690    -4.9260    -1.5090 H     1 <1>   0.0800 
 31 H        0.2740     4.1630     1.9070 H     1 <1>   0.4500 
 32 H       -1.5450    -5.3860    -2.5720 H     1 <1>   0.0800 
 33 H       -2.9730    -5.2250    -3.5600 H     1 <1>   0.0800 
 34 H       -2.8010    -6.6090    -2.5150 H     1 <1>   0.0800 
 35 H        0.3290     5.5630    -0.6980 H     1 <1>   0.0800 
 36 H        0.5480     6.3130     0.8700 H     1 <1>   0.0800 
 37 H       -0.9900     5.5910     0.4520 H     1 <1>   0.0800 
 38 H        2.3370     4.0900    -0.2280 H     1 <1>   0.0800 
 39 H        2.3830     3.1740     1.2640 H     1 <1>   0.0800 
 40 H        2.4990     4.9170     1.3060 H     1 <1>   0.0800 
 41 H       -4.7530    -6.9610    -1.0490 H     1 <1>   0.1500 
 42 H       -1.8130    -6.0900     1.9350 H     1 <1>   0.1500 
 43 H       -2.4660    -8.1280     3.1450 H     1 <1>   0.1500 
 44 H       -4.2350    -9.5590     2.2720 H     1 <1>   0.1500 
 45 H       -6.8460   -10.6620    -0.0310 H     1 <1>   0.0800 
 46 H       -6.4510   -10.0220     1.5610 H     1 <1>   0.0800 
 47 H       -5.2500   -10.9570     0.6500 H     1 <1>   0.0800 
@<TRIPOS>BOND
  1   1   2  1   
  2   1   3  1   
  3   2   4  2   
  4   2   5  1   
  5   3   6  2   
  6   3   7  1   
  7   4   6  1   
  8   5   8  am  
  9   5  25  1   
 10   7   9  1   
 11   7  26  1   
 12   7  27  1   
 13   8  10  2   
 14   8  11  1   
 15   9  12  1   
 16   9  28  1   
 17   9  29  1   
 18  11  13  1   
 19  11  14  1   
 20  11  30  1   
 21  12  15  1   
 22  12  16  1   
 23  12  31  1   
 24  13  17  1   
 25  14  32  1   
 26  14  33  1   
 27  14  34  1   
 28  15  35  1   
 29  15  36  1   
 30  15  37  1   
 31  16  38  1   
 32  16  39  1   
 33  16  40  1   
 34  17  18  ar  
 35  17  19  ar  
 36  18  20  ar  
 37  18  41  1   
 38  19  21  ar  
 39  19  42  1   
 40  20  22  1   
 41  20  23  ar  
 42  21  23  ar  
 43  21  43  1   
 44  22  24  1   
 45  23  44  1   
 46  24  45  1   
 47  24  46  1   
 48  24  47  1   
@<TRIPOS>SUBSTRUCTURE
  1 ****   5 GROUP 4 **** **** 0

# MOE 2024.06 (io_trps.svl 2023.06)
