@<TRIPOS>MOLECULE
NONAME
45 47 1 0 0 
SMALL
USER_CHARGES


@<TRIPOS>ATOM
  1 BR      -1.7180     0.0690     3.1030 Br    1 <1>  -0.1100 
  2 C       -2.8900     0.9550     1.8600 C.2   1 <1>   0.1100 
  3 C       -4.1410     0.4580     1.6270 C.2   1 <1>   0.2290 
  4 C       -2.4070     2.1130     1.2180 C.2   1 <1>  -0.1500 
  5 N       -4.9510     1.1210     0.7300 N.pl3 1 <1>  -0.3220 
  6 C       -3.2380     2.7500     0.3310 C.2   1 <1>  -0.1410 
  7 N       -6.2210     0.8160     0.3450 N.2   1 <1>  -0.2600 
  8 C       -4.5270     2.2320     0.0960 C.cat 1 <1>   0.7910 
  9 C       -6.5370     1.7330    -0.5020 C.2   1 <1>   0.4850 
 10 N       -5.5280     2.6240    -0.6870 N.pl3 1 <1>  -0.7000 
 11 C       -7.8780     1.8540    -1.2340 C.3   1 <1>   0.0880 
 12 C       -8.7430     2.9650    -0.6050 C.3   1 <1>  -0.1600 
 13 C       -8.6540     0.5200    -1.2670 C.3   1 <1>  -0.1600 
 14 C      -10.1050     3.0870    -1.2950 C.3   1 <1>   0.1400 
 15 C      -10.0110     0.6710    -1.9560 C.3   1 <1>   0.1400 
 16 N      -10.7670     1.7600    -1.2890 N.am  1 <1>  -0.6600 
 17 C      -11.9890     1.5290    -0.7040 C.2   1 <1>   0.7800 
 18 O      -12.4990     0.4260    -0.6970 O.2   1 <1>  -0.5700 
 19 O      -12.6000     2.5710    -0.1340 O.3   1 <1>  -0.4300 
 20 C      -13.8550     2.5820     0.5120 C.3   1 <1>   0.2800 
 21 C      -14.9640     2.2000    -0.4760 C.3   1 <1>  -0.2400 
 22 C      -14.0590     4.0290     0.9620 C.3   1 <1>  -0.2400 
 23 C      -13.8290     1.6700     1.7440 C.3   1 <1>  -0.2400 
 24 H       -4.5230    -0.4260     2.1110 H     1 <1>   0.1500 
 25 H       -1.4100     2.4630     1.4380 H     1 <1>   0.1500 
 26 H       -2.9310     3.6380    -0.1920 H     1 <1>   0.1500 
 27 H       -5.5310     3.4370    -1.3030 H     1 <1>   0.4500 
 28 H       -7.6690     2.1280    -2.2530 H     1 <1>   0.0800 
 29 H       -8.2380     3.9120    -0.6680 H     1 <1>   0.0800 
 30 H       -8.9100     2.7520     0.4370 H     1 <1>   0.0800 
 31 H       -8.8280     0.1640    -0.2650 H     1 <1>   0.0800 
 32 H       -8.0800    -0.2280    -1.7850 H     1 <1>   0.0800 
 33 H       -9.9820     3.4110    -2.3150 H     1 <1>   0.0800 
 34 H      -10.7030     3.8230    -0.7850 H     1 <1>   0.0800 
 35 H      -10.5510    -0.2600    -1.9010 H     1 <1>   0.0800 
 36 H       -9.8820     0.9170    -2.9960 H     1 <1>   0.0800 
 37 H      -14.9070     2.8130    -1.3580 H     1 <1>   0.0800 
 38 H      -15.9260     2.3460    -0.0210 H     1 <1>   0.0800 
 39 H      -14.8930     1.1660    -0.7590 H     1 <1>   0.0800 
 40 H      -14.0560     4.6880     0.1120 H     1 <1>   0.0800 
 41 H      -13.2770     4.3230     1.6380 H     1 <1>   0.0800 
 42 H      -15.0020     4.1340     1.4680 H     1 <1>   0.0800 
 43 H      -13.7520     0.6360     1.4600 H     1 <1>   0.0800 
 44 H      -14.7390     1.7840     2.3040 H     1 <1>   0.0800 
 45 H      -13.0020     1.9240     2.3810 H     1 <1>   0.0800 
@<TRIPOS>BOND
  1   1   2  1   
  2   2   3  2   
  3   2   4  1   
  4   3   5  1   
  5   3  24  1   
  6   4   6  2   
  7   4  25  1   
  8   5   7  1   
  9   5   8  ar  
 10   6   8  1   
 11   6  26  1   
 12   7   9  2   
 13   8  10  ar  
 14   9  10  1   
 15   9  11  1   
 16  10  27  1   
 17  11  12  1   
 18  11  13  1   
 19  11  28  1   
 20  12  14  1   
 21  12  29  1   
 22  12  30  1   
 23  13  15  1   
 24  13  31  1   
 25  13  32  1   
 26  14  16  1   
 27  14  33  1   
 28  14  34  1   
 29  15  16  1   
 30  15  35  1   
 31  15  36  1   
 32  16  17  am  
 33  17  18  2   
 34  17  19  1   
 35  19  20  1   
 36  20  21  1   
 37  20  22  1   
 38  20  23  1   
 39  21  37  1   
 40  21  38  1   
 41  21  39  1   
 42  22  40  1   
 43  22  41  1   
 44  22  42  1   
 45  23  43  1   
 46  23  44  1   
 47  23  45  1   
@<TRIPOS>SUBSTRUCTURE
  1 ****  11 GROUP 4 **** **** 0

# MOE 2024.06 (io_trps.svl 2023.06)
