@<TRIPOS>MOLECULE
NONAME
49 52 1 0 0 
SMALL
USER_CHARGES


@<TRIPOS>ATOM
  1 O       -0.4420     0.4100     0.5630 O.2   1 <1>  -0.5700 
  2 C       -1.3910     0.9760     0.0380 C.2   1 <1>   0.7160 
  3 N       -2.5510     0.2310    -0.0890 N.am  1 <1>  -0.6600 
  4 C       -1.2660     2.3660    -0.4210 C.2   1 <1>   0.2030 
  5 C       -3.8430     0.7050    -0.6410 C.3   1 <1>   0.1400 
  6 C       -2.6770    -1.1740     0.3530 C.3   1 <1>   0.1400 
  7 N       -2.1170     3.0170    -1.2080 N.2   1 <1>  -0.7070 
  8 C       -0.2030     3.2290    -0.0850 C.2   1 <1>  -0.1810 
  9 C       -4.8330    -0.4530    -0.4470 C.3   1 <1>   0.2000 
 10 C       -3.9320    -1.6900    -0.3540 C.3   1 <1>  -0.0800 
 11 N       -1.6140     4.2510    -1.3570 N.pl3 1 <1>   0.3000 
 12 C       -0.4650     4.4030    -0.6810 C.2   1 <1>  -0.3320 
 13 C        1.0300     2.9960     0.7760 C.3   1 <1>   0.0210 
 14 O       -5.5220    -0.3080     0.7630 O.3   1 <1>  -0.5600 
 15 C       -4.5750    -2.9020     0.3430 C.3   1 <1>   0.0200 
 16 C        0.3880     5.6560    -0.6010 C.3   1 <1>   0.0200 
 17 C        2.0560     4.1300     0.5810 C.3   1 <1>  -0.1600 
 18 C       -6.6250     0.5420     0.7210 C.3   1 <1>   0.0400 
 19 C       -3.7240    -4.1590     0.2610 C.2   1 <1>  -0.0400 
 20 C        1.3910     5.5200     0.5580 C.3   1 <1>  -0.1600 
 21 O       -4.1240    -5.2300     0.8950 O.3   1 <1>  -0.0190 
 22 C       -2.5710    -4.4600    -0.3580 C.2   1 <1>  -0.1500 
 23 N       -3.3020    -6.2260     0.7360 N.2   1 <1>  -0.4100 
 24 C       -2.3550    -5.7910    -0.0150 C.2   1 <1>   0.1080 
 25 C       -1.1720    -6.6210    -0.4580 C.3   1 <1>  -0.0590 
 26 H       -4.1660     1.6010    -0.1430 H     1 <1>   0.0800 
 27 H       -3.7160     0.9040    -1.6910 H     1 <1>   0.0800 
 28 H       -1.8000    -1.7400     0.0910 H     1 <1>   0.0800 
 29 H       -2.8090    -1.1880     1.4220 H     1 <1>   0.0800 
 30 H       -5.5430    -0.5310    -1.2530 H     1 <1>   0.0800 
 31 H       -3.6560    -1.9690    -1.3550 H     1 <1>   0.0800 
 32 H       -2.0750     4.9720    -1.9240 H     1 <1>   0.2700 
 33 H        0.7250     2.9510     1.8060 H     1 <1>   0.0800 
 34 H        1.4910     2.0590     0.5200 H     1 <1>   0.0800 
 35 H       -5.5280    -3.1090    -0.1110 H     1 <1>   0.0800 
 36 H       -4.7520    -2.6750     1.3800 H     1 <1>   0.0800 
 37 H        0.9190     5.7780    -1.5280 H     1 <1>   0.0800 
 38 H       -0.2310     6.5220    -0.4420 H     1 <1>   0.0800 
 39 H        2.7880     4.0850     1.3680 H     1 <1>   0.0800 
 40 H        2.5670     3.9750    -0.3540 H     1 <1>   0.0800 
 41 H       -7.0650     0.5640     1.7030 H     1 <1>   0.0800 
 42 H       -7.3410     0.1620     0.0140 H     1 <1>   0.0800 
 43 H       -6.3100     1.5330     0.4470 H     1 <1>   0.0800 
 44 H        2.1420     6.2850     0.4740 H     1 <1>   0.0800 
 45 H        0.8700     5.6680     1.4890 H     1 <1>   0.0800 
 46 H       -1.9340    -3.8580    -0.9790 H     1 <1>   0.1500 
 47 H       -1.1380    -6.6660    -1.5310 H     1 <1>   0.0800 
 48 H       -1.2590    -7.6200    -0.0700 H     1 <1>   0.0800 
 49 H       -0.2620    -6.1830    -0.0910 H     1 <1>   0.0800 
@<TRIPOS>BOND
  1   1   2  2   
  2   2   3  am  
  3   2   4  1   
  4   3   5  1   
  5   3   6  1   
  6   4   7  2   
  7   4   8  1   
  8   5   9  1   
  9   5  26  1   
 10   5  27  1   
 11   6  10  1   
 12   6  28  1   
 13   6  29  1   
 14   7  11  1   
 15   8  12  2   
 16   8  13  1   
 17   9  10  1   
 18   9  14  1   
 19   9  30  1   
 20  10  15  1   
 21  10  31  1   
 22  11  12  1   
 23  11  32  1   
 24  12  16  1   
 25  13  17  1   
 26  13  33  1   
 27  13  34  1   
 28  14  18  1   
 29  15  19  1   
 30  15  35  1   
 31  15  36  1   
 32  16  20  1   
 33  16  37  1   
 34  16  38  1   
 35  17  20  1   
 36  17  39  1   
 37  17  40  1   
 38  18  41  1   
 39  18  42  1   
 40  18  43  1   
 41  19  21  1   
 42  19  22  2   
 43  20  44  1   
 44  20  45  1   
 45  21  23  1   
 46  22  24  1   
 47  22  46  1   
 48  23  24  2   
 49  24  25  1   
 50  25  47  1   
 51  25  48  1   
 52  25  49  1   
@<TRIPOS>SUBSTRUCTURE
  1 ****   3 GROUP 4 **** **** 0

# MOE 2024.06 (io_trps.svl 2023.06)
