@<TRIPOS>MOLECULE
NONAME
43 46 1 0 0 
SMALL
USER_CHARGES


@<TRIPOS>ATOM
  1 O        0.5110     1.1130     1.5490 O.3   1 <1>  -0.5160 
  2 C        0.9150     1.8160     0.3950 C.3   1 <1>   0.2580 
  3 C       -0.4210     0.3150     0.8200 C.3   1 <1>   0.2580 
  4 C        2.2330     1.2460    -0.1380 C.3   1 <1>  -0.1600 
  5 C        0.9980     3.3060     0.7130 C.3   1 <1>  -0.1600 
  6 C       -0.3730     1.3530    -0.3060 C.3   1 <1>   0.0000 
  7 C        2.7180     2.0660    -1.3300 C.3   1 <1>   0.3430 
  8 C        1.5030     4.0770    -0.5010 C.3   1 <1>   0.3430 
  9 N        2.8110     3.5060    -0.9520 N.4   1 <1>  -0.9590 
 10 C        3.4170     4.3190    -2.0430 C.3   1 <1>   0.4860 
 11 C        3.6920     5.7080    -1.5070 C.ar  1 <1>  -0.1430 
 12 C        4.7500     5.9340    -0.6510 C.ar  1 <1>  -0.1500 
 13 C        2.8490     6.7670    -1.8790 C.ar  1 <1>  -0.1500 
 14 C        4.9580     7.2210    -0.1450 C.ar  1 <1>  -0.1520 
 15 C        3.0510     8.0330    -1.3820 C.ar  1 <1>  -0.1500 
 16 N        5.9150     7.7160     0.7120 N.pl3 1 <1>   0.0480 
 17 C        4.1110     8.2650    -0.5030 C.ar  1 <1>   0.0000 
 18 C        5.6650     9.0460     0.8910 C.2   1 <1>  -0.3020 
 19 C        7.0310     6.9670     1.3130 C.3   1 <1>   0.0160 
 20 C        4.5800     9.4100     0.1700 C.2   1 <1>  -0.1500 
 21 H       -1.3570     0.2570     1.3460 H     1 <1>   0.0000 
 22 H        0.0230    -0.6350     0.5760 H     1 <1>   0.0000 
 23 H        2.1090     0.2210    -0.4410 H     1 <1>   0.0800 
 24 H        2.9770     1.2750     0.6380 H     1 <1>   0.0800 
 25 H        1.6710     3.4640     1.5380 H     1 <1>   0.0800 
 26 H        0.0320     3.6810     1.0000 H     1 <1>   0.0800 
 27 H       -0.2270     0.9320    -1.2860 H     1 <1>   0.0000 
 28 H       -1.1830     2.0600    -0.2600 H     1 <1>   0.0000 
 29 H        2.0270     1.9490    -2.1500 H     1 <1>   0.0800 
 30 H        3.6830     1.7020    -1.6450 H     1 <1>   0.0800 
 31 H        1.6230     5.1150    -0.2320 H     1 <1>   0.0800 
 32 H        0.7790     4.0140    -1.2970 H     1 <1>   0.0800 
 33 H        3.4510     3.5930    -0.1510 H     1 <1>   0.4500 
 34 H        2.7510     4.3740    -2.8890 H     1 <1>   0.0800 
 35 H        4.3460     3.8760    -2.3650 H     1 <1>   0.0800 
 36 H        5.4260     5.1510    -0.3580 H     1 <1>   0.1500 
 37 H        2.0320     6.6000    -2.5610 H     1 <1>   0.1500 
 38 H        2.4150     8.8560    -1.6560 H     1 <1>   0.1500 
 39 H        6.2790     9.6620     1.5250 H     1 <1>   0.1500 
 40 H        6.6400     6.1900     1.9420 H     1 <1>   0.0800 
 41 H        7.6350     7.6340     1.9020 H     1 <1>   0.0800 
 42 H        7.6320     6.5390     0.5320 H     1 <1>   0.0800 
 43 H        4.1280    10.3840     0.0950 H     1 <1>   0.1500 
@<TRIPOS>BOND
  1   1   2  1   
  2   1   3  1   
  3   2   4  1   
  4   2   5  1   
  5   2   6  1   
  6   3   6  1   
  7   3  21  1   
  8   3  22  1   
  9   4   7  1   
 10   4  23  1   
 11   4  24  1   
 12   5   8  1   
 13   5  25  1   
 14   5  26  1   
 15   6  27  1   
 16   6  28  1   
 17   7   9  1   
 18   7  29  1   
 19   7  30  1   
 20   8   9  1   
 21   8  31  1   
 22   8  32  1   
 23   9  10  1   
 24   9  33  1   
 25  10  11  1   
 26  10  34  1   
 27  10  35  1   
 28  11  12  ar  
 29  11  13  ar  
 30  12  14  ar  
 31  12  36  1   
 32  13  15  ar  
 33  13  37  1   
 34  14  16  1   
 35  14  17  ar  
 36  15  17  ar  
 37  15  38  1   
 38  16  18  1   
 39  16  19  1   
 40  17  20  1   
 41  18  20  2   
 42  18  39  1   
 43  19  40  1   
 44  19  41  1   
 45  19  42  1   
 46  20  43  1   
@<TRIPOS>SUBSTRUCTURE
  1 ****   9 GROUP 4 **** **** 0

# MOE 2024.06 (io_trps.svl 2023.06)
