@<TRIPOS>MOLECULE
NONAME
32 33 1 0 0 
SMALL
USER_CHARGES


@<TRIPOS>ATOM
  1 O        0.3990     0.3080     0.5560 O.2   1 <1>  -0.5700 
  2 C        0.8670     1.2750     0.0100 C.2   1 <1>   0.7200 
  3 O        0.1740     2.3910    -0.1700 O.3   1 <1>  -0.4300 
  4 C        2.2920     1.2940    -0.5250 C.3   1 <1>  -0.1000 
  5 C       -1.1550     2.5070     0.2800 C.3   1 <1>   0.1200 
  6 C        3.4100     0.5630     0.1710 C.3   1 <1>  -0.1950 
  7 C        3.3730     2.0570     0.1930 C.3   1 <1>  -0.1950 
  8 C       -1.6560     3.9030    -0.0760 C.3   1 <1>  -0.2400 
  9 C        4.4360    -0.2490    -0.6320 C.3   1 <1>  -0.0650 
 10 C        4.3580     2.9420    -0.5840 C.3   1 <1>  -0.0650 
 11 C        5.8270    -0.1990     0.0190 C.3   1 <1>  -0.0220 
 12 C        5.7500     2.9410     0.0660 C.3   1 <1>  -0.0220 
 13 C        6.7510     0.7380    -0.7440 C.2   1 <1>  -0.2880 
 14 C        6.7190     2.0740    -0.7240 C.2   1 <1>  -0.2880 
 15 H        2.3010     1.3100    -1.5980 H     1 <1>   0.1000 
 16 H       -1.7460     1.7470    -0.2040 H     1 <1>   0.0800 
 17 H       -1.1690     2.3500     1.3460 H     1 <1>   0.0800 
 18 H        3.1640     0.0740     1.1000 H     1 <1>   0.1000 
 19 H        3.1120     2.4990     1.1410 H     1 <1>   0.1000 
 20 H       -1.6250     4.0470    -1.1410 H     1 <1>   0.0800 
 21 H       -1.0490     4.6480     0.4070 H     1 <1>   0.0800 
 22 H       -2.6710     4.0200     0.2570 H     1 <1>   0.0800 
 23 H        4.0980    -1.2700    -0.6730 H     1 <1>   0.0800 
 24 H        4.4950     0.1110    -1.6440 H     1 <1>   0.0800 
 25 H        4.4340     2.6150    -1.6070 H     1 <1>   0.0800 
 26 H        3.9710     3.9460    -0.5960 H     1 <1>   0.0800 
 27 H        6.2590    -1.1840     0.0180 H     1 <1>   0.0800 
 28 H        5.7490     0.1150     1.0450 H     1 <1>   0.0800 
 29 H        5.6900     2.5920     1.0820 H     1 <1>   0.0800 
 30 H        6.1340     3.9460     0.0950 H     1 <1>   0.0800 
 31 H        7.4640     0.2010    -1.3480 H     1 <1>   0.1500 
 32 H        7.4040     2.6620    -1.3110 H     1 <1>   0.1500 
@<TRIPOS>BOND
  1   1   2  2   
  2   2   3  1   
  3   2   4  1   
  4   3   5  1   
  5   4   6  1   
  6   4   7  1   
  7   4  15  1   
  8   5   8  1   
  9   5  16  1   
 10   5  17  1   
 11   6   7  1   
 12   6   9  1   
 13   6  18  1   
 14   7  10  1   
 15   7  19  1   
 16   8  20  1   
 17   8  21  1   
 18   8  22  1   
 19   9  11  1   
 20   9  23  1   
 21   9  24  1   
 22  10  12  1   
 23  10  25  1   
 24  10  26  1   
 25  11  13  1   
 26  11  27  1   
 27  11  28  1   
 28  12  14  1   
 29  12  29  1   
 30  12  30  1   
 31  13  14  2   
 32  13  31  1   
 33  14  32  1   
@<TRIPOS>SUBSTRUCTURE
  1 ****   7 GROUP 4 **** **** 0

# MOE 2024.06 (io_trps.svl 2023.06)
