@<TRIPOS>MOLECULE
NONAME
36 38 1 0 0 
SMALL
USER_CHARGES


@<TRIPOS>ATOM
  1 S        0.0200    -0.1170    -0.3760 S.3   1 <1>  -0.0800 
  2 C       -1.4620    -0.7710     0.3280 C.2   1 <1>  -0.0450 
  3 C       -0.6220     1.5100    -0.4070 C.2   1 <1>  -0.1100 
  4 C       -1.5240    -2.1880     0.5940 C.2   1 <1>   0.7150 
  5 C       -2.3400     0.2510     0.5080 C.2   1 <1>  -0.1500 
  6 C       -1.8700     1.5310     0.0910 C.2   1 <1>  -0.1500 
  7 O       -0.5380    -2.7860     0.9840 O.2   1 <1>  -0.5700 
  8 N       -2.6880    -2.9050     0.4110 N.am  1 <1>  -0.6600 
  9 C       -3.7850    -2.4880    -0.5020 C.3   1 <1>   0.1400 
 10 C       -2.7580    -4.3710     0.6510 C.3   1 <1>   0.1400 
 11 C       -4.7510    -3.6720    -0.5170 C.3   1 <1>   0.2000 
 12 C       -3.8430    -4.8850    -0.3020 C.3   1 <1>  -0.0800 
 13 O       -5.6120    -3.5380     0.5620 O.3   1 <1>  -0.6800 
 14 C       -4.5590    -6.1560     0.1930 C.3   1 <1>   0.0200 
 15 C       -3.6430    -7.3670     0.2620 C.2   1 <1>  -0.0400 
 16 O       -4.0970    -8.4650     0.8060 O.3   1 <1>  -0.0190 
 17 C       -2.3800    -7.6010    -0.1340 C.2   1 <1>  -0.1500 
 18 N       -3.2090    -9.4170     0.7990 N.2   1 <1>  -0.4100 
 19 C       -2.1640    -8.9250     0.2390 C.2   1 <1>   0.1080 
 20 C       -0.8770    -9.6890     0.0200 C.3   1 <1>  -0.0590 
 21 H        0.0110     2.2880    -0.7980 H     1 <1>   0.1500 
 22 H       -3.3200     0.1480     0.9390 H     1 <1>   0.1500 
 23 H       -2.4860     2.4090     0.1860 H     1 <1>   0.1500 
 24 H       -4.2770    -1.5920    -0.1670 H     1 <1>   0.0800 
 25 H       -3.3810    -2.3310    -1.4880 H     1 <1>   0.0800 
 26 H       -1.8100    -4.8440     0.4580 H     1 <1>   0.0800 
 27 H       -3.0330    -4.5440     1.6780 H     1 <1>   0.0800 
 28 H       -5.3390    -3.7280    -1.4180 H     1 <1>   0.0800 
 29 H       -3.3730    -5.1060    -1.2440 H     1 <1>   0.0800 
 30 H       -5.0890    -3.3470     1.3670 H     1 <1>   0.4000 
 31 H       -5.3760    -6.3870    -0.4680 H     1 <1>   0.0800 
 32 H       -4.9720    -5.9890     1.1720 H     1 <1>   0.0800 
 33 H       -1.6700    -6.9620    -0.6230 H     1 <1>   0.1500 
 34 H       -0.0690    -9.1940     0.5250 H     1 <1>   0.0800 
 35 H       -0.6600    -9.7440    -1.0310 H     1 <1>   0.0800 
 36 H       -0.9720   -10.6860     0.4090 H     1 <1>   0.0800 
@<TRIPOS>BOND
  1   1   2  1   
  2   1   3  1   
  3   2   4  1   
  4   2   5  2   
  5   3   6  2   
  6   3  21  1   
  7   4   7  2   
  8   4   8  am  
  9   5   6  1   
 10   5  22  1   
 11   6  23  1   
 12   8   9  1   
 13   8  10  1   
 14   9  11  1   
 15   9  24  1   
 16   9  25  1   
 17  10  12  1   
 18  10  26  1   
 19  10  27  1   
 20  11  12  1   
 21  11  13  1   
 22  11  28  1   
 23  12  14  1   
 24  12  29  1   
 25  13  30  1   
 26  14  15  1   
 27  14  31  1   
 28  14  32  1   
 29  15  16  1   
 30  15  17  2   
 31  16  18  1   
 32  17  19  1   
 33  17  33  1   
 34  18  19  2   
 35  19  20  1   
 36  20  34  1   
 37  20  35  1   
 38  20  36  1   
@<TRIPOS>SUBSTRUCTURE
  1 ****  10 GROUP 4 **** **** 0

# MOE 2024.06 (io_trps.svl 2023.06)
