@<TRIPOS>MOLECULE
NONAME
37 37 1 0 0 
SMALL
USER_CHARGES


@<TRIPOS>ATOM
  1 O       -0.5050     0.2650    -0.1920 O.2   1 <1>  -0.5700 
  2 C       -1.5850    -0.2660    -0.0290 C.2   1 <1>   0.7800 
  3 O       -1.7000    -1.5860     0.1350 O.3   1 <1>  -0.4300 
  4 N       -2.7440     0.4430    -0.0150 N.am  1 <1>  -0.5100 
  5 C       -0.6590    -2.5380     0.1550 C.3   1 <1>   0.2800 
  6 C       -4.0280    -0.0470    -0.5950 C.3   1 <1>   0.2250 
  7 C       -2.9360     1.7500    -0.7200 C.3   1 <1>   0.2250 
  8 C        0.0650    -2.5590    -1.1970 C.3   1 <1>  -0.2400 
  9 C       -1.3530    -3.8830     0.3760 C.3   1 <1>  -0.2400 
 10 C        0.2920    -2.2610     1.3250 C.3   1 <1>  -0.2400 
 11 C       -4.4490     1.4330    -0.7480 C.3   1 <1>   0.0530 
 12 C       -5.2110     2.0260     0.4340 C.2   1 <1>   0.4560 
 13 O       -4.9250     3.0940     0.8840 O.2   1 <1>  -0.5700 
 14 C       -6.3770     1.2640     1.0190 C.3   1 <1>  -0.0380 
 15 C       -7.3450     0.9270    -0.0780 C.2   1 <1>   0.6590 
 16 O       -7.2150    -0.0730    -0.7350 O.2   1 <1>  -0.5700 
 17 O       -8.3280     1.7920    -0.2850 O.3   1 <1>  -0.4300 
 18 C       -9.2970     1.5920    -1.2930 C.3   1 <1>   0.0400 
 19 H       -4.5950    -0.6210     0.1140 H     1 <1>   0.0000 
 20 H       -3.8660    -0.5500    -1.5330 H     1 <1>   0.0000 
 21 H       -2.4740     1.7410    -1.6930 H     1 <1>   0.0000 
 22 H       -2.6520     2.5860    -0.1070 H     1 <1>   0.0000 
 23 H       -0.6410    -2.6830    -1.9980 H     1 <1>   0.0800 
 24 H        0.7600    -3.3780    -1.2260 H     1 <1>   0.0800 
 25 H        0.6230    -1.6550    -1.3530 H     1 <1>   0.0800 
 26 H       -2.0430    -4.0830    -0.4230 H     1 <1>   0.0800 
 27 H       -1.8880    -3.8770     1.3090 H     1 <1>   0.0800 
 28 H       -0.6290    -4.6770     0.4060 H     1 <1>   0.0800 
 29 H        0.8490    -1.3560     1.1670 H     1 <1>   0.0800 
 30 H        0.9990    -3.0640     1.4210 H     1 <1>   0.0800 
 31 H       -0.2600    -2.1810     2.2440 H     1 <1>   0.0800 
 32 H       -4.9110     1.6480    -1.6960 H     1 <1>   0.0000 
 33 H       -6.8710     1.8680     1.7560 H     1 <1>   0.0800 
 34 H       -6.0350     0.3660     1.4950 H     1 <1>   0.0800 
 35 H       -9.9870     2.4160    -1.2720 H     1 <1>   0.0800 
 36 H       -9.8170     0.6690    -1.1000 H     1 <1>   0.0800 
 37 H       -8.8030     1.5460    -2.2480 H     1 <1>   0.0800 
@<TRIPOS>BOND
  1   1   2  2   
  2   2   3  1   
  3   2   4  am  
  4   3   5  1   
  5   4   6  1   
  6   4   7  1   
  7   5   8  1   
  8   5   9  1   
  9   5  10  1   
 10   6  11  1   
 11   6  19  1   
 12   6  20  1   
 13   7  11  1   
 14   7  21  1   
 15   7  22  1   
 16   8  23  1   
 17   8  24  1   
 18   8  25  1   
 19   9  26  1   
 20   9  27  1   
 21   9  28  1   
 22  10  29  1   
 23  10  30  1   
 24  10  31  1   
 25  11  12  1   
 26  11  32  1   
 27  12  13  2   
 28  12  14  1   
 29  14  15  1   
 30  14  33  1   
 31  14  34  1   
 32  15  16  2   
 33  15  17  1   
 34  17  18  1   
 35  18  35  1   
 36  18  36  1   
 37  18  37  1   
@<TRIPOS>SUBSTRUCTURE
  1 ****   6 GROUP 4 **** **** 0

# MOE 2024.06 (io_trps.svl 2023.06)
