@<TRIPOS>MOLECULE
NONAME
48 50 1 0 0 
SMALL
USER_CHARGES


@<TRIPOS>ATOM
  1 CL       1.3840     1.5940     1.1330 Cl    1 <1>  -0.1770 
  2 C        2.1290     0.2070     0.3720 C.ar  1 <1>   0.1770 
  3 C        2.9650     0.3650    -0.7270 C.ar  1 <1>  -0.1440 
  4 C        1.8630    -1.0420     0.9030 C.ar  1 <1>  -0.1500 
  5 C        3.5360    -0.7680    -1.2890 C.ar  1 <1>  -0.1500 
  6 C        3.2680     1.7360    -1.3210 C.3   1 <1>  -0.0160 
  7 C        2.4400    -2.1630     0.3330 C.ar  1 <1>  -0.1500 
  8 C        3.2750    -2.0230    -0.7630 C.ar  1 <1>  -0.1500 
  9 C        4.3570     2.4480    -0.5020 C.3   1 <1>  -0.0990 
 10 C        4.7020     3.8330    -1.0290 C.2   1 <1>   0.5690 
 11 O        4.4620     4.0880    -2.1840 O.2   1 <1>  -0.5700 
 12 N        5.3130     4.7620    -0.2230 N.am  1 <1>  -0.6600 
 13 C        6.0030     4.4730     1.0730 C.3   1 <1>   0.1400 
 14 C        5.3610     6.1890    -0.6440 C.3   1 <1>   0.1400 
 15 C        7.5390     4.4020     0.9200 C.3   1 <1>   0.3430 
 16 C        6.5670     6.4500    -1.5510 C.3   1 <1>  -0.1600 
 17 N        8.1280     5.5520     0.1560 N.4   1 <1>  -0.9590 
 18 C        7.7750     5.5510    -1.2910 C.3   1 <1>   0.3430 
 19 C        9.5850     5.7380     0.3740 C.3   1 <1>   0.5230 
 20 C        9.8070     7.2340     0.5660 C.2   1 <1>   0.0060 
 21 N        8.8370     8.0710     0.7860 N.2   1 <1>  -0.5650 
 22 N       11.0270     7.8220     0.5300 N.pl3 1 <1>   0.0330 
 23 C        9.4560     9.2620     0.8980 C.2   1 <1>   0.0770 
 24 C       10.7900     9.1270     0.7440 C.2   1 <1>  -0.3020 
 25 H        1.2110    -1.1320     1.7530 H     1 <1>   0.1500 
 26 H        4.1850    -0.6820    -2.1440 H     1 <1>   0.1500 
 27 H        2.3740     2.3350    -1.3400 H     1 <1>   0.0800 
 28 H        3.5950     1.6250    -2.3400 H     1 <1>   0.0800 
 29 H        2.2400    -3.1400     0.7390 H     1 <1>   0.1500 
 30 H        3.7230    -2.8950    -1.2090 H     1 <1>   0.1500 
 31 H        5.2460     1.8470    -0.5030 H     1 <1>   0.0800 
 32 H        4.0030     2.5380     0.5070 H     1 <1>   0.0800 
 33 H        5.6590     3.5430     1.4890 H     1 <1>   0.0800 
 34 H        5.7510     5.2400     1.7860 H     1 <1>   0.0800 
 35 H        5.4120     6.8220     0.2260 H     1 <1>   0.0800 
 36 H        4.4540     6.4430    -1.1700 H     1 <1>   0.0800 
 37 H        7.7920     3.4790     0.4260 H     1 <1>   0.0800 
 38 H        7.9680     4.3700     1.9080 H     1 <1>   0.0800 
 39 H        6.8550     7.4830    -1.4740 H     1 <1>   0.0800 
 40 H        6.2560     6.2920    -2.5690 H     1 <1>   0.0800 
 41 H        7.7570     6.4460     0.5340 H     1 <1>   0.4500 
 42 H        8.6020     5.9130    -1.8800 H     1 <1>   0.0800 
 43 H        7.5450     4.5470    -1.6120 H     1 <1>   0.0800 
 44 H       10.1480     5.3710    -0.4680 H     1 <1>   0.0800 
 45 H        9.9010     5.2220     1.2650 H     1 <1>   0.0800 
 46 H       11.9490     7.3960     0.3790 H     1 <1>   0.2700 
 47 H        8.9040    10.1710     1.0880 H     1 <1>   0.1500 
 48 H       11.5620     9.8770     0.7770 H     1 <1>   0.1500 
@<TRIPOS>BOND
  1   1   2  1   
  2   2   3  ar  
  3   2   4  ar  
  4   3   5  ar  
  5   3   6  1   
  6   4   7  ar  
  7   4  25  1   
  8   5   8  ar  
  9   5  26  1   
 10   6   9  1   
 11   6  27  1   
 12   6  28  1   
 13   7   8  ar  
 14   7  29  1   
 15   8  30  1   
 16   9  10  1   
 17   9  31  1   
 18   9  32  1   
 19  10  11  2   
 20  10  12  am  
 21  12  13  1   
 22  12  14  1   
 23  13  15  1   
 24  13  33  1   
 25  13  34  1   
 26  14  16  1   
 27  14  35  1   
 28  14  36  1   
 29  15  17  1   
 30  15  37  1   
 31  15  38  1   
 32  16  18  1   
 33  16  39  1   
 34  16  40  1   
 35  17  18  1   
 36  17  19  1   
 37  17  41  1   
 38  18  42  1   
 39  18  43  1   
 40  19  20  1   
 41  19  44  1   
 42  19  45  1   
 43  20  21  2   
 44  20  22  1   
 45  21  23  1   
 46  22  24  1   
 47  22  46  1   
 48  23  24  2   
 49  23  47  1   
 50  24  48  1   
@<TRIPOS>SUBSTRUCTURE
  1 ****  12 GROUP 4 **** **** 0

# MOE 2024.06 (io_trps.svl 2023.06)
