@<TRIPOS>MOLECULE
NONAME
46 49 1 0 0 
SMALL
USER_CHARGES


@<TRIPOS>ATOM
  1 S        0.1990     0.2910    -1.5310 S.3   1 <1>  -0.0800 
  2 C       -1.2390     0.8750    -0.7000 C.2   1 <1>   0.4620 
  3 C        1.0280     1.7520    -1.0930 C.2   1 <1>  -0.1100 
  4 N       -1.0780     2.0380    -0.1800 N.2   1 <1>  -0.5650 
  5 N       -2.3890     0.1150    -0.6740 N.pl3 1 <1>  -0.8220 
  6 C        0.2000     2.5490    -0.3860 C.2   1 <1>   0.1730 
  7 C       -2.5070    -1.2500    -1.2960 C.3   1 <1>   0.2090 
  8 C       -3.6630     0.7750    -0.2650 C.3   1 <1>   0.2090 
  9 C        0.5320     3.8560     0.1570 C.ar  1 <1>   0.0540 
 10 C       -3.3120    -2.2590    -0.4380 C.3   1 <1>  -0.1060 
 11 C       -4.8020    -0.2280    -0.0650 C.3   1 <1>  -0.1600 
 12 C       -0.4580     4.8130     0.3970 C.ar  1 <1>  -0.1500 
 13 C        1.8560     4.1980     0.4520 C.ar  1 <1>  -0.1500 
 14 C       -4.0910    -3.0940    -1.4660 C.2   1 <1>   0.9060 
 15 C       -4.2330    -1.4970     0.5570 C.3   1 <1>   0.2000 
 16 C       -2.3840    -3.2340     0.3400 C.3   1 <1>  -0.0650 
 17 C       -0.1490     6.0630     0.9050 C.ar  1 <1>  -0.1500 
 18 C        2.1840     5.4430     0.9610 C.ar  1 <1>  -0.1500 
 19 O       -3.4670    -3.5850    -2.4140 O.co2 1 <1>  -0.9000 
 20 O       -5.3140    -3.2710    -1.3560 O.co2 1 <1>  -0.9000 
 21 O       -5.2800    -2.2840     0.9890 O.3   1 <1>  -0.6800 
 22 C       -1.3230    -2.5860     1.2480 C.3   1 <1>  -0.1950 
 23 C        1.1720     6.3560     1.1780 C.ar  1 <1>   0.1900 
 24 C        0.0690    -2.3360     0.7620 C.3   1 <1>  -0.2000 
 25 C       -0.1940    -3.4150     1.7700 C.3   1 <1>  -0.2000 
 26 F        1.4740     7.5330     1.6560 F     1 <1>  -0.1900 
 27 H        2.0450     1.8640    -1.4140 H     1 <1>   0.1500 
 28 H       -3.0010    -1.1150    -2.2450 H     1 <1>   0.0800 
 29 H       -1.5440    -1.6720    -1.5150 H     1 <1>   0.0800 
 30 H       -3.4910     1.2910     0.6650 H     1 <1>   0.0800 
 31 H       -3.9430     1.5050    -1.0050 H     1 <1>   0.0800 
 32 H       -5.2610    -0.4540    -1.0110 H     1 <1>   0.0800 
 33 H       -5.5420     0.2040     0.5810 H     1 <1>   0.0800 
 34 H       -1.4840     4.5700     0.1800 H     1 <1>   0.1500 
 35 H        2.6390     3.4800     0.2890 H     1 <1>   0.1500 
 36 H       -3.6850    -1.2110     1.4350 H     1 <1>   0.0800 
 37 H       -3.0050    -3.8730     0.9450 H     1 <1>   0.0800 
 38 H       -1.8830    -3.8740    -0.3660 H     1 <1>   0.0800 
 39 H       -0.9140     6.7960     1.0880 H     1 <1>   0.1500 
 40 H        3.2020     5.7050     1.1870 H     1 <1>   0.1500 
 41 H       -5.5860    -2.7820     0.1680 H     1 <1>   0.4000 
 42 H       -1.7350    -1.8710     1.9370 H     1 <1>   0.1000 
 43 H        0.3260    -2.6180    -0.2440 H     1 <1>   0.1000 
 44 H        0.5520    -1.4260     1.0730 H     1 <1>   0.1000 
 45 H        0.1250    -3.2660     2.7870 H     1 <1>   0.1000 
 46 H       -0.1160    -4.4420     1.4580 H     1 <1>   0.1000 
@<TRIPOS>BOND
  1   1   2  1   
  2   1   3  1   
  3   2   4  2   
  4   2   5  1   
  5   3   6  2   
  6   3  27  1   
  7   4   6  1   
  8   5   7  1   
  9   5   8  1   
 10   6   9  1   
 11   7  10  1   
 12   7  28  1   
 13   7  29  1   
 14   8  11  1   
 15   8  30  1   
 16   8  31  1   
 17   9  12  ar  
 18   9  13  ar  
 19  10  14  1   
 20  10  15  1   
 21  10  16  1   
 22  11  15  1   
 23  11  32  1   
 24  11  33  1   
 25  12  17  ar  
 26  12  34  1   
 27  13  18  ar  
 28  13  35  1   
 29  14  19  ar  
 30  14  20  ar  
 31  15  21  1   
 32  15  36  1   
 33  16  22  1   
 34  16  37  1   
 35  16  38  1   
 36  17  23  ar  
 37  17  39  1   
 38  18  23  ar  
 39  18  40  1   
 40  21  41  1   
 41  22  24  1   
 42  22  25  1   
 43  22  42  1   
 44  23  26  1   
 45  24  25  1   
 46  24  43  1   
 47  24  44  1   
 48  25  45  1   
 49  25  46  1   
@<TRIPOS>SUBSTRUCTURE
  1 ****   2 GROUP 4 **** **** 0

# MOE 2024.06 (io_trps.svl 2023.06)
