@<TRIPOS>MOLECULE
NONAME
48 50 1 0 0 
SMALL
USER_CHARGES


@<TRIPOS>ATOM
  1 O        0.9290    -1.0330     2.0280 O.2   1 <1>  -0.5700 
  2 C        1.2930    -0.3950     1.0560 C.2   1 <1>   0.5440 
  3 N        1.6370     0.9190     1.2410 N.am  1 <1>  -0.7300 
  4 C        1.3790    -1.0020    -0.2570 C.ar  1 <1>   0.0860 
  5 C        1.5570     1.6620     2.5270 C.3   1 <1>   0.0600 
  6 C        1.6560    -2.3770    -0.4280 C.ar  1 <1>   0.4100 
  7 C        1.1990    -0.2450    -1.4090 C.ar  1 <1>  -0.1500 
  8 N        1.7710    -2.9820    -1.6090 N.ar  1 <1>  -0.6200 
  9 N        1.7950    -3.2170     0.6510 N.pl3 1 <1>  -0.8690 
 10 C        1.3170    -0.8680    -2.6300 C.ar  1 <1>  -0.1500 
 11 C        1.6040    -2.2200    -2.6740 C.ar  1 <1>   0.1600 
 12 C        3.0100    -4.0430     0.9310 C.3   1 <1>   0.2890 
 13 C        3.1950    -5.1130    -0.1680 C.3   1 <1>   0.3430 
 14 C        2.7600    -4.7660     2.2680 C.3   1 <1>  -0.1600 
 15 N        1.8510    -5.7290    -0.3740 N.4   1 <1>  -0.9590 
 16 C        2.1290    -6.1720     2.0980 C.3   1 <1>  -0.1600 
 17 C        1.2420    -6.3470     0.8500 C.3   1 <1>   0.3430 
 18 C        1.7010    -6.4900    -1.6330 C.3   1 <1>   0.4860 
 19 C        0.2350    -6.7970    -1.8530 C.ar  1 <1>  -0.1430 
 20 C       -0.2080    -8.1120    -1.8290 C.ar  1 <1>   0.1600 
 21 C       -0.6820    -5.7870    -2.0710 C.ar  1 <1>  -0.1500 
 22 N       -1.4640    -8.4850    -1.9860 N.ar  1 <1>  -0.6200 
 23 C       -1.9970    -6.1640    -2.2430 C.ar  1 <1>  -0.1500 
 24 C       -2.3310    -7.5060    -2.1920 C.ar  1 <1>   0.1600 
 25 H        2.0330     1.4460     0.4610 H     1 <1>   0.3700 
 26 H        1.0870     1.0600     3.2870 H     1 <1>   0.0800 
 27 H        0.9780     2.5590     2.3940 H     1 <1>   0.0800 
 28 H        2.5470     1.9250     2.8580 H     1 <1>   0.0800 
 29 H        0.9630     0.8040    -1.3560 H     1 <1>   0.1500 
 30 H        1.4620    -2.7490     1.5180 H     1 <1>   0.4000 
 31 H        1.1860    -0.3140    -3.5440 H     1 <1>   0.1500 
 32 H        1.6950    -2.6890    -3.6400 H     1 <1>   0.1500 
 33 H        3.8760    -3.4060     1.0020 H     1 <1>   0.0800 
 34 H        3.9200    -5.8490     0.1340 H     1 <1>   0.0800 
 35 H        3.5320    -4.6340    -1.0720 H     1 <1>   0.0800 
 36 H        2.1400    -4.1550     2.9020 H     1 <1>   0.0800 
 37 H        3.7010    -4.8820     2.7780 H     1 <1>   0.0800 
 38 H        1.3000    -4.8520    -0.5090 H     1 <1>   0.4500 
 39 H        1.5530    -6.4140     2.9740 H     1 <1>   0.0800 
 40 H        2.9170    -6.9030     2.0420 H     1 <1>   0.0800 
 41 H        1.0640    -7.3980     0.6860 H     1 <1>   0.0800 
 42 H        0.2880    -5.8790     1.0310 H     1 <1>   0.0800 
 43 H        2.2690    -7.4040    -1.5820 H     1 <1>   0.0800 
 44 H        2.0670    -5.9020    -2.4590 H     1 <1>   0.0800 
 45 H        0.5010    -8.9070    -1.6700 H     1 <1>   0.1500 
 46 H       -0.4010    -4.7470    -2.1070 H     1 <1>   0.1500 
 47 H       -2.7610    -5.4270    -2.4170 H     1 <1>   0.1500 
 48 H       -3.3620    -7.7890    -2.3280 H     1 <1>   0.1500 
@<TRIPOS>BOND
  1   1   2  2   
  2   2   3  am  
  3   2   4  1   
  4   3   5  1   
  5   3  25  1   
  6   4   6  ar  
  7   4   7  ar  
  8   5  26  1   
  9   5  27  1   
 10   5  28  1   
 11   6   8  ar  
 12   6   9  1   
 13   7  10  ar  
 14   7  29  1   
 15   8  11  ar  
 16   9  12  1   
 17   9  30  1   
 18  10  11  ar  
 19  10  31  1   
 20  11  32  1   
 21  12  13  1   
 22  12  14  1   
 23  12  33  1   
 24  13  15  1   
 25  13  34  1   
 26  13  35  1   
 27  14  16  1   
 28  14  36  1   
 29  14  37  1   
 30  15  17  1   
 31  15  18  1   
 32  15  38  1   
 33  16  17  1   
 34  16  39  1   
 35  16  40  1   
 36  17  41  1   
 37  17  42  1   
 38  18  19  1   
 39  18  43  1   
 40  18  44  1   
 41  19  20  ar  
 42  19  21  ar  
 43  20  22  ar  
 44  20  45  1   
 45  21  23  ar  
 46  21  46  1   
 47  22  24  ar  
 48  23  24  ar  
 49  23  47  1   
 50  24  48  1   
@<TRIPOS>SUBSTRUCTURE
  1 ****   9 GROUP 4 **** **** 0

# MOE 2024.06 (io_trps.svl 2023.06)
