@<TRIPOS>MOLECULE
NONAME
43 45 1 0 0 
SMALL
USER_CHARGES


@<TRIPOS>ATOM
  1 N       -0.5690     2.3310     0.6950 N.2   1 <1>  -0.6210 
  2 C       -1.5520     1.7580     1.3210 C.2   1 <1>   0.9190 
  3 C       -0.1810     1.8280    -0.4880 C.2   1 <1>   0.2710 
  4 N       -2.2010     0.6720     0.8480 N.pl3 1 <1>  -0.6690 
  5 N       -1.9370     2.2680     2.4890 N.pl3 1 <1>  -0.8500 
  6 N        0.8510     2.4780    -1.1130 N.pl3 1 <1>  -0.8380 
  7 C       -0.8020     0.7270    -1.0340 C.2   1 <1>  -0.1410 
  8 C       -1.8330     0.1610    -0.3240 C.cat 1 <1>   0.7910 
  9 C       -3.2410    -0.1130     1.2850 C.2   1 <1>   0.5030 
 10 C        0.9900     3.9660    -0.9960 C.3   1 <1>   0.2090 
 11 C        1.8240     1.7940    -2.0090 C.3   1 <1>   0.2090 
 12 N       -2.6400    -0.8870    -0.5520 N.pl3 1 <1>  -0.3930 
 13 N       -3.5250    -1.0540     0.4670 N.2   1 <1>  -0.2600 
 14 C        1.8950     4.3590     0.1890 C.3   1 <1>   0.3430 
 15 C        3.2610     2.2380    -1.7210 C.3   1 <1>  -0.1600 
 16 N        3.3600     3.9890     0.0500 N.4   1 <1>  -0.9590 
 17 C        3.5210     2.5270    -0.2410 C.3   1 <1>   0.3430 
 18 C        4.1690     4.4020     1.2360 C.3   1 <1>   0.4230 
 19 C        3.8840     5.8590     1.6150 C.3   1 <1>  -0.2400 
 20 C        5.6580     4.2730     0.9060 C.3   1 <1>  -0.2400 
 21 H       -1.4620     3.0990     2.8400 H     1 <1>   0.4000 
 22 H       -2.7050     1.9320     3.0620 H     1 <1>   0.4000 
 23 H       -0.5120     0.3270    -1.9840 H     1 <1>   0.1500 
 24 H       -3.7490     0.0620     2.2210 H     1 <1>   0.1500 
 25 H        0.0150     4.3940    -0.8350 H     1 <1>   0.0800 
 26 H        1.3700     4.3830    -1.9130 H     1 <1>   0.0800 
 27 H        1.5750     1.9950    -3.0390 H     1 <1>   0.0800 
 28 H        1.7610     0.7300    -1.8530 H     1 <1>   0.0800 
 29 H       -2.6210    -1.4980    -1.3780 H     1 <1>   0.4500 
 30 H        1.4920     3.8990     1.0760 H     1 <1>   0.0800 
 31 H        1.8130     5.4250     0.3120 H     1 <1>   0.0800 
 32 H        3.5190     3.0850    -2.3300 H     1 <1>   0.0800 
 33 H        3.9070     1.4340    -2.0280 H     1 <1>   0.0800 
 34 H        3.7430     4.5060    -0.7480 H     1 <1>   0.4500 
 35 H        4.5260     2.2150    -0.0180 H     1 <1>   0.0800 
 36 H        2.8520     1.9460     0.3750 H     1 <1>   0.0800 
 37 H        3.9330     3.7700     2.0790 H     1 <1>   0.0800 
 38 H        4.0080     6.5130     0.7700 H     1 <1>   0.0800 
 39 H        4.5720     6.1750     2.3790 H     1 <1>   0.0800 
 40 H        2.8990     5.9750     2.0290 H     1 <1>   0.0800 
 41 H        5.9100     4.8330     0.0230 H     1 <1>   0.0800 
 42 H        5.9590     3.2500     0.7820 H     1 <1>   0.0800 
 43 H        6.2430     4.6640     1.7210 H     1 <1>   0.0800 
@<TRIPOS>BOND
  1   1   2  2   
  2   1   3  1   
  3   2   4  1   
  4   2   5  1   
  5   3   6  1   
  6   3   7  2   
  7   4   8  ar  
  8   4   9  1   
  9   5  21  1   
 10   5  22  1   
 11   6  10  1   
 12   6  11  1   
 13   7   8  1   
 14   7  23  1   
 15   8  12  ar  
 16   9  13  2   
 17   9  24  1   
 18  10  14  1   
 19  10  25  1   
 20  10  26  1   
 21  11  15  1   
 22  11  27  1   
 23  11  28  1   
 24  12  13  1   
 25  12  29  1   
 26  14  16  1   
 27  14  30  1   
 28  14  31  1   
 29  15  17  1   
 30  15  32  1   
 31  15  33  1   
 32  16  17  1   
 33  16  18  1   
 34  16  34  1   
 35  17  35  1   
 36  17  36  1   
 37  18  19  1   
 38  18  20  1   
 39  18  37  1   
 40  19  38  1   
 41  19  39  1   
 42  19  40  1   
 43  20  41  1   
 44  20  42  1   
 45  20  43  1   
@<TRIPOS>SUBSTRUCTURE
  1 ****   3 GROUP 4 **** **** 0

# MOE 2024.06 (io_trps.svl 2023.06)
