@<TRIPOS>MOLECULE
NONAME
55 58 1 0 0 
SMALL
USER_CHARGES


@<TRIPOS>ATOM
  1 O        0.1320    -0.1530     1.5660 O.2   1 <1>  -0.5700 
  2 C       -0.8980     0.1360     0.9890 C.2   1 <1>   0.7160 
  3 N       -1.8940    -0.7840     0.9730 N.am  1 <1>  -0.7300 
  4 C       -1.0880     1.4080     0.3570 C.2   1 <1>  -0.0860 
  5 C       -1.9760    -1.9530     1.8450 C.3   1 <1>   0.3200 
  6 C       -2.3120     1.9300    -0.0850 C.2   1 <1>   0.3720 
  7 C       -0.2030     2.4000     0.0560 C.2   1 <1>   0.0870 
  8 C       -3.4440    -2.1840     2.1280 C.2   1 <1>  -0.3320 
  9 N       -2.1660     3.1070    -0.5820 N.2   1 <1>  -0.4100 
 10 N       -3.5590     1.2900     0.0020 N.pl3 1 <1>  -0.8210 
 11 O       -0.8930     3.3720    -0.4860 O.3   1 <1>  -0.0190 
 12 C        1.2220     2.5540     0.2060 C.ar  1 <1>   0.0530 
 13 N       -4.3460    -2.6550     1.2390 N.pl3 1 <1>   0.0480 
 14 C       -4.1150    -1.9710     3.2810 C.2   1 <1>   0.0770 
 15 C       -4.4230     1.4780    -1.2070 C.3   1 <1>   0.2090 
 16 C       -4.3220     1.6800     1.2310 C.3   1 <1>   0.2090 
 17 C        1.7670     3.7860     0.5720 C.ar  1 <1>  -0.1500 
 18 C        2.1110     1.5030    -0.0210 C.ar  1 <1>  -0.1500 
 19 C       -5.5100    -2.6930     1.9260 C.2   1 <1>   0.0360 
 20 C       -4.1430    -3.0610    -0.1650 C.3   1 <1>   0.0960 
 21 N       -5.4150    -2.2870     3.1490 N.2   1 <1>  -0.5650 
 22 C       -5.7690     0.7510    -1.0410 C.3   1 <1>   0.1200 
 23 C       -5.6880     0.9710     1.2960 C.3   1 <1>   0.1200 
 24 C        3.1310     3.9600     0.7110 C.ar  1 <1>  -0.1500 
 25 C        3.4760     1.6700     0.1180 C.ar  1 <1>  -0.1500 
 26 C       -3.7730    -4.5390    -0.2310 C.3   1 <1>   0.1200 
 27 O       -6.4220     1.1790     0.1200 O.3   1 <1>  -0.5600 
 28 C        3.9910     2.9010     0.4840 C.ar  1 <1>  -0.1500 
 29 O       -3.6110    -4.8740    -1.5700 O.3   1 <1>  -0.5600 
 30 C       -3.2760    -6.2080    -1.7830 C.3   1 <1>   0.0400 
 31 H       -2.7970    -0.4260     0.6340 H     1 <1>   0.3700 
 32 H       -1.4440    -1.7640     2.7640 H     1 <1>   0.0800 
 33 H       -1.5360    -2.8060     1.3590 H     1 <1>   0.0800 
 34 H       -3.7260    -1.6000     4.2150 H     1 <1>   0.1500 
 35 H       -3.9120     1.0960    -2.0740 H     1 <1>   0.0800 
 36 H       -4.6120     2.5260    -1.3670 H     1 <1>   0.0800 
 37 H       -4.4770     2.7460     1.2370 H     1 <1>   0.0800 
 38 H       -3.7500     1.4220     2.1060 H     1 <1>   0.0800 
 39 H        1.1080     4.6170     0.7500 H     1 <1>   0.1500 
 40 H        1.7290     0.5410    -0.3110 H     1 <1>   0.1500 
 41 H       -6.4270    -3.0330     1.4760 H     1 <1>   0.1500 
 42 H       -3.3590    -2.4680    -0.5980 H     1 <1>   0.0800 
 43 H       -5.0540    -2.8920    -0.7100 H     1 <1>   0.0800 
 44 H       -5.6190    -0.3120    -0.9800 H     1 <1>   0.0800 
 45 H       -6.4110     0.9650    -1.8760 H     1 <1>   0.0800 
 46 H       -6.2670     1.3540     2.1170 H     1 <1>   0.0800 
 47 H       -5.5560    -0.0840     1.4360 H     1 <1>   0.0800 
 48 H        3.5260     4.9200     0.9950 H     1 <1>   0.1500 
 49 H        4.1400     0.8410    -0.0590 H     1 <1>   0.1500 
 50 H       -4.5610    -5.1460     0.1830 H     1 <1>   0.0800 
 51 H       -2.8460    -4.7220     0.2850 H     1 <1>   0.0800 
 52 H        5.0530     3.0320     0.5930 H     1 <1>   0.1500 
 53 H       -3.1750    -6.3620    -2.8440 H     1 <1>   0.0800 
 54 H       -4.0600    -6.8380    -1.4000 H     1 <1>   0.0800 
 55 H       -2.3410    -6.4240    -1.2960 H     1 <1>   0.0800 
@<TRIPOS>BOND
  1   1   2  2   
  2   2   3  am  
  3   2   4  1   
  4   3   5  1   
  5   3  31  1   
  6   4   6  1   
  7   4   7  2   
  8   5   8  1   
  9   5  32  1   
 10   5  33  1   
 11   6   9  2   
 12   6  10  1   
 13   7  11  1   
 14   7  12  1   
 15   8  13  1   
 16   8  14  2   
 17   9  11  1   
 18  10  15  1   
 19  10  16  1   
 20  12  17  ar  
 21  12  18  ar  
 22  13  19  1   
 23  13  20  1   
 24  14  21  1   
 25  14  34  1   
 26  15  22  1   
 27  15  35  1   
 28  15  36  1   
 29  16  23  1   
 30  16  37  1   
 31  16  38  1   
 32  17  24  ar  
 33  17  39  1   
 34  18  25  ar  
 35  18  40  1   
 36  19  21  2   
 37  19  41  1   
 38  20  26  1   
 39  20  42  1   
 40  20  43  1   
 41  22  27  1   
 42  22  44  1   
 43  22  45  1   
 44  23  27  1   
 45  23  46  1   
 46  23  47  1   
 47  24  28  ar  
 48  24  48  1   
 49  25  28  ar  
 50  25  49  1   
 51  26  29  1   
 52  26  50  1   
 53  26  51  1   
 54  28  52  1   
 55  29  30  1   
 56  30  53  1   
 57  30  54  1   
 58  30  55  1   
@<TRIPOS>SUBSTRUCTURE
  1 ****   3 GROUP 4 **** **** 0

# MOE 2024.06 (io_trps.svl 2023.06)
