@<TRIPOS>MOLECULE
NONAME
47 49 1 0 0 
SMALL
USER_CHARGES


@<TRIPOS>ATOM
  1 O       -2.8390    -0.8200     0.8740 O.2   1 <1>  -0.5700 
  2 C       -3.0540     0.3800     0.8550 C.2   1 <1>   0.7160 
  3 N       -4.1200     0.8620     1.5900 N.am  1 <1>  -0.6600 
  4 C       -2.1740     1.2220     0.0770 C.2   1 <1>  -0.0860 
  5 C       -5.0790    -0.0820     2.2390 C.3   1 <1>   0.1400 
  6 C       -4.4500     2.2970     1.7850 C.3   1 <1>   0.1400 
  7 C       -0.8090     0.9650    -0.0830 C.2   1 <1>   0.1390 
  8 C       -2.3580     2.3510    -0.6680 C.2   1 <1>  -0.3020 
  9 C       -6.1590    -0.5430     1.2490 C.3   1 <1>   0.1400 
 10 C       -5.6400     2.7370     0.9180 C.3   1 <1>  -0.1600 
 11 N       -0.2050     1.8400    -0.8250 N.2   1 <1>  -0.7070 
 12 N       -1.1720     2.6970    -1.1900 N.pl3 1 <1>   0.3000 
 13 N       -6.7150     0.5630     0.3980 N.am  1 <1>  -0.6600 
 14 C       -6.9070     1.8820     1.0630 C.3   1 <1>   0.1400 
 15 C       -7.0210     0.4150    -0.9350 C.2   1 <1>   0.5690 
 16 O       -7.4240     1.3460    -1.5960 O.2   1 <1>  -0.5700 
 17 C       -6.8640    -0.9210    -1.6550 C.3   1 <1>   0.0440 
 18 C       -7.7500    -2.0220    -1.0770 C.ar  1 <1>  -0.1430 
 19 C       -7.2050    -3.2340    -0.6820 C.ar  1 <1>  -0.1500 
 20 C       -9.1140    -1.8160    -0.9370 C.ar  1 <1>  -0.1500 
 21 C       -8.0030    -4.2300    -0.1440 C.ar  1 <1>   0.0820 
 22 C       -9.9200    -2.8070    -0.4040 C.ar  1 <1>  -0.1500 
 23 O       -7.3800    -5.3780     0.2220 O.3   1 <1>  -0.3630 
 24 C       -9.3700    -4.0120    -0.0050 C.ar  1 <1>  -0.1500 
 25 C       -8.1040    -6.4710     0.7410 C.3   1 <1>   0.0400 
 26 H       -5.5430     0.3900     3.0860 H     1 <1>   0.0800 
 27 H       -4.5520    -0.9440     2.6110 H     1 <1>   0.0800 
 28 H       -3.5930     2.9090     1.5640 H     1 <1>   0.0800 
 29 H       -4.6880     2.4590     2.8220 H     1 <1>   0.0800 
 30 H       -0.3100     0.1210     0.3670 H     1 <1>   0.1500 
 31 H       -3.2580     2.9030    -0.8570 H     1 <1>   0.1500 
 32 H       -6.9640    -1.0110     1.7890 H     1 <1>   0.0800 
 33 H       -5.7090    -1.2950     0.6290 H     1 <1>   0.0800 
 34 H       -5.3570     2.7570    -0.1180 H     1 <1>   0.0800 
 35 H       -5.8880     3.7460     1.1910 H     1 <1>   0.0800 
 36 H       -0.9820     3.4990    -1.8040 H     1 <1>   0.2700 
 37 H       -7.7300     2.3950     0.5940 H     1 <1>   0.0800 
 38 H       -7.1630     1.7460     2.0990 H     1 <1>   0.0800 
 39 H       -5.8300    -1.2070    -1.6240 H     1 <1>   0.0800 
 40 H       -7.1240    -0.7860    -2.6890 H     1 <1>   0.0800 
 41 H       -6.1510    -3.4240    -0.7850 H     1 <1>   0.1500 
 42 H       -9.5530    -0.8810    -1.2430 H     1 <1>   0.1500 
 43 H      -10.9780    -2.6370    -0.3000 H     1 <1>   0.1500 
 44 H      -10.0170    -4.7630     0.4070 H     1 <1>   0.1500 
 45 H       -7.4100    -7.2670     0.9420 H     1 <1>   0.0800 
 46 H       -8.8250    -6.7910     0.0090 H     1 <1>   0.0800 
 47 H       -8.5870    -6.1690     1.6530 H     1 <1>   0.0800 
@<TRIPOS>BOND
  1   1   2  2   
  2   2   3  am  
  3   2   4  1   
  4   3   5  1   
  5   3   6  1   
  6   4   7  1   
  7   4   8  2   
  8   5   9  1   
  9   5  26  1   
 10   5  27  1   
 11   6  10  1   
 12   6  28  1   
 13   6  29  1   
 14   7  11  2   
 15   7  30  1   
 16   8  12  1   
 17   8  31  1   
 18   9  13  1   
 19   9  32  1   
 20   9  33  1   
 21  10  14  1   
 22  10  34  1   
 23  10  35  1   
 24  11  12  1   
 25  12  36  1   
 26  13  14  1   
 27  13  15  am  
 28  14  37  1   
 29  14  38  1   
 30  15  16  2   
 31  15  17  1   
 32  17  18  1   
 33  17  39  1   
 34  17  40  1   
 35  18  19  ar  
 36  18  20  ar  
 37  19  21  ar  
 38  19  41  1   
 39  20  22  ar  
 40  20  42  1   
 41  21  23  1   
 42  21  24  ar  
 43  22  24  ar  
 44  22  43  1   
 45  23  25  1   
 46  24  44  1   
 47  25  45  1   
 48  25  46  1   
 49  25  47  1   
@<TRIPOS>SUBSTRUCTURE
  1 ****   9 GROUP 4 **** **** 0

# MOE 2024.06 (io_trps.svl 2023.06)
