@<TRIPOS>MOLECULE
NONAME
49 51 1 0 0 
SMALL
USER_CHARGES


@<TRIPOS>ATOM
  1 O        0.3010     0.6390    -0.1390 O.2   1 <1>  -0.5700 
  2 C       -0.2990     1.6360     0.1870 C.2   1 <1>   0.5690 
  3 N       -1.6700     1.6720     0.1900 N.am  1 <1>  -0.6600 
  4 C        0.5050     2.8650     0.6040 C.3   1 <1>  -0.0990 
  5 C       -2.5110     2.8560     0.5540 C.3   1 <1>   0.1400 
  6 C       -2.4380     0.4360    -0.1640 C.3   1 <1>   0.1400 
  7 C        2.0350     2.6740     0.5530 C.3   1 <1>  -0.1600 
  8 C       -3.4650     3.2440    -0.6000 C.3   1 <1>   0.1440 
  9 C       -3.9200     0.7270    -0.4530 C.3   1 <1>  -0.1600 
 10 C        2.7750     3.9290     1.0130 C.3   1 <1>   0.1400 
 11 C       -4.5250     4.1620    -0.0160 C.ar  1 <1>   0.1660 
 12 C       -4.0740     1.9990    -1.3010 C.3   1 <1>  -0.1600 
 13 C       -2.7630     4.1730    -1.6270 C.3   1 <1>  -0.1600 
 14 N        4.2290     3.6880     0.9280 N.am  1 <1>  -0.7300 
 15 N       -5.5240     3.7840     0.7470 N.ar  1 <1>  -0.6200 
 16 C       -4.3100     5.4640    -0.3630 C.ar  1 <1>  -0.1440 
 17 C       -3.0820     5.6220    -1.2220 C.3   1 <1>  -0.0170 
 18 C        5.1980     4.4600     0.3860 C.2   1 <1>   0.5690 
 19 C       -6.3070     4.7760     1.1430 C.ar  1 <1>   0.7200 
 20 C       -5.1960     6.4070     0.1020 C.ar  1 <1>   0.1600 
 21 O        6.3450     4.1010     0.4190 O.2   1 <1>  -0.5700 
 22 C        4.8630     5.7800    -0.2650 C.3   1 <1>  -0.1790 
 23 N       -6.2140     6.0680     0.8610 N.ar  1 <1>  -0.6200 
 24 N       -7.3400     4.4260     1.9090 N.pl3 1 <1>  -0.9000 
 25 H        0.2210     3.1190     1.6080 H     1 <1>   0.0800 
 26 H        0.2370     3.6770    -0.0450 H     1 <1>   0.0800 
 27 H       -1.9130     3.7030     0.8300 H     1 <1>   0.0800 
 28 H       -3.0980     2.5910     1.4180 H     1 <1>   0.0800 
 29 H       -2.3540    -0.2760     0.6400 H     1 <1>   0.0800 
 30 H       -1.9900    -0.0040    -1.0400 H     1 <1>   0.0800 
 31 H        2.3260     2.4370    -0.4570 H     1 <1>   0.0800 
 32 H        2.3060     1.8460     1.1860 H     1 <1>   0.0800 
 33 H       -4.4550     0.8400     0.4740 H     1 <1>   0.0800 
 34 H       -4.3500    -0.1130    -0.9700 H     1 <1>   0.0800 
 35 H        2.5170     4.1550     2.0350 H     1 <1>   0.0800 
 36 H        2.4970     4.7650     0.3960 H     1 <1>   0.0800 
 37 H       -3.5680     1.8210    -2.2340 H     1 <1>   0.0800 
 38 H       -5.1130     2.1690    -1.5240 H     1 <1>   0.0800 
 39 H       -3.1860     4.0120    -2.6040 H     1 <1>   0.0800 
 40 H       -1.7050     3.9890    -1.6880 H     1 <1>   0.0800 
 41 H        4.5600     2.8100     1.3350 H     1 <1>   0.3700 
 42 H       -3.2720     6.2410    -2.0820 H     1 <1>   0.0800 
 43 H       -2.2810     6.0420    -0.6380 H     1 <1>   0.0800 
 44 H       -5.0700     7.4460    -0.1500 H     1 <1>   0.1500 
 45 H        4.3700     6.4200     0.4420 H     1 <1>   0.0800 
 46 H        4.2270     5.6140    -1.1130 H     1 <1>   0.0800 
 47 H        5.7660     6.2580    -0.5960 H     1 <1>   0.0800 
 48 H       -8.0950     5.1060     1.9510 H     1 <1>   0.4000 
 49 H       -7.6050     3.4470     1.8560 H     1 <1>   0.4000 
@<TRIPOS>BOND
  1   1   2  2   
  2   2   3  am  
  3   2   4  1   
  4   3   5  1   
  5   3   6  1   
  6   4   7  1   
  7   4  25  1   
  8   4  26  1   
  9   5   8  1   
 10   5  27  1   
 11   5  28  1   
 12   6   9  1   
 13   6  29  1   
 14   6  30  1   
 15   7  10  1   
 16   7  31  1   
 17   7  32  1   
 18   8  11  1   
 19   8  12  1   
 20   8  13  1   
 21   9  12  1   
 22   9  33  1   
 23   9  34  1   
 24  10  14  1   
 25  10  35  1   
 26  10  36  1   
 27  11  15  ar  
 28  11  16  ar  
 29  12  37  1   
 30  12  38  1   
 31  13  17  1   
 32  13  39  1   
 33  13  40  1   
 34  14  18  am  
 35  14  41  1   
 36  15  19  ar  
 37  16  17  1   
 38  16  20  ar  
 39  17  42  1   
 40  17  43  1   
 41  18  21  2   
 42  18  22  1   
 43  19  23  ar  
 44  19  24  1   
 45  20  23  ar  
 46  20  44  1   
 47  22  45  1   
 48  22  46  1   
 49  22  47  1   
 50  24  48  1   
 51  24  49  1   
@<TRIPOS>SUBSTRUCTURE
  1 ****   5 GROUP 4 **** **** 0

# MOE 2024.06 (io_trps.svl 2023.06)
