@<TRIPOS>MOLECULE
NONAME
44 46 1 0 0 
SMALL
USER_CHARGES


@<TRIPOS>ATOM
  1 O       -0.3720    -2.5990    -2.3040 O.3   1 <1>  -0.6800 
  2 C        0.8660    -2.5730    -1.6810 C.3   1 <1>   0.1200 
  3 C        0.7360    -2.0630    -0.2150 C.3   1 <1>   0.0000 
  4 C        2.1290    -1.9620     0.4580 C.3   1 <1>   0.4230 
  5 C        0.1230    -0.6370    -0.2010 C.3   1 <1>  -0.1600 
  6 C       -0.1680    -3.0100     0.6300 C.3   1 <1>  -0.1600 
  7 N        2.8410    -3.2990     0.6270 N.4   1 <1>  -0.9590 
  8 C        3.0060    -0.8680    -0.1860 C.3   1 <1>   0.1100 
  9 C        1.0320     0.4210    -0.8390 C.3   1 <1>   0.1100 
 10 C        0.6150    -4.0340     1.4740 C.3   1 <1>  -0.1600 
 11 C        1.9130    -4.4650     0.7940 C.3   1 <1>   0.3430 
 12 C        3.8810    -3.6070    -0.4080 C.3   1 <1>   0.2630 
 13 N        2.3370     0.4490    -0.1580 N.3   1 <1>  -0.8100 
 14 C        3.2050     1.4820    -0.7700 C.3   1 <1>   0.2900 
 15 C        4.5420     1.5790    -0.0500 C.2   1 <1>   0.0060 
 16 N        5.6490     1.0650    -0.4890 N.2   1 <1>  -0.5650 
 17 N        4.6730     2.2070     1.1380 N.pl3 1 <1>   0.0330 
 18 C        6.5520     1.3880     0.4580 C.2   1 <1>   0.0770 
 19 C        5.9730     2.0830     1.4610 C.2   1 <1>  -0.3020 
 20 H       -0.3050    -2.8680    -3.2430 H     1 <1>   0.4000 
 21 H        1.2570    -3.5730    -1.7130 H     1 <1>   0.0800 
 22 H        1.5040    -1.9350    -2.2660 H     1 <1>   0.0800 
 23 H        1.9290    -1.6020     1.4530 H     1 <1>   0.0800 
 24 H       -0.0690    -0.3270     0.8120 H     1 <1>   0.0800 
 25 H       -0.8250    -0.6350    -0.7100 H     1 <1>   0.0800 
 26 H       -0.7840    -2.4400     1.3050 H     1 <1>   0.0800 
 27 H       -0.8520    -3.5360    -0.0150 H     1 <1>   0.0800 
 28 H        3.3400    -3.2040     1.5230 H     1 <1>   0.4500 
 29 H        3.2500    -1.1170    -1.2040 H     1 <1>   0.0800 
 30 H        3.9200    -0.8100     0.3800 H     1 <1>   0.0800 
 31 H        0.5600     1.3860    -0.7430 H     1 <1>   0.0800 
 32 H        1.1600     0.2200    -1.8900 H     1 <1>   0.0800 
 33 H       -0.0050    -4.8990     1.6380 H     1 <1>   0.0800 
 34 H        0.8440    -3.6200     2.4410 H     1 <1>   0.0800 
 35 H        1.6690    -4.8800    -0.1700 H     1 <1>   0.0800 
 36 H        2.3920    -5.2350     1.3760 H     1 <1>   0.0800 
 37 H        3.4330    -3.6720    -1.3850 H     1 <1>   0.0800 
 38 H        4.3610    -4.5470    -0.1870 H     1 <1>   0.0800 
 39 H        4.6380    -2.8390    -0.4250 H     1 <1>   0.0800 
 40 H        3.3860     1.2450    -1.8050 H     1 <1>   0.0800 
 41 H        2.7150     2.4390    -0.7280 H     1 <1>   0.0800 
 42 H        3.9300     2.6660     1.6730 H     1 <1>   0.2700 
 43 H        7.5870     1.1030     0.3660 H     1 <1>   0.1500 
 44 H        6.4050     2.4860     2.3590 H     1 <1>   0.1500 
@<TRIPOS>BOND
  1   1   2  1   
  2   1  20  1   
  3   2   3  1   
  4   2  21  1   
  5   2  22  1   
  6   3   4  1   
  7   3   5  1   
  8   3   6  1   
  9   4   7  1   
 10   4   8  1   
 11   4  23  1   
 12   5   9  1   
 13   5  24  1   
 14   5  25  1   
 15   6  10  1   
 16   6  26  1   
 17   6  27  1   
 18   7  11  1   
 19   7  12  1   
 20   7  28  1   
 21   8  13  1   
 22   8  29  1   
 23   8  30  1   
 24   9  13  1   
 25   9  31  1   
 26   9  32  1   
 27  10  11  1   
 28  10  33  1   
 29  10  34  1   
 30  11  35  1   
 31  11  36  1   
 32  12  37  1   
 33  12  38  1   
 34  12  39  1   
 35  13  14  1   
 36  14  15  1   
 37  14  40  1   
 38  14  41  1   
 39  15  16  2   
 40  15  17  1   
 41  16  18  1   
 42  17  19  1   
 43  17  42  1   
 44  18  19  2   
 45  18  43  1   
 46  19  44  1   
@<TRIPOS>SUBSTRUCTURE
  1 ****   8 GROUP 4 **** **** 0

# MOE 2024.06 (io_trps.svl 2023.06)
