@<TRIPOS>MOLECULE
NONAME
45 47 1 0 0 
SMALL
USER_CHARGES


@<TRIPOS>ATOM
  1 F       -2.1650     2.2840     1.2560 F     1 <1>  -0.3400 
  2 C       -1.6860     1.1700     0.7170 C.3   1 <1>   1.3000 
  3 F       -2.7130     0.3810     0.4390 F     1 <1>  -0.3400 
  4 F       -0.9380     0.5550     1.6260 F     1 <1>  -0.3400 
  5 O       -0.9500     1.4370    -0.4590 O.3   1 <1>  -0.3630 
  6 C        0.1310     2.2380    -0.3480 C.ar  1 <1>   0.0830 
  7 C       -0.0050     3.6060    -0.5070 C.ar  1 <1>  -0.1500 
  8 C        1.3740     1.6830    -0.0960 C.ar  1 <1>  -0.1500 
  9 C        1.0910     4.4610    -0.4000 C.ar  1 <1>   0.0860 
 10 C        2.4780     2.5080     0.0050 C.ar  1 <1>  -0.1500 
 11 C        0.9240     5.8960    -0.5510 C.2   1 <1>   0.5440 
 12 C        2.3370     3.8770    -0.1460 C.ar  1 <1>  -0.1500 
 13 O        0.0430     6.3320    -1.2680 O.2   1 <1>  -0.5700 
 14 N        1.7640     6.7470     0.1150 N.am  1 <1>  -0.4930 
 15 C        1.9350     8.1500     0.0140 C.2   1 <1>   0.0630 
 16 C        3.1960     8.7560     0.0400 C.2   1 <1>   0.3720 
 17 C        1.0590     9.1730    -0.0990 C.2   1 <1>  -0.3320 
 18 N        3.1310    10.0450    -0.0740 N.2   1 <1>  -0.7070 
 19 N        4.4080     8.0450     0.1630 N.pl3 1 <1>  -0.8210 
 20 N        1.8070    10.3030    -0.1690 N.pl3 1 <1>   0.3140 
 21 C       -0.4620     9.1550    -0.1340 C.3   1 <1>  -0.0600 
 22 C        5.3110     8.6250     1.1980 C.3   1 <1>   0.2090 
 23 C        5.1440     8.0240    -1.1300 C.3   1 <1>   0.2090 
 24 C        1.3200    11.6780    -0.3250 C.3   1 <1>   0.0160 
 25 C        6.5450     9.1270     0.4610 C.3   1 <1>  -0.1600 
 26 C        6.6070     8.2630    -0.7860 C.3   1 <1>  -0.1600 
 27 H       -0.9750     4.0230    -0.7200 H     1 <1>   0.1500 
 28 H        1.4780     0.6170     0.0160 H     1 <1>   0.1500 
 29 H        3.4490     2.0840     0.1990 H     1 <1>   0.1500 
 30 H        3.2140     4.4970    -0.0760 H     1 <1>   0.1500 
 31 H        2.5800     6.3250     0.5570 H     1 <1>   0.3700 
 32 H       -0.8320     8.2060     0.2070 H     1 <1>   0.0800 
 33 H       -0.8080     9.3140    -1.1400 H     1 <1>   0.0800 
 34 H       -0.8660     9.9170     0.5070 H     1 <1>   0.0800 
 35 H        5.5850     7.8440     1.8860 H     1 <1>   0.0800 
 36 H        4.8370     9.4200     1.7490 H     1 <1>   0.0800 
 37 H        4.7890     8.8130    -1.7730 H     1 <1>   0.0800 
 38 H        5.0070     7.0790    -1.6250 H     1 <1>   0.0800 
 39 H        0.6440    11.7210    -1.1570 H     1 <1>   0.0800 
 40 H        2.1560    12.3290    -0.5050 H     1 <1>   0.0800 
 41 H        0.8180    11.9770     0.5750 H     1 <1>   0.0800 
 42 H        7.4320     9.0540     1.0650 H     1 <1>   0.0800 
 43 H        6.3840    10.1560     0.1870 H     1 <1>   0.0800 
 44 H        7.1330     8.7410    -1.5930 H     1 <1>   0.0800 
 45 H        7.0750     7.3200    -0.5620 H     1 <1>   0.0800 
@<TRIPOS>BOND
  1   1   2  1   
  2   2   3  1   
  3   2   4  1   
  4   2   5  1   
  5   5   6  1   
  6   6   7  ar  
  7   6   8  ar  
  8   7   9  ar  
  9   7  27  1   
 10   8  10  ar  
 11   8  28  1   
 12   9  11  1   
 13   9  12  ar  
 14  10  12  ar  
 15  10  29  1   
 16  11  13  2   
 17  11  14  am  
 18  12  30  1   
 19  14  15  1   
 20  14  31  1   
 21  15  16  1   
 22  15  17  2   
 23  16  18  2   
 24  16  19  1   
 25  17  20  1   
 26  17  21  1   
 27  18  20  1   
 28  19  22  1   
 29  19  23  1   
 30  20  24  1   
 31  21  32  1   
 32  21  33  1   
 33  21  34  1   
 34  22  25  1   
 35  22  35  1   
 36  22  36  1   
 37  23  26  1   
 38  23  37  1   
 39  23  38  1   
 40  24  39  1   
 41  24  40  1   
 42  24  41  1   
 43  25  26  1   
 44  25  42  1   
 45  25  43  1   
 46  26  44  1   
 47  26  45  1   
@<TRIPOS>SUBSTRUCTURE
  1 ****  11 GROUP 4 **** **** 0

# MOE 2024.06 (io_trps.svl 2023.06)
