@<TRIPOS>MOLECULE
NONAME
47 50 1 0 0 
SMALL
USER_CHARGES


@<TRIPOS>ATOM
  1 S        1.3690     0.7470     1.1520 S.3   1 <1>  -0.0800 
  2 C       -0.2370     1.2550     0.6510 C.2   1 <1>  -0.1400 
  3 C        0.8890    -0.9440     1.0840 C.2   1 <1>  -0.1100 
  4 C       -1.0350     0.1940     0.4730 C.2   1 <1>  -0.1810 
  5 C       -0.6160     2.7180     0.4590 C.3   1 <1>   0.4600 
  6 C       -0.4000    -1.0650     0.7110 C.2   1 <1>  -0.1500 
  7 C       -2.4720     0.4070     0.0530 C.3   1 <1>   0.0210 
  8 O       -1.9170     2.7780    -0.0960 O.3   1 <1>  -0.5600 
  9 C       -0.6080     3.4840     1.7910 C.3   1 <1>  -0.1600 
 10 C        0.3110     3.3920    -0.5580 C.3   1 <1>  -0.1600 
 11 C       -2.8800     1.8600     0.3690 C.3   1 <1>   0.1200 
 12 C       -0.9210     4.9680     1.5880 C.3   1 <1>   0.1400 
 13 C       -0.0120     4.8780    -0.7170 C.3   1 <1>   0.1400 
 14 N        0.0620     5.5320     0.6230 N.am  1 <1>  -0.6600 
 15 C        1.0380     6.4160     1.0320 C.2   1 <1>   0.5690 
 16 O        1.0450     6.8470     2.1650 O.2   1 <1>  -0.5700 
 17 C        2.1490     6.8750     0.0840 C.3   1 <1>   0.2370 
 18 N        3.0760     5.7370    -0.1200 N.pl3 1 <1>   0.3140 
 19 C        2.9100     8.1380     0.5590 C.3   1 <1>  -0.1600 
 20 N        3.3520     5.2540    -1.3520 N.2   1 <1>  -0.7070 
 21 C        3.7230     5.0300     0.8300 C.2   1 <1>  -0.3020 
 22 C        3.9490     8.6410    -0.4550 C.3   1 <1>  -0.2400 
 23 C        4.1640     4.2610    -1.1480 C.2   1 <1>   0.1390 
 24 C        4.4330     4.0710     0.2010 C.2   1 <1>  -0.1500 
 25 H        1.6340    -1.6780     1.3330 H     1 <1>   0.1500 
 26 H       -0.9340    -1.9910     0.5930 H     1 <1>   0.1500 
 27 H       -3.1170    -0.2670     0.5870 H     1 <1>   0.0800 
 28 H       -2.5760     0.2180    -1.0000 H     1 <1>   0.0800 
 29 H        0.3660     3.4020     2.2390 H     1 <1>   0.0800 
 30 H       -1.3090     3.0470     2.4760 H     1 <1>   0.0800 
 31 H        0.2220     2.8930    -1.5050 H     1 <1>   0.0800 
 32 H        1.3320     3.2970    -0.2380 H     1 <1>   0.0800 
 33 H       -2.9940     1.9930     1.4300 H     1 <1>   0.0800 
 34 H       -3.8140     2.0950    -0.1100 H     1 <1>   0.0800 
 35 H       -0.8740     5.4820     2.5330 H     1 <1>   0.0800 
 36 H       -1.9160     5.0870     1.1930 H     1 <1>   0.0800 
 37 H       -1.0090     4.9930    -1.1100 H     1 <1>   0.0800 
 38 H        0.6680     5.3210    -1.4200 H     1 <1>   0.0800 
 39 H        1.7010     7.1040    -0.8620 H     1 <1>   0.0800 
 40 H        3.3920     7.9340     1.5010 H     1 <1>   0.0800 
 41 H        2.1920     8.9210     0.7320 H     1 <1>   0.0800 
 42 H        3.6380     5.2450     1.8810 H     1 <1>   0.1500 
 43 H        4.7200     7.9050    -0.6090 H     1 <1>   0.0800 
 44 H        4.4120     9.5420    -0.0920 H     1 <1>   0.0800 
 45 H        3.4830     8.8520    -1.4010 H     1 <1>   0.0800 
 46 H        4.5750     3.6590    -1.9410 H     1 <1>   0.1500 
 47 H        5.0710     3.3140     0.6210 H     1 <1>   0.1500 
@<TRIPOS>BOND
  1   1   2  1   
  2   1   3  1   
  3   2   4  2   
  4   2   5  1   
  5   3   6  2   
  6   3  25  1   
  7   4   6  1   
  8   4   7  1   
  9   5   8  1   
 10   5   9  1   
 11   5  10  1   
 12   6  26  1   
 13   7  11  1   
 14   7  27  1   
 15   7  28  1   
 16   8  11  1   
 17   9  12  1   
 18   9  29  1   
 19   9  30  1   
 20  10  13  1   
 21  10  31  1   
 22  10  32  1   
 23  11  33  1   
 24  11  34  1   
 25  12  14  1   
 26  12  35  1   
 27  12  36  1   
 28  13  14  1   
 29  13  37  1   
 30  13  38  1   
 31  14  15  am  
 32  15  16  2   
 33  15  17  1   
 34  17  18  1   
 35  17  19  1   
 36  17  39  1   
 37  18  20  1   
 38  18  21  1   
 39  19  22  1   
 40  19  40  1   
 41  19  41  1   
 42  20  23  2   
 43  21  24  2   
 44  21  42  1   
 45  22  43  1   
 46  22  44  1   
 47  22  45  1   
 48  23  24  1   
 49  23  46  1   
 50  24  47  1   
@<TRIPOS>SUBSTRUCTURE
  1 ****  10 GROUP 4 **** **** 0

# MOE 2024.06 (io_trps.svl 2023.06)
