@<TRIPOS>MOLECULE
NONAME
52 55 1 0 0 
SMALL
USER_CHARGES


@<TRIPOS>ATOM
  1 O        2.0460    -0.4060     2.3220 O.2   1 <1>  -0.5700 
  2 C        2.1930    -0.8000     1.1780 C.2   1 <1>   0.5440 
  3 N        2.6310     0.1000     0.2170 N.am  1 <1>  -0.6600 
  4 C        1.9480    -2.1880     0.8630 C.ar  1 <1>   0.0860 
  5 C        2.9290     1.5090     0.6290 C.3   1 <1>   0.1400 
  6 C        3.1490    -0.3690    -1.1080 C.3   1 <1>   0.1400 
  7 C        2.8390    -3.1810     1.2650 C.ar  1 <1>  -0.1500 
  8 C        0.8420    -2.5820     0.1130 C.ar  1 <1>  -0.1500 
  9 C        4.4330     1.7720     0.9090 C.3   1 <1>   0.4230 
 10 C        4.6290    -0.0180    -1.3800 C.3   1 <1>  -0.0800 
 11 C        2.6440    -4.5030     0.9180 C.ar  1 <1>  -0.1500 
 12 C        0.6490    -3.9040    -0.2350 C.ar  1 <1>  -0.1500 
 13 N        5.2000     2.2080    -0.3150 N.4   1 <1>  -0.9590 
 14 C        5.1810     0.6080     1.6170 C.3   1 <1>   0.1200 
 15 C        5.6570    -0.6570    -0.4200 C.3   1 <1>   0.1200 
 16 C        4.8220     1.4880    -1.5680 C.3   1 <1>   0.3430 
 17 C        1.5430    -4.8980     0.1590 C.ar  1 <1>   0.1000 
 18 C        5.1180     3.6880    -0.5160 C.3   1 <1>   0.2630 
 19 O        5.2590    -0.6080     0.9130 O.3   1 <1>  -0.5600 
 20 N        1.3350    -6.2260    -0.2170 N.pl3 1 <1>  -0.8380 
 21 C       -0.0310    -6.7820    -0.3810 C.3   1 <1>   0.2090 
 22 C        2.2960    -7.3160     0.0730 C.3   1 <1>   0.2090 
 23 C        0.0910    -8.2620    -0.0380 C.3   1 <1>  -0.1600 
 24 C        1.5560    -8.5950    -0.2920 C.3   1 <1>  -0.1600 
 25 H        2.5600     2.1860    -0.1200 H     1 <1>   0.0800 
 26 H        2.3840     1.7380     1.5280 H     1 <1>   0.0800 
 27 H        3.0490    -1.4370    -1.1920 H     1 <1>   0.0800 
 28 H        2.5300     0.0580    -1.8790 H     1 <1>   0.0800 
 29 H        3.6960    -2.8970     1.8510 H     1 <1>   0.1500 
 30 H        0.1330    -1.8360    -0.2010 H     1 <1>   0.1500 
 31 H        4.4590     2.5940     1.6030 H     1 <1>   0.0800 
 32 H        4.8370    -0.4400    -2.3470 H     1 <1>   0.0800 
 33 H        3.3590    -5.2310     1.2450 H     1 <1>   0.1500 
 34 H       -0.2040    -4.1700    -0.8290 H     1 <1>   0.1500 
 35 H        6.1800     1.9630    -0.1180 H     1 <1>   0.4500 
 36 H        4.6710     0.3870     2.5400 H     1 <1>   0.0800 
 37 H        6.1820     0.9080     1.8670 H     1 <1>   0.0800 
 38 H        6.6330    -0.2130    -0.5110 H     1 <1>   0.0800 
 39 H        5.7500    -1.7040    -0.6600 H     1 <1>   0.0800 
 40 H        3.9100     1.9030    -1.9660 H     1 <1>   0.0800 
 41 H        5.5960     1.6460    -2.3020 H     1 <1>   0.0800 
 42 H        4.1010     3.9840    -0.7170 H     1 <1>   0.0800 
 43 H        5.7340     3.9890    -1.3480 H     1 <1>   0.0800 
 44 H        5.4600     4.2060     0.3660 H     1 <1>   0.0800 
 45 H       -0.7330    -6.2880     0.2700 H     1 <1>   0.0800 
 46 H       -0.3360    -6.6600    -1.4060 H     1 <1>   0.0800 
 47 H        3.1960    -7.1980    -0.5070 H     1 <1>   0.0800 
 48 H        2.5310    -7.3180     1.1230 H     1 <1>   0.0800 
 49 H       -0.1400    -8.3960     1.0050 H     1 <1>   0.0800 
 50 H       -0.5770    -8.8650    -0.6260 H     1 <1>   0.0800 
 51 H        1.7100    -8.8010    -1.3360 H     1 <1>   0.0800 
 52 H        1.8960    -9.4350     0.2890 H     1 <1>   0.0800 
@<TRIPOS>BOND
  1   1   2  2   
  2   2   3  am  
  3   2   4  1   
  4   3   5  1   
  5   3   6  1   
  6   4   7  ar  
  7   4   8  ar  
  8   5   9  1   
  9   5  25  1   
 10   5  26  1   
 11   6  10  1   
 12   6  27  1   
 13   6  28  1   
 14   7  11  ar  
 15   7  29  1   
 16   8  12  ar  
 17   8  30  1   
 18   9  13  1   
 19   9  14  1   
 20   9  31  1   
 21  10  15  1   
 22  10  16  1   
 23  10  32  1   
 24  11  17  ar  
 25  11  33  1   
 26  12  17  ar  
 27  12  34  1   
 28  13  16  1   
 29  13  18  1   
 30  13  35  1   
 31  14  19  1   
 32  14  36  1   
 33  14  37  1   
 34  15  19  1   
 35  15  38  1   
 36  15  39  1   
 37  16  40  1   
 38  16  41  1   
 39  17  20  1   
 40  18  42  1   
 41  18  43  1   
 42  18  44  1   
 43  20  21  1   
 44  20  22  1   
 45  21  23  1   
 46  21  45  1   
 47  21  46  1   
 48  22  24  1   
 49  22  47  1   
 50  22  48  1   
 51  23  24  1   
 52  23  49  1   
 53  23  50  1   
 54  24  51  1   
 55  24  52  1   
@<TRIPOS>SUBSTRUCTURE
  1 ****   4 GROUP 4 **** **** 0

# MOE 2024.06 (io_trps.svl 2023.06)
