@<TRIPOS>MOLECULE
NONAME
52 55 1 0 0 
SMALL
USER_CHARGES


@<TRIPOS>ATOM
  1 O        1.2330    -0.4530    -1.7270 O.3   1 <1>  -0.0190 
  2 N        1.5230     0.8110    -1.7790 N.2   1 <1>  -0.4100 
  3 C        1.6440    -1.0050    -0.6200 C.2   1 <1>  -0.0400 
  4 C        2.1450     1.1010    -0.6750 C.2   1 <1>   0.2350 
  5 C        2.2440    -0.0560     0.1090 C.2   1 <1>  -0.1500 
  6 C        1.3980    -2.4820    -0.3680 C.3   1 <1>   0.2900 
  7 C        2.6480     2.4160    -0.3200 C.ar  1 <1>   0.0540 
  8 N        0.1790    -2.6920     0.4300 N.3   1 <1>  -0.8100 
  9 C        2.1930     3.5580    -0.9770 C.ar  1 <1>  -0.1500 
 10 C        3.6020     2.5970     0.6820 C.ar  1 <1>  -0.1500 
 11 C       -1.0440    -2.1540    -0.2060 C.3   1 <1>   0.1100 
 12 C       -0.0750    -4.1060     0.7380 C.3   1 <1>   0.1100 
 13 C        2.6580     4.8180    -0.6480 C.ar  1 <1>  -0.1500 
 14 C        4.0690     3.8560     1.0160 C.ar  1 <1>  -0.1500 
 15 C       -2.1260    -3.2390    -0.1250 C.3   1 <1>   0.2000 
 16 C       -1.2980    -4.5190    -0.0820 C.3   1 <1>  -0.0800 
 17 C        3.5990     4.9760     0.3540 C.ar  1 <1>  -0.1430 
 18 O       -2.8610    -3.1300     1.0630 O.3   1 <1>  -0.5600 
 19 C       -2.0390    -5.7410     0.4920 C.3   1 <1>   0.0200 
 20 C        4.1120     6.3580     0.7170 C.3   1 <1>  -0.0970 
 21 C       -3.8800    -2.1810     1.0460 C.3   1 <1>   0.0400 
 22 C       -1.2500    -7.0330     0.3620 C.2   1 <1>  -0.0400 
 23 O       -1.7130    -8.1120     0.9350 O.3   1 <1>  -0.0190 
 24 C       -0.1030    -7.3620    -0.2560 C.2   1 <1>  -0.1500 
 25 N       -0.9400    -9.1410     0.7380 N.2   1 <1>  -0.4100 
 26 C        0.0390    -8.7180     0.0230 C.2   1 <1>   0.1080 
 27 C        1.1850    -9.5870    -0.4460 C.3   1 <1>  -0.0590 
 28 H        2.6920    -0.1390     1.0800 H     1 <1>   0.1500 
 29 H        2.2370    -2.8780     0.1780 H     1 <1>   0.0800 
 30 H        1.3260    -3.0050    -1.3070 H     1 <1>   0.0800 
 31 H        1.4610     3.4550    -1.7590 H     1 <1>   0.1500 
 32 H        3.9910     1.7470     1.2100 H     1 <1>   0.1500 
 33 H       -1.3470    -1.2420     0.2770 H     1 <1>   0.0800 
 34 H       -0.8580    -1.9460    -1.2460 H     1 <1>   0.0800 
 35 H        0.7790    -4.7290     0.5360 H     1 <1>   0.0800 
 36 H       -0.3110    -4.1780     1.7870 H     1 <1>   0.0800 
 37 H        2.2830     5.6760    -1.1780 H     1 <1>   0.1500 
 38 H        4.8050     3.9600     1.7940 H     1 <1>   0.1500 
 39 H       -2.8010    -3.2200    -0.9630 H     1 <1>   0.0800 
 40 H       -0.9770    -4.7400    -1.0830 H     1 <1>   0.0800 
 41 H       -2.9760    -5.8630    -0.0200 H     1 <1>   0.0800 
 42 H       -2.2580    -5.5760     1.5330 H     1 <1>   0.0800 
 43 H        3.3520     7.0990     0.5420 H     1 <1>   0.0800 
 44 H        4.9720     6.5950     0.1180 H     1 <1>   0.0800 
 45 H        4.3900     6.3960     1.7550 H     1 <1>   0.0800 
 46 H       -4.3740    -2.2090     2.0020 H     1 <1>   0.0800 
 47 H       -4.5830    -2.4270     0.2700 H     1 <1>   0.0800 
 48 H       -3.4620    -1.2030     0.8870 H     1 <1>   0.0800 
 49 H        0.5710    -6.7620    -0.8370 H     1 <1>   0.1500 
 50 H        1.2260    -9.5870    -1.5190 H     1 <1>   0.0800 
 51 H        1.0430   -10.5960    -0.1020 H     1 <1>   0.0800 
 52 H        2.1110    -9.2120    -0.0530 H     1 <1>   0.0800 
@<TRIPOS>BOND
  1   1   2  1   
  2   1   3  1   
  3   2   4  2   
  4   3   5  2   
  5   3   6  1   
  6   4   5  1   
  7   4   7  1   
  8   5  28  1   
  9   6   8  1   
 10   6  29  1   
 11   6  30  1   
 12   7   9  ar  
 13   7  10  ar  
 14   8  11  1   
 15   8  12  1   
 16   9  13  ar  
 17   9  31  1   
 18  10  14  ar  
 19  10  32  1   
 20  11  15  1   
 21  11  33  1   
 22  11  34  1   
 23  12  16  1   
 24  12  35  1   
 25  12  36  1   
 26  13  17  ar  
 27  13  37  1   
 28  14  17  ar  
 29  14  38  1   
 30  15  16  1   
 31  15  18  1   
 32  15  39  1   
 33  16  19  1   
 34  16  40  1   
 35  17  20  1   
 36  18  21  1   
 37  19  22  1   
 38  19  41  1   
 39  19  42  1   
 40  20  43  1   
 41  20  44  1   
 42  20  45  1   
 43  21  46  1   
 44  21  47  1   
 45  21  48  1   
 46  22  23  1   
 47  22  24  2   
 48  23  25  1   
 49  24  26  1   
 50  24  49  1   
 51  25  26  2   
 52  26  27  1   
 53  27  50  1   
 54  27  51  1   
 55  27  52  1   
@<TRIPOS>SUBSTRUCTURE
  1 ****   8 GROUP 4 **** **** 0

# MOE 2024.06 (io_trps.svl 2023.06)
