@<TRIPOS>MOLECULE
NONAME
48 50 1 0 0 
SMALL
USER_CHARGES


@<TRIPOS>ATOM
  1 O       -0.4280     0.9020     1.0010 O.2   1 <1>  -0.5700 
  2 C       -1.4770     1.4930     0.8300 C.2   1 <1>   0.5440 
  3 N       -1.6220     2.7680     1.3450 N.am  1 <1>  -0.6600 
  4 C       -2.5370     0.8450     0.0820 C.ar  1 <1>   0.0860 
  5 C       -0.5860     3.3730     2.2250 C.3   1 <1>   0.1400 
  6 C       -2.6940     3.7080     0.9180 C.3   1 <1>   0.1400 
  7 C       -3.7830     0.5940     0.6540 C.ar  1 <1>  -0.1500 
  8 C       -2.3430     0.4500    -1.2400 C.ar  1 <1>  -0.1500 
  9 C        0.0680     4.5530     1.5010 C.3   1 <1>  -0.1600 
 10 C       -2.0630     4.8960     0.1890 C.3   1 <1>  -0.1600 
 11 C       -4.7970    -0.0090    -0.0680 C.ar  1 <1>  -0.1500 
 12 C       -3.3530    -0.1530    -1.9660 C.ar  1 <1>  -0.1500 
 13 C       -0.9770     5.5880     1.0410 C.3   1 <1>  -0.0190 
 14 C       -4.5890    -0.3830    -1.3850 C.ar  1 <1>  -0.1430 
 15 C       -0.3040     6.7510     0.3090 C.2   1 <1>   0.5690 
 16 C       -5.6990    -1.0470    -2.1800 C.3   1 <1>  -0.0970 
 17 O       -0.2480     6.7530    -0.8960 O.2   1 <1>  -0.5700 
 18 N        0.2230     7.7540     1.0610 N.am  1 <1>  -0.4930 
 19 C        0.9050     8.9300     0.7070 C.2   1 <1>   0.3520 
 20 N        1.2770     9.7280     1.6300 N.2   1 <1>  -0.4100 
 21 C        1.3070     9.4700    -0.5280 C.2   1 <1>   0.3520 
 22 O        1.8670    10.6940     0.9940 O.3   1 <1>   0.2420 
 23 N        1.9050    10.5760    -0.2970 N.2   1 <1>  -0.4100 
 24 N        1.1120     8.9280    -1.8120 N.am  1 <1>  -0.4930 
 25 C        1.4640     9.3430    -3.0540 C.2   1 <1>   0.5690 
 26 O        1.1680     8.6760    -4.0120 O.2   1 <1>  -0.5700 
 27 C        2.2270    10.6260    -3.2910 C.3   1 <1>  -0.1790 
 28 H        0.1660     2.6470     2.4870 H     1 <1>   0.0800 
 29 H       -1.0520     3.7060     3.1360 H     1 <1>   0.0800 
 30 H       -3.2300     4.0470     1.7880 H     1 <1>   0.0800 
 31 H       -3.3960     3.2250     0.2600 H     1 <1>   0.0800 
 32 H       -3.9510     0.8750     1.6790 H     1 <1>   0.1500 
 33 H       -1.3820     0.6210    -1.6940 H     1 <1>   0.1500 
 34 H        0.6060     4.1740     0.6480 H     1 <1>   0.0800 
 35 H        0.7830     5.0130     2.1600 H     1 <1>   0.0800 
 36 H       -2.8310     5.6050    -0.0670 H     1 <1>   0.0800 
 37 H       -1.6330     4.5390    -0.7320 H     1 <1>   0.0800 
 38 H       -5.7490    -0.1910     0.4000 H     1 <1>   0.1500 
 39 H       -3.1720    -0.4470    -2.9850 H     1 <1>   0.1500 
 40 H       -1.4610     5.9870     1.9140 H     1 <1>   0.0800 
 41 H       -6.6620    -0.7230    -1.8280 H     1 <1>   0.0800 
 42 H       -5.6320    -2.1150    -2.0750 H     1 <1>   0.0800 
 43 H       -5.6170    -0.7950    -3.2230 H     1 <1>   0.0800 
 44 H        0.1260     7.6630     2.0700 H     1 <1>   0.3700 
 45 H        0.5970     8.0370    -1.8220 H     1 <1>   0.3700 
 46 H        3.1720    10.5880    -2.7830 H     1 <1>   0.0800 
 47 H        1.6570    11.4610    -2.9300 H     1 <1>   0.0800 
 48 H        2.4040    10.7560    -4.3420 H     1 <1>   0.0800 
@<TRIPOS>BOND
  1   1   2  2   
  2   2   3  am  
  3   2   4  1   
  4   3   5  1   
  5   3   6  1   
  6   4   7  ar  
  7   4   8  ar  
  8   5   9  1   
  9   5  28  1   
 10   5  29  1   
 11   6  10  1   
 12   6  30  1   
 13   6  31  1   
 14   7  11  ar  
 15   7  32  1   
 16   8  12  ar  
 17   8  33  1   
 18   9  13  1   
 19   9  34  1   
 20   9  35  1   
 21  10  13  1   
 22  10  36  1   
 23  10  37  1   
 24  11  14  ar  
 25  11  38  1   
 26  12  14  ar  
 27  12  39  1   
 28  13  15  1   
 29  13  40  1   
 30  14  16  1   
 31  15  17  2   
 32  15  18  am  
 33  16  41  1   
 34  16  42  1   
 35  16  43  1   
 36  18  19  1   
 37  18  44  1   
 38  19  20  2   
 39  19  21  1   
 40  20  22  1   
 41  21  23  2   
 42  21  24  1   
 43  22  23  1   
 44  24  25  am  
 45  24  45  1   
 46  25  26  2   
 47  25  27  1   
 48  27  46  1   
 49  27  47  1   
 50  27  48  1   
@<TRIPOS>SUBSTRUCTURE
  1 ****  10 GROUP 4 **** **** 0

# MOE 2024.06 (io_trps.svl 2023.06)
