@<TRIPOS>MOLECULE
NONAME
51 53 1 0 0 
SMALL
USER_CHARGES


@<TRIPOS>ATOM
  1 CL      -0.1320     0.2550    -0.7360 Cl    1 <1>  -0.1770 
  2 C       -1.7940     0.6070    -0.3420 C.ar  1 <1>   0.1770 
  3 C       -2.1400     0.8770     0.9680 C.ar  1 <1>  -0.1500 
  4 C       -2.7450     0.6130    -1.3440 C.ar  1 <1>  -0.1500 
  5 C       -3.4600     1.1560     1.2740 C.ar  1 <1>  -0.1500 
  6 C       -4.0620     0.8950    -1.0250 C.ar  1 <1>  -0.1500 
  7 C       -4.4500     1.1680     0.2880 C.ar  1 <1>   0.0530 
  8 C       -5.8150     1.4760     0.6350 C.2   1 <1>   0.0870 
  9 O       -6.0510     2.4780     1.4440 O.3   1 <1>  -0.0190 
 10 C       -7.0230     0.9320     0.3130 C.2   1 <1>  -0.0860 
 11 N       -7.3220     2.6610     1.6780 N.2   1 <1>  -0.4100 
 12 C       -7.9250     1.7580     1.0010 C.2   1 <1>   0.3720 
 13 C       -7.3620    -0.2170    -0.4740 C.2   1 <1>   0.7160 
 14 N       -9.3130     1.6900     1.0120 N.pl3 1 <1>  -0.8520 
 15 O       -6.5350    -0.8140    -1.1320 O.2   1 <1>  -0.5700 
 16 N       -8.6450    -0.6680    -0.4830 N.am  1 <1>  -0.7300 
 17 C       -9.9590     2.3190    -0.1740 C.3   1 <1>   0.2090 
 18 C       -9.2010    -1.8260    -1.2340 C.3   1 <1>   0.1400 
 19 C      -11.3410     1.7080    -0.4100 C.3   1 <1>   0.1200 
 20 C       -9.8090    -2.8750    -0.2900 C.3   1 <1>   0.2000 
 21 O      -11.9120     2.3220    -1.5200 O.3   1 <1>  -0.5600 
 22 O      -10.4040    -3.8560    -1.0860 O.3   1 <1>  -0.5600 
 23 C      -10.8780    -2.2970     0.6580 C.3   1 <1>  -0.1600 
 24 C      -13.1650     1.8220    -1.8620 C.3   1 <1>   0.0400 
 25 C      -10.8850    -4.9670    -0.3920 C.3   1 <1>   0.1200 
 26 C      -11.5440    -3.4080     1.4790 C.3   1 <1>  -0.1600 
 27 C      -12.0150    -4.5290     0.5460 C.3   1 <1>  -0.1600 
 28 H       -1.3840     0.8680     1.7320 H     1 <1>   0.1500 
 29 H       -2.4560     0.3990    -2.3570 H     1 <1>   0.1500 
 30 H       -3.7340     1.3680     2.2940 H     1 <1>   0.1500 
 31 H       -4.8010     0.9030    -1.8070 H     1 <1>   0.1500 
 32 H       -9.6190     2.2090     1.8450 H     1 <1>   0.4000 
 33 H       -9.2970    -0.1340     0.1050 H     1 <1>   0.3700 
 34 H       -9.3520     2.1640    -1.0510 H     1 <1>   0.0800 
 35 H      -10.0590     3.3780    -0.0060 H     1 <1>   0.0800 
 36 H       -8.4230    -2.2900    -1.8160 H     1 <1>   0.0800 
 37 H       -9.9620    -1.4700    -1.9050 H     1 <1>   0.0800 
 38 H      -11.9770     1.8780     0.4410 H     1 <1>   0.0800 
 39 H      -11.2530     0.6540    -0.6110 H     1 <1>   0.0800 
 40 H       -9.0160    -3.3390     0.2720 H     1 <1>   0.0800 
 41 H      -11.6220    -1.7840     0.0750 H     1 <1>   0.0800 
 42 H      -10.4300    -1.5860     1.3290 H     1 <1>   0.0800 
 43 H      -13.5170     2.3620    -2.7230 H     1 <1>   0.0800 
 44 H      -13.8440     1.9690    -1.0390 H     1 <1>   0.0800 
 45 H      -13.0790     0.7760    -2.1020 H     1 <1>   0.0800 
 46 H      -10.0700    -5.4120     0.1540 H     1 <1>   0.0800 
 47 H      -11.2490    -5.6750    -1.1170 H     1 <1>   0.0800 
 48 H      -12.3770    -3.0130     2.0350 H     1 <1>   0.0800 
 49 H      -10.8310    -3.8070     2.1810 H     1 <1>   0.0800 
 50 H      -12.3490    -5.3720     1.1250 H     1 <1>   0.0800 
 51 H      -12.8440    -4.1880    -0.0490 H     1 <1>   0.0800 
@<TRIPOS>BOND
  1   1   2  1   
  2   2   3  ar  
  3   2   4  ar  
  4   3   5  ar  
  5   3  28  1   
  6   4   6  ar  
  7   4  29  1   
  8   5   7  ar  
  9   5  30  1   
 10   6   7  ar  
 11   6  31  1   
 12   7   8  1   
 13   8   9  1   
 14   8  10  2   
 15   9  11  1   
 16  10  12  1   
 17  10  13  1   
 18  11  12  2   
 19  12  14  1   
 20  13  15  2   
 21  13  16  am  
 22  14  17  1   
 23  14  32  1   
 24  16  18  1   
 25  16  33  1   
 26  17  19  1   
 27  17  34  1   
 28  17  35  1   
 29  18  20  1   
 30  18  36  1   
 31  18  37  1   
 32  19  21  1   
 33  19  38  1   
 34  19  39  1   
 35  20  22  1   
 36  20  23  1   
 37  20  40  1   
 38  21  24  1   
 39  22  25  1   
 40  23  26  1   
 41  23  41  1   
 42  23  42  1   
 43  24  43  1   
 44  24  44  1   
 45  24  45  1   
 46  25  27  1   
 47  25  46  1   
 48  25  47  1   
 49  26  27  1   
 50  26  48  1   
 51  26  49  1   
 52  27  50  1   
 53  27  51  1   
@<TRIPOS>SUBSTRUCTURE
  1 ****  13 GROUP 4 **** **** 0

# MOE 2024.06 (io_trps.svl 2023.06)
