@<TRIPOS>MOLECULE
NONAME
50 52 1 0 0 
SMALL
USER_CHARGES


@<TRIPOS>ATOM
  1 O       -1.6130     0.8060    -1.9150 O.2   1 <1>  -0.5700 
  2 C       -2.0080     1.7320    -1.2270 C.2   1 <1>   0.5440 
  3 N       -3.3560     2.0430    -1.2390 N.am  1 <1>  -0.6600 
  4 C       -1.0520     2.4920    -0.4540 C.ar  1 <1>   0.0860 
  5 C       -4.3260     1.1660    -1.9510 C.3   1 <1>   0.1400 
  6 C       -3.9480     3.1410    -0.4390 C.3   1 <1>   0.1400 
  7 C       -0.8230     2.2480     0.9050 C.ar  1 <1>   0.0830 
  8 C       -0.3220     3.5130    -1.0570 C.ar  1 <1>  -0.1500 
  9 C       -4.7780     0.0220    -1.0340 C.3   1 <1>   0.1400 
 10 C       -4.7500     2.5940     0.7440 C.3   1 <1>  -0.1600 
 11 O       -1.4930     1.2730     1.5440 O.3   1 <1>  -0.5320 
 12 C        0.0940     2.9980     1.6240 C.ar  1 <1>  -0.1500 
 13 C        0.5930     4.2710    -0.3490 C.ar  1 <1>   0.0830 
 14 N       -5.7550     0.3910     0.0490 N.am  1 <1>  -0.6600 
 15 C       -6.0180     1.8370     0.3340 C.3   1 <1>   0.1400 
 16 C        0.8020     4.0100     1.0030 C.ar  1 <1>  -0.1500 
 17 O        1.2420     5.2450    -1.0370 O.3   1 <1>  -0.3620 
 18 C       -6.4820    -0.5980     0.6980 C.2   1 <1>   0.7150 
 19 C        2.2550     6.0180    -0.4330 C.3   1 <1>   0.0400 
 20 O       -7.4840    -0.2700     1.3110 O.2   1 <1>  -0.5700 
 21 C       -6.1180    -2.0020     0.6550 C.2   1 <1>   0.0550 
 22 O       -4.8480    -2.3840     0.6070 O.3   1 <1>  -0.2800 
 23 C       -6.8930    -3.1090     0.6740 C.2   1 <1>   0.0460 
 24 C       -4.9520    -3.6950     0.5920 C.2   1 <1>   0.2980 
 25 N       -6.1290    -4.1940     0.6270 N.2   1 <1>  -0.5650 
 26 C       -8.4000    -3.2610     0.7320 C.3   1 <1>  -0.0590 
 27 C       -3.6750    -4.4980     0.5320 C.3   1 <1>  -0.0600 
 28 H       -3.8450     0.7410    -2.8150 H     1 <1>   0.0800 
 29 H       -5.1690     1.7320    -2.3030 H     1 <1>   0.0800 
 30 H       -4.5840     3.7340    -1.0730 H     1 <1>   0.0800 
 31 H       -3.1740     3.7900    -0.0670 H     1 <1>   0.0800 
 32 H       -0.4710     3.7160    -2.1020 H     1 <1>   0.1500 
 33 H       -3.8970    -0.4060    -0.5850 H     1 <1>   0.0800 
 34 H       -5.2280    -0.7370    -1.6500 H     1 <1>   0.0800 
 35 H       -5.0550     3.4380     1.3350 H     1 <1>   0.0800 
 36 H       -4.1320     1.9750     1.3700 H     1 <1>   0.0800 
 37 H       -1.2060     1.1240     2.4620 H     1 <1>   0.4500 
 38 H        0.2600     2.7990     2.6680 H     1 <1>   0.1500 
 39 H       -6.4760     2.2990    -0.5230 H     1 <1>   0.0800 
 40 H       -6.7190     1.9240     1.1460 H     1 <1>   0.0800 
 41 H        1.5050     4.5810     1.5790 H     1 <1>   0.1500 
 42 H        2.6450     6.6940    -1.1730 H     1 <1>   0.0800 
 43 H        3.0370     5.3630    -0.0900 H     1 <1>   0.0800 
 44 H        1.8310     6.5750     0.3830 H     1 <1>   0.0800 
 45 H       -8.8900    -2.3060     0.6900 H     1 <1>   0.0800 
 46 H       -8.6740    -3.7520     1.6470 H     1 <1>   0.0800 
 47 H       -8.7340    -3.8580    -0.0960 H     1 <1>   0.0800 
 48 H       -3.1320    -4.2460    -0.3590 H     1 <1>   0.0800 
 49 H       -3.9030    -5.5480     0.5220 H     1 <1>   0.0800 
 50 H       -3.0700    -4.2770     1.3910 H     1 <1>   0.0800 
@<TRIPOS>BOND
  1   1   2  2   
  2   2   3  am  
  3   2   4  1   
  4   3   5  1   
  5   3   6  1   
  6   4   7  ar  
  7   4   8  ar  
  8   5   9  1   
  9   5  28  1   
 10   5  29  1   
 11   6  10  1   
 12   6  30  1   
 13   6  31  1   
 14   7  11  1   
 15   7  12  ar  
 16   8  13  ar  
 17   8  32  1   
 18   9  14  1   
 19   9  33  1   
 20   9  34  1   
 21  10  15  1   
 22  10  35  1   
 23  10  36  1   
 24  11  37  1   
 25  12  16  ar  
 26  12  38  1   
 27  13  16  ar  
 28  13  17  1   
 29  14  15  1   
 30  14  18  am  
 31  15  39  1   
 32  15  40  1   
 33  16  41  1   
 34  17  19  1   
 35  18  20  2   
 36  18  21  1   
 37  19  42  1   
 38  19  43  1   
 39  19  44  1   
 40  21  22  1   
 41  21  23  2   
 42  22  24  1   
 43  23  25  1   
 44  23  26  1   
 45  24  25  2   
 46  24  27  1   
 47  26  45  1   
 48  26  46  1   
 49  26  47  1   
 50  27  48  1   
 51  27  49  1   
 52  27  50  1   
@<TRIPOS>SUBSTRUCTURE
  1 ****   3 GROUP 4 **** **** 0

# MOE 2024.06 (io_trps.svl 2023.06)
