@<TRIPOS>MOLECULE
NONAME
42 44 1 0 0 
SMALL
USER_CHARGES


@<TRIPOS>ATOM
  1 F        1.3350     0.6590    -0.7390 F     1 <1>  -0.1900 
  2 C        2.2030    -0.2140    -0.3030 C.ar  1 <1>   0.1900 
  3 C        3.2190     0.2080     0.5510 C.ar  1 <1>   0.0860 
  4 C        2.0700    -1.5190    -0.7310 C.ar  1 <1>  -0.1500 
  5 C        3.3510     1.5780     0.9820 C.2   1 <1>   0.5440 
  6 C        4.1210    -0.7680     0.9750 C.ar  1 <1>  -0.1500 
  7 C        2.9800    -2.4680    -0.2990 C.ar  1 <1>   0.0830 
  8 O        2.9600     1.8770     2.0950 O.2   1 <1>  -0.5700 
  9 N        3.9490     2.5440     0.1910 N.am  1 <1>  -0.6600 
 10 C        4.0100    -2.0840     0.5610 C.ar  1 <1>  -0.1500 
 11 O        2.8080    -3.7310    -0.7480 O.3   1 <1>  -0.3620 
 12 C        4.3720     3.8500     0.7940 C.3   1 <1>   0.1400 
 13 C        4.4120     2.2720    -1.2080 C.3   1 <1>   0.1400 
 14 C        3.6300    -4.7930    -0.3180 C.3   1 <1>   0.0400 
 15 C        5.9010     4.0410     0.9190 C.3   1 <1>   0.2200 
 16 C        5.9410     2.2880    -1.4070 C.3   1 <1>  -0.0190 
 17 N        6.4850     4.4940    -0.3770 N.am  1 <1>  -0.6600 
 18 C        6.6910     2.8430     1.5090 C.3   1 <1>   0.1200 
 19 C        6.4690     3.7020    -1.4880 C.2   1 <1>   0.5690 
 20 C        6.7970     1.4420    -0.4450 C.3   1 <1>   0.1200 
 21 C        7.0230     5.8840    -0.4050 C.3   1 <1>   0.0600 
 22 O        6.4640     1.5980     0.9010 O.3   1 <1>  -0.5600 
 23 O        6.8740     4.0900    -2.5580 O.2   1 <1>  -0.5700 
 24 H        1.2710    -1.7990    -1.3910 H     1 <1>   0.1500 
 25 H        4.9170    -0.4740     1.6390 H     1 <1>   0.1500 
 26 H        4.7310    -2.7970     0.9160 H     1 <1>   0.1500 
 27 H        3.9610     4.6530     0.2090 H     1 <1>   0.0800 
 28 H        3.9540     3.9440     1.7800 H     1 <1>   0.0800 
 29 H        4.0470     1.3170    -1.5360 H     1 <1>   0.0800 
 30 H        3.9700     3.0080    -1.8580 H     1 <1>   0.0800 
 31 H        3.2820    -5.6950    -0.7870 H     1 <1>   0.0800 
 32 H        3.5540    -4.8840     0.7510 H     1 <1>   0.0800 
 33 H        4.6440    -4.5940    -0.6180 H     1 <1>   0.0800 
 34 H        6.0360     4.8500     1.6150 H     1 <1>   0.0800 
 35 H        6.1100     1.8710    -2.3830 H     1 <1>   0.0800 
 36 H        6.4030     2.7250     2.5390 H     1 <1>   0.0800 
 37 H        7.7460     3.0460     1.4800 H     1 <1>   0.0800 
 38 H        7.8430     1.6710    -0.5650 H     1 <1>   0.0800 
 39 H        6.6530     0.4010    -0.6730 H     1 <1>   0.0800 
 40 H        7.8030     5.9880     0.3300 H     1 <1>   0.0800 
 41 H        6.2350     6.5840    -0.1910 H     1 <1>   0.0800 
 42 H        7.4340     6.1170    -1.3720 H     1 <1>   0.0800 
@<TRIPOS>BOND
  1   1   2  1   
  2   2   3  ar  
  3   2   4  ar  
  4   3   5  1   
  5   3   6  ar  
  6   4   7  ar  
  7   4  24  1   
  8   5   8  2   
  9   5   9  am  
 10   6  10  ar  
 11   6  25  1   
 12   7  10  ar  
 13   7  11  1   
 14   9  12  1   
 15   9  13  1   
 16  10  26  1   
 17  11  14  1   
 18  12  15  1   
 19  12  27  1   
 20  12  28  1   
 21  13  16  1   
 22  13  29  1   
 23  13  30  1   
 24  14  31  1   
 25  14  32  1   
 26  14  33  1   
 27  15  17  1   
 28  15  18  1   
 29  15  34  1   
 30  16  19  1   
 31  16  20  1   
 32  16  35  1   
 33  17  19  am  
 34  17  21  1   
 35  18  22  1   
 36  18  36  1   
 37  18  37  1   
 38  19  23  2   
 39  20  22  1   
 40  20  38  1   
 41  20  39  1   
 42  21  40  1   
 43  21  41  1   
 44  21  42  1   
@<TRIPOS>SUBSTRUCTURE
  1 ****   9 GROUP 4 **** **** 0

# MOE 2024.06 (io_trps.svl 2023.06)
