@<TRIPOS>MOLECULE
NONAME
50 52 1 0 0 
SMALL
USER_CHARGES


@<TRIPOS>ATOM
  1 O       -3.4430     1.5110     2.4100 O.2   1 <1>  -0.5700 
  2 C       -3.0950     1.8770     1.3110 C.2   1 <1>   0.5690 
  3 N       -3.3170     1.0940     0.2070 N.am  1 <1>  -0.6600 
  4 C       -2.4020     3.2190     1.2150 C.3   1 <1>   0.1570 
  5 C       -2.9890     1.4390    -1.2070 C.3   1 <1>   0.1400 
  6 C       -3.5500    -0.3670     0.3300 C.3   1 <1>   0.1400 
  7 N       -1.0490     3.0670     0.6570 N.pl3 1 <1>   0.3140 
  8 C       -3.3030     0.1700    -1.9980 C.3   1 <1>   0.2000 
  9 C       -3.0590    -0.9620    -0.9970 C.3   1 <1>  -0.0800 
 10 N       -0.6950     3.7550    -0.4470 N.2   1 <1>  -0.7070 
 11 C       -0.0490     2.2480     1.0640 C.2   1 <1>  -0.3320 
 12 O       -4.6490     0.1720    -2.3270 O.3   1 <1>  -0.6800 
 13 C       -1.5580    -1.3230    -0.9470 C.3   1 <1>  -0.0170 
 14 C        0.5090     3.3630    -0.7150 C.2   1 <1>   0.1080 
 15 C        0.9710     2.4160     0.1950 C.2   1 <1>  -0.1810 
 16 C       -0.1230     1.3200     2.2710 C.3   1 <1>  -0.0600 
 17 C       -1.2750    -2.4980    -0.0230 C.ar  1 <1>   0.1670 
 18 C        1.2820     3.9040    -1.8970 C.3   1 <1>  -0.0590 
 19 C        2.3250     1.7260     0.1840 C.3   1 <1>   0.0210 
 20 N       -0.8340    -2.2100     1.1910 N.ar  1 <1>  -0.6200 
 21 C       -1.4820    -3.8000    -0.4760 C.ar  1 <1>   0.1600 
 22 C        2.2200     0.3660    -0.5070 C.3   1 <1>  -0.2400 
 23 C       -0.6220    -3.2970     1.9140 C.ar  1 <1>   0.1600 
 24 N       -1.2700    -4.8890     0.2450 N.ar  1 <1>  -0.6200 
 25 C       -0.8330    -4.5920     1.4570 C.ar  1 <1>   0.1600 
 26 H       -2.3210     3.6570     2.1910 H     1 <1>   0.0800 
 27 H       -2.9710     3.8730     0.5840 H     1 <1>   0.0800 
 28 H       -3.5520     2.2860    -1.5580 H     1 <1>   0.0800 
 29 H       -1.9380     1.6440    -1.2970 H     1 <1>   0.0800 
 30 H       -3.0290    -0.7700     1.1830 H     1 <1>   0.0800 
 31 H       -4.6040    -0.5430     0.4540 H     1 <1>   0.0800 
 32 H       -2.7320     0.0850    -2.9070 H     1 <1>   0.0800 
 33 H       -3.6230    -1.8390    -1.2610 H     1 <1>   0.0800 
 34 H       -5.1680     0.4160    -1.5350 H     1 <1>   0.4000 
 35 H       -0.9790    -0.4760    -0.6190 H     1 <1>   0.0800 
 36 H       -1.2190    -1.5780    -1.9350 H     1 <1>   0.0800 
 37 H        0.8370     0.8900     2.4830 H     1 <1>   0.0800 
 38 H       -0.8100     0.5150     2.0810 H     1 <1>   0.0800 
 39 H       -0.4520     1.8600     3.1410 H     1 <1>   0.0800 
 40 H        1.7030     3.0940    -2.4620 H     1 <1>   0.0800 
 41 H        2.0690     4.5460    -1.5480 H     1 <1>   0.0800 
 42 H        0.6270     4.4700    -2.5330 H     1 <1>   0.0800 
 43 H        3.0460     2.3420    -0.3230 H     1 <1>   0.0800 
 44 H        2.6670     1.5930     1.1950 H     1 <1>   0.0800 
 45 H       -1.8410    -3.9480    -1.4800 H     1 <1>   0.1500 
 46 H        1.8740     0.4900    -1.5180 H     1 <1>   0.0800 
 47 H        1.5250    -0.2620     0.0220 H     1 <1>   0.0800 
 48 H        3.1800    -0.1170    -0.5230 H     1 <1>   0.0800 
 49 H       -0.2630    -3.1560     2.9180 H     1 <1>   0.1500 
 50 H       -0.6310    -5.4140     2.1210 H     1 <1>   0.1500 
@<TRIPOS>BOND
  1   1   2  2   
  2   2   3  am  
  3   2   4  1   
  4   3   5  1   
  5   3   6  1   
  6   4   7  1   
  7   4  26  1   
  8   4  27  1   
  9   5   8  1   
 10   5  28  1   
 11   5  29  1   
 12   6   9  1   
 13   6  30  1   
 14   6  31  1   
 15   7  10  1   
 16   7  11  1   
 17   8   9  1   
 18   8  12  1   
 19   8  32  1   
 20   9  13  1   
 21   9  33  1   
 22  10  14  2   
 23  11  15  2   
 24  11  16  1   
 25  12  34  1   
 26  13  17  1   
 27  13  35  1   
 28  13  36  1   
 29  14  15  1   
 30  14  18  1   
 31  15  19  1   
 32  16  37  1   
 33  16  38  1   
 34  16  39  1   
 35  17  20  ar  
 36  17  21  ar  
 37  18  40  1   
 38  18  41  1   
 39  18  42  1   
 40  19  22  1   
 41  19  43  1   
 42  19  44  1   
 43  20  23  ar  
 44  21  24  ar  
 45  21  45  1   
 46  22  46  1   
 47  22  47  1   
 48  22  48  1   
 49  23  25  ar  
 50  23  49  1   
 51  24  25  ar  
 52  25  50  1   
@<TRIPOS>SUBSTRUCTURE
  1 ****  13 GROUP 4 **** **** 0

# MOE 2024.06 (io_trps.svl 2023.06)
