@<TRIPOS>MOLECULE
NONAME
39 41 1 0 0 
SMALL
USER_CHARGES


@<TRIPOS>ATOM
  1 CL       0.8260     1.5080     1.6620 Cl    1 <1>  -0.1770 
  2 C        2.3010     1.9170     0.8180 C.ar  1 <1>   0.1770 
  3 C        3.0120     3.0520     1.1720 C.ar  1 <1>   0.1600 
  4 C        2.7470     1.1020    -0.2000 C.ar  1 <1>  -0.1500 
  5 N        4.1410     3.4470     0.5930 N.ar  1 <1>  -0.6200 
  6 C        3.9130     1.5100    -0.7980 C.ar  1 <1>   0.1900 
  7 C        4.5980     2.6740    -0.3960 C.ar  1 <1>   0.4100 
  8 F        4.3770     0.7730    -1.7810 F     1 <1>  -0.1900 
  9 N        5.7860     3.0880    -0.9950 N.pl3 1 <1>  -0.8380 
 10 C        6.1110     4.5480    -1.0770 C.3   1 <1>   0.2090 
 11 C        6.9800     2.2040    -0.9140 C.3   1 <1>   0.2090 
 12 C        6.9860     4.9800     0.1150 C.3   1 <1>   0.2000 
 13 C        7.8610     2.6200     0.2710 C.3   1 <1>  -0.1600 
 14 O        7.4070     6.3010    -0.0480 O.3   1 <1>  -0.5600 
 15 C        8.2430     4.1100     0.2160 C.3   1 <1>  -0.1600 
 16 C        6.4850     7.2640     0.3940 C.3   1 <1>   0.2630 
 17 C        6.9640     8.6910     0.1320 C.ar  1 <1>   0.1670 
 18 N        6.0750     9.6410     0.3930 N.ar  1 <1>  -0.6200 
 19 C        8.2450     8.9510    -0.3420 C.ar  1 <1>  -0.1500 
 20 C        6.4730    10.8840     0.1740 C.ar  1 <1>   0.1600 
 21 C        8.6460    10.2510    -0.5650 C.ar  1 <1>  -0.1500 
 22 C        7.7260    11.2390    -0.2960 C.ar  1 <1>  -0.1500 
 23 H        2.6290     3.6620     1.9710 H     1 <1>   0.1500 
 24 H        2.2200     0.2160    -0.5010 H     1 <1>   0.1500 
 25 H        5.1990     5.1170    -1.0920 H     1 <1>   0.0800 
 26 H        6.6420     4.7320    -1.9940 H     1 <1>   0.0800 
 27 H        7.5360     2.2830    -1.8320 H     1 <1>   0.0800 
 28 H        6.6790     1.1780    -0.7940 H     1 <1>   0.0800 
 29 H        6.4210     4.8990     1.0290 H     1 <1>   0.0800 
 30 H        8.7530     2.0200     0.2750 H     1 <1>   0.0800 
 31 H        7.3260     2.4190     1.1830 H     1 <1>   0.0800 
 32 H        8.7920     4.3760     1.1010 H     1 <1>   0.0800 
 33 H        8.8650     4.2850    -0.6440 H     1 <1>   0.0800 
 34 H        6.3350     7.1320     1.4510 H     1 <1>   0.0800 
 35 H        5.5520     7.1120    -0.1170 H     1 <1>   0.0800 
 36 H        8.9280     8.1430    -0.5350 H     1 <1>   0.1500 
 37 H        5.7610    11.6640     0.3810 H     1 <1>   0.1500 
 38 H        9.6310    10.4790    -0.9320 H     1 <1>   0.1500 
 39 H        7.9730    12.2740    -0.4480 H     1 <1>   0.1500 
@<TRIPOS>BOND
  1   1   2  1   
  2   2   3  ar  
  3   2   4  ar  
  4   3   5  ar  
  5   3  23  1   
  6   4   6  ar  
  7   4  24  1   
  8   5   7  ar  
  9   6   7  ar  
 10   6   8  1   
 11   7   9  1   
 12   9  10  1   
 13   9  11  1   
 14  10  12  1   
 15  10  25  1   
 16  10  26  1   
 17  11  13  1   
 18  11  27  1   
 19  11  28  1   
 20  12  14  1   
 21  12  15  1   
 22  12  29  1   
 23  13  15  1   
 24  13  30  1   
 25  13  31  1   
 26  14  16  1   
 27  15  32  1   
 28  15  33  1   
 29  16  17  1   
 30  16  34  1   
 31  16  35  1   
 32  17  18  ar  
 33  17  19  ar  
 34  18  20  ar  
 35  19  21  ar  
 36  19  36  1   
 37  20  22  ar  
 38  20  37  1   
 39  21  22  ar  
 40  21  38  1   
 41  22  39  1   
@<TRIPOS>SUBSTRUCTURE
  1 ****  10 GROUP 4 **** **** 0

# MOE 2024.06 (io_trps.svl 2023.06)
