@<TRIPOS>MOLECULE
NONAME
44 46 1 0 0 
SMALL
USER_CHARGES


@<TRIPOS>ATOM
  1 F        1.0510     2.7820    -2.7020 F     1 <1>  -0.1900 
  2 C        1.9380     2.6710    -1.7500 C.ar  1 <1>   0.1900 
  3 C        2.4450     3.8200    -1.1780 C.ar  1 <1>  -0.1500 
  4 C        2.3370     1.4080    -1.3560 C.ar  1 <1>  -0.1500 
  5 C        3.3920     3.7040    -0.1740 C.ar  1 <1>   0.0830 
  6 C        3.2780     1.2970    -0.3460 C.ar  1 <1>  -0.1500 
  7 O        3.8710     4.8600     0.3440 O.3   1 <1>  -0.3630 
  8 C        3.8030     2.4370     0.2440 C.ar  1 <1>  -0.1500 
  9 C        4.9590     4.8650     1.2570 C.3   1 <1>   0.1810 
 10 C        5.4290     6.2880     1.5570 C.2   1 <1>   0.5690 
 11 O        5.6620     6.5580     2.7120 O.2   1 <1>  -0.5700 
 12 N        5.6290     7.2360     0.5730 N.am  1 <1>  -0.6600 
 13 C        5.7630     8.6800     0.9570 C.3   1 <1>   0.1400 
 14 C        5.6940     6.9170    -0.8790 C.3   1 <1>   0.1400 
 15 C        7.1840     9.2510     0.7510 C.3   1 <1>   0.4230 
 16 C        6.9650     7.4570    -1.5560 C.3   1 <1>  -0.0800 
 17 N        7.4250     9.7960    -0.6330 N.4   1 <1>  -0.9590 
 18 C        8.3080     8.2280     1.0560 C.3   1 <1>   0.1200 
 19 C        8.2750     6.9070    -0.9330 C.3   1 <1>   0.1200 
 20 C        6.8820     8.9810    -1.7630 C.3   1 <1>   0.3430 
 21 C        7.1090    11.2480    -0.7660 C.3   1 <1>   0.2630 
 22 O        8.9550     7.8330    -0.1320 O.3   1 <1>  -0.5600 
 23 H        2.1070     4.7850    -1.5060 H     1 <1>   0.1500 
 24 H        1.9170     0.5380    -1.8280 H     1 <1>   0.1500 
 25 H        3.6000     0.3220    -0.0190 H     1 <1>   0.1500 
 26 H        4.5260     2.3140     1.0290 H     1 <1>   0.1500 
 27 H        4.6310     4.3980     2.1680 H     1 <1>   0.0800 
 28 H        5.7700     4.3030     0.8310 H     1 <1>   0.0800 
 29 H        5.0440     9.2670     0.4150 H     1 <1>   0.0800 
 30 H        5.5180     8.7910     1.9990 H     1 <1>   0.0800 
 31 H        5.6760     5.8510    -1.0220 H     1 <1>   0.0800 
 32 H        4.8150     7.3120    -1.3610 H     1 <1>   0.0800 
 33 H        7.2940    10.0580     1.4560 H     1 <1>   0.0800 
 34 H        6.9200     7.0370    -2.5450 H     1 <1>   0.0800 
 35 H        8.4500     9.6520    -0.7190 H     1 <1>   0.4500 
 36 H        7.9630     7.3610     1.5910 H     1 <1>   0.0800 
 37 H        9.0510     8.7040     1.6720 H     1 <1>   0.0800 
 38 H        8.9570     6.6400    -1.7240 H     1 <1>   0.0800 
 39 H        8.0910     6.0200    -0.3500 H     1 <1>   0.0800 
 40 H        5.8530     9.2480    -1.9370 H     1 <1>   0.0800 
 41 H        7.4350     9.2310    -2.6550 H     1 <1>   0.0800 
 42 H        6.0480    11.4120    -0.6650 H     1 <1>   0.0800 
 43 H        7.4240    11.6120    -1.7310 H     1 <1>   0.0800 
 44 H        7.6210    11.8140    -0.0050 H     1 <1>   0.0800 
@<TRIPOS>BOND
  1   1   2  1   
  2   2   3  ar  
  3   2   4  ar  
  4   3   5  ar  
  5   3  23  1   
  6   4   6  ar  
  7   4  24  1   
  8   5   7  1   
  9   5   8  ar  
 10   6   8  ar  
 11   6  25  1   
 12   7   9  1   
 13   8  26  1   
 14   9  10  1   
 15   9  27  1   
 16   9  28  1   
 17  10  11  2   
 18  10  12  am  
 19  12  13  1   
 20  12  14  1   
 21  13  15  1   
 22  13  29  1   
 23  13  30  1   
 24  14  16  1   
 25  14  31  1   
 26  14  32  1   
 27  15  17  1   
 28  15  18  1   
 29  15  33  1   
 30  16  19  1   
 31  16  20  1   
 32  16  34  1   
 33  17  20  1   
 34  17  21  1   
 35  17  35  1   
 36  18  22  1   
 37  18  36  1   
 38  18  37  1   
 39  19  22  1   
 40  19  38  1   
 41  19  39  1   
 42  20  40  1   
 43  20  41  1   
 44  21  42  1   
 45  21  43  1   
 46  21  44  1   
@<TRIPOS>SUBSTRUCTURE
  1 ****  14 GROUP 4 **** **** 0

# MOE 2024.06 (io_trps.svl 2023.06)
