@<TRIPOS>MOLECULE
NONAME
54 58 1 0 0 
SMALL
USER_CHARGES


@<TRIPOS>ATOM
  1 O       -0.6760     0.0650     1.5560 O.2   1 <1>  -0.5700 
  2 C       -1.5770     0.0180     0.7290 C.2   1 <1>   0.7160 
  3 N       -2.2890    -1.1650     0.6830 N.am  1 <1>  -0.6600 
  4 C       -1.8520     1.1540    -0.1760 C.2   1 <1>   0.4300 
  5 C       -1.8790    -2.4700     1.1780 C.3   1 <1>   0.2200 
  6 C       -3.6490    -1.4660     0.2880 C.3   1 <1>   0.2200 
  7 N       -2.8100     1.1700    -1.0920 N.2   1 <1>  -0.7070 
  8 N       -1.1010     2.2840    -0.1490 N.2   1 <1>  -0.5650 
  9 C       -2.1550    -3.3600    -0.0670 C.3   1 <1>   0.0610 
 10 C       -2.9570    -2.6410     2.2650 C.3   1 <1>  -0.1600 
 11 C       -3.4120    -2.6440    -0.6640 C.3   1 <1>  -0.1600 
 12 C       -4.1990    -1.9980     1.6170 C.3   1 <1>  -0.1600 
 13 N       -2.6270     2.3270    -1.6910 N.pl3 1 <1>   0.6010 
 14 C       -1.5940     2.9880    -1.1060 C.2   1 <1>   0.3120 
 15 C       -2.3900    -4.8210     0.3480 C.2   1 <1>   0.5690 
 16 C       -0.9580    -3.4090    -1.0620 C.3   1 <1>  -0.0160 
 17 C       -3.3040     2.8950    -2.7500 C.2   1 <1>  -0.1810 
 18 N       -1.1680     4.2310    -1.5130 N.2   1 <1>  -0.5760 
 19 O       -1.6840    -5.3060     1.2000 O.2   1 <1>  -0.5700 
 20 N       -3.3390    -5.5700    -0.2800 N.am  1 <1>  -0.7300 
 21 C       -0.4710    -2.1040    -1.6900 C.ar  1 <1>  -0.1430 
 22 C       -2.8950     4.1220    -3.1660 C.2   1 <1>  -0.1360 
 23 C       -1.8060     4.7590    -2.5050 C.2   1 <1>   0.3760 
 24 C       -3.6560    -6.9770     0.0310 C.3   1 <1>   0.1400 
 25 C       -0.9710    -1.6670    -2.9090 C.ar  1 <1>  -0.1500 
 26 C        0.5050    -1.3490    -1.0570 C.ar  1 <1>  -0.1500 
 27 C       -5.1680    -7.1150     0.1580 C.3   1 <1>  -0.2400 
 28 C       -0.5240    -0.4830    -3.4710 C.ar  1 <1>  -0.1500 
 29 C        0.9510    -0.1640    -1.6150 C.ar  1 <1>  -0.1500 
 30 C        0.4350     0.2720    -2.8210 C.ar  1 <1>  -0.1500 
 31 H       -0.8670    -2.5070     1.5460 H     1 <1>   0.0800 
 32 H       -4.2090    -0.6450    -0.1260 H     1 <1>   0.0800 
 33 H       -3.1220    -3.6600     2.5600 H     1 <1>   0.0800 
 34 H       -2.6620    -2.0830     3.1370 H     1 <1>   0.0800 
 35 H       -4.2930    -3.2550    -0.7090 H     1 <1>   0.0800 
 36 H       -3.2280    -2.2580    -1.6470 H     1 <1>   0.0800 
 37 H       -4.5590    -1.1830     2.2190 H     1 <1>   0.0800 
 38 H       -4.9960    -2.7050     1.4690 H     1 <1>   0.0800 
 39 H       -0.1210    -3.8570    -0.5550 H     1 <1>   0.0800 
 40 H       -1.2130    -4.0800    -1.8630 H     1 <1>   0.0800 
 41 H       -4.1090     2.3230    -3.1720 H     1 <1>   0.1500 
 42 H       -3.8810    -5.1620    -1.0420 H     1 <1>   0.3700 
 43 H       -3.3640     4.6410    -3.9840 H     1 <1>   0.1500 
 44 H       -1.5090     5.7300    -2.8580 H     1 <1>   0.0600 
 45 H       -3.2870    -7.6090    -0.7590 H     1 <1>   0.0800 
 46 H       -3.1800    -7.2690     0.9530 H     1 <1>   0.0800 
 47 H       -1.7110    -2.2460    -3.4300 H     1 <1>   0.1500 
 48 H        0.9150    -1.6700    -0.1150 H     1 <1>   0.1500 
 49 H       -5.6520    -6.8530    -0.7650 H     1 <1>   0.0800 
 50 H       -5.5320    -6.4840     0.9500 H     1 <1>   0.0800 
 51 H       -5.4160    -8.1340     0.3960 H     1 <1>   0.0800 
 52 H       -0.9210    -0.1510    -4.4130 H     1 <1>   0.1500 
 53 H        1.6920     0.4230    -1.1000 H     1 <1>   0.1500 
 54 H        0.7820     1.1970    -3.2460 H     1 <1>   0.1500 
@<TRIPOS>BOND
  1   1   2  2   
  2   2   3  am  
  3   2   4  1   
  4   3   5  1   
  5   3   6  1   
  6   4   7  2   
  7   4   8  1   
  8   5   9  1   
  9   5  10  1   
 10   5  31  1   
 11   6  11  1   
 12   6  12  1   
 13   6  32  1   
 14   7  13  1   
 15   8  14  2   
 16   9  11  1   
 17   9  15  1   
 18   9  16  1   
 19  10  12  1   
 20  10  33  1   
 21  10  34  1   
 22  11  35  1   
 23  11  36  1   
 24  12  37  1   
 25  12  38  1   
 26  13  14  1   
 27  13  17  1   
 28  14  18  1   
 29  15  19  2   
 30  15  20  am  
 31  16  21  1   
 32  16  39  1   
 33  16  40  1   
 34  17  22  2   
 35  17  41  1   
 36  18  23  2   
 37  20  24  1   
 38  20  42  1   
 39  21  25  ar  
 40  21  26  ar  
 41  22  23  1   
 42  22  43  1   
 43  23  44  1   
 44  24  27  1   
 45  24  45  1   
 46  24  46  1   
 47  25  28  ar  
 48  25  47  1   
 49  26  29  ar  
 50  26  48  1   
 51  27  49  1   
 52  27  50  1   
 53  27  51  1   
 54  28  30  ar  
 55  28  52  1   
 56  29  30  ar  
 57  29  53  1   
 58  30  54  1   
@<TRIPOS>SUBSTRUCTURE
  1 ****   3 GROUP 4 **** **** 0

# MOE 2024.06 (io_trps.svl 2023.06)
