@<TRIPOS>MOLECULE
NONAME
51 54 1 0 0 
SMALL
USER_CHARGES


@<TRIPOS>ATOM
  1 CL      -0.2190    -0.1590    -0.6520 Cl    1 <1>  -0.1770 
  2 C       -0.2980    -1.8840    -0.4400 C.ar  1 <1>   0.1770 
  3 C       -1.5180    -2.5010    -0.3570 C.ar  1 <1>  -0.1500 
  4 C        0.8850    -2.6090    -0.3580 C.ar  1 <1>  -0.1500 
  5 C       -1.5830    -3.8860    -0.1870 C.ar  1 <1>   0.3610 
  6 C        0.8320    -3.9720    -0.1900 C.ar  1 <1>  -0.1500 
  7 N       -2.8010    -4.5340    -0.0950 N.ar  1 <1>  -0.1790 
  8 C       -0.4000    -4.6480    -0.1000 C.ar  1 <1>   0.0000 
  9 C       -2.9600    -5.8490     0.0740 C.ar  1 <1>   0.4610 
 10 C       -0.5300    -6.0600     0.0720 C.ar  1 <1>  -0.1430 
 11 N       -4.2110    -6.3570     0.1760 N.pl3 1 <1>  -0.8380 
 12 C       -1.7700    -6.6200     0.1520 C.ar  1 <1>  -0.1500 
 13 C        0.7150    -6.9360     0.1590 C.3   1 <1>  -0.0970 
 14 C       -4.5440    -7.6810     0.8420 C.3   1 <1>   0.2090 
 15 C       -5.4620    -5.6170    -0.2230 C.3   1 <1>   0.2090 
 16 C       -5.4570    -8.5810    -0.0440 C.3   1 <1>   0.4230 
 17 C       -6.3330    -6.5060    -1.1190 C.3   1 <1>  -0.1600 
 18 N       -5.8040    -9.9170     0.5600 N.4   1 <1>  -0.9590 
 19 C       -6.7470    -7.8180    -0.4040 C.3   1 <1>  -0.1060 
 20 C       -6.5830   -10.7750    -0.3730 C.3   1 <1>   0.3430 
 21 C       -4.7030   -10.6680     1.2210 C.3   1 <1>   0.2630 
 22 C       -7.5120    -7.5030     0.8960 C.2   1 <1>   0.9060 
 23 C       -7.6100    -8.6670    -1.3680 C.3   1 <1>  -0.1600 
 24 C       -7.8720   -10.0690    -0.7980 C.3   1 <1>  -0.1600 
 25 O       -7.4260    -8.2960     1.8450 O.co2 1 <1>  -0.9000 
 26 O       -8.1280    -6.4440     0.9890 O.co2 1 <1>  -0.9000 
 27 H       -2.4110    -1.9060    -0.4240 H     1 <1>   0.1500 
 28 H        1.8250    -2.0880    -0.4270 H     1 <1>   0.1500 
 29 H        1.7560    -4.5210    -0.1280 H     1 <1>   0.1500 
 30 H       -3.6480    -3.9760    -0.0940 H     1 <1>   0.4570 
 31 H       -1.8590    -7.6820     0.2600 H     1 <1>   0.1500 
 32 H        0.4570    -7.9730     0.2810 H     1 <1>   0.0800 
 33 H        1.3200    -6.6430     0.9990 H     1 <1>   0.0800 
 34 H        1.3000    -6.8440    -0.7400 H     1 <1>   0.0800 
 35 H       -3.6500    -8.2170     1.0840 H     1 <1>   0.0800 
 36 H       -5.0460    -7.4720     1.7720 H     1 <1>   0.0800 
 37 H       -6.0060    -5.3220     0.6620 H     1 <1>   0.0800 
 38 H       -5.2370    -4.7240    -0.7770 H     1 <1>   0.0800 
 39 H       -4.9180    -8.7650    -0.9570 H     1 <1>   0.0800 
 40 H       -7.2210    -5.9550    -1.3810 H     1 <1>   0.0800 
 41 H       -5.8050    -6.7170    -2.0320 H     1 <1>   0.0800 
 42 H       -6.4960    -9.6210     1.3040 H     1 <1>   0.4500 
 43 H       -5.9890   -10.9960    -1.2450 H     1 <1>   0.0800 
 44 H       -6.8370   -11.7050     0.1110 H     1 <1>   0.0800 
 45 H       -3.9380   -10.9200     0.5070 H     1 <1>   0.0800 
 46 H       -5.0880   -11.5760     1.6560 H     1 <1>   0.0800 
 47 H       -4.2710   -10.0760     2.0120 H     1 <1>   0.0800 
 48 H       -8.5520    -8.1690    -1.5350 H     1 <1>   0.0800 
 49 H       -7.1150    -8.7610    -2.3190 H     1 <1>   0.0800 
 50 H       -8.3760   -10.6660    -1.5370 H     1 <1>   0.0800 
 51 H       -8.5290    -9.9990     0.0530 H     1 <1>   0.0800 
@<TRIPOS>BOND
  1   1   2  1   
  2   2   3  ar  
  3   2   4  ar  
  4   3   5  ar  
  5   3  27  1   
  6   4   6  ar  
  7   4  28  1   
  8   5   7  ar  
  9   5   8  ar  
 10   6   8  ar  
 11   6  29  1   
 12   7   9  ar  
 13   7  30  1   
 14   8  10  ar  
 15   9  11  1   
 16   9  12  ar  
 17  10  12  ar  
 18  10  13  1   
 19  11  14  1   
 20  11  15  1   
 21  12  31  1   
 22  13  32  1   
 23  13  33  1   
 24  13  34  1   
 25  14  16  1   
 26  14  35  1   
 27  14  36  1   
 28  15  17  1   
 29  15  37  1   
 30  15  38  1   
 31  16  18  1   
 32  16  19  1   
 33  16  39  1   
 34  17  19  1   
 35  17  40  1   
 36  17  41  1   
 37  18  20  1   
 38  18  21  1   
 39  18  42  1   
 40  19  22  1   
 41  19  23  1   
 42  20  24  1   
 43  20  43  1   
 44  20  44  1   
 45  21  45  1   
 46  21  46  1   
 47  21  47  1   
 48  22  25  ar  
 49  22  26  ar  
 50  23  24  1   
 51  23  48  1   
 52  23  49  1   
 53  24  50  1   
 54  24  51  1   
@<TRIPOS>SUBSTRUCTURE
  1 ****  11 GROUP 4 **** **** 0

# MOE 2024.06 (io_trps.svl 2023.06)
