@<TRIPOS>MOLECULE
NONAME
41 42 1 0 0 
SMALL
USER_CHARGES


@<TRIPOS>ATOM
  1 O       -0.6040    -0.6480    -0.3540 O.3   1 <1>  -0.3630 
  2 C       -1.9010    -1.0370    -0.2670 C.ar  1 <1>   0.0830 
  3 C        0.1540    -0.3630     0.7980 C.3   1 <1>   0.1200 
  4 C       -2.5950    -1.1680     0.9320 C.ar  1 <1>  -0.1500 
  5 C       -2.5490    -1.3150    -1.4580 C.ar  1 <1>  -0.1500 
  6 C        1.5590     0.0320     0.3530 C.3   1 <1>  -0.2400 
  7 C       -3.9190    -1.5700     0.9260 C.ar  1 <1>  -0.1500 
  8 C       -3.8730    -1.7170    -1.4610 C.ar  1 <1>  -0.1500 
  9 C       -4.5730    -1.8460    -0.2680 C.ar  1 <1>  -0.1430 
 10 C       -6.0340    -2.2870    -0.2540 C.3   1 <1>   0.4330 
 11 N       -6.1100    -3.6080    -0.8880 N.pl3 1 <1>  -0.8690 
 12 C       -6.9530    -1.3190    -1.0110 C.3   1 <1>  -0.1600 
 13 C       -6.6760    -4.6420    -0.1960 C.ar  1 <1>   0.4100 
 14 C       -6.9680     0.0940    -0.4060 C.3   1 <1>  -0.2400 
 15 N       -5.8420    -5.6350     0.0420 N.ar  1 <1>  -0.6200 
 16 C       -8.0150    -4.6490     0.2290 C.ar  1 <1>   0.1600 
 17 C       -6.4030    -6.6180     0.7250 C.ar  1 <1>   0.1670 
 18 N       -8.5820    -5.6200     0.9190 N.ar  1 <1>  -0.6200 
 19 C       -7.7290    -6.6080     1.1510 C.ar  1 <1>   0.1600 
 20 C       -5.5030    -7.7960     1.0350 C.3   1 <1>  -0.0970 
 21 H        0.1840    -1.2460     1.4130 H     1 <1>   0.0800 
 22 H       -0.3200     0.4460     1.3260 H     1 <1>   0.0800 
 23 H       -2.1240    -0.9640     1.8740 H     1 <1>   0.1500 
 24 H       -2.0090    -1.2150    -2.3820 H     1 <1>   0.1500 
 25 H        2.0150    -0.7770    -0.1890 H     1 <1>   0.0800 
 26 H        2.1650     0.2560     1.2120 H     1 <1>   0.0800 
 27 H        1.5150     0.9040    -0.2740 H     1 <1>   0.0800 
 28 H       -4.4400    -1.6700     1.8620 H     1 <1>   0.1500 
 29 H       -4.3570    -1.9300    -2.3990 H     1 <1>   0.1500 
 30 H       -6.3710    -2.3620     0.7670 H     1 <1>   0.0800 
 31 H       -5.1620    -3.8830    -1.1580 H     1 <1>   0.4000 
 32 H       -7.9550    -1.7080    -0.9960 H     1 <1>   0.0800 
 33 H       -6.6390    -1.2570    -2.0380 H     1 <1>   0.0800 
 34 H       -7.2830     0.0620     0.6220 H     1 <1>   0.0800 
 35 H       -7.6500     0.7210    -0.9540 H     1 <1>   0.0800 
 36 H       -5.9880     0.5380    -0.4550 H     1 <1>   0.0800 
 37 H       -8.6230    -3.8030    -0.0290 H     1 <1>   0.1500 
 38 H       -8.1060    -7.4490     1.7050 H     1 <1>   0.1500 
 39 H       -4.6610    -7.4620     1.6130 H     1 <1>   0.0800 
 40 H       -5.1430    -8.2230     0.1170 H     1 <1>   0.0800 
 41 H       -6.0280    -8.5530     1.5890 H     1 <1>   0.0800 
@<TRIPOS>BOND
  1   1   2  1   
  2   1   3  1   
  3   2   4  ar  
  4   2   5  ar  
  5   3   6  1   
  6   3  21  1   
  7   3  22  1   
  8   4   7  ar  
  9   4  23  1   
 10   5   8  ar  
 11   5  24  1   
 12   6  25  1   
 13   6  26  1   
 14   6  27  1   
 15   7   9  ar  
 16   7  28  1   
 17   8   9  ar  
 18   8  29  1   
 19   9  10  1   
 20  10  11  1   
 21  10  12  1   
 22  10  30  1   
 23  11  13  1   
 24  11  31  1   
 25  12  14  1   
 26  12  32  1   
 27  12  33  1   
 28  13  15  ar  
 29  13  16  ar  
 30  14  34  1   
 31  14  35  1   
 32  14  36  1   
 33  15  17  ar  
 34  16  18  ar  
 35  16  37  1   
 36  17  19  ar  
 37  17  20  1   
 38  18  19  ar  
 39  19  38  1   
 40  20  39  1   
 41  20  40  1   
 42  20  41  1   
@<TRIPOS>SUBSTRUCTURE
  1 ****   9 GROUP 4 **** **** 0

# MOE 2024.06 (io_trps.svl 2023.06)
