@<TRIPOS>MOLECULE
NONAME
46 48 1 0 0 
SMALL
USER_CHARGES


@<TRIPOS>ATOM
  1 O       -0.7900    -0.0010     0.6280 O.2   1 <1>  -0.5700 
  2 C       -1.7020     0.3230    -0.0850 C.2   1 <1>   0.4230 
  3 C       -3.0270    -0.2080     0.0780 C.ar  1 <1>   0.0860 
  4 C       -1.3750     1.2730    -1.2200 C.3   1 <1>  -0.1790 
  5 C       -4.2200     0.5090     0.0110 C.ar  1 <1>   0.1660 
  6 C       -3.1770    -1.5620     0.3320 C.ar  1 <1>   0.1600 
  7 N       -5.3920    -0.0670     0.1170 N.ar  1 <1>  -0.6200 
  8 C       -4.2620     2.0190    -0.1640 C.3   1 <1>  -0.0960 
  9 N       -4.3370    -2.1590     0.4520 N.ar  1 <1>  -0.6200 
 10 C       -5.4030    -1.3790     0.3260 C.ar  1 <1>   0.7200 
 11 N       -6.6210    -1.9790     0.4200 N.3   1 <1>  -0.5900 
 12 C       -7.8190    -1.3170     1.0350 C.3   1 <1>   0.2450 
 13 C       -6.8950    -3.1480     1.3180 C.3   1 <1>   0.2450 
 14 C       -8.4030    -2.7540     1.2050 C.3   1 <1>   0.4720 
 15 N       -9.1470    -3.2490    -0.0260 N.4   1 <1>  -0.9280 
 16 C      -10.6170    -2.9650     0.0020 C.3   1 <1>   0.4230 
 17 C       -8.8870    -4.7010    -0.2790 C.3   1 <1>   0.3430 
 18 C      -11.2470    -3.3710    -1.3380 C.3   1 <1>  -0.1600 
 19 C      -10.9230    -1.4910     0.2690 C.3   1 <1>  -0.2400 
 20 C       -9.4850    -5.1290    -1.6190 C.3   1 <1>  -0.1600 
 21 C      -10.9860    -4.8400    -1.6810 C.3   1 <1>  -0.1600 
 22 H       -2.1160     1.2170    -1.9950 H     1 <1>   0.0800 
 23 H       -0.4220     1.0060    -1.6410 H     1 <1>   0.0800 
 24 H       -1.3110     2.2790    -0.8480 H     1 <1>   0.0800 
 25 H       -2.2880    -2.1650     0.4330 H     1 <1>   0.1500 
 26 H       -3.4460     2.4890     0.3530 H     1 <1>   0.0800 
 27 H       -5.1760     2.4120     0.2450 H     1 <1>   0.0800 
 28 H       -4.2250     2.2720    -1.2070 H     1 <1>   0.0800 
 29 H       -8.3350    -0.6920     0.3300 H     1 <1>   0.0000 
 30 H       -7.5720    -0.8280     1.9620 H     1 <1>   0.0000 
 31 H       -6.4800    -2.9960     2.3000 H     1 <1>   0.0000 
 32 H       -6.6100    -4.0830     0.8750 H     1 <1>   0.0000 
 33 H       -8.9610    -2.9090     2.1100 H     1 <1>   0.0000 
 34 H       -8.7370    -2.7330    -0.8150 H     1 <1>   0.4500 
 35 H      -11.0720    -3.5550     0.7830 H     1 <1>   0.0800 
 36 H       -9.3180    -5.2930     0.5130 H     1 <1>   0.0800 
 37 H       -7.8290    -4.8950    -0.3110 H     1 <1>   0.0800 
 38 H      -10.8630    -2.7430    -2.1240 H     1 <1>   0.0800 
 39 H      -12.3110    -3.2130    -1.2940 H     1 <1>   0.0800 
 40 H      -10.4600    -0.8580    -0.4670 H     1 <1>   0.0800 
 41 H      -10.6210    -1.1960     1.2570 H     1 <1>   0.0800 
 42 H      -11.9860    -1.3320     0.2110 H     1 <1>   0.0800 
 43 H       -9.3190    -6.1840    -1.7570 H     1 <1>   0.0800 
 44 H       -8.9760    -4.6170    -2.4180 H     1 <1>   0.0800 
 45 H      -11.3610    -5.0600    -2.6670 H     1 <1>   0.0800 
 46 H      -11.5070    -5.4740    -0.9820 H     1 <1>   0.0800 
@<TRIPOS>BOND
  1   1   2  2   
  2   2   3  1   
  3   2   4  1   
  4   3   5  ar  
  5   3   6  ar  
  6   4  22  1   
  7   4  23  1   
  8   4  24  1   
  9   5   7  ar  
 10   5   8  1   
 11   6   9  ar  
 12   6  25  1   
 13   7  10  ar  
 14   8  26  1   
 15   8  27  1   
 16   8  28  1   
 17   9  10  ar  
 18  10  11  1   
 19  11  12  1   
 20  11  13  1   
 21  12  14  1   
 22  12  29  1   
 23  12  30  1   
 24  13  14  1   
 25  13  31  1   
 26  13  32  1   
 27  14  15  1   
 28  14  33  1   
 29  15  16  1   
 30  15  17  1   
 31  15  34  1   
 32  16  18  1   
 33  16  19  1   
 34  16  35  1   
 35  17  20  1   
 36  17  36  1   
 37  17  37  1   
 38  18  21  1   
 39  18  38  1   
 40  18  39  1   
 41  19  40  1   
 42  19  41  1   
 43  19  42  1   
 44  20  21  1   
 45  20  43  1   
 46  20  44  1   
 47  21  45  1   
 48  21  46  1   
@<TRIPOS>SUBSTRUCTURE
  1 ****  11 GROUP 4 **** **** 0

# MOE 2024.06 (io_trps.svl 2023.06)
