@<TRIPOS>MOLECULE
NONAME
49 52 1 0 0 
SMALL
USER_CHARGES


@<TRIPOS>ATOM
  1 O        1.7820     0.3940     2.0120 O.2   1 <1>  -0.5700 
  2 C        2.0710    -0.1050     0.9490 C.2   1 <1>   0.5690 
  3 N        2.0150     0.6620    -0.1980 N.am  1 <1>  -0.6600 
  4 C        2.5550    -1.5640     0.9140 C.3   1 <1>   0.1250 
  5 C        2.6120     0.2860    -1.5220 C.3   1 <1>   0.1400 
  6 C        1.3860     2.0120    -0.1640 C.3   1 <1>   0.1400 
  7 C        1.5280    -2.5730     0.4310 C.ar  1 <1>  -0.1440 
  8 C        2.9950    -2.1670     2.2670 C.3   1 <1>  -0.1600 
  9 C        4.0510     0.8210    -1.6830 C.3   1 <1>   0.3430 
 10 C        2.4280     3.0850     0.1700 C.3   1 <1>  -0.1600 
 11 C        1.6750    -3.7630     1.1030 C.ar  1 <1>  -0.1440 
 12 C        0.5420    -2.4350    -0.5320 C.ar  1 <1>  -0.1500 
 13 C        2.7690    -3.6810     2.1390 C.3   1 <1>  -0.0160 
 14 N        4.4000     1.8530    -0.6490 N.4   1 <1>  -0.9590 
 15 C        3.6360     3.1200    -0.7680 C.3   1 <1>   0.3430 
 16 C        0.8680    -4.8480     0.8180 C.ar  1 <1>  -0.1500 
 17 C       -0.2740    -3.5160    -0.8250 C.ar  1 <1>  -0.1500 
 18 C        5.8690     2.0290    -0.4770 C.3   1 <1>   0.5230 
 19 C       -0.1100    -4.7200    -0.1560 C.ar  1 <1>  -0.1500 
 20 C        6.4620     0.7810     0.1760 C.2   1 <1>   0.0060 
 21 N        5.7540    -0.2030     0.6440 N.2   1 <1>  -0.5650 
 22 N        7.7960     0.6000     0.3300 N.pl3 1 <1>   0.0330 
 23 C        6.6700    -1.0660     1.1240 C.2   1 <1>   0.0770 
 24 C        7.9200    -0.5920     0.9390 C.2   1 <1>  -0.3020 
 25 H        3.4020    -1.6300     0.2590 H     1 <1>   0.0800 
 26 H        1.9990     0.6820    -2.3130 H     1 <1>   0.0800 
 27 H        2.6170    -0.7820    -1.6490 H     1 <1>   0.0800 
 28 H        0.6080     2.0270     0.5830 H     1 <1>   0.0800 
 29 H        0.9190     2.2220    -1.1120 H     1 <1>   0.0800 
 30 H        2.3530    -1.8020     3.0500 H     1 <1>   0.0800 
 31 H        4.0130    -1.9210     2.5090 H     1 <1>   0.0800 
 32 H        4.1830     1.2180    -2.6750 H     1 <1>   0.0800 
 33 H        4.7200    -0.0190    -1.5810 H     1 <1>   0.0800 
 34 H        2.7560     2.9550     1.1870 H     1 <1>   0.0800 
 35 H        1.9390     4.0420     0.1250 H     1 <1>   0.0800 
 36 H        0.3950    -1.5040    -1.0490 H     1 <1>   0.1500 
 37 H        2.4660    -4.1160     3.0750 H     1 <1>   0.0800 
 38 H        3.6530    -4.1730     1.7720 H     1 <1>   0.0800 
 39 H        4.0960     1.4060     0.2380 H     1 <1>   0.4500 
 40 H        4.2610     3.9520    -0.4870 H     1 <1>   0.0800 
 41 H        3.3130     3.2690    -1.7850 H     1 <1>   0.0800 
 42 H        0.9940    -5.7760     1.3470 H     1 <1>   0.1500 
 43 H       -1.0430    -3.4220    -1.5720 H     1 <1>   0.1500 
 44 H        6.0600     2.8730     0.1650 H     1 <1>   0.0800 
 45 H        6.3360     2.2060    -1.4320 H     1 <1>   0.0800 
 46 H       -0.7460    -5.5550    -0.3890 H     1 <1>   0.1500 
 47 H        8.5700     1.2180     0.0590 H     1 <1>   0.2700 
 48 H        6.3850    -1.9980     1.5870 H     1 <1>   0.1500 
 49 H        8.8660    -1.0310     1.2050 H     1 <1>   0.1500 
@<TRIPOS>BOND
  1   1   2  2   
  2   2   3  am  
  3   2   4  1   
  4   3   5  1   
  5   3   6  1   
  6   4   7  1   
  7   4   8  1   
  8   4  25  1   
  9   5   9  1   
 10   5  26  1   
 11   5  27  1   
 12   6  10  1   
 13   6  28  1   
 14   6  29  1   
 15   7  11  ar  
 16   7  12  ar  
 17   8  13  1   
 18   8  30  1   
 19   8  31  1   
 20   9  14  1   
 21   9  32  1   
 22   9  33  1   
 23  10  15  1   
 24  10  34  1   
 25  10  35  1   
 26  11  13  1   
 27  11  16  ar  
 28  12  17  ar  
 29  12  36  1   
 30  13  37  1   
 31  13  38  1   
 32  14  15  1   
 33  14  18  1   
 34  14  39  1   
 35  15  40  1   
 36  15  41  1   
 37  16  19  ar  
 38  16  42  1   
 39  17  19  ar  
 40  17  43  1   
 41  18  20  1   
 42  18  44  1   
 43  18  45  1   
 44  19  46  1   
 45  20  21  2   
 46  20  22  1   
 47  21  23  1   
 48  22  24  1   
 49  22  47  1   
 50  23  24  2   
 51  23  48  1   
 52  24  49  1   
@<TRIPOS>SUBSTRUCTURE
  1 ****   4 GROUP 4 **** **** 0

# MOE 2024.06 (io_trps.svl 2023.06)
