@<TRIPOS>MOLECULE
NONAME
54 55 1 0 0 
SMALL
USER_CHARGES


@<TRIPOS>ATOM
  1 O       -0.2830    -1.4470     0.7750 O.3   1 <1>  -0.6800 
  2 C       -1.3910    -1.3600    -0.0470 C.3   1 <1>   0.1200 
  3 C       -1.4590    -2.6140    -0.9230 C.3   1 <1>  -0.1600 
  4 C       -1.4110    -3.9090    -0.0850 C.3   1 <1>   0.4230 
  5 N       -0.1640    -4.7100    -0.3780 N.4   1 <1>  -0.9590 
  6 C       -2.6940    -4.7450    -0.3260 C.3   1 <1>   0.1100 
  7 C       -0.2080    -6.0270     0.3480 C.3   1 <1>   0.3430 
  8 C        1.0720    -3.9410    -0.0250 C.3   1 <1>   0.3430 
  9 N       -2.6940    -6.0160     0.4230 N.3   1 <1>  -0.8100 
 10 C       -1.5020    -6.8130     0.0760 C.3   1 <1>   0.1100 
 11 C        2.3610    -4.6320    -0.5100 C.3   1 <1>  -0.0800 
 12 C       -3.9430    -6.7620     0.1650 C.3   1 <1>   0.1100 
 13 C        3.0560    -5.4150     0.6170 C.3   1 <1>  -0.2400 
 14 C        3.3350    -3.5780    -1.0530 C.3   1 <1>  -0.2400 
 15 C       -4.2100    -7.8120     1.2470 C.3   1 <1>  -0.0170 
 16 C       -5.5090    -8.5350     0.9480 C.ar  1 <1>   0.1670 
 17 N       -5.5200    -9.2700    -0.1530 N.ar  1 <1>  -0.6200 
 18 C       -6.5920    -8.4020     1.8030 C.ar  1 <1>  -0.1500 
 19 C       -6.6500    -9.9010    -0.4190 C.ar  1 <1>   0.1670 
 20 C       -7.7670    -9.0620     1.5180 C.ar  1 <1>  -0.1500 
 21 C       -7.7850    -9.8290     0.3730 C.ar  1 <1>  -0.1500 
 22 C       -6.6540   -10.7410    -1.6780 C.3   1 <1>  -0.0970 
 23 H       -0.1880    -0.6270     1.3080 H     1 <1>   0.4000 
 24 H       -1.2990    -0.4730    -0.6540 H     1 <1>   0.0800 
 25 H       -2.2660    -1.2750     0.5770 H     1 <1>   0.0800 
 26 H       -0.6750    -2.5830    -1.6570 H     1 <1>   0.0800 
 27 H       -2.3850    -2.5610    -1.4680 H     1 <1>   0.0800 
 28 H       -1.4040    -3.6350     0.9580 H     1 <1>   0.0800 
 29 H       -0.1570    -4.8990    -1.3840 H     1 <1>   0.4500 
 30 H       -2.8030    -4.9450    -1.3790 H     1 <1>   0.0800 
 31 H       -3.5420    -4.1600    -0.0130 H     1 <1>   0.0800 
 32 H       -0.1350    -5.8550     1.4090 H     1 <1>   0.0800 
 33 H        0.6300    -6.6340     0.0500 H     1 <1>   0.0800 
 34 H        1.1190    -3.7750     1.0390 H     1 <1>   0.0800 
 35 H        1.0240    -2.9710    -0.4920 H     1 <1>   0.0800 
 36 H       -1.4800    -7.7090     0.6710 H     1 <1>   0.0800 
 37 H       -1.5390    -7.1070    -0.9600 H     1 <1>   0.0800 
 38 H        2.1320    -5.3030    -1.3210 H     1 <1>   0.0800 
 39 H       -3.9030    -7.2340    -0.8040 H     1 <1>   0.0800 
 40 H       -4.7770    -6.0800     0.1620 H     1 <1>   0.0800 
 41 H        3.3230    -4.7580     1.4270 H     1 <1>   0.0800 
 42 H        3.9600    -5.8690     0.2470 H     1 <1>   0.0800 
 43 H        2.4350    -6.1980     1.0080 H     1 <1>   0.0800 
 44 H        3.6110    -2.8760    -0.2850 H     1 <1>   0.0800 
 45 H        2.8910    -3.0350    -1.8700 H     1 <1>   0.0800 
 46 H        4.2330    -4.0490    -1.4180 H     1 <1>   0.0800 
 47 H       -4.2630    -7.3310     2.2060 H     1 <1>   0.0800 
 48 H       -3.4260    -8.5430     1.2700 H     1 <1>   0.0800 
 49 H       -6.5230    -7.7900     2.6840 H     1 <1>   0.1500 
 50 H       -8.6290    -8.9830     2.1570 H     1 <1>   0.1500 
 51 H       -8.6750   -10.3670     0.1020 H     1 <1>   0.1500 
 52 H       -5.8950   -11.4990    -1.6050 H     1 <1>   0.0800 
 53 H       -6.4390   -10.1170    -2.5260 H     1 <1>   0.0800 
 54 H       -7.6060   -11.2150    -1.8270 H     1 <1>   0.0800 
@<TRIPOS>BOND
  1   1   2  1   
  2   1  23  1   
  3   2   3  1   
  4   2  24  1   
  5   2  25  1   
  6   3   4  1   
  7   3  26  1   
  8   3  27  1   
  9   4   5  1   
 10   4   6  1   
 11   4  28  1   
 12   5   7  1   
 13   5   8  1   
 14   5  29  1   
 15   6   9  1   
 16   6  30  1   
 17   6  31  1   
 18   7  10  1   
 19   7  32  1   
 20   7  33  1   
 21   8  11  1   
 22   8  34  1   
 23   8  35  1   
 24   9  10  1   
 25   9  12  1   
 26  10  36  1   
 27  10  37  1   
 28  11  13  1   
 29  11  14  1   
 30  11  38  1   
 31  12  15  1   
 32  12  39  1   
 33  12  40  1   
 34  13  41  1   
 35  13  42  1   
 36  13  43  1   
 37  14  44  1   
 38  14  45  1   
 39  14  46  1   
 40  15  16  1   
 41  15  47  1   
 42  15  48  1   
 43  16  17  ar  
 44  16  18  ar  
 45  17  19  ar  
 46  18  20  ar  
 47  18  49  1   
 48  19  21  ar  
 49  19  22  1   
 50  20  21  ar  
 51  20  50  1   
 52  21  51  1   
 53  22  52  1   
 54  22  53  1   
 55  22  54  1   
@<TRIPOS>SUBSTRUCTURE
  1 ****   9 GROUP 4 **** **** 0

# MOE 2024.06 (io_trps.svl 2023.06)
