@<TRIPOS>MOLECULE
NONAME
57 59 1 0 0 
SMALL
USER_CHARGES


@<TRIPOS>ATOM
  1 O       -0.2020     1.9850    -2.3600 O.2   1 <1>  -0.5700 
  2 C       -0.6540     3.0500    -2.0110 C.2   1 <1>   0.5690 
  3 N       -1.3950     3.2300    -0.8710 N.am  1 <1>  -0.6600 
  4 C       -0.3860     4.2580    -2.9020 C.3   1 <1>   0.1810 
  5 C       -1.9200     4.5910    -0.5150 C.3   1 <1>   0.3640 
  6 C       -1.6820     2.1700     0.1350 C.3   1 <1>   0.2200 
  7 O       -0.2160     5.4230    -2.1390 O.3   1 <1>  -0.5600 
  8 C       -3.4470     4.5910    -0.6140 C.ar  1 <1>  -0.1440 
  9 C       -1.3450     5.7730    -1.3490 C.3   1 <1>   0.2610 
 10 C       -0.3830     1.7080     0.7930 C.3   1 <1>  -0.2400 
 11 C       -2.4560     1.0060    -0.4850 C.3   1 <1>  -0.2400 
 12 C       -4.1050     4.0100    -1.6920 C.ar  1 <1>  -0.1500 
 13 C       -4.2000     5.1950     0.3830 C.ar  1 <1>  -0.1500 
 14 C       -0.9850     6.9200    -0.3980 C.2   1 <1>   0.5690 
 15 C       -5.4870     4.0270    -1.7660 C.ar  1 <1>  -0.1500 
 16 C       -5.5820     5.2140     0.3100 C.ar  1 <1>  -0.1500 
 17 O       -1.8360     7.3790     0.3260 O.2   1 <1>  -0.5700 
 18 N        0.3000     7.3620    -0.3760 N.am  1 <1>  -0.7300 
 19 C       -6.2270     4.6290    -0.7650 C.ar  1 <1>  -0.1500 
 20 C        0.9590     8.2840     0.5730 C.3   1 <1>   0.3000 
 21 C        2.3980     8.4580     0.0780 C.3   1 <1>  -0.1600 
 22 C        1.1620     7.5470     1.8980 C.3   1 <1>  -0.1600 
 23 C        0.1730     9.6110     0.6970 C.3   1 <1>   0.1200 
 24 C        3.1460     7.1870     0.5050 C.3   1 <1>  -0.1600 
 25 C        2.3390     6.5910     1.6660 C.3   1 <1>  -0.1600 
 26 O        0.8610    10.5430     1.4840 O.3   1 <1>  -0.5600 
 27 C        0.1730    11.7370     1.6650 C.3   1 <1>   0.0400 
 28 H       -1.2030     4.4030    -3.5850 H     1 <1>   0.0800 
 29 H        0.5170     4.0960    -3.4610 H     1 <1>   0.0800 
 30 H       -1.6560     4.7650     0.5150 H     1 <1>   0.0800 
 31 H       -2.3060     2.5890     0.9070 H     1 <1>   0.0800 
 32 H       -2.1020     6.1350    -2.0210 H     1 <1>   0.0800 
 33 H        0.2540     1.2160     0.0800 H     1 <1>   0.0800 
 34 H       -0.6020     1.0120     1.5820 H     1 <1>   0.0800 
 35 H        0.1400     2.5470     1.2140 H     1 <1>   0.0800 
 36 H       -1.8600     0.4820    -1.2100 H     1 <1>   0.0800 
 37 H       -3.3540     1.3630    -0.9520 H     1 <1>   0.0800 
 38 H       -2.7330     0.3070     0.2840 H     1 <1>   0.0800 
 39 H       -3.5470     3.5320    -2.4780 H     1 <1>   0.1500 
 40 H       -3.7160     5.6640     1.2240 H     1 <1>   0.1500 
 41 H       -5.9870     3.5710    -2.6030 H     1 <1>   0.1500 
 42 H       -6.1540     5.6870     1.0890 H     1 <1>   0.1500 
 43 H        0.9540     6.8670    -0.9890 H     1 <1>   0.3700 
 44 H       -7.3010     4.6440    -0.8220 H     1 <1>   0.1500 
 45 H        2.4490     8.6370    -0.9810 H     1 <1>   0.0800 
 46 H        2.8470     9.2950     0.5820 H     1 <1>   0.0800 
 47 H        1.4420     8.2610     2.6520 H     1 <1>   0.0800 
 48 H        0.2710     7.0410     2.2250 H     1 <1>   0.0800 
 49 H       -0.7810     9.4290     1.1590 H     1 <1>   0.0800 
 50 H        0.0290    10.0370    -0.2800 H     1 <1>   0.0800 
 51 H        3.1830     6.4850    -0.3100 H     1 <1>   0.0800 
 52 H        4.1520     7.4220     0.8070 H     1 <1>   0.0800 
 53 H        2.9370     6.4950     2.5560 H     1 <1>   0.0800 
 54 H        1.9690     5.6190     1.3870 H     1 <1>   0.0800 
 55 H        0.7790    12.3830     2.2750 H     1 <1>   0.0800 
 56 H       -0.7600    11.5370     2.1620 H     1 <1>   0.0800 
 57 H        0.0030    12.1980     0.7070 H     1 <1>   0.0800 
@<TRIPOS>BOND
  1   1   2  2   
  2   2   3  am  
  3   2   4  1   
  4   3   5  1   
  5   3   6  1   
  6   4   7  1   
  7   4  28  1   
  8   4  29  1   
  9   5   8  1   
 10   5   9  1   
 11   5  30  1   
 12   6  10  1   
 13   6  11  1   
 14   6  31  1   
 15   7   9  1   
 16   8  12  ar  
 17   8  13  ar  
 18   9  14  1   
 19   9  32  1   
 20  10  33  1   
 21  10  34  1   
 22  10  35  1   
 23  11  36  1   
 24  11  37  1   
 25  11  38  1   
 26  12  15  ar  
 27  12  39  1   
 28  13  16  ar  
 29  13  40  1   
 30  14  17  2   
 31  14  18  am  
 32  15  19  ar  
 33  15  41  1   
 34  16  19  ar  
 35  16  42  1   
 36  18  20  1   
 37  18  43  1   
 38  19  44  1   
 39  20  21  1   
 40  20  22  1   
 41  20  23  1   
 42  21  24  1   
 43  21  45  1   
 44  21  46  1   
 45  22  25  1   
 46  22  47  1   
 47  22  48  1   
 48  23  26  1   
 49  23  49  1   
 50  23  50  1   
 51  24  25  1   
 52  24  51  1   
 53  24  52  1   
 54  25  53  1   
 55  25  54  1   
 56  26  27  1   
 57  27  55  1   
 58  27  56  1   
 59  27  57  1   
@<TRIPOS>SUBSTRUCTURE
  1 ****   9 GROUP 4 **** **** 0

# MOE 2024.06 (io_trps.svl 2023.06)
