@<TRIPOS>MOLECULE
NONAME
48 49 1 0 0 
SMALL
USER_CHARGES


@<TRIPOS>ATOM
  1 O       -0.6800     0.0880     1.9090 O.2   1 <1>  -0.5700 
  2 C       -1.3840     0.7270     1.1610 C.2   1 <1>   0.5690 
  3 N       -2.2600     0.0880     0.3170 N.am  1 <1>  -0.6600 
  4 C       -1.3100     2.2650     1.2280 C.3   1 <1>   0.1710 
  5 C       -3.3360     0.6940    -0.5090 C.3   1 <1>   0.1400 
  6 C       -2.3490    -1.3950     0.2470 C.3   1 <1>   0.1400 
  7 N       -0.3340     2.9350     0.3170 N.3   1 <1>  -0.8100 
  8 C       -4.4000    -0.3970    -0.5830 C.3   1 <1>   0.2000 
  9 C       -3.5780    -1.6890    -0.6230 C.3   1 <1>  -0.0800 
 10 C       -0.3210     4.3930     0.5520 C.3   1 <1>   0.1100 
 11 C       -0.5630     2.6070    -1.0970 C.3   1 <1>   0.0300 
 12 O       -5.1370    -0.3490     0.5910 O.3   1 <1>  -0.6800 
 13 C       -4.3350    -2.9670    -0.2190 C.3   1 <1>   0.0210 
 14 C        0.9970     5.0210     0.0980 C.3   1 <1>   0.1200 
 15 C       -3.4370    -4.1820    -0.3370 C.2   1 <1>   0.1080 
 16 O        0.9440     6.3890     0.3590 O.3   1 <1>  -0.5600 
 17 N       -3.0190    -4.6390    -1.4760 N.2   1 <1>  -0.7070 
 18 C       -2.9580    -4.9260     0.7360 C.2   1 <1>  -0.1500 
 19 C        2.1160     7.0650     0.0370 C.3   1 <1>   0.0400 
 20 N       -2.2560    -5.7020    -1.1570 N.pl3 1 <1>   0.3000 
 21 C       -2.2020    -5.8950     0.1780 C.2   1 <1>  -0.3320 
 22 C       -1.4200    -7.0090     0.8480 C.3   1 <1>  -0.0600 
 23 H       -1.0370     2.5070     2.2400 H     1 <1>   0.0800 
 24 H       -2.2880     2.6750     1.0630 H     1 <1>   0.0800 
 25 H       -3.7330     1.5970    -0.0820 H     1 <1>   0.0800 
 26 H       -2.9520     0.8930    -1.4940 H     1 <1>   0.0800 
 27 H       -1.4550    -1.8090    -0.1870 H     1 <1>   0.0800 
 28 H       -2.4730    -1.7890     1.2410 H     1 <1>   0.0800 
 29 H       -5.0700    -0.2870    -1.4190 H     1 <1>   0.0800 
 30 H       -3.2270    -1.8210    -1.6320 H     1 <1>   0.0800 
 31 H       -1.1450     4.8590     0.0390 H     1 <1>   0.0800 
 32 H       -0.4200     4.5860     1.6070 H     1 <1>   0.0800 
 33 H        0.1850     3.0700    -1.7150 H     1 <1>   0.0800 
 34 H       -1.5350     2.9470    -1.4110 H     1 <1>   0.0800 
 35 H       -0.4920     1.5430    -1.2440 H     1 <1>   0.0800 
 36 H       -4.5130    -0.3520     1.3460 H     1 <1>   0.4000 
 37 H       -5.1820    -3.1030    -0.8670 H     1 <1>   0.0800 
 38 H       -4.6970    -2.8940     0.7900 H     1 <1>   0.0800 
 39 H        1.1450     4.8830    -0.9580 H     1 <1>   0.0800 
 40 H        1.8150     4.5920     0.6510 H     1 <1>   0.0800 
 41 H       -3.1620    -4.7450     1.7760 H     1 <1>   0.1500 
 42 H        1.9760     8.1060     0.2710 H     1 <1>   0.0800 
 43 H        2.3140     6.9520    -1.0150 H     1 <1>   0.0800 
 44 H        2.9270     6.6680     0.6220 H     1 <1>   0.0800 
 45 H       -1.7880    -6.2730    -1.8710 H     1 <1>   0.2700 
 46 H       -1.5340    -6.9500     1.9160 H     1 <1>   0.0800 
 47 H       -0.3740    -6.9250     0.6110 H     1 <1>   0.0800 
 48 H       -1.7800    -7.9670     0.5180 H     1 <1>   0.0800 
@<TRIPOS>BOND
  1   1   2  2   
  2   2   3  am  
  3   2   4  1   
  4   3   5  1   
  5   3   6  1   
  6   4   7  1   
  7   4  23  1   
  8   4  24  1   
  9   5   8  1   
 10   5  25  1   
 11   5  26  1   
 12   6   9  1   
 13   6  27  1   
 14   6  28  1   
 15   7  10  1   
 16   7  11  1   
 17   8   9  1   
 18   8  12  1   
 19   8  29  1   
 20   9  13  1   
 21   9  30  1   
 22  10  14  1   
 23  10  31  1   
 24  10  32  1   
 25  11  33  1   
 26  11  34  1   
 27  11  35  1   
 28  12  36  1   
 29  13  15  1   
 30  13  37  1   
 31  13  38  1   
 32  14  16  1   
 33  14  39  1   
 34  14  40  1   
 35  15  17  2   
 36  15  18  1   
 37  16  19  1   
 38  17  20  1   
 39  18  21  2   
 40  18  41  1   
 41  19  42  1   
 42  19  43  1   
 43  19  44  1   
 44  20  21  1   
 45  20  45  1   
 46  21  22  1   
 47  22  46  1   
 48  22  47  1   
 49  22  48  1   
@<TRIPOS>SUBSTRUCTURE
  1 ****   3 GROUP 4 **** **** 0

# MOE 2024.06 (io_trps.svl 2023.06)
