@<TRIPOS>MOLECULE
NONAME
39 40 1 0 0 
SMALL
USER_CHARGES


@<TRIPOS>ATOM
  1 O       -0.0850    -1.0450     0.8900 O.2   1 <1>  -0.5700 
  2 C        0.7470    -0.2220     0.5530 C.2   1 <1>   0.5440 
  3 N        0.3200     1.0290     0.1900 N.am  1 <1>  -0.7300 
  4 C        2.1550    -0.5390     0.5370 C.ar  1 <1>   0.0860 
  5 C       -1.0950     1.4800     0.1550 C.3   1 <1>   0.0600 
  6 C        2.6310    -1.7510     0.0000 C.ar  1 <1>   0.4100 
  7 C        3.0900     0.3500     1.0520 C.ar  1 <1>  -0.1500 
  8 N        3.9190    -2.0890    -0.0450 N.ar  1 <1>  -0.6200 
  9 N        1.7640    -2.6700    -0.5340 N.pl3 1 <1>  -0.8690 
 10 C        4.4200    -0.0010     1.0040 C.ar  1 <1>  -0.1500 
 11 C        4.7750    -1.2180     0.4500 C.ar  1 <1>   0.1600 
 12 C        2.1020    -4.0920    -0.6830 C.3   1 <1>   0.3900 
 13 C        0.8150    -4.8500    -0.9240 C.2   1 <1>  -0.1810 
 14 C        0.1750    -4.9990    -2.1480 C.2   1 <1>   0.1390 
 15 C        0.0290    -5.5090    -0.0470 C.2   1 <1>  -0.3020 
 16 N       -0.9150    -5.6980    -2.0510 N.2   1 <1>  -0.7070 
 17 N       -1.0100    -6.0080    -0.7450 N.pl3 1 <1>   0.3140 
 18 C       -2.1430    -6.7830    -0.2040 C.3   1 <1>   0.0960 
 19 C       -3.1860    -5.8530     0.4330 C.3   1 <1>  -0.1600 
 20 C       -4.3700    -6.6450     0.9980 C.3   1 <1>  -0.2400 
 21 H        1.0000     1.6760    -0.2140 H     1 <1>   0.3700 
 22 H       -1.7350     0.7530     0.6260 H     1 <1>   0.0800 
 23 H       -1.4110     1.6090    -0.8650 H     1 <1>   0.0800 
 24 H       -1.1930     2.4150     0.6790 H     1 <1>   0.0800 
 25 H        2.7800     1.2850     1.4850 H     1 <1>   0.1500 
 26 H        0.7760    -2.5400    -0.2650 H     1 <1>   0.4000 
 27 H        5.1790     0.6560     1.3910 H     1 <1>   0.1500 
 28 H        5.8170    -1.4860     0.4160 H     1 <1>   0.1500 
 29 H        2.5760    -4.4480     0.2160 H     1 <1>   0.0800 
 30 H        2.7800    -4.2210    -1.5100 H     1 <1>   0.0800 
 31 H        0.5320    -4.5820    -3.0750 H     1 <1>   0.1500 
 32 H        0.1430    -5.6400     1.0130 H     1 <1>   0.1500 
 33 H       -1.7630    -7.4760     0.5230 H     1 <1>   0.0800 
 34 H       -2.5850    -7.3360    -1.0120 H     1 <1>   0.0800 
 35 H       -3.5430    -5.1630    -0.3130 H     1 <1>   0.0800 
 36 H       -2.7270    -5.2870     1.2260 H     1 <1>   0.0800 
 37 H       -4.8590    -7.2010     0.2160 H     1 <1>   0.0800 
 38 H       -5.0870    -5.9710     1.4340 H     1 <1>   0.0800 
 39 H       -4.0400    -7.3310     1.7580 H     1 <1>   0.0800 
@<TRIPOS>BOND
  1   1   2  2   
  2   2   3  am  
  3   2   4  1   
  4   3   5  1   
  5   3  21  1   
  6   4   6  ar  
  7   4   7  ar  
  8   5  22  1   
  9   5  23  1   
 10   5  24  1   
 11   6   8  ar  
 12   6   9  1   
 13   7  10  ar  
 14   7  25  1   
 15   8  11  ar  
 16   9  12  1   
 17   9  26  1   
 18  10  11  ar  
 19  10  27  1   
 20  11  28  1   
 21  12  13  1   
 22  12  29  1   
 23  12  30  1   
 24  13  14  1   
 25  13  15  2   
 26  14  16  2   
 27  14  31  1   
 28  15  17  1   
 29  15  32  1   
 30  16  17  1   
 31  17  18  1   
 32  18  19  1   
 33  18  33  1   
 34  18  34  1   
 35  19  20  1   
 36  19  35  1   
 37  19  36  1   
 38  20  37  1   
 39  20  38  1   
 40  20  39  1   
@<TRIPOS>SUBSTRUCTURE
  1 ****   9 GROUP 4 **** **** 0

# MOE 2024.06 (io_trps.svl 2023.06)
