@<TRIPOS>MOLECULE
NONAME
49 52 1 0 0 
SMALL
USER_CHARGES


@<TRIPOS>ATOM
  1 O       -0.7210     1.3730    -1.3230 O.2   1 <1>  -0.5700 
  2 C       -0.6340     2.5580    -1.0980 C.2   1 <1>   0.5690 
  3 N       -1.1010     3.1430     0.0490 N.am  1 <1>  -0.5090 
  4 C        0.0040     3.4430    -2.1650 C.3   1 <1>   0.1810 
  5 C       -1.1830     4.6320     0.1890 C.3   1 <1>   0.3640 
  6 C       -1.6710     2.3610     1.1730 C.3   1 <1>   0.0490 
  7 O        0.5020     4.6420    -1.6260 O.3   1 <1>  -0.5600 
  8 C       -2.6530     5.0460     0.2710 C.ar  1 <1>  -0.1440 
  9 C       -0.4690     5.4200    -0.9430 C.3   1 <1>   0.2610 
 10 C       -1.0630     2.5120     2.5330 C.3   1 <1>  -0.2000 
 11 C       -0.8770     1.2410     1.7680 C.3   1 <1>  -0.2000 
 12 C       -3.0670     5.9360     1.2530 C.ar  1 <1>   0.1600 
 13 C       -3.5980     4.5560    -0.6130 C.ar  1 <1>  -0.1500 
 14 C        0.1810     6.6870    -0.3700 C.2   1 <1>   0.5690 
 15 N       -4.3100     6.3580     1.4210 N.ar  1 <1>  -0.6200 
 16 C       -4.8960     4.9880    -0.4530 C.ar  1 <1>  -0.1500 
 17 O       -0.4300     7.3750     0.4170 O.2   1 <1>  -0.5700 
 18 N        1.4470     7.0160    -0.7420 N.am  1 <1>  -0.7300 
 19 C       -5.1950     5.8750     0.5660 C.ar  1 <1>   0.1600 
 20 C        2.1600     8.2500    -0.3350 C.3   1 <1>   0.1400 
 21 C        2.7120     8.1040     1.0840 C.3   1 <1>   0.0200 
 22 C        2.9580     9.4740     1.6870 C.2   1 <1>   0.0060 
 23 N        4.1060    10.0440     1.7350 N.2   1 <1>  -0.5650 
 24 N        2.0040    10.2460     2.2290 N.pl3 1 <1>   0.3140 
 25 C        3.8030    11.2010     2.3370 C.2   1 <1>   0.3660 
 26 N        2.5610    11.3710     2.6500 N.2   1 <1>  -0.7070 
 27 C        0.5610     9.9860     2.3690 C.3   1 <1>   0.0160 
 28 H       -0.7170     3.6750    -2.9270 H     1 <1>   0.0800 
 29 H        0.8280     2.9170    -2.6130 H     1 <1>   0.0800 
 30 H       -0.7040     4.8870     1.1180 H     1 <1>   0.0800 
 31 H       -2.7390     2.2380     1.0940 H     1 <1>   0.1000 
 32 H       -1.1950     5.7320    -1.6720 H     1 <1>   0.0800 
 33 H       -0.1990     3.1350     2.6760 H     1 <1>   0.1000 
 34 H       -1.7080     2.4910     3.3940 H     1 <1>   0.1000 
 35 H       -1.4020     0.3610     2.0940 H     1 <1>   0.1000 
 36 H        0.0840     1.0140     1.3410 H     1 <1>   0.1000 
 37 H       -2.3380     6.3300     1.9410 H     1 <1>   0.1500 
 38 H       -3.3460     3.8580    -1.3930 H     1 <1>   0.1500 
 39 H       -5.6750     4.6400    -1.1080 H     1 <1>   0.1500 
 40 H        1.9420     6.3660    -1.3650 H     1 <1>   0.3700 
 41 H       -6.2140     6.2050     0.6830 H     1 <1>   0.1500 
 42 H        2.9600     8.4620    -1.0230 H     1 <1>   0.0800 
 43 H        1.4650     9.0720    -0.3720 H     1 <1>   0.0800 
 44 H        3.6360     7.5550     1.0550 H     1 <1>   0.0800 
 45 H        2.0190     7.5700     1.7070 H     1 <1>   0.0800 
 46 H        4.5680    11.9340     2.5360 H     1 <1>   0.1500 
 47 H        0.4130     9.0470     2.8680 H     1 <1>   0.0800 
 48 H        0.1080     9.9530     1.3960 H     1 <1>   0.0800 
 49 H        0.1140    10.7730     2.9460 H     1 <1>   0.0800 
@<TRIPOS>BOND
  1   1   2  2   
  2   2   3  am  
  3   2   4  1   
  4   3   5  1   
  5   3   6  1   
  6   4   7  1   
  7   4  28  1   
  8   4  29  1   
  9   5   8  1   
 10   5   9  1   
 11   5  30  1   
 12   6  10  1   
 13   6  11  1   
 14   6  31  1   
 15   7   9  1   
 16   8  12  ar  
 17   8  13  ar  
 18   9  14  1   
 19   9  32  1   
 20  10  11  1   
 21  10  33  1   
 22  10  34  1   
 23  11  35  1   
 24  11  36  1   
 25  12  15  ar  
 26  12  37  1   
 27  13  16  ar  
 28  13  38  1   
 29  14  17  2   
 30  14  18  am  
 31  15  19  ar  
 32  16  19  ar  
 33  16  39  1   
 34  18  20  1   
 35  18  40  1   
 36  19  41  1   
 37  20  21  1   
 38  20  42  1   
 39  20  43  1   
 40  21  22  1   
 41  21  44  1   
 42  21  45  1   
 43  22  23  2   
 44  22  24  1   
 45  23  25  1   
 46  24  26  1   
 47  24  27  1   
 48  25  26  2   
 49  25  46  1   
 50  27  47  1   
 51  27  48  1   
 52  27  49  1   
@<TRIPOS>SUBSTRUCTURE
  1 ****  14 GROUP 4 **** **** 0

# MOE 2024.06 (io_trps.svl 2023.06)
