@<TRIPOS>MOLECULE
NONAME
50 52 1 0 0 
SMALL
USER_CHARGES


@<TRIPOS>ATOM
  1 O       -0.3070     0.9450     1.2400 O.2   1 <1>  -0.5700 
  2 C       -0.0960     2.1250     1.0260 C.2   1 <1>   0.5440 
  3 N       -1.1620     3.0000     0.9540 N.am  1 <1>  -0.6600 
  4 C        1.2710     2.5720     0.8380 C.ar  1 <1>   0.0860 
  5 C       -2.5590     2.5530     1.2370 C.3   1 <1>   0.1400 
  6 C       -1.0360     4.3800     0.3940 C.3   1 <1>   0.1400 
  7 C        1.8190     3.6030     1.6020 C.ar  1 <1>  -0.1500 
  8 C        2.0910     1.9760    -0.1190 C.ar  1 <1>  -0.1500 
  9 C       -3.4380     2.5460    -0.0450 C.3   1 <1>   0.0000 
 10 C       -2.3440     4.8570    -0.2550 C.3   1 <1>  -0.1600 
 11 C        3.1180     4.0320     1.4030 C.ar  1 <1>  -0.1500 
 12 C        3.3920     2.3980    -0.3250 C.ar  1 <1>  -0.1500 
 13 C       -4.9210     2.5520     0.3950 C.3   1 <1>   0.2000 
 14 C       -3.0340     3.7070    -1.0020 C.3   1 <1>  -0.1600 
 15 C       -3.3130     1.1840    -0.7510 C.3   1 <1>  -0.1600 
 16 C        3.9150     3.4380     0.4380 C.ar  1 <1>   0.0830 
 17 O       -5.7520     2.8500    -0.6920 O.3   1 <1>  -0.5600 
 18 C       -5.2010     1.1050     0.8180 C.3   1 <1>  -0.1600 
 19 C       -4.2600     0.2260    -0.0170 C.3   1 <1>  -0.1600 
 20 O        5.1720     3.9170     0.3020 O.3   1 <1>  -0.3630 
 21 C       -6.9940     3.3840    -0.3580 C.3   1 <1>   0.0400 
 22 C        6.0790     3.3700    -0.6250 C.3   1 <1>   0.1200 
 23 C        7.3950     4.1330    -0.5060 C.3   1 <1>  -0.2400 
 24 H       -2.5570     1.5800     1.6980 H     1 <1>   0.0800 
 25 H       -2.9770     3.2360     1.9550 H     1 <1>   0.0800 
 26 H       -0.7490     5.0620     1.1750 H     1 <1>   0.0800 
 27 H       -0.2630     4.3810    -0.3560 H     1 <1>   0.0800 
 28 H        1.2150     4.0650     2.3630 H     1 <1>   0.1500 
 29 H        1.6890     1.1670    -0.7050 H     1 <1>   0.1500 
 30 H       -3.0040     5.2480     0.5000 H     1 <1>   0.0800 
 31 H       -2.1260     5.6590    -0.9390 H     1 <1>   0.0800 
 32 H        3.5280     4.8290     1.9970 H     1 <1>   0.1500 
 33 H        3.9810     1.9080    -1.0760 H     1 <1>   0.1500 
 34 H       -5.1010     3.2630     1.1830 H     1 <1>   0.0800 
 35 H       -2.3360     3.3300    -1.7300 H     1 <1>   0.0800 
 36 H       -3.8770     4.0830    -1.5500 H     1 <1>   0.0800 
 37 H       -3.6510     1.2810    -1.7690 H     1 <1>   0.0800 
 38 H       -2.2990     0.8220    -0.7570 H     1 <1>   0.0800 
 39 H       -4.9550     0.9900     1.8580 H     1 <1>   0.0800 
 40 H       -6.2310     0.8300     0.6790 H     1 <1>   0.0800 
 41 H       -3.7030    -0.4360     0.6230 H     1 <1>   0.0800 
 42 H       -4.8150    -0.3600    -0.7290 H     1 <1>   0.0800 
 43 H       -7.5450     3.5390    -1.2690 H     1 <1>   0.0800 
 44 H       -6.8510     4.3260     0.1430 H     1 <1>   0.0800 
 45 H       -7.5260     2.6950     0.2740 H     1 <1>   0.0800 
 46 H        6.2200     2.3290    -0.3900 H     1 <1>   0.0800 
 47 H        5.6640     3.4780    -1.6120 H     1 <1>   0.0800 
 48 H        7.7910     4.0320     0.4890 H     1 <1>   0.0800 
 49 H        7.2390     5.1740    -0.7260 H     1 <1>   0.0800 
 50 H        8.1110     3.7380    -1.2030 H     1 <1>   0.0800 
@<TRIPOS>BOND
  1   1   2  2   
  2   2   3  am  
  3   2   4  1   
  4   3   5  1   
  5   3   6  1   
  6   4   7  ar  
  7   4   8  ar  
  8   5   9  1   
  9   5  24  1   
 10   5  25  1   
 11   6  10  1   
 12   6  26  1   
 13   6  27  1   
 14   7  11  ar  
 15   7  28  1   
 16   8  12  ar  
 17   8  29  1   
 18   9  13  1   
 19   9  14  1   
 20   9  15  1   
 21  10  14  1   
 22  10  30  1   
 23  10  31  1   
 24  11  16  ar  
 25  11  32  1   
 26  12  16  ar  
 27  12  33  1   
 28  13  17  1   
 29  13  18  1   
 30  13  34  1   
 31  14  35  1   
 32  14  36  1   
 33  15  19  1   
 34  15  37  1   
 35  15  38  1   
 36  16  20  1   
 37  17  21  1   
 38  18  19  1   
 39  18  39  1   
 40  18  40  1   
 41  19  41  1   
 42  19  42  1   
 43  20  22  1   
 44  21  43  1   
 45  21  44  1   
 46  21  45  1   
 47  22  23  1   
 48  22  46  1   
 49  22  47  1   
 50  23  48  1   
 51  23  49  1   
 52  23  50  1   
@<TRIPOS>SUBSTRUCTURE
  1 ****   3 GROUP 4 **** **** 0

# MOE 2024.06 (io_trps.svl 2023.06)
