@<TRIPOS>MOLECULE
NONAME
38 38 1 0 0 
SMALL
USER_CHARGES


@<TRIPOS>ATOM
  1 O       -1.5500    -0.5060    -0.5080 O.2   1 <1>  -0.5700 
  2 C       -2.3510     0.3860    -0.3430 C.2   1 <1>   0.5690 
  3 N       -3.5170     0.1680     0.3440 N.am  1 <1>  -0.6600 
  4 C       -1.9990     1.7480    -0.9240 C.3   1 <1>  -0.0990 
  5 C       -3.7230    -1.1300     1.0530 C.3   1 <1>   0.3200 
  6 C       -4.7360     1.0270     0.2840 C.3   1 <1>   0.1400 
  7 C       -1.1240     2.5630     0.0450 C.3   1 <1>  -0.1600 
  8 C       -4.2510    -2.1790     0.0910 C.2   1 <1>   0.0060 
  9 C       -4.7210     2.0700     1.4060 C.3   1 <1>   0.1200 
 10 C       -0.8990     4.0170    -0.4070 C.3   1 <1>  -0.0800 
 11 N       -5.4050    -2.7620     0.1750 N.2   1 <1>  -0.5650 
 12 N       -3.5130    -2.5890    -0.9610 N.pl3 1 <1>   0.0330 
 13 O       -5.8710     2.8430     1.3370 O.3   1 <1>  -0.6800 
 14 C       -0.1230     4.0980    -1.7290 C.3   1 <1>  -0.2400 
 15 C       -0.1350     4.7830     0.6790 C.3   1 <1>  -0.2400 
 16 C       -5.4180    -3.5980    -0.8820 C.2   1 <1>   0.0770 
 17 C       -4.2700    -3.5060    -1.5890 C.2   1 <1>  -0.3020 
 18 H       -2.8820     2.3020    -1.1730 H     1 <1>   0.0800 
 19 H       -1.4600     1.5810    -1.8390 H     1 <1>   0.0800 
 20 H       -4.4220    -1.0010     1.8620 H     1 <1>   0.0800 
 21 H       -2.7920    -1.4690     1.4730 H     1 <1>   0.0800 
 22 H       -5.6120     0.4070     0.3900 H     1 <1>   0.0800 
 23 H       -4.7980     1.5100    -0.6730 H     1 <1>   0.0800 
 24 H       -0.1740     2.0670     0.1580 H     1 <1>   0.0800 
 25 H       -1.5950     2.5700     1.0120 H     1 <1>   0.0800 
 26 H       -3.8730     2.7250     1.3210 H     1 <1>   0.0800 
 27 H       -4.7110     1.5850     2.3670 H     1 <1>   0.0800 
 28 H       -1.8560     4.4950    -0.5410 H     1 <1>   0.0800 
 29 H       -2.5790    -2.2240    -1.1990 H     1 <1>   0.2700 
 30 H       -5.8770     3.4030     0.5370 H     1 <1>   0.4000 
 31 H        0.8170     3.5810    -1.6480 H     1 <1>   0.0800 
 32 H        0.0740     5.1240    -1.9830 H     1 <1>   0.0800 
 33 H       -0.6870     3.6630    -2.5340 H     1 <1>   0.0800 
 34 H        0.8330     4.3420     0.8440 H     1 <1>   0.0800 
 35 H       -0.6810     4.7670     1.6050 H     1 <1>   0.0800 
 36 H        0.0020     5.8090     0.3880 H     1 <1>   0.0800 
 37 H       -6.2670    -4.2310    -1.0810 H     1 <1>   0.1500 
 38 H       -3.9590    -4.0260    -2.4760 H     1 <1>   0.1500 
@<TRIPOS>BOND
  1   1   2  2   
  2   2   3  am  
  3   2   4  1   
  4   3   5  1   
  5   3   6  1   
  6   4   7  1   
  7   4  18  1   
  8   4  19  1   
  9   5   8  1   
 10   5  20  1   
 11   5  21  1   
 12   6   9  1   
 13   6  22  1   
 14   6  23  1   
 15   7  10  1   
 16   7  24  1   
 17   7  25  1   
 18   8  11  2   
 19   8  12  1   
 20   9  13  1   
 21   9  26  1   
 22   9  27  1   
 23  10  14  1   
 24  10  15  1   
 25  10  28  1   
 26  11  16  1   
 27  12  17  1   
 28  12  29  1   
 29  13  30  1   
 30  14  31  1   
 31  14  32  1   
 32  14  33  1   
 33  15  34  1   
 34  15  35  1   
 35  15  36  1   
 36  16  17  2   
 37  16  37  1   
 38  17  38  1   
@<TRIPOS>SUBSTRUCTURE
  1 ****   3 GROUP 4 **** **** 0

# MOE 2024.06 (io_trps.svl 2023.06)
