@<TRIPOS>MOLECULE
NONAME
57 60 1 0 0 
SMALL
USER_CHARGES


@<TRIPOS>ATOM
  1 S        0.4250     1.4530     1.2440 S.o2  1 <1>   1.5760 
  2 O       -0.4780     2.5460     1.5150 O.2   1 <1>  -0.6500 
  3 O        1.1250     0.7570     2.2990 O.2   1 <1>  -0.6500 
  4 N        1.6270     2.0110     0.1880 N.am  1 <1>  -0.8490 
  5 N       -0.3130     0.3240     0.2260 N.am  1 <1>  -0.8490 
  6 C        2.5380     0.9200    -0.2360 C.3   1 <1>   0.1960 
  7 C        1.1010     2.7750    -0.9520 C.3   1 <1>   0.1960 
  8 C       -1.6180     0.7280    -0.2800 C.3   1 <1>   0.1960 
  9 C       -0.5480    -0.9630     0.8630 C.3   1 <1>   0.1960 
 10 C        4.0070     1.3880    -0.2330 C.3   1 <1>   0.3430 
 11 C        2.1050     3.8330    -1.4360 C.3   1 <1>  -0.1600 
 12 C       -2.2150    -0.5550    -0.8430 C.3   1 <1>  -0.1600 
 13 C       -1.5290    -1.6760    -0.0610 C.3   1 <1>  -0.1600 
 14 N        4.0890     2.8720    -0.3810 N.4   1 <1>  -0.9590 
 15 C        3.5320     3.3370    -1.6760 C.3   1 <1>   0.3430 
 16 C        5.4160     3.4380    -0.0190 C.3   1 <1>   0.5230 
 17 C        5.2690     4.9070     0.3090 C.2   1 <1>  -0.1400 
 18 S        5.3700     6.0730    -0.9760 S.3   1 <1>  -0.0800 
 19 C        5.0800     5.5700     1.4580 C.2   1 <1>   0.0770 
 20 C        5.1260     7.3810     0.1780 C.2   1 <1>   0.3250 
 21 N        4.9950     6.9430     1.3820 N.2   1 <1>  -0.5650 
 22 C        5.0930     8.7350    -0.3330 C.ar  1 <1>   0.0530 
 23 C        4.1350     9.6800     0.0660 C.ar  1 <1>  -0.1440 
 24 C        6.0470     9.1410    -1.2690 C.ar  1 <1>  -0.1500 
 25 C        4.1490    10.9600    -0.4630 C.ar  1 <1>  -0.1500 
 26 C        3.0540     9.3350     1.0840 C.3   1 <1>  -0.0970 
 27 C        6.0550    10.4170    -1.7960 C.ar  1 <1>  -0.1500 
 28 C        5.1020    11.3320    -1.3930 C.ar  1 <1>  -0.1500 
 29 H        2.2640     0.5610    -1.2140 H     1 <1>   0.0800 
 30 H        2.4700     0.0720     0.4250 H     1 <1>   0.0800 
 31 H        0.2030     3.2990    -0.6650 H     1 <1>   0.0800 
 32 H        0.8320     2.1070    -1.7540 H     1 <1>   0.0800 
 33 H       -1.5340     1.4960    -1.0290 H     1 <1>   0.0800 
 34 H       -2.2370     1.0830     0.5300 H     1 <1>   0.0800 
 35 H       -1.0020    -0.8180     1.8310 H     1 <1>   0.0800 
 36 H        0.3690    -1.5160     0.9810 H     1 <1>   0.0800 
 37 H        4.5560     0.8890    -1.0150 H     1 <1>   0.0800 
 38 H        4.4400     1.1000     0.7120 H     1 <1>   0.0800 
 39 H        2.1270     4.6450    -0.7290 H     1 <1>   0.0800 
 40 H        1.7320     4.2430    -2.3570 H     1 <1>   0.0800 
 41 H       -1.9820    -0.6350    -1.8900 H     1 <1>   0.0800 
 42 H       -3.2830    -0.5680    -0.7180 H     1 <1>   0.0800 
 43 H       -2.2310    -2.2580     0.5090 H     1 <1>   0.0800 
 44 H       -0.9950    -2.3280    -0.7300 H     1 <1>   0.0800 
 45 H        3.4010     3.2070     0.3190 H     1 <1>   0.4500 
 46 H        4.1230     4.1440    -2.0740 H     1 <1>   0.0800 
 47 H        3.5300     2.5350    -2.3980 H     1 <1>   0.0800 
 48 H        6.1210     3.3030    -0.8230 H     1 <1>   0.0800 
 49 H        5.7940     2.9310     0.8540 H     1 <1>   0.0800 
 50 H        4.9880     5.1290     2.4380 H     1 <1>   0.1500 
 51 H        6.8050     8.4490    -1.5890 H     1 <1>   0.1500 
 52 H        3.4150    11.6850    -0.1550 H     1 <1>   0.1500 
 53 H        2.5600     8.4210     0.8100 H     1 <1>   0.0800 
 54 H        2.3140    10.1120     1.1440 H     1 <1>   0.0800 
 55 H        3.4960     9.2120     2.0570 H     1 <1>   0.0800 
 56 H        6.8020    10.7020    -2.5170 H     1 <1>   0.1500 
 57 H        5.1030    12.3290    -1.7980 H     1 <1>   0.1500 
@<TRIPOS>BOND
  1   1   2  2   
  2   1   3  2   
  3   1   4  am  
  4   1   5  am  
  5   4   6  1   
  6   4   7  1   
  7   5   8  1   
  8   5   9  1   
  9   6  10  1   
 10   6  29  1   
 11   6  30  1   
 12   7  11  1   
 13   7  31  1   
 14   7  32  1   
 15   8  12  1   
 16   8  33  1   
 17   8  34  1   
 18   9  13  1   
 19   9  35  1   
 20   9  36  1   
 21  10  14  1   
 22  10  37  1   
 23  10  38  1   
 24  11  15  1   
 25  11  39  1   
 26  11  40  1   
 27  12  13  1   
 28  12  41  1   
 29  12  42  1   
 30  13  43  1   
 31  13  44  1   
 32  14  15  1   
 33  14  16  1   
 34  14  45  1   
 35  15  46  1   
 36  15  47  1   
 37  16  17  1   
 38  16  48  1   
 39  16  49  1   
 40  17  18  1   
 41  17  19  2   
 42  18  20  1   
 43  19  21  1   
 44  19  50  1   
 45  20  21  2   
 46  20  22  1   
 47  22  23  ar  
 48  22  24  ar  
 49  23  25  ar  
 50  23  26  1   
 51  24  27  ar  
 52  24  51  1   
 53  25  28  ar  
 54  25  52  1   
 55  26  53  1   
 56  26  54  1   
 57  26  55  1   
 58  27  28  ar  
 59  27  56  1   
 60  28  57  1   
@<TRIPOS>SUBSTRUCTURE
  1 ****  11 GROUP 4 **** **** 0

# MOE 2024.06 (io_trps.svl 2023.06)
