@<TRIPOS>MOLECULE
NONAME
53 56 1 0 0 
SMALL
USER_CHARGES


@<TRIPOS>ATOM
  1 O       -0.4630     0.2910    -0.2310 O.2   1 <1>  -0.5700 
  2 C       -1.5320     0.8540    -0.1900 C.2   1 <1>   0.5690 
  3 N       -2.7030     0.1510    -0.1930 N.am  1 <1>  -0.6600 
  4 C       -1.5780     2.3730    -0.1390 C.3   1 <1>  -0.0990 
  5 C       -4.0730     0.7190    -0.2030 C.3   1 <1>   0.1400 
  6 C       -2.7410    -1.3290    -0.2310 C.3   1 <1>   0.1400 
  7 C       -0.1910     3.0360    -0.0260 C.3   1 <1>  -0.0160 
  8 C       -4.9950    -0.4860    -0.3960 C.3   1 <1>   0.2000 
  9 C       -4.1940    -1.7000     0.0740 C.3   1 <1>  -0.0800 
 10 C       -0.2190     4.5650     0.0400 C.ar  1 <1>   0.1660 
 11 O       -6.1560    -0.3630     0.3500 O.3   1 <1>  -0.6800 
 12 C       -4.6500    -3.0090    -0.5880 C.3   1 <1>  -0.0160 
 13 N       -1.3680     5.1720    -0.0040 N.ar  1 <1>  -0.6200 
 14 C        1.0260     5.2540     0.1460 C.ar  1 <1>   0.3930 
 15 C       -3.8310    -4.1900    -0.0900 C.ar  1 <1>  -0.1440 
 16 C       -1.2940     6.5270     0.0600 C.ar  1 <1>   0.3100 
 17 O        2.1520     4.5090     0.1820 O.3   1 <1>  -0.3630 
 18 N        1.1320     6.5520     0.2100 N.ar  1 <1>  -0.6200 
 19 C       -4.1290    -4.8260     1.0980 C.ar  1 <1>  -0.1500 
 20 C       -2.7520    -4.6860    -0.7930 C.ar  1 <1>  -0.1500 
 21 C       -0.0550     7.2060     0.1660 C.ar  1 <1>   0.3100 
 22 C       -2.4770     7.2800     0.0210 C.ar  1 <1>  -0.1500 
 23 C        3.4320     5.1030     0.2860 C.3   1 <1>   0.0400 
 24 C       -3.3540    -5.8960     1.5150 C.ar  1 <1>   0.1600 
 25 C       -2.0410    -5.7620    -0.2860 C.ar  1 <1>   0.1600 
 26 C       -0.0610     8.6080     0.2270 C.ar  1 <1>  -0.1500 
 27 C       -2.4530     8.6500     0.0830 C.ar  1 <1>  -0.1500 
 28 N       -2.3160    -6.3790     0.8510 N.ar  1 <1>  -0.6200 
 29 C       -1.2320     9.3210     0.1870 C.ar  1 <1>  -0.1500 
 30 H       -2.0610     2.7260    -1.0310 H     1 <1>   0.0800 
 31 H       -2.1700     2.6660     0.7070 H     1 <1>   0.0800 
 32 H       -4.2630     1.2030     0.7390 H     1 <1>   0.0800 
 33 H       -4.1870     1.4180    -1.0130 H     1 <1>   0.0800 
 34 H       -2.4550    -1.6560    -1.2160 H     1 <1>   0.0800 
 35 H       -2.0640    -1.7500     0.4940 H     1 <1>   0.0800 
 36 H        0.4030     2.7430    -0.8740 H     1 <1>   0.0800 
 37 H        0.2990     2.6650     0.8570 H     1 <1>   0.0800 
 38 H       -5.2660    -0.5730    -1.4340 H     1 <1>   0.0800 
 39 H       -4.2780    -1.7920     1.1430 H     1 <1>   0.0800 
 40 H       -5.9500    -0.3320     1.3040 H     1 <1>   0.4000 
 41 H       -4.5610    -2.9310    -1.6570 H     1 <1>   0.0800 
 42 H       -5.6890    -3.1780    -0.3620 H     1 <1>   0.0800 
 43 H       -4.9550    -4.5020     1.7030 H     1 <1>   0.1500 
 44 H       -2.4540    -4.2500    -1.7290 H     1 <1>   0.1500 
 45 H       -3.4060     6.7460    -0.0600 H     1 <1>   0.1500 
 46 H        4.1680     4.3200     0.2960 H     1 <1>   0.0800 
 47 H        3.4790     5.6690     1.1990 H     1 <1>   0.0800 
 48 H        3.5850     5.7460    -0.5630 H     1 <1>   0.0800 
 49 H       -3.6010    -6.3800     2.4440 H     1 <1>   0.1500 
 50 H       -1.2010    -6.1340    -0.8480 H     1 <1>   0.1500 
 51 H        0.8870     9.1080     0.3070 H     1 <1>   0.1500 
 52 H       -3.3670     9.2200     0.0520 H     1 <1>   0.1500 
 53 H       -1.2240    10.3970     0.2350 H     1 <1>   0.1500 
@<TRIPOS>BOND
  1   1   2  2   
  2   2   3  am  
  3   2   4  1   
  4   3   5  1   
  5   3   6  1   
  6   4   7  1   
  7   4  30  1   
  8   4  31  1   
  9   5   8  1   
 10   5  32  1   
 11   5  33  1   
 12   6   9  1   
 13   6  34  1   
 14   6  35  1   
 15   7  10  1   
 16   7  36  1   
 17   7  37  1   
 18   8   9  1   
 19   8  11  1   
 20   8  38  1   
 21   9  12  1   
 22   9  39  1   
 23  10  13  ar  
 24  10  14  ar  
 25  11  40  1   
 26  12  15  1   
 27  12  41  1   
 28  12  42  1   
 29  13  16  ar  
 30  14  17  1   
 31  14  18  ar  
 32  15  19  ar  
 33  15  20  ar  
 34  16  21  ar  
 35  16  22  ar  
 36  17  23  1   
 37  18  21  ar  
 38  19  24  ar  
 39  19  43  1   
 40  20  25  ar  
 41  20  44  1   
 42  21  26  ar  
 43  22  27  ar  
 44  22  45  1   
 45  23  46  1   
 46  23  47  1   
 47  23  48  1   
 48  24  28  ar  
 49  24  49  1   
 50  25  28  ar  
 51  25  50  1   
 52  26  29  ar  
 53  26  51  1   
 54  27  29  ar  
 55  27  52  1   
 56  29  53  1   
@<TRIPOS>SUBSTRUCTURE
  1 ****   4 GROUP 4 **** **** 0

# MOE 2024.06 (io_trps.svl 2023.06)
