@<TRIPOS>MOLECULE
NONAME
51 54 1 0 0 
SMALL
USER_CHARGES


@<TRIPOS>ATOM
  1 O        1.9550    -0.8380    -3.2410 O.2   1 <1>  -0.5700 
  2 C        2.1020    -1.3390    -2.1520 C.2   1 <1>   0.5690 
  3 N        2.6460    -0.6030    -1.1210 N.am  1 <1>  -0.6600 
  4 C        1.6880    -2.8000    -2.0000 C.3   1 <1>   0.0440 
  5 C        3.1270    -1.1480     0.1890 C.3   1 <1>   0.1400 
  6 C        2.6600     0.8830    -1.2150 C.3   1 <1>   0.1400 
  7 C        0.7820    -3.0800    -0.8010 C.ar  1 <1>  -0.1440 
  8 C        4.6630    -1.0730     0.3490 C.3   1 <1>   0.3430 
  9 C        3.9740     1.3720    -1.8290 C.3   1 <1>  -0.1600 
 10 C       -0.2010    -2.1660    -0.4320 C.ar  1 <1>  -0.1500 
 11 C        0.9460    -4.2570    -0.0680 C.ar  1 <1>  -0.1500 
 12 N        5.2630     0.2510    -0.0290 N.4   1 <1>  -0.9590 
 13 C        5.1910     0.5130    -1.4960 C.3   1 <1>   0.3430 
 14 C       -0.9730    -2.4470     0.6780 C.ar  1 <1>   0.0830 
 15 C        0.1550    -4.5250     1.0420 C.ar  1 <1>  -0.1500 
 16 C        6.6490     0.4180     0.4800 C.3   1 <1>   0.5230 
 17 O       -1.9490    -1.7100     1.2160 O.3   1 <1>  -0.3630 
 18 C       -0.7990    -3.5940     1.3950 C.ar  1 <1>   0.0830 
 19 C        6.9650     1.8980     0.4430 C.2   1 <1>  -0.0400 
 20 C       -2.4440    -2.4430     2.3350 C.3   1 <1>   0.4000 
 21 O       -1.6610    -3.6330     2.4170 O.3   1 <1>  -0.3620 
 22 O        6.0880     2.7310     0.9750 O.3   1 <1>  -0.2800 
 23 C        8.0150     2.5780    -0.0680 C.2   1 <1>  -0.1500 
 24 C        6.5560     3.9530     0.8220 C.2   1 <1>  -0.0400 
 25 C        7.7440     3.9280     0.1830 C.2   1 <1>  -0.1500 
 26 C        5.7500     5.1190     1.3540 C.3   1 <1>  -0.0600 
 27 H        2.5780    -3.3950    -1.9400 H     1 <1>   0.0800 
 28 H        1.1630    -3.0980    -2.8900 H     1 <1>   0.0800 
 29 H        2.8390    -2.1750     0.3040 H     1 <1>   0.0800 
 30 H        2.6550    -0.6050     0.9900 H     1 <1>   0.0800 
 31 H        2.5280     1.3080    -0.2340 H     1 <1>   0.0800 
 32 H        1.8330     1.2210    -1.8200 H     1 <1>   0.0800 
 33 H        5.1050    -1.8470    -0.2560 H     1 <1>   0.0800 
 34 H        4.8980    -1.2940     1.3770 H     1 <1>   0.0800 
 35 H        4.1520     2.3900    -1.5320 H     1 <1>   0.0800 
 36 H        3.8580     1.3790    -2.8990 H     1 <1>   0.0800 
 37 H       -0.3750    -1.2550    -0.9780 H     1 <1>   0.1500 
 38 H        1.6900    -4.9790    -0.3590 H     1 <1>   0.1500 
 39 H        4.7440     1.0160     0.4270 H     1 <1>   0.4500 
 40 H        6.0770     1.0290    -1.8320 H     1 <1>   0.0800 
 41 H        5.1230    -0.4210    -2.0320 H     1 <1>   0.0800 
 42 H        0.2680    -5.4280     1.6150 H     1 <1>   0.1500 
 43 H        7.3520    -0.1360    -0.1200 H     1 <1>   0.0800 
 44 H        6.7120     0.0790     1.5010 H     1 <1>   0.0800 
 45 H       -3.4750    -2.7010     2.1690 H     1 <1>   0.0800 
 46 H       -2.3170    -1.8640     3.2320 H     1 <1>   0.0800 
 47 H        8.8960     2.2150    -0.5700 H     1 <1>   0.1500 
 48 H        8.3790     4.7540    -0.0890 H     1 <1>   0.1500 
 49 H        4.7870     5.1470     0.8790 H     1 <1>   0.0800 
 50 H        6.2620     6.0430     1.1590 H     1 <1>   0.0800 
 51 H        5.6140     5.0150     2.4150 H     1 <1>   0.0800 
@<TRIPOS>BOND
  1   1   2  2   
  2   2   3  am  
  3   2   4  1   
  4   3   5  1   
  5   3   6  1   
  6   4   7  1   
  7   4  27  1   
  8   4  28  1   
  9   5   8  1   
 10   5  29  1   
 11   5  30  1   
 12   6   9  1   
 13   6  31  1   
 14   6  32  1   
 15   7  10  ar  
 16   7  11  ar  
 17   8  12  1   
 18   8  33  1   
 19   8  34  1   
 20   9  13  1   
 21   9  35  1   
 22   9  36  1   
 23  10  14  ar  
 24  10  37  1   
 25  11  15  ar  
 26  11  38  1   
 27  12  13  1   
 28  12  16  1   
 29  12  39  1   
 30  13  40  1   
 31  13  41  1   
 32  14  17  1   
 33  14  18  ar  
 34  15  18  ar  
 35  15  42  1   
 36  16  19  1   
 37  16  43  1   
 38  16  44  1   
 39  17  20  1   
 40  18  21  1   
 41  19  22  1   
 42  19  23  2   
 43  20  21  1   
 44  20  45  1   
 45  20  46  1   
 46  22  24  1   
 47  23  25  1   
 48  23  47  1   
 49  24  25  2   
 50  24  26  1   
 51  25  48  1   
 52  26  49  1   
 53  26  50  1   
 54  26  51  1   
@<TRIPOS>SUBSTRUCTURE
  1 ****   5 GROUP 4 **** **** 0

# MOE 2024.06 (io_trps.svl 2023.06)
