@<TRIPOS>MOLECULE
NONAME
51 53 1 0 0 
SMALL
USER_CHARGES


@<TRIPOS>ATOM
  1 O       -1.2970    -0.5170    -0.8460 O.3   1 <1>  -0.6800 
  2 C       -2.3100    -1.4480    -0.6790 C.3   1 <1>   0.2000 
  3 C       -1.7430    -2.8700    -0.8370 C.3   1 <1>   0.2090 
  4 C       -3.3840    -1.1600    -1.7320 C.3   1 <1>  -0.1600 
  5 N       -2.8470    -3.8880    -0.7890 N.pl3 1 <1>  -0.8380 
  6 C       -4.4660    -2.2540    -1.7120 C.3   1 <1>  -0.1600 
  7 C       -2.8580    -4.9840     0.0130 C.ar  1 <1>   0.4100 
  8 C       -3.8720    -3.6600    -1.8570 C.3   1 <1>   0.2090 
  9 N       -3.4650    -6.0690    -0.4350 N.ar  1 <1>  -0.6200 
 10 C       -2.2460    -4.9680     1.2820 C.ar  1 <1>  -0.1500 
 11 C       -3.4570    -7.1450     0.3200 C.ar  1 <1>   0.7710 
 12 C       -2.2560    -6.0920     2.0380 C.ar  1 <1>   0.2110 
 13 N       -2.8700    -7.1870     1.5290 N.ar  1 <1>  -0.1790 
 14 N       -4.0770    -8.2140    -0.1980 N.pl3 1 <1>  -0.8690 
 15 C       -4.3100    -9.6040     0.2580 C.3   1 <1>   0.2090 
 16 C       -5.8130    -9.8870     0.1980 C.3   1 <1>  -0.1600 
 17 C       -6.1370   -11.3460     0.5530 C.3   1 <1>   0.3540 
 18 N       -7.6070   -11.5380     0.6430 N.pl3 1 <1>  -0.4570 
 19 N       -8.3090   -10.9910     1.6710 N.2   1 <1>  -0.2600 
 20 C       -8.4220   -12.2230    -0.1420 C.cat 1 <1>   0.6560 
 21 C       -9.5220   -11.3630     1.4650 C.2   1 <1>   0.4850 
 22 N       -9.6310   -12.1270     0.3520 N.pl3 1 <1>  -0.7000 
 23 C       -8.0540   -12.9930    -1.3910 C.3   1 <1>  -0.0960 
 24 C      -10.7110   -11.0160     2.3330 C.3   1 <1>  -0.0720 
 25 H       -0.7100    -0.4880    -0.0660 H     1 <1>   0.4000 
 26 H       -2.7190    -1.3220     0.3090 H     1 <1>   0.0800 
 27 H       -1.0070    -3.0580    -0.0790 H     1 <1>   0.0800 
 28 H       -1.2580    -2.9420    -1.7960 H     1 <1>   0.0800 
 29 H       -2.9290    -1.1350    -2.7060 H     1 <1>   0.0800 
 30 H       -3.8340    -0.2020    -1.5380 H     1 <1>   0.0800 
 31 H       -5.1620    -2.0810    -2.5140 H     1 <1>   0.0800 
 32 H       -5.0160    -2.2050    -0.7880 H     1 <1>   0.0800 
 33 H       -4.6680    -4.3820    -1.7900 H     1 <1>   0.0800 
 34 H       -3.4070    -3.7650    -2.8230 H     1 <1>   0.0800 
 35 H       -1.7930    -4.0620     1.6370 H     1 <1>   0.1500 
 36 H       -1.8060    -6.1440     3.0170 H     1 <1>   0.1500 
 37 H       -2.9160    -8.0660     2.0300 H     1 <1>   0.4570 
 38 H       -4.4450    -8.0180    -1.1390 H     1 <1>   0.4000 
 39 H       -3.9450    -9.7460     1.2610 H     1 <1>   0.0800 
 40 H       -3.7810   -10.2780    -0.3980 H     1 <1>   0.0800 
 41 H       -6.1770    -9.6850    -0.7940 H     1 <1>   0.0800 
 42 H       -6.3130    -9.2340     0.8930 H     1 <1>   0.0800 
 43 H       -5.7060   -11.5960     1.5080 H     1 <1>   0.0800 
 44 H       -5.7230   -12.0090    -0.1880 H     1 <1>   0.0800 
 45 H      -10.4930   -12.5380    -0.0060 H     1 <1>   0.4500 
 46 H       -7.5940   -12.3350    -2.1050 H     1 <1>   0.0800 
 47 H       -8.9320   -13.4240    -1.8360 H     1 <1>   0.0800 
 48 H       -7.3700   -13.7840    -1.1450 H     1 <1>   0.0800 
 49 H      -10.4000   -10.3920     3.1510 H     1 <1>   0.0800 
 50 H      -11.1490   -11.9130     2.7320 H     1 <1>   0.0800 
 51 H      -11.4470   -10.4870     1.7560 H     1 <1>   0.0800 
@<TRIPOS>BOND
  1   1   2  1   
  2   1  25  1   
  3   2   3  1   
  4   2   4  1   
  5   2  26  1   
  6   3   5  1   
  7   3  27  1   
  8   3  28  1   
  9   4   6  1   
 10   4  29  1   
 11   4  30  1   
 12   5   7  1   
 13   5   8  1   
 14   6   8  1   
 15   6  31  1   
 16   6  32  1   
 17   7   9  ar  
 18   7  10  ar  
 19   8  33  1   
 20   8  34  1   
 21   9  11  ar  
 22  10  12  ar  
 23  10  35  1   
 24  11  13  ar  
 25  11  14  1   
 26  12  13  ar  
 27  12  36  1   
 28  13  37  1   
 29  14  15  1   
 30  14  38  1   
 31  15  16  1   
 32  15  39  1   
 33  15  40  1   
 34  16  17  1   
 35  16  41  1   
 36  16  42  1   
 37  17  18  1   
 38  17  43  1   
 39  17  44  1   
 40  18  19  1   
 41  18  20  ar  
 42  19  21  2   
 43  20  22  ar  
 44  20  23  1   
 45  21  22  1   
 46  21  24  1   
 47  22  45  1   
 48  23  46  1   
 49  23  47  1   
 50  23  48  1   
 51  24  49  1   
 52  24  50  1   
 53  24  51  1   
@<TRIPOS>SUBSTRUCTURE
  1 ****  14 GROUP 4 **** **** 0

# MOE 2024.06 (io_trps.svl 2023.06)
