@<TRIPOS>MOLECULE
NONAME
38 40 1 0 0 
SMALL
USER_CHARGES


@<TRIPOS>ATOM
  1 S       -0.4680     0.0040    -0.0420 S.3   1 <1>  -0.3320 
  2 C       -0.2930    -1.7880     0.0150 C.ar  1 <1>   0.1020 
  3 C        1.2360     0.7140    -0.1140 C.3   1 <1>  -0.0100 
  4 C       -1.4340    -2.5370     0.0750 C.ar  1 <1>  -0.1500 
  5 C        0.9630    -2.4020    -0.0010 C.ar  1 <1>  -0.1500 
  6 C       -1.3820    -3.9380     0.1210 C.ar  1 <1>   0.3100 
  7 C        1.0420    -3.7690     0.0440 C.ar  1 <1>  -0.1500 
  8 N       -2.5550    -4.6090     0.1760 N.ar  1 <1>  -0.6200 
  9 C       -0.1170    -4.5730     0.1060 C.ar  1 <1>   0.0000 
 10 C       -2.5150    -5.9120     0.2110 C.ar  1 <1>   0.4100 
 11 C       -0.1000    -5.9850     0.1550 C.ar  1 <1>  -0.1430 
 12 N       -3.7280    -6.5810     0.2640 N.pl3 1 <1>  -0.8380 
 13 C       -1.2980    -6.6260     0.2090 C.ar  1 <1>  -0.1500 
 14 C        1.2060    -6.7680     0.1520 C.3   1 <1>  -0.0970 
 15 C       -5.0210    -5.8600     0.0570 C.3   1 <1>   0.2090 
 16 C       -3.9060    -8.0260    -0.0460 C.3   1 <1>   0.2090 
 17 C       -6.0240    -6.9180    -0.4130 C.3   1 <1>   0.2000 
 18 C       -5.4140    -8.2580    -0.0010 C.3   1 <1>   0.2000 
 19 O       -7.2850    -6.7490     0.1610 O.3   1 <1>  -0.6800 
 20 O       -5.8110    -9.2770    -0.8600 O.3   1 <1>  -0.6800 
 21 H        1.1390     1.7850    -0.1470 H     1 <1>   0.0800 
 22 H        1.7110     0.3470    -1.0060 H     1 <1>   0.0800 
 23 H        1.7620     0.4070     0.7710 H     1 <1>   0.0800 
 24 H       -2.3980    -2.0660     0.0890 H     1 <1>   0.1500 
 25 H        1.8580    -1.8140    -0.0480 H     1 <1>   0.1500 
 26 H        2.0070    -4.2390     0.0320 H     1 <1>   0.1500 
 27 H       -1.3380    -7.6950     0.2550 H     1 <1>   0.1500 
 28 H        1.0180    -7.8260     0.1960 H     1 <1>   0.0800 
 29 H        1.8010    -6.4950     1.0050 H     1 <1>   0.0800 
 30 H        1.7590    -6.5590    -0.7460 H     1 <1>   0.0800 
 31 H       -5.3240    -5.4150     0.9880 H     1 <1>   0.0800 
 32 H       -4.9120    -5.0950    -0.6930 H     1 <1>   0.0800 
 33 H       -3.5250    -8.2290    -1.0330 H     1 <1>   0.0800 
 34 H       -3.4070    -8.6370     0.6850 H     1 <1>   0.0800 
 35 H       -6.1220    -6.8610    -1.4830 H     1 <1>   0.0800 
 36 H       -5.7010    -8.5180     1.0020 H     1 <1>   0.0800 
 37 H       -7.2130    -6.6920     1.1340 H     1 <1>   0.4000 
 38 H       -6.7890    -9.2860    -0.9160 H     1 <1>   0.4000 
@<TRIPOS>BOND
  1   1   2  1   
  2   1   3  1   
  3   2   4  ar  
  4   2   5  ar  
  5   3  21  1   
  6   3  22  1   
  7   3  23  1   
  8   4   6  ar  
  9   4  24  1   
 10   5   7  ar  
 11   5  25  1   
 12   6   8  ar  
 13   6   9  ar  
 14   7   9  ar  
 15   7  26  1   
 16   8  10  ar  
 17   9  11  ar  
 18  10  12  1   
 19  10  13  ar  
 20  11  13  ar  
 21  11  14  1   
 22  12  15  1   
 23  12  16  1   
 24  13  27  1   
 25  14  28  1   
 26  14  29  1   
 27  14  30  1   
 28  15  17  1   
 29  15  31  1   
 30  15  32  1   
 31  16  18  1   
 32  16  33  1   
 33  16  34  1   
 34  17  18  1   
 35  17  19  1   
 36  17  35  1   
 37  18  20  1   
 38  18  36  1   
 39  19  37  1   
 40  20  38  1   
@<TRIPOS>SUBSTRUCTURE
  1 ****   8 GROUP 4 **** **** 0

# MOE 2024.06 (io_trps.svl 2023.06)
