@<TRIPOS>MOLECULE
NONAME
39 41 1 0 0 
SMALL
USER_CHARGES


@<TRIPOS>ATOM
  1 CL      -2.3220    -0.5330     0.6700 Cl    1 <1>  -0.1230 
  2 C       -2.2480    -2.2670     0.9300 C.2   1 <1>   0.1230 
  3 C       -1.1870    -2.9590     1.4930 C.2   1 <1>   0.1390 
  4 C       -3.1860    -3.1840     0.6320 C.2   1 <1>  -0.3020 
  5 N       -1.4360    -4.2360     1.5470 N.2   1 <1>  -0.7070 
  6 N       -2.6740    -4.3730     1.0170 N.pl3 1 <1>   0.3140 
  7 C       -3.3200    -5.6880     0.8940 C.3   1 <1>   0.0960 
  8 C       -2.5980    -6.5160    -0.1690 C.3   1 <1>   0.1400 
  9 N       -3.2390    -7.8470    -0.3090 N.am  1 <1>  -0.7300 
 10 C       -4.4390    -8.0810    -0.9100 C.2   1 <1>   0.5690 
 11 O       -5.1090    -7.1690    -1.3360 O.2   1 <1>  -0.5700 
 12 C       -4.9550    -9.5210    -1.0500 C.3   1 <1>   0.2610 
 13 O       -4.3140   -10.3580    -0.0910 O.3   1 <1>  -0.3630 
 14 C       -4.6750   -10.0870    -2.4500 C.3   1 <1>  -0.2400 
 15 C       -4.8410   -11.5410     0.3250 C.ar  1 <1>   0.0830 
 16 C       -6.0810   -12.0310    -0.0910 C.ar  1 <1>  -0.1500 
 17 C       -4.0640   -12.2770     1.2200 C.ar  1 <1>  -0.1500 
 18 C       -6.4930   -13.2490     0.4120 C.ar  1 <1>   0.0830 
 19 C       -4.5000   -13.5000     1.7130 C.ar  1 <1>  -0.1500 
 20 O       -7.6300   -13.9040     0.1550 O.3   1 <1>  -0.3620 
 21 C       -5.7280   -13.9630     1.2870 C.ar  1 <1>   0.0830 
 22 C       -7.5870   -15.1110     0.9150 C.3   1 <1>   0.4000 
 23 O       -6.3480   -15.1010     1.6210 O.3   1 <1>  -0.3630 
 24 H       -0.2750    -2.5030     1.8390 H     1 <1>   0.1500 
 25 H       -4.1530    -3.0600     0.1840 H     1 <1>   0.1500 
 26 H       -4.3490    -5.5450     0.6190 H     1 <1>   0.0800 
 27 H       -3.2660    -6.1810     1.8470 H     1 <1>   0.0800 
 28 H       -1.5650    -6.6460     0.1050 H     1 <1>   0.0800 
 29 H       -2.6460    -6.0040    -1.1160 H     1 <1>   0.0800 
 30 H       -2.7390    -8.6510     0.0830 H     1 <1>   0.3700 
 31 H       -6.0090    -9.5030    -0.8430 H     1 <1>   0.0800 
 32 H       -3.6170   -10.0930    -2.6420 H     1 <1>   0.0800 
 33 H       -5.1510    -9.4680    -3.1890 H     1 <1>   0.0800 
 34 H       -5.0610   -11.0850    -2.5470 H     1 <1>   0.0800 
 35 H       -6.7250   -11.5160    -0.7760 H     1 <1>   0.1500 
 36 H       -3.1130   -11.8850     1.5300 H     1 <1>   0.1500 
 37 H       -3.9100   -14.0770     2.4030 H     1 <1>   0.1500 
 38 H       -7.6190   -15.9570     0.2520 H     1 <1>   0.0800 
 39 H       -8.4020   -15.1240     1.6170 H     1 <1>   0.0800 
@<TRIPOS>BOND
  1   1   2  1   
  2   2   3  1   
  3   2   4  2   
  4   3   5  2   
  5   3  24  1   
  6   4   6  1   
  7   4  25  1   
  8   5   6  1   
  9   6   7  1   
 10   7   8  1   
 11   7  26  1   
 12   7  27  1   
 13   8   9  1   
 14   8  28  1   
 15   8  29  1   
 16   9  10  am  
 17   9  30  1   
 18  10  11  2   
 19  10  12  1   
 20  12  13  1   
 21  12  14  1   
 22  12  31  1   
 23  13  15  1   
 24  14  32  1   
 25  14  33  1   
 26  14  34  1   
 27  15  16  ar  
 28  15  17  ar  
 29  16  18  ar  
 30  16  35  1   
 31  17  19  ar  
 32  17  36  1   
 33  18  20  1   
 34  18  21  ar  
 35  19  21  ar  
 36  19  37  1   
 37  20  22  1   
 38  21  23  1   
 39  22  23  1   
 40  22  38  1   
 41  22  39  1   
@<TRIPOS>SUBSTRUCTURE
  1 ****  10 GROUP 4 **** **** 0

# MOE 2024.06 (io_trps.svl 2023.06)
