@<TRIPOS>MOLECULE
NONAME
45 47 1 0 0 
SMALL
USER_CHARGES


@<TRIPOS>ATOM
  1 O       -0.9490    -2.6170    -0.4040 O.co2 1 <1>  -0.9000 
  2 C       -2.1220    -2.2530    -0.4670 C.2   1 <1>   0.9060 
  3 O       -2.7840    -2.2460    -1.5160 O.co2 1 <1>  -0.9000 
  4 C       -2.8100    -1.7120     0.7940 C.3   1 <1>   0.2370 
  5 N       -3.9870    -0.8150     0.4710 N.4   1 <1>  -0.9590 
  6 C       -5.0470    -0.6970     1.5100 C.3   1 <1>   0.3430 
  7 C       -3.5690     0.4460    -0.1970 C.3   1 <1>   0.3430 
  8 C       -6.4140    -0.3830     0.8520 C.3   1 <1>   0.1900 
  9 C       -4.7100     1.1440    -0.9650 C.3   1 <1>  -0.0800 
 10 N       -6.3840    -0.7400    -0.6040 N.3   1 <1>  -0.8100 
 11 C       -6.8400     1.0710     1.1260 C.3   1 <1>   0.1200 
 12 C       -5.3190     2.3170    -0.1800 C.3   1 <1>   0.1200 
 13 C       -5.7900     0.2150    -1.5590 C.3   1 <1>   0.1100 
 14 C       -7.5600    -1.4530    -1.1200 C.3   1 <1>   0.2910 
 15 O       -5.7430     1.9340     1.0870 O.3   1 <1>  -0.5600 
 16 C       -7.7290    -2.7550    -0.3610 C.2   1 <1>  -0.1810 
 17 C       -8.7230    -3.1560     0.4490 C.2   1 <1>  -0.0400 
 18 C       -6.8400    -3.8330    -0.3370 C.2   1 <1>   0.1080 
 19 O       -8.4180    -4.3420     0.9010 O.3   1 <1>  -0.0190 
 20 C      -10.0220    -2.5140     0.8900 C.3   1 <1>  -0.0600 
 21 N       -7.2790    -4.7610     0.4350 N.2   1 <1>  -0.4100 
 22 C       -5.5320    -3.9520    -1.0970 C.3   1 <1>  -0.0590 
 23 H       -2.0790    -1.1810     1.3730 H     1 <1>   0.0800 
 24 H       -3.1430    -2.5630     1.3570 H     1 <1>   0.0800 
 25 H       -4.4690    -1.3160    -0.3080 H     1 <1>   0.4500 
 26 H       -5.1360    -1.6360     2.0290 H     1 <1>   0.0800 
 27 H       -4.7910     0.0630     2.2290 H     1 <1>   0.0800 
 28 H       -3.1470     1.1230     0.5270 H     1 <1>   0.0800 
 29 H       -2.7980     0.2020    -0.9110 H     1 <1>   0.0800 
 30 H       -7.1400    -1.0030     1.3480 H     1 <1>   0.0800 
 31 H       -4.2390     1.6090    -1.8120 H     1 <1>   0.0800 
 32 H       -7.2380     1.1350     2.1230 H     1 <1>   0.0800 
 33 H       -7.5990     1.4020     0.4380 H     1 <1>   0.0800 
 34 H       -6.1490     2.7560    -0.7070 H     1 <1>   0.0800 
 35 H       -4.5740     3.0810    -0.0380 H     1 <1>   0.0800 
 36 H       -5.3440    -0.3540    -2.3600 H     1 <1>   0.0800 
 37 H       -6.5710     0.8190    -1.9910 H     1 <1>   0.0800 
 38 H       -8.4360    -0.8360    -1.0190 H     1 <1>   0.0800 
 39 H       -7.4220    -1.6790    -2.1640 H     1 <1>   0.0800 
 40 H      -10.1380    -1.5420     0.4500 H     1 <1>   0.0800 
 41 H      -10.0350    -2.4190     1.9610 H     1 <1>   0.0800 
 42 H      -10.8490    -3.1330     0.5890 H     1 <1>   0.0800 
 43 H       -5.3760    -3.1160    -1.7510 H     1 <1>   0.0800 
 44 H       -5.5380    -4.8500    -1.6870 H     1 <1>   0.0800 
 45 H       -4.7120    -4.0060    -0.4060 H     1 <1>   0.0800 
@<TRIPOS>BOND
  1   1   2  ar  
  2   2   3  ar  
  3   2   4  1   
  4   4   5  1   
  5   4  23  1   
  6   4  24  1   
  7   5   6  1   
  8   5   7  1   
  9   5  25  1   
 10   6   8  1   
 11   6  26  1   
 12   6  27  1   
 13   7   9  1   
 14   7  28  1   
 15   7  29  1   
 16   8  10  1   
 17   8  11  1   
 18   8  30  1   
 19   9  12  1   
 20   9  13  1   
 21   9  31  1   
 22  10  13  1   
 23  10  14  1   
 24  11  15  1   
 25  11  32  1   
 26  11  33  1   
 27  12  15  1   
 28  12  34  1   
 29  12  35  1   
 30  13  36  1   
 31  13  37  1   
 32  14  16  1   
 33  14  38  1   
 34  14  39  1   
 35  16  17  2   
 36  16  18  1   
 37  17  19  1   
 38  17  20  1   
 39  18  21  2   
 40  18  22  1   
 41  19  21  1   
 42  20  40  1   
 43  20  41  1   
 44  20  42  1   
 45  22  43  1   
 46  22  44  1   
 47  22  45  1   
@<TRIPOS>SUBSTRUCTURE
  1 ****  10 GROUP 4 **** **** 0

# MOE 2024.06 (io_trps.svl 2023.06)
