@<TRIPOS>MOLECULE
NONAME
55 58 1 0 0 
SMALL
USER_CHARGES


@<TRIPOS>ATOM
  1 O       -0.7080     1.1070     1.7730 O.2   1 <1>  -0.5700 
  2 C       -1.4080     1.0600     0.7890 C.2   1 <1>   0.5690 
  3 N       -2.2800     0.0190     0.5740 N.am  1 <1>  -0.6600 
  4 C       -1.3060     2.1940    -0.2200 C.3   1 <1>  -0.0990 
  5 C       -2.4660    -1.0440     1.5990 C.3   1 <1>   0.1400 
  6 C       -3.1160    -0.1600    -0.6440 C.3   1 <1>   0.1400 
  7 C       -0.3700     3.3300     0.2120 C.3   1 <1>   0.0210 
  8 C       -3.9390    -1.1280     2.0080 C.3   1 <1>  -0.1600 
  9 C       -4.5930    -0.1590    -0.2560 C.3   1 <1>  -0.1600 
 10 C       -0.3510     4.4180    -0.8450 C.2   1 <1>  -0.1810 
 11 C       -4.9560    -1.1670     0.8520 C.3   1 <1>   0.4240 
 12 C       -1.3470     5.3600    -1.0850 C.2   1 <1>   0.1390 
 13 C        0.6060     4.6930    -1.7550 C.2   1 <1>  -0.3020 
 14 O       -6.1350    -0.6830     1.4460 O.3   1 <1>  -0.5600 
 15 C       -5.1720    -2.6040     0.2980 C.ar  1 <1>  -0.1440 
 16 N       -1.0470     6.1550    -2.0650 N.2   1 <1>  -0.7070 
 17 N        0.1670     5.7420    -2.4780 N.pl3 1 <1>   0.3000 
 18 C       -7.3420    -0.9210     0.7940 C.3   1 <1>   0.1200 
 19 C       -6.4410    -3.1820     0.2980 C.ar  1 <1>  -0.1440 
 20 C       -4.1220    -3.3600    -0.2180 C.ar  1 <1>  -0.1500 
 21 C       -7.6270    -2.4140     0.8460 C.3   1 <1>  -0.0170 
 22 C       -6.6470    -4.4580    -0.2020 C.ar  1 <1>  -0.1500 
 23 C       -4.3140    -4.6400    -0.7080 C.ar  1 <1>   0.0820 
 24 C       -5.5970    -5.1890    -0.7220 C.ar  1 <1>   0.0820 
 25 O       -3.2200    -5.3050    -1.1540 O.3   1 <1>  -0.3620 
 26 O       -5.8740    -6.4150    -1.2310 O.3   1 <1>  -0.3620 
 27 C       -2.8510    -6.4580    -0.4290 C.3   1 <1>   0.0400 
 28 C       -5.6940    -6.5710    -2.6210 C.3   1 <1>   0.0400 
 29 H       -2.2890     2.5990    -0.3740 H     1 <1>   0.0800 
 30 H       -0.9510     1.7920    -1.1510 H     1 <1>   0.0800 
 31 H       -1.8810    -0.8280     2.4770 H     1 <1>   0.0800 
 32 H       -2.1120    -1.9800     1.2150 H     1 <1>   0.0800 
 33 H       -2.8510    -1.0840    -1.1250 H     1 <1>   0.0800 
 34 H       -2.9430     0.6240    -1.3580 H     1 <1>   0.0800 
 35 H        0.6260     2.9460     0.3490 H     1 <1>   0.0800 
 36 H       -0.6990     3.7440     1.1490 H     1 <1>   0.0800 
 37 H       -4.1370    -0.2580     2.6090 H     1 <1>   0.0800 
 38 H       -4.0830    -1.9900     2.6330 H     1 <1>   0.0800 
 39 H       -5.1770    -0.3670    -1.1330 H     1 <1>   0.0800 
 40 H       -4.8370     0.8330     0.0820 H     1 <1>   0.0800 
 41 H       -2.2670     5.4310    -0.5280 H     1 <1>   0.1500 
 42 H        1.5520     4.2140    -1.9270 H     1 <1>   0.1500 
 43 H        0.6650     6.1980    -3.2520 H     1 <1>   0.2700 
 44 H       -7.2770    -0.5700    -0.2210 H     1 <1>   0.0800 
 45 H       -8.1100    -0.3720     1.3100 H     1 <1>   0.0800 
 46 H       -3.1220    -2.9860    -0.2540 H     1 <1>   0.1500 
 47 H       -8.5100    -2.6270     0.2710 H     1 <1>   0.0800 
 48 H       -7.8080    -2.7080     1.8650 H     1 <1>   0.0800 
 49 H       -7.6280    -4.8980    -0.1980 H     1 <1>   0.1500 
 50 H       -1.9070    -6.8060    -0.8090 H     1 <1>   0.0800 
 51 H       -3.6000    -7.2170    -0.5600 H     1 <1>   0.0800 
 52 H       -2.7580    -6.2000     0.6110 H     1 <1>   0.0800 
 53 H       -6.0480    -7.5470    -2.8990 H     1 <1>   0.0800 
 54 H       -4.6500    -6.4790    -2.8580 H     1 <1>   0.0800 
 55 H       -6.2610    -5.8130    -3.1310 H     1 <1>   0.0800 
@<TRIPOS>BOND
  1   1   2  2   
  2   2   3  am  
  3   2   4  1   
  4   3   5  1   
  5   3   6  1   
  6   4   7  1   
  7   4  29  1   
  8   4  30  1   
  9   5   8  1   
 10   5  31  1   
 11   5  32  1   
 12   6   9  1   
 13   6  33  1   
 14   6  34  1   
 15   7  10  1   
 16   7  35  1   
 17   7  36  1   
 18   8  11  1   
 19   8  37  1   
 20   8  38  1   
 21   9  11  1   
 22   9  39  1   
 23   9  40  1   
 24  10  12  1   
 25  10  13  2   
 26  11  14  1   
 27  11  15  1   
 28  12  16  2   
 29  12  41  1   
 30  13  17  1   
 31  13  42  1   
 32  14  18  1   
 33  15  19  ar  
 34  15  20  ar  
 35  16  17  1   
 36  17  43  1   
 37  18  21  1   
 38  18  44  1   
 39  18  45  1   
 40  19  21  1   
 41  19  22  ar  
 42  20  23  ar  
 43  20  46  1   
 44  21  47  1   
 45  21  48  1   
 46  22  24  ar  
 47  22  49  1   
 48  23  24  ar  
 49  23  25  1   
 50  24  26  1   
 51  25  27  1   
 52  26  28  1   
 53  27  50  1   
 54  27  51  1   
 55  27  52  1   
 56  28  53  1   
 57  28  54  1   
 58  28  55  1   
@<TRIPOS>SUBSTRUCTURE
  1 ****   6 GROUP 4 **** **** 0

# MOE 2024.06 (io_trps.svl 2023.06)
