@<TRIPOS>MOLECULE
NONAME
48 51 1 0 0 
SMALL
USER_CHARGES


@<TRIPOS>ATOM
  1 O        0.9630    -0.7160    -1.2500 O.3   1 <1>  -0.0190 
  2 N        1.1590     0.5700    -1.3090 N.2   1 <1>  -0.4100 
  3 C        1.2380    -1.1970    -0.0660 C.2   1 <1>  -0.0400 
  4 C        1.5660     0.9230    -0.1420 C.2   1 <1>   0.1080 
  5 C        1.6400    -0.1780     0.7080 C.2   1 <1>  -0.1500 
  6 C        1.0830    -2.6830     0.2070 C.3   1 <1>   0.2900 
  7 C        1.9140     2.3470     0.2470 C.3   1 <1>   0.0210 
  8 N       -0.2940    -3.0230     0.6060 N.3   1 <1>  -0.8100 
  9 C        3.4320     2.5520     0.3110 C.3   1 <1>  -0.2400 
 10 C       -1.2950    -2.6800    -0.4140 C.3   1 <1>   0.1100 
 11 C       -0.4560    -4.4610     0.8830 C.3   1 <1>   0.1100 
 12 C       -2.4900    -3.5620    -0.0760 C.3   1 <1>   0.2000 
 13 C       -1.8360    -4.8780     0.3380 C.3   1 <1>  -0.0800 
 14 O       -3.1010    -3.0260     1.0410 O.3   1 <1>  -0.6800 
 15 C       -1.7220    -5.8350    -0.8640 C.3   1 <1>  -0.0170 
 16 C       -1.0680    -7.1530    -0.4840 C.ar  1 <1>   0.1670 
 17 N        0.1770    -7.3240    -0.8100 N.ar  1 <1>  -0.6200 
 18 C       -1.8310    -8.1140     0.1990 C.ar  1 <1>  -0.1500 
 19 C        0.7650    -8.5000    -0.4690 C.ar  1 <1>   0.3100 
 20 C       -1.2660    -9.3010     0.5550 C.ar  1 <1>  -0.1500 
 21 C        0.0790    -9.5230     0.2210 C.ar  1 <1>   0.0000 
 22 C        2.1100    -8.7100    -0.8110 C.ar  1 <1>  -0.1500 
 23 C        0.7660   -10.7120     0.5420 C.ar  1 <1>  -0.1500 
 24 C        2.7600    -9.8730    -0.4900 C.ar  1 <1>  -0.1500 
 25 C        2.0780   -10.8840     0.1940 C.ar  1 <1>  -0.1500 
 26 H        1.9470    -0.1770     1.7370 H     1 <1>   0.1500 
 27 H        1.7480    -2.9550     1.0080 H     1 <1>   0.0800 
 28 H        1.3670    -3.2390    -0.6700 H     1 <1>   0.0800 
 29 H        1.4910     3.0200    -0.4780 H     1 <1>   0.0800 
 30 H        1.4740     2.5690     1.2030 H     1 <1>   0.0800 
 31 H        3.8710     2.3350    -0.6470 H     1 <1>   0.0800 
 32 H        3.8670     1.9000     1.0470 H     1 <1>   0.0800 
 33 H        3.6570     3.5700     0.5720 H     1 <1>   0.0800 
 34 H       -1.5480    -1.6330    -0.3880 H     1 <1>   0.0800 
 35 H       -0.9270    -2.9320    -1.3950 H     1 <1>   0.0800 
 36 H        0.3300    -5.0310     0.4180 H     1 <1>   0.0800 
 37 H       -0.4090    -4.6230     1.9460 H     1 <1>   0.0800 
 38 H       -3.2160    -3.6460    -0.8660 H     1 <1>   0.0800 
 39 H       -2.4130    -5.3620     1.1060 H     1 <1>   0.0800 
 40 H       -2.3740    -2.7340     1.6330 H     1 <1>   0.4000 
 41 H       -1.1480    -5.3730    -1.6490 H     1 <1>   0.0800 
 42 H       -2.7010    -6.0380    -1.2570 H     1 <1>   0.0800 
 43 H       -2.8580    -7.9000     0.4330 H     1 <1>   0.1500 
 44 H       -1.8190   -10.0600     1.0790 H     1 <1>   0.1500 
 45 H        2.6150    -7.9220    -1.3380 H     1 <1>   0.1500 
 46 H        0.2360   -11.4860     1.0680 H     1 <1>   0.1500 
 47 H        3.7910   -10.0220    -0.7590 H     1 <1>   0.1500 
 48 H        2.6000   -11.7930     0.4400 H     1 <1>   0.1500 
@<TRIPOS>BOND
  1   1   2  1   
  2   1   3  1   
  3   2   4  2   
  4   3   5  2   
  5   3   6  1   
  6   4   5  1   
  7   4   7  1   
  8   5  26  1   
  9   6   8  1   
 10   6  27  1   
 11   6  28  1   
 12   7   9  1   
 13   7  29  1   
 14   7  30  1   
 15   8  10  1   
 16   8  11  1   
 17   9  31  1   
 18   9  32  1   
 19   9  33  1   
 20  10  12  1   
 21  10  34  1   
 22  10  35  1   
 23  11  13  1   
 24  11  36  1   
 25  11  37  1   
 26  12  13  1   
 27  12  14  1   
 28  12  38  1   
 29  13  15  1   
 30  13  39  1   
 31  14  40  1   
 32  15  16  1   
 33  15  41  1   
 34  15  42  1   
 35  16  17  ar  
 36  16  18  ar  
 37  17  19  ar  
 38  18  20  ar  
 39  18  43  1   
 40  19  21  ar  
 41  19  22  ar  
 42  20  21  ar  
 43  20  44  1   
 44  21  23  ar  
 45  22  24  ar  
 46  22  45  1   
 47  23  25  ar  
 48  23  46  1   
 49  24  25  ar  
 50  24  47  1   
 51  25  48  1   
@<TRIPOS>SUBSTRUCTURE
  1 ****  11 GROUP 4 **** **** 0

# MOE 2024.06 (io_trps.svl 2023.06)
