@<TRIPOS>MOLECULE
NONAME
39 40 1 0 0 
SMALL
USER_CHARGES


@<TRIPOS>ATOM
  1 S       -0.0640     0.1460    -1.9260 S.o2  1 <1>   1.4470 
  2 O       -0.5710     1.3260    -2.5980 O.2   1 <1>  -0.6500 
  3 O        0.6050    -0.8750    -2.7040 O.2   1 <1>  -0.6500 
  4 N       -1.3860    -0.5800    -1.1470 N.am  1 <1>  -0.8490 
  5 C        1.0290     0.6740    -0.5720 C.ar  1 <1>  -0.0090 
  6 C       -1.0390    -1.7810    -0.3730 C.3   1 <1>   0.1960 
  7 C       -2.2030     0.3650    -0.3740 C.3   1 <1>   0.1960 
  8 C        1.8500    -0.2340     0.0850 C.ar  1 <1>  -0.1500 
  9 C        1.0540     1.9960    -0.1420 C.ar  1 <1>  -0.1500 
 10 C       -2.2840    -2.5940     0.0140 C.3   1 <1>  -0.1860 
 11 C       -3.3230    -0.3300     0.4160 C.3   1 <1>  -0.1600 
 12 C        2.6580     0.1500     1.1420 C.ar  1 <1>  -0.1440 
 13 C        1.8610     2.4020     0.9080 C.ar  1 <1>  -0.1440 
 14 C       -1.9950    -3.1990     1.3750 C.2   1 <1>   0.9060 
 15 C       -3.5650    -1.7460    -0.0980 C.3   1 <1>   0.2000 
 16 C        2.6620     1.4730     1.5480 C.ar  1 <1>  -0.1500 
 17 C        3.5190    -0.8860     1.8410 C.3   1 <1>  -0.0970 
 18 C        1.8690     3.8540     1.3520 C.3   1 <1>  -0.0970 
 19 O       -0.9240    -3.7950     1.5220 O.co2 1 <1>  -0.9000 
 20 O       -2.8000    -3.0670     2.3080 O.co2 1 <1>  -0.9000 
 21 O       -4.5890    -2.3080     0.6290 O.3   1 <1>  -0.6800 
 22 H       -0.3800    -2.4190    -0.9390 H     1 <1>   0.0800 
 23 H       -0.5160    -1.4790     0.5200 H     1 <1>   0.0800 
 24 H       -1.5840     0.9150     0.3150 H     1 <1>   0.0800 
 25 H       -2.6460     1.0680    -1.0600 H     1 <1>   0.0800 
 26 H        1.8530    -1.2640    -0.2330 H     1 <1>   0.1500 
 27 H        0.4320     2.7180    -0.6430 H     1 <1>   0.1500 
 28 H       -2.3730    -3.4140    -0.6710 H     1 <1>   0.0800 
 29 H       -4.2260     0.2470     0.3400 H     1 <1>   0.0800 
 30 H       -3.0400    -0.3780     1.4530 H     1 <1>   0.0800 
 31 H       -3.8850    -1.7000    -1.1260 H     1 <1>   0.0800 
 32 H        3.2900     1.7800     2.3650 H     1 <1>   0.1500 
 33 H        3.9320    -0.4920     2.7510 H     1 <1>   0.0800 
 34 H        4.3240    -1.1880     1.1960 H     1 <1>   0.0800 
 35 H        2.9260    -1.7510     2.0830 H     1 <1>   0.0800 
 36 H        2.0640     3.9230     2.4070 H     1 <1>   0.0800 
 37 H        0.9180     4.3140     1.1530 H     1 <1>   0.0800 
 38 H        2.6330     4.3920     0.8200 H     1 <1>   0.0800 
 39 H       -4.1580    -2.6520     1.4700 H     1 <1>   0.4000 
@<TRIPOS>BOND
  1   1   2  2   
  2   1   3  2   
  3   1   4  am  
  4   1   5  1   
  5   4   6  1   
  6   4   7  1   
  7   5   8  ar  
  8   5   9  ar  
  9   6  10  1   
 10   6  22  1   
 11   6  23  1   
 12   7  11  1   
 13   7  24  1   
 14   7  25  1   
 15   8  12  ar  
 16   8  26  1   
 17   9  13  ar  
 18   9  27  1   
 19  10  14  1   
 20  10  15  1   
 21  10  28  1   
 22  11  15  1   
 23  11  29  1   
 24  11  30  1   
 25  12  16  ar  
 26  12  17  1   
 27  13  16  ar  
 28  13  18  1   
 29  14  19  ar  
 30  14  20  ar  
 31  15  21  1   
 32  15  31  1   
 33  16  32  1   
 34  17  33  1   
 35  17  34  1   
 36  17  35  1   
 37  18  36  1   
 38  18  37  1   
 39  18  38  1   
 40  21  39  1   
@<TRIPOS>SUBSTRUCTURE
  1 ****   6 GROUP 4 **** **** 0

# MOE 2024.06 (io_trps.svl 2023.06)
