@<TRIPOS>MOLECULE
NONAME
45 47 1 0 0 
SMALL
USER_CHARGES


@<TRIPOS>ATOM
  1 CL      -0.8680    -1.6490     3.3510 Cl    1 <1>  -0.1770 
  2 C       -1.4380    -1.8900     1.7150 C.ar  1 <1>   0.1770 
  3 C       -1.8110    -3.1460     1.2690 C.ar  1 <1>   0.1900 
  4 C       -1.5120    -0.8000     0.8680 C.ar  1 <1>  -0.1500 
  5 F       -1.7190    -4.1570     2.0930 F     1 <1>  -0.1900 
  6 C       -2.2770    -3.3610    -0.0250 C.ar  1 <1>   0.0860 
  7 C       -1.9620    -0.9850    -0.4310 C.ar  1 <1>  -0.1500 
  8 C       -2.6790    -4.6650    -0.4980 C.2   1 <1>   0.5440 
  9 C       -2.3350    -2.2470    -0.8650 C.ar  1 <1>  -0.1500 
 10 O       -2.0170    -5.1910    -1.3720 O.2   1 <1>  -0.5700 
 11 N       -3.8090    -5.2960    -0.0250 N.am  1 <1>  -0.6600 
 12 C       -4.1920    -6.6820    -0.4440 C.3   1 <1>   0.1400 
 13 C       -4.8130    -4.6610     0.8750 C.3   1 <1>   0.1400 
 14 C       -5.5530    -6.6450    -1.1540 C.3   1 <1>   0.2000 
 15 C       -6.1790    -4.6220     0.1750 C.3   1 <1>  -0.1600 
 16 O       -5.9020    -7.9270    -1.5460 O.3   1 <1>  -0.6800 
 17 C       -6.6670    -6.0350    -0.2620 C.3   1 <1>  -0.1060 
 18 C       -6.9040    -6.9550     0.9530 C.2   1 <1>   0.9060 
 19 C       -7.9760    -5.9300    -1.0910 C.3   1 <1>  -0.0170 
 20 O       -7.0230    -8.1760     0.7600 O.co2 1 <1>  -0.9000 
 21 O       -6.9660    -6.4900     2.0970 O.co2 1 <1>  -0.9000 
 22 C       -9.0210    -4.9570    -0.5460 C.ar  1 <1>  -0.1430 
 23 C       -9.3170    -3.7900    -1.2350 C.ar  1 <1>  -0.1500 
 24 C       -9.6860    -5.2270     0.6390 C.ar  1 <1>  -0.1500 
 25 C      -10.2650    -2.9060    -0.7470 C.ar  1 <1>  -0.1500 
 26 C      -10.6320    -4.3450     1.1310 C.ar  1 <1>  -0.1500 
 27 C      -10.9230    -3.1830     0.4380 C.ar  1 <1>  -0.1500 
 28 H       -1.2190     0.1740     1.2190 H     1 <1>   0.1500 
 29 H       -2.0190    -0.1450    -1.1040 H     1 <1>   0.1500 
 30 H       -2.6800    -2.3870    -1.8770 H     1 <1>   0.1500 
 31 H       -3.4560    -7.0940    -1.1110 H     1 <1>   0.0800 
 32 H       -4.2520    -7.3080     0.4300 H     1 <1>   0.0800 
 33 H       -4.8770    -5.2310     1.7880 H     1 <1>   0.0800 
 34 H       -4.5260    -3.6600     1.1370 H     1 <1>   0.0800 
 35 H       -5.4390    -6.0670    -2.0540 H     1 <1>   0.0800 
 36 H       -6.8890    -4.1930     0.8610 H     1 <1>   0.0800 
 37 H       -6.1170    -3.9720    -0.6780 H     1 <1>   0.0800 
 38 H       -6.3430    -8.3420    -0.7410 H     1 <1>   0.4000 
 39 H       -7.7290    -5.6320    -2.0940 H     1 <1>   0.0800 
 40 H       -8.4250    -6.9060    -1.1670 H     1 <1>   0.0800 
 41 H       -8.8100    -3.5650    -2.1560 H     1 <1>   0.1500 
 42 H       -9.4620    -6.1260     1.1910 H     1 <1>   0.1500 
 43 H      -10.4890    -2.0040    -1.2880 H     1 <1>   0.1500 
 44 H      -11.1340    -4.5680     2.0550 H     1 <1>   0.1500 
 45 H      -11.6580    -2.4980     0.8220 H     1 <1>   0.1500 
@<TRIPOS>BOND
  1   1   2  1   
  2   2   3  ar  
  3   2   4  ar  
  4   3   5  1   
  5   3   6  ar  
  6   4   7  ar  
  7   4  28  1   
  8   6   8  1   
  9   6   9  ar  
 10   7   9  ar  
 11   7  29  1   
 12   8  10  2   
 13   8  11  am  
 14   9  30  1   
 15  11  12  1   
 16  11  13  1   
 17  12  14  1   
 18  12  31  1   
 19  12  32  1   
 20  13  15  1   
 21  13  33  1   
 22  13  34  1   
 23  14  16  1   
 24  14  17  1   
 25  14  35  1   
 26  15  17  1   
 27  15  36  1   
 28  15  37  1   
 29  16  38  1   
 30  17  18  1   
 31  17  19  1   
 32  18  20  ar  
 33  18  21  ar  
 34  19  22  1   
 35  19  39  1   
 36  19  40  1   
 37  22  23  ar  
 38  22  24  ar  
 39  23  25  ar  
 40  23  41  1   
 41  24  26  ar  
 42  24  42  1   
 43  25  27  ar  
 44  25  43  1   
 45  26  27  ar  
 46  26  44  1   
 47  27  45  1   
@<TRIPOS>SUBSTRUCTURE
  1 ****  15 GROUP 4 **** **** 0

# MOE 2024.06 (io_trps.svl 2023.06)
