@<TRIPOS>MOLECULE
NONAME
48 50 1 0 0 
SMALL
USER_CHARGES


@<TRIPOS>ATOM
  1 O       -0.4780     0.1350     1.3310 O.2   1 <1>  -0.5700 
  2 C       -1.3830     0.8300     0.8890 C.2   1 <1>   0.5440 
  3 N       -2.5810     0.2410     0.4830 N.am  1 <1>  -0.6600 
  4 C       -1.2620     2.2500     0.7760 C.ar  1 <1>   0.0860 
  5 C       -3.6940     1.1090    -0.0400 C.3   1 <1>   0.2200 
  6 C       -2.8100    -1.2270     0.5610 C.3   1 <1>   0.0600 
  7 C       -1.7670     3.0800     1.7790 C.ar  1 <1>  -0.1500 
  8 C       -0.9560     2.8340    -0.4540 C.ar  1 <1>  -0.1500 
  9 C       -5.0590     0.9380     0.6030 C.3   1 <1>  -0.1600 
 10 C       -3.9670     0.9840    -1.5290 C.3   1 <1>  -0.1600 
 11 C       -2.2360     4.3380     1.4930 C.ar  1 <1>   0.0820 
 12 C       -1.4060     4.0890    -0.7770 C.ar  1 <1>   0.0820 
 13 C       -5.9430     1.8040    -0.3090 C.3   1 <1>  -0.0800 
 14 C       -5.2570     1.8030    -1.6960 C.3   1 <1>  -0.0800 
 15 O       -2.7470     5.0140     2.5750 O.3   1 <1>  -0.3630 
 16 C       -2.2140     4.8110     0.1480 C.ar  1 <1>  -0.1710 
 17 O       -1.0600     4.5150    -2.0370 O.3   1 <1>  -0.3630 
 18 C       -5.9970     3.2800     0.1360 C.3   1 <1>  -0.1600 
 19 C       -4.9830     3.2790    -2.0460 C.3   1 <1>  -0.1600 
 20 C       -3.1430     6.3590     2.4320 C.3   1 <1>   0.0400 
 21 O       -2.9650     5.7540    -0.2340 O.3   1 <1>  -0.8290 
 22 C       -1.2530     5.8680    -2.3830 C.3   1 <1>   0.0400 
 23 C       -5.9280     4.0710    -1.1590 C.3   1 <1>   0.2000 
 24 O       -5.4710     5.3560    -0.9450 O.3   1 <1>  -0.6800 
 25 H       -3.4650     2.1440     0.1140 H     1 <1>   0.0800 
 26 H       -3.1830    -1.5920    -0.3780 H     1 <1>   0.0800 
 27 H       -3.5230    -1.4400     1.3370 H     1 <1>   0.0800 
 28 H       -1.8930    -1.7430     0.7860 H     1 <1>   0.0800 
 29 H       -1.8580     2.6970     2.7760 H     1 <1>   0.1500 
 30 H       -0.4210     2.2610    -1.1860 H     1 <1>   0.1500 
 31 H       -5.3760    -0.0870     0.5490 H     1 <1>   0.0800 
 32 H       -5.0650     1.2800     1.6220 H     1 <1>   0.0800 
 33 H       -3.1540     1.3770    -2.1140 H     1 <1>   0.0800 
 34 H       -4.1490    -0.0410    -1.7910 H     1 <1>   0.0800 
 35 H       -6.9410     1.4050    -0.3780 H     1 <1>   0.0800 
 36 H       -5.9000     1.3610    -2.4380 H     1 <1>   0.0800 
 37 H       -5.1400     3.5340     0.7390 H     1 <1>   0.0800 
 38 H       -6.8960     3.5010     0.6810 H     1 <1>   0.0800 
 39 H       -5.1600     3.4840    -3.0850 H     1 <1>   0.0800 
 40 H       -3.9700     3.5490    -1.7980 H     1 <1>   0.0800 
 41 H       -3.3290     6.7650     3.4080 H     1 <1>   0.0800 
 42 H       -4.0400     6.3890     1.8390 H     1 <1>   0.0800 
 43 H       -2.3560     6.9020     1.9400 H     1 <1>   0.0800 
 44 H       -0.7080     6.0700    -3.2850 H     1 <1>   0.0800 
 45 H       -0.8970     6.4860    -1.5780 H     1 <1>   0.0800 
 46 H       -2.3050     6.0330    -2.5380 H     1 <1>   0.0800 
 47 H       -6.9030     4.1320    -1.6100 H     1 <1>   0.0800 
 48 H       -4.4950     5.3830    -0.6540 H     1 <1>   0.4000 
@<TRIPOS>BOND
  1   1   2  2   
  2   2   3  am  
  3   2   4  1   
  4   3   5  1   
  5   3   6  1   
  6   4   7  ar  
  7   4   8  ar  
  8   5   9  1   
  9   5  10  1   
 10   5  25  1   
 11   6  26  1   
 12   6  27  1   
 13   6  28  1   
 14   7  11  ar  
 15   7  29  1   
 16   8  12  ar  
 17   8  30  1   
 18   9  13  1   
 19   9  31  1   
 20   9  32  1   
 21  10  14  1   
 22  10  33  1   
 23  10  34  1   
 24  11  15  1   
 25  11  16  ar  
 26  12  16  ar  
 27  12  17  1   
 28  13  14  1   
 29  13  18  1   
 30  13  35  1   
 31  14  19  1   
 32  14  36  1   
 33  15  20  1   
 34  16  21  1   
 35  17  22  1   
 36  18  23  1   
 37  18  37  1   
 38  18  38  1   
 39  19  23  1   
 40  19  39  1   
 41  19  40  1   
 42  20  41  1   
 43  20  42  1   
 44  20  43  1   
 45  22  44  1   
 46  22  45  1   
 47  22  46  1   
 48  23  24  1   
 49  23  47  1   
 50  24  48  1   
@<TRIPOS>SUBSTRUCTURE
  1 ****   5 GROUP 4 **** **** 0

# MOE 2024.06 (io_trps.svl 2023.06)
