@<TRIPOS>MOLECULE
NONAME
52 53 1 0 0 
SMALL
USER_CHARGES


@<TRIPOS>ATOM
  1 S       -0.0700     0.7650    -1.0890 S.o2  1 <1>   1.3330 
  2 O        0.2520     1.9340    -1.8770 O.2   1 <1>  -0.6500 
  3 O       -0.9220    -0.2710    -1.6110 O.2   1 <1>  -0.6500 
  4 N        1.3990     0.0610    -0.6110 N.am  1 <1>  -0.8490 
  5 C       -0.7470     1.3710     0.4650 C.3   1 <1>  -0.0550 
  6 C        1.2260    -1.2840    -0.0350 C.3   1 <1>   0.1160 
  7 C        2.3320    -0.0490    -1.7430 C.3   1 <1>   0.1160 
  8 C       -0.1960     2.7290     0.9690 C.3   1 <1>  -0.0800 
  9 C       -0.6760     3.9280     0.1300 C.3   1 <1>   0.2000 
 10 C        1.3430     2.8340     0.9890 C.3   1 <1>   0.3430 
 11 O       -1.2600     4.8500     0.9930 O.3   1 <1>  -0.6800 
 12 C        0.6050     4.5450    -0.4460 C.3   1 <1>   0.3430 
 13 N        1.6820     4.2130     0.5380 N.4   1 <1>  -0.9590 
 14 C        1.7110     5.1780     1.6820 C.3   1 <1>   0.4860 
 15 C        2.0100     6.5720     1.1840 C.ar  1 <1>  -0.1440 
 16 C        3.2850     6.9710     0.8510 C.ar  1 <1>   0.1600 
 17 C        1.0100     7.5090     1.0470 C.ar  1 <1>   0.1600 
 18 N        3.5450     8.1720     0.4050 N.ar  1 <1>  -0.6200 
 19 N        1.2430     8.7170     0.6020 N.ar  1 <1>  -0.6200 
 20 C        2.5030     8.9910     0.2990 C.ar  1 <1>   0.7200 
 21 N        2.7110    10.2430    -0.1580 N.pl3 1 <1>  -0.8690 
 22 C        4.0240    10.9100    -0.1940 C.3   1 <1>   0.2090 
 23 C        3.8820    12.2430    -0.9270 C.3   1 <1>  -0.1600 
 24 C        5.2210    12.9850    -1.0100 C.3   1 <1>  -0.2400 
 25 H       -1.8100     1.4680     0.3510 H     1 <1>   0.0800 
 26 H       -0.5910     0.6280     1.2230 H     1 <1>   0.0800 
 27 H        2.1750    -1.6690     0.3020 H     1 <1>   0.0800 
 28 H        0.8220    -1.9630    -0.7700 H     1 <1>   0.0800 
 29 H        0.5570    -1.2560     0.8070 H     1 <1>   0.0800 
 30 H        3.2600    -0.4920    -1.4230 H     1 <1>   0.0800 
 31 H        2.5480     0.9260    -2.1470 H     1 <1>   0.0800 
 32 H        1.9050    -0.6560    -2.5250 H     1 <1>   0.0800 
 33 H       -0.5410     2.8450     1.9820 H     1 <1>   0.0800 
 34 H       -1.3810     3.6850    -0.6480 H     1 <1>   0.0800 
 35 H        1.7730     2.1350     0.2930 H     1 <1>   0.0800 
 36 H        1.7400     2.6270     1.9700 H     1 <1>   0.0800 
 37 H       -2.2170     4.6650     1.1130 H     1 <1>   0.4000 
 38 H        0.4950     5.6050    -0.6070 H     1 <1>   0.0800 
 39 H        0.8280     4.0750    -1.3900 H     1 <1>   0.0800 
 40 H        2.5900     4.2300     0.0560 H     1 <1>   0.4500 
 41 H        0.7590     5.1770     2.1890 H     1 <1>   0.0800 
 42 H        2.4670     4.8840     2.3910 H     1 <1>   0.0800 
 43 H        4.1190     6.2950     0.9500 H     1 <1>   0.1500 
 44 H       -0.0100     7.2660     1.3030 H     1 <1>   0.1500 
 45 H        1.8980    10.8470    -0.0490 H     1 <1>   0.4000 
 46 H        4.3710    11.0710     0.8130 H     1 <1>   0.0800 
 47 H        4.7330    10.2810    -0.7070 H     1 <1>   0.0800 
 48 H        3.5190    12.0590    -1.9240 H     1 <1>   0.0800 
 49 H        3.1690    12.8610    -0.4100 H     1 <1>   0.0800 
 50 H        5.9460    12.3940    -1.5410 H     1 <1>   0.0800 
 51 H        5.5980    13.1940    -0.0240 H     1 <1>   0.0800 
 52 H        5.0920    13.9180    -1.5310 H     1 <1>   0.0800 
@<TRIPOS>BOND
  1   1   2  2   
  2   1   3  2   
  3   1   4  am  
  4   1   5  1   
  5   4   6  1   
  6   4   7  1   
  7   5   8  1   
  8   5  25  1   
  9   5  26  1   
 10   6  27  1   
 11   6  28  1   
 12   6  29  1   
 13   7  30  1   
 14   7  31  1   
 15   7  32  1   
 16   8   9  1   
 17   8  10  1   
 18   8  33  1   
 19   9  11  1   
 20   9  12  1   
 21   9  34  1   
 22  10  13  1   
 23  10  35  1   
 24  10  36  1   
 25  11  37  1   
 26  12  13  1   
 27  12  38  1   
 28  12  39  1   
 29  13  14  1   
 30  13  40  1   
 31  14  15  1   
 32  14  41  1   
 33  14  42  1   
 34  15  16  ar  
 35  15  17  ar  
 36  16  18  ar  
 37  16  43  1   
 38  17  19  ar  
 39  17  44  1   
 40  18  20  ar  
 41  19  20  ar  
 42  20  21  1   
 43  21  22  1   
 44  21  45  1   
 45  22  23  1   
 46  22  46  1   
 47  22  47  1   
 48  23  24  1   
 49  23  48  1   
 50  23  49  1   
 51  24  50  1   
 52  24  51  1   
 53  24  52  1   
@<TRIPOS>SUBSTRUCTURE
  1 ****  13 GROUP 4 **** **** 0

# MOE 2024.06 (io_trps.svl 2023.06)
