@<TRIPOS>MOLECULE
NONAME
51 53 1 0 0 
SMALL
USER_CHARGES


@<TRIPOS>ATOM
  1 F        0.8300     1.5240    -2.0600 F     1 <1>  -0.1900 
  2 C        1.7670     1.4720    -1.1480 C.ar  1 <1>   0.1900 
  3 C        2.3700     0.2590    -0.8540 C.ar  1 <1>  -0.1440 
  4 C        2.1100     2.6530    -0.5190 C.ar  1 <1>  -0.1500 
  5 C        3.3760     0.2480     0.1100 C.ar  1 <1>   0.0830 
  6 C        1.9600    -1.0190    -1.5740 C.3   1 <1>   0.2540 
  7 C        3.1020     2.6290     0.4440 C.ar  1 <1>  -0.1500 
  8 O        3.9850    -0.9400     0.3780 O.3   1 <1>  -0.3630 
  9 C        3.7310     1.4350     0.7560 C.ar  1 <1>  -0.1500 
 10 N        1.0420    -1.8290    -0.7460 N.3   1 <1>  -0.8100 
 11 C        4.9910    -1.0530     1.3600 C.3   1 <1>   0.0400 
 12 C        0.9990    -3.2240    -1.1930 C.3   1 <1>   0.1100 
 13 C       -0.2970    -1.2230    -0.6510 C.3   1 <1>   0.1100 
 14 C        0.1630    -4.0720    -0.2060 C.3   1 <1>   0.4230 
 15 C       -1.1500    -2.0190     0.3430 C.3   1 <1>  -0.1600 
 16 N        0.2240    -5.5700    -0.4750 N.4   1 <1>  -0.9590 
 17 C       -1.2800    -3.5210    -0.0250 C.3   1 <1>   0.0000 
 18 C       -0.8690    -6.3540     0.1880 C.3   1 <1>   0.3430 
 19 C        0.3250    -5.9570    -1.9200 C.3   1 <1>   0.2630 
 20 C       -1.9730    -4.2720     1.1510 C.3   1 <1>  -0.1600 
 21 C       -2.0930    -3.6890    -1.3400 C.3   1 <1>   0.1200 
 22 C       -1.3580    -5.6520     1.4540 C.3   1 <1>  -0.1600 
 23 O       -3.3200    -3.0490    -1.2740 O.3   1 <1>  -0.6800 
 24 H        1.6090     3.5680    -0.7800 H     1 <1>   0.1500 
 25 H        2.8540    -1.5830    -1.7800 H     1 <1>   0.0800 
 26 H        1.4990    -0.7920    -2.5210 H     1 <1>   0.0800 
 27 H        3.3850     3.5370     0.9490 H     1 <1>   0.1500 
 28 H        4.4980     1.4510     1.5050 H     1 <1>   0.1500 
 29 H        5.3060    -2.0800     1.3990 H     1 <1>   0.0800 
 30 H        4.5840    -0.7600     2.3120 H     1 <1>   0.0800 
 31 H        5.8210    -0.4270     1.0850 H     1 <1>   0.0800 
 32 H        0.5920    -3.2630    -2.1870 H     1 <1>   0.0800 
 33 H        2.0050    -3.6050    -1.2080 H     1 <1>   0.0800 
 34 H       -0.2120    -0.2120    -0.2890 H     1 <1>   0.0800 
 35 H       -0.7670    -1.1900    -1.6200 H     1 <1>   0.0800 
 36 H        0.6370    -3.9190     0.7500 H     1 <1>   0.0800 
 37 H       -0.6870    -1.9130     1.3090 H     1 <1>   0.0800 
 38 H       -2.1190    -1.5570     0.4120 H     1 <1>   0.0800 
 39 H        1.1010    -5.8690    -0.0250 H     1 <1>   0.4500 
 40 H       -1.7030    -6.4580    -0.4860 H     1 <1>   0.0800 
 41 H       -0.5140    -7.3430     0.4320 H     1 <1>   0.0800 
 42 H       -0.5460    -5.6270    -2.4620 H     1 <1>   0.0800 
 43 H        0.4020    -7.0280    -2.0160 H     1 <1>   0.0800 
 44 H        1.1990    -5.5150    -2.3710 H     1 <1>   0.0800 
 45 H       -1.9170    -3.6900     2.0560 H     1 <1>   0.0800 
 46 H       -3.0220    -4.3970     0.9430 H     1 <1>   0.0800 
 47 H       -2.2880    -4.7250    -1.5500 H     1 <1>   0.0800 
 48 H       -1.5740    -3.2630    -2.1800 H     1 <1>   0.0800 
 49 H       -2.0960    -6.2670     1.9390 H     1 <1>   0.0800 
 50 H       -0.5340    -5.5470     2.1400 H     1 <1>   0.0800 
 51 H       -3.8400    -3.3290    -0.4960 H     1 <1>   0.4000 
@<TRIPOS>BOND
  1   1   2  1   
  2   2   3  ar  
  3   2   4  ar  
  4   3   5  ar  
  5   3   6  1   
  6   4   7  ar  
  7   4  24  1   
  8   5   8  1   
  9   5   9  ar  
 10   6  10  1   
 11   6  25  1   
 12   6  26  1   
 13   7   9  ar  
 14   7  27  1   
 15   8  11  1   
 16   9  28  1   
 17  10  12  1   
 18  10  13  1   
 19  11  29  1   
 20  11  30  1   
 21  11  31  1   
 22  12  14  1   
 23  12  32  1   
 24  12  33  1   
 25  13  15  1   
 26  13  34  1   
 27  13  35  1   
 28  14  16  1   
 29  14  17  1   
 30  14  36  1   
 31  15  17  1   
 32  15  37  1   
 33  15  38  1   
 34  16  18  1   
 35  16  19  1   
 36  16  39  1   
 37  17  20  1   
 38  17  21  1   
 39  18  22  1   
 40  18  40  1   
 41  18  41  1   
 42  19  42  1   
 43  19  43  1   
 44  19  44  1   
 45  20  22  1   
 46  20  45  1   
 47  20  46  1   
 48  21  23  1   
 49  21  47  1   
 50  21  48  1   
 51  22  49  1   
 52  22  50  1   
 53  23  51  1   
@<TRIPOS>SUBSTRUCTURE
  1 ****  10 GROUP 4 **** **** 0

# MOE 2024.06 (io_trps.svl 2023.06)
