@<TRIPOS>MOLECULE
NONAME
39 40 1 0 0 
SMALL
USER_CHARGES


@<TRIPOS>ATOM
  1 O       -1.1370    -0.6380    -0.6830 O.2   1 <1>  -0.5700 
  2 C       -1.8810     0.2870    -0.4540 C.2   1 <1>   0.5690 
  3 N       -2.9570     0.1360     0.3820 N.am  1 <1>  -0.6600 
  4 C       -1.5580     1.6120    -1.1300 C.3   1 <1>  -0.0990 
  5 C       -3.1300    -1.1420     1.1360 C.3   1 <1>   0.3200 
  6 C       -4.1370     1.0480     0.4660 C.3   1 <1>   0.1400 
  7 C       -0.5220     2.4140    -0.3270 C.3   1 <1>  -0.1600 
  8 C       -3.8150    -2.1780     0.2620 C.2   1 <1>   0.0060 
  9 C       -3.9420     2.0850     1.5760 C.3   1 <1>   0.1200 
 10 C       -0.1880     3.7510    -1.0020 C.3   1 <1>   0.0210 
 11 N       -4.9840    -2.6890     0.4830 N.2   1 <1>  -0.5650 
 12 N       -3.2200    -2.6500    -0.8530 N.pl3 1 <1>   0.0330 
 13 O       -5.0560     2.9090     1.6430 O.3   1 <1>  -0.6800 
 14 C        0.8020     4.5720    -0.1920 C.2   1 <1>  -0.1810 
 15 C       -5.1590    -3.5430    -0.5450 C.2   1 <1>   0.0770 
 16 C       -4.0910    -3.5320    -1.3730 C.2   1 <1>  -0.3020 
 17 C        1.2090     5.8680    -0.4990 C.2   1 <1>   0.1390 
 18 C        1.4780     4.2660     0.9370 C.2   1 <1>  -0.3020 
 19 N        2.0630     6.3360     0.3590 N.2   1 <1>  -0.7070 
 20 N        2.2290     5.3400     1.2490 N.pl3 1 <1>   0.3000 
 21 H       -2.4420     2.1980    -1.2770 H     1 <1>   0.0800 
 22 H       -1.1560     1.3930    -2.1040 H     1 <1>   0.0800 
 23 H       -3.7200    -0.9740     2.0200 H     1 <1>   0.0800 
 24 H       -2.1700    -1.5180     1.4460 H     1 <1>   0.0800 
 25 H       -5.0190     0.4660     0.6770 H     1 <1>   0.0800 
 26 H       -4.2930     1.5360    -0.4780 H     1 <1>   0.0800 
 27 H        0.3790     1.8310    -0.2350 H     1 <1>   0.0800 
 28 H       -0.8970     2.6010     0.6630 H     1 <1>   0.0800 
 29 H       -3.0810     2.7010     1.3920 H     1 <1>   0.0800 
 30 H       -3.8410     1.5970     2.5300 H     1 <1>   0.0800 
 31 H       -1.0880     4.3270    -1.1260 H     1 <1>   0.0800 
 32 H        0.2310     3.5690    -1.9770 H     1 <1>   0.0800 
 33 H       -2.2990    -2.3450    -1.2000 H     1 <1>   0.2700 
 34 H       -5.1310     3.4770     0.8520 H     1 <1>   0.4000 
 35 H       -6.0580    -4.1290    -0.6360 H     1 <1>   0.1500 
 36 H       -3.9080    -4.0860    -2.2750 H     1 <1>   0.1500 
 37 H        0.8640     6.4300    -1.3500 H     1 <1>   0.1500 
 38 H        1.4730     3.3670     1.5260 H     1 <1>   0.1500 
 39 H        2.8620     5.4270     2.0530 H     1 <1>   0.2700 
@<TRIPOS>BOND
  1   1   2  2   
  2   2   3  am  
  3   2   4  1   
  4   3   5  1   
  5   3   6  1   
  6   4   7  1   
  7   4  21  1   
  8   4  22  1   
  9   5   8  1   
 10   5  23  1   
 11   5  24  1   
 12   6   9  1   
 13   6  25  1   
 14   6  26  1   
 15   7  10  1   
 16   7  27  1   
 17   7  28  1   
 18   8  11  2   
 19   8  12  1   
 20   9  13  1   
 21   9  29  1   
 22   9  30  1   
 23  10  14  1   
 24  10  31  1   
 25  10  32  1   
 26  11  15  1   
 27  12  16  1   
 28  12  33  1   
 29  13  34  1   
 30  14  17  1   
 31  14  18  2   
 32  15  16  2   
 33  15  35  1   
 34  16  36  1   
 35  17  19  2   
 36  17  37  1   
 37  18  20  1   
 38  18  38  1   
 39  19  20  1   
 40  20  39  1   
@<TRIPOS>SUBSTRUCTURE
  1 ****   2 GROUP 4 **** **** 0

# MOE 2024.06 (io_trps.svl 2023.06)
