@<TRIPOS>MOLECULE
NONAME
48 49 1 0 0 
SMALL
USER_CHARGES


@<TRIPOS>ATOM
  1 O        1.3670    -0.4700    -2.5610 O.2   1 <1>  -0.5700 
  2 C        1.6090    -0.7590    -1.4140 C.2   1 <1>   0.5690 
  3 N        1.7960     0.1720    -0.4240 N.am  1 <1>  -0.5470 
  4 C        1.7760    -2.2420    -1.0540 C.3   1 <1>   0.1710 
  5 C        1.6830     1.5710    -0.4330 C.ar  1 <1>   0.1170 
  6 N        0.5930    -2.8980    -0.4220 N.3   1 <1>  -0.8100 
  7 C        0.9540     2.2690    -1.3920 C.ar  1 <1>  -0.1500 
  8 C        2.3120     2.2950     0.5730 C.ar  1 <1>  -0.1500 
  9 C        0.7410    -4.3670    -0.4430 C.3   1 <1>   0.1100 
 10 C        0.3030    -2.4050     0.9350 C.3   1 <1>   0.1100 
 11 C        0.8610     3.6480    -1.3470 C.ar  1 <1>  -0.1500 
 12 C        2.2210     3.6740     0.6220 C.ar  1 <1>  -0.1500 
 13 C       -0.5760    -5.0710    -0.0440 C.3   1 <1>   0.0000 
 14 C       -0.9940    -3.0240     1.4650 C.3   1 <1>  -0.1600 
 15 C        1.4950     4.3540    -0.3400 C.ar  1 <1>  -0.1500 
 16 C       -1.0030    -4.5570     1.3640 C.3   1 <1>   0.2000 
 17 C       -1.7050    -4.6740    -1.0380 C.3   1 <1>   0.1200 
 18 C       -0.4410    -6.6270    -0.0950 C.3   1 <1>  -0.1600 
 19 O       -0.1480    -5.0130     2.3510 O.3   1 <1>  -0.6800 
 20 O       -1.3350    -4.8980    -2.3580 O.3   1 <1>  -0.6800 
 21 C        0.8570    -7.2650     0.4450 C.3   1 <1>  -0.1600 
 22 C        0.8060    -8.7890     0.3060 C.3   1 <1>  -0.2400 
 23 H        2.0600    -0.2160     0.4770 H     1 <1>   0.3700 
 24 H        2.6330    -2.3530    -0.4150 H     1 <1>   0.0800 
 25 H        1.9970    -2.7510    -1.9750 H     1 <1>   0.0800 
 26 H        0.4500     1.7380    -2.1780 H     1 <1>   0.1500 
 27 H        2.8820     1.7820     1.3250 H     1 <1>   0.1500 
 28 H        1.0250    -4.6910    -1.4300 H     1 <1>   0.0800 
 29 H        1.5330    -4.6490     0.2290 H     1 <1>   0.0800 
 30 H        1.1200    -2.6410     1.5960 H     1 <1>   0.0800 
 31 H        0.1730    -1.3370     0.9170 H     1 <1>   0.0800 
 32 H        0.2950     4.1710    -2.0980 H     1 <1>   0.1500 
 33 H        2.7150     4.2220     1.4060 H     1 <1>   0.1500 
 34 H       -1.8170    -2.6150     0.9100 H     1 <1>   0.0800 
 35 H       -1.1450    -2.7320     2.4890 H     1 <1>   0.0800 
 36 H        1.4220     5.4270    -0.3060 H     1 <1>   0.1500 
 37 H       -1.9840    -4.9290     1.6090 H     1 <1>   0.0800 
 38 H       -1.9540    -3.6310    -0.9650 H     1 <1>   0.0800 
 39 H       -2.5930    -5.2520    -0.8450 H     1 <1>   0.0800 
 40 H       -1.2780    -7.0560     0.4280 H     1 <1>   0.0800 
 41 H       -0.5280    -6.9460    -1.1200 H     1 <1>   0.0800 
 42 H        0.7680    -4.7870     2.1150 H     1 <1>   0.4000 
 43 H       -0.6900    -4.2100    -2.6240 H     1 <1>   0.4000 
 44 H        1.7070    -6.9050    -0.1070 H     1 <1>   0.0800 
 45 H        0.9990    -7.0300     1.4830 H     1 <1>   0.0800 
 46 H        0.6930    -9.0710    -0.7270 H     1 <1>   0.0800 
 47 H       -0.0200    -9.1900     0.8670 H     1 <1>   0.0800 
 48 H        1.7150    -9.2240     0.6810 H     1 <1>   0.0800 
@<TRIPOS>BOND
  1   1   2  2   
  2   2   3  am  
  3   2   4  1   
  4   3   5  1   
  5   3  23  1   
  6   4   6  1   
  7   4  24  1   
  8   4  25  1   
  9   5   7  ar  
 10   5   8  ar  
 11   6   9  1   
 12   6  10  1   
 13   7  11  ar  
 14   7  26  1   
 15   8  12  ar  
 16   8  27  1   
 17   9  13  1   
 18   9  28  1   
 19   9  29  1   
 20  10  14  1   
 21  10  30  1   
 22  10  31  1   
 23  11  15  ar  
 24  11  32  1   
 25  12  15  ar  
 26  12  33  1   
 27  13  16  1   
 28  13  17  1   
 29  13  18  1   
 30  14  16  1   
 31  14  34  1   
 32  14  35  1   
 33  15  36  1   
 34  16  19  1   
 35  16  37  1   
 36  17  20  1   
 37  17  38  1   
 38  17  39  1   
 39  18  21  1   
 40  18  40  1   
 41  18  41  1   
 42  19  42  1   
 43  20  43  1   
 44  21  22  1   
 45  21  44  1   
 46  21  45  1   
 47  22  46  1   
 48  22  47  1   
 49  22  48  1   
@<TRIPOS>SUBSTRUCTURE
  1 ****   6 GROUP 4 **** **** 0

# MOE 2024.06 (io_trps.svl 2023.06)
