@<TRIPOS>MOLECULE
NONAME
58 62 1 0 0 
SMALL
USER_CHARGES


@<TRIPOS>ATOM
  1 O       -0.5740    -0.7740     1.0750 O.3   1 <1>  -0.5600 
  2 C       -1.6790    -1.6240     0.9630 C.3   1 <1>   0.1200 
  3 C        0.6350    -1.4380     1.2870 C.3   1 <1>   0.1200 
  4 C       -1.5040    -2.5850    -0.2250 C.3   1 <1>   0.2090 
  5 C        0.9450    -2.3840     0.1110 C.3   1 <1>   0.2090 
  6 N       -0.1950    -3.3360    -0.1370 N.pl3 1 <1>  -0.8380 
  7 C       -0.1400    -4.6920    -0.2490 C.ar  1 <1>   0.7710 
  8 N       -1.2660    -5.3870    -0.3040 N.ar  1 <1>  -0.6200 
  9 N        1.0610    -5.2970    -0.3090 N.ar  1 <1>  -0.1790 
 10 C       -1.1960    -6.7010    -0.4050 C.ar  1 <1>   0.4100 
 11 C        1.1860    -6.6400    -0.4200 C.ar  1 <1>   0.2180 
 12 N       -2.3660    -7.3870    -0.4470 N.pl3 1 <1>  -0.8380 
 13 C        0.0440    -7.3640    -0.4690 C.ar  1 <1>  -0.1500 
 14 C        2.5750    -7.2510    -0.4860 C.3   1 <1>  -0.0970 
 15 C       -3.7070    -6.7330    -0.4840 C.3   1 <1>   0.2090 
 16 C       -2.5300    -8.8650    -0.4600 C.3   1 <1>   0.2090 
 17 C       -4.7200    -7.8770    -0.5750 C.3   1 <1>   0.2000 
 18 C       -3.9850    -9.1130    -0.0670 C.3   1 <1>  -0.0800 
 19 O       -5.8440    -7.6410     0.2040 O.3   1 <1>  -0.6800 
 20 C       -4.5550   -10.4280    -0.6230 C.3   1 <1>  -0.0170 
 21 C       -3.7580   -11.6240    -0.1270 C.ar  1 <1>   0.1670 
 22 N       -2.6980   -11.9580    -0.7990 N.ar  1 <1>  -0.6200 
 23 C       -4.1920   -12.2950     1.0270 C.ar  1 <1>  -0.1500 
 24 C       -1.9830   -13.0270    -0.3600 C.ar  1 <1>   0.3100 
 25 C       -3.4860   -13.3600     1.4970 C.ar  1 <1>  -0.1500 
 26 C       -2.3350   -13.7570     0.7970 C.ar  1 <1>   0.0000 
 27 C       -0.8450   -13.4250    -1.0800 C.ar  1 <1>  -0.1500 
 28 C       -1.5280   -14.8410     1.1950 C.ar  1 <1>  -0.1500 
 29 C       -0.0750   -14.4840    -0.6780 C.ar  1 <1>  -0.1500 
 30 C       -0.4200   -15.1980     0.4740 C.ar  1 <1>  -0.1500 
 31 H       -1.7920    -2.1720     1.8830 H     1 <1>   0.0800 
 32 H       -2.5510    -1.0110     0.8190 H     1 <1>   0.0800 
 33 H        1.4040    -0.6900     1.3780 H     1 <1>   0.0800 
 34 H        0.5710    -1.9810     2.2140 H     1 <1>   0.0800 
 35 H       -1.5210    -2.0110    -1.1360 H     1 <1>   0.0800 
 36 H       -2.3510    -3.2470    -0.2510 H     1 <1>   0.0800 
 37 H        1.8580    -2.9050     0.3320 H     1 <1>   0.0800 
 38 H        1.1070    -1.7870    -0.7720 H     1 <1>   0.0800 
 39 H        1.8630    -4.6840    -0.2940 H     1 <1>   0.4570 
 40 H        0.0610    -8.4330    -0.5620 H     1 <1>   0.1500 
 41 H        2.5100    -8.3210    -0.5760 H     1 <1>   0.0800 
 42 H        3.1300    -7.0230     0.4070 H     1 <1>   0.0800 
 43 H        3.1120    -6.8760    -1.3400 H     1 <1>   0.0800 
 44 H       -3.8490    -6.1640     0.4190 H     1 <1>   0.0800 
 45 H       -3.7840    -6.0880    -1.3410 H     1 <1>   0.0800 
 46 H       -2.3400    -9.2350    -1.4550 H     1 <1>   0.0800 
 47 H       -1.8630    -9.3460     0.2360 H     1 <1>   0.0800 
 48 H       -5.0350    -8.0010    -1.5980 H     1 <1>   0.0800 
 49 H       -4.0210    -9.1350     1.0080 H     1 <1>   0.0800 
 50 H       -5.5920    -7.5280     1.1410 H     1 <1>   0.4000 
 51 H       -4.5290   -10.4140    -1.6980 H     1 <1>   0.0800 
 52 H       -5.5830   -10.5280    -0.3260 H     1 <1>   0.0800 
 53 H       -5.0800   -11.9590     1.5310 H     1 <1>   0.1500 
 54 H       -3.7850   -13.8980     2.3790 H     1 <1>   0.1500 
 55 H       -0.5980   -12.8680    -1.9640 H     1 <1>   0.1500 
 56 H       -1.8000   -15.3880     2.0800 H     1 <1>   0.1500 
 57 H        0.7950   -14.7800    -1.2390 H     1 <1>   0.1500 
 58 H        0.1940   -16.0280     0.7800 H     1 <1>   0.1500 
@<TRIPOS>BOND
  1   1   2  1   
  2   1   3  1   
  3   2   4  1   
  4   2  31  1   
  5   2  32  1   
  6   3   5  1   
  7   3  33  1   
  8   3  34  1   
  9   4   6  1   
 10   4  35  1   
 11   4  36  1   
 12   5   6  1   
 13   5  37  1   
 14   5  38  1   
 15   6   7  1   
 16   7   8  ar  
 17   7   9  ar  
 18   8  10  ar  
 19   9  11  ar  
 20   9  39  1   
 21  10  12  1   
 22  10  13  ar  
 23  11  13  ar  
 24  11  14  1   
 25  12  15  1   
 26  12  16  1   
 27  13  40  1   
 28  14  41  1   
 29  14  42  1   
 30  14  43  1   
 31  15  17  1   
 32  15  44  1   
 33  15  45  1   
 34  16  18  1   
 35  16  46  1   
 36  16  47  1   
 37  17  18  1   
 38  17  19  1   
 39  17  48  1   
 40  18  20  1   
 41  18  49  1   
 42  19  50  1   
 43  20  21  1   
 44  20  51  1   
 45  20  52  1   
 46  21  22  ar  
 47  21  23  ar  
 48  22  24  ar  
 49  23  25  ar  
 50  23  53  1   
 51  24  26  ar  
 52  24  27  ar  
 53  25  26  ar  
 54  25  54  1   
 55  26  28  ar  
 56  27  29  ar  
 57  27  55  1   
 58  28  30  ar  
 59  28  56  1   
 60  29  30  ar  
 61  29  57  1   
 62  30  58  1   
@<TRIPOS>SUBSTRUCTURE
  1 ****  16 GROUP 4 **** **** 0

# MOE 2024.06 (io_trps.svl 2023.06)
