@<TRIPOS>MOLECULE
NONAME
48 50 1 0 0 
SMALL
USER_CHARGES


@<TRIPOS>ATOM
  1 O       -4.8420    -0.4420    -1.4260 O.2   1 <1>  -0.5700 
  2 C       -3.8480     0.0260    -0.8950 C.2   1 <1>   0.7670 
  3 N       -2.8320     0.4420    -1.7220 N.2   1 <1>  -0.6610 
  4 C       -3.7370     0.1550     0.5190 C.2   1 <1>   0.0290 
  5 C       -1.7730     0.9240    -1.1920 C.2   1 <1>   0.4390 
  6 C       -4.8250    -0.2700     1.3410 C.2   1 <1>   0.6160 
  7 C       -2.5800     0.6720     1.0240 C.2   1 <1>  -0.0500 
  8 N       -1.6030     1.0570     0.1560 N.pl3 1 <1>  -0.5500 
  9 C       -0.6340     1.3830    -2.0680 C.3   1 <1>  -0.1790 
 10 O       -4.7500    -1.3490     1.9000 O.2   1 <1>  -0.5700 
 11 N       -5.9240     0.5290     1.5880 N.am  1 <1>  -0.6600 
 12 C       -6.9510     0.1240     2.5930 C.3   1 <1>   0.1400 
 13 C       -6.2200     1.8010     0.8710 C.3   1 <1>   0.1400 
 14 C       -8.0220    -0.8030     1.9950 C.3   1 <1>   0.1400 
 15 C       -7.3550     1.6390    -0.1490 C.3   1 <1>  -0.1600 
 16 N       -8.5630    -0.3590     0.6680 N.am  1 <1>  -0.6600 
 17 C       -8.6740     1.1060     0.4260 C.3   1 <1>   0.1400 
 18 C       -9.0100    -1.2570    -0.2810 C.2   1 <1>   0.5440 
 19 O       -9.8820    -0.9100    -1.0560 O.2   1 <1>  -0.5700 
 20 C       -8.4860    -2.6060    -0.3730 C.ar  1 <1>   0.0860 
 21 C       -9.3070    -3.7140    -0.4830 C.ar  1 <1>  -0.1500 
 22 C       -7.1270    -2.8860    -0.3710 C.ar  1 <1>  -0.1500 
 23 C       -8.7680    -4.9850    -0.5590 C.ar  1 <1>   0.3930 
 24 C       -6.6800    -4.1880    -0.4520 C.ar  1 <1>   0.1600 
 25 O       -9.6390    -6.0130    -0.6550 O.3   1 <1>  -0.3630 
 26 N       -7.4650    -5.2490    -0.5400 N.ar  1 <1>  -0.6200 
 27 C       -9.1800    -7.3470    -0.7500 C.3   1 <1>   0.0400 
 28 H       -2.4160     0.7810     2.0850 H     1 <1>   0.1500 
 29 H       -0.7140     1.4410     0.4910 H     1 <1>   0.4000 
 30 H       -0.4460     2.4290    -1.9090 H     1 <1>   0.0800 
 31 H       -0.8820     1.2330    -3.1030 H     1 <1>   0.0800 
 32 H        0.2520     0.8200    -1.8430 H     1 <1>   0.0800 
 33 H       -7.4230     0.9980     3.0040 H     1 <1>   0.0800 
 34 H       -6.4720    -0.3870     3.4110 H     1 <1>   0.0800 
 35 H       -5.3430     2.1560     0.3600 H     1 <1>   0.0800 
 36 H       -6.4930     2.5520     1.5930 H     1 <1>   0.0800 
 37 H       -8.8400    -0.8730     2.6900 H     1 <1>   0.0800 
 38 H       -7.5950    -1.7850     1.9150 H     1 <1>   0.0800 
 39 H       -7.0370     1.0040    -0.9560 H     1 <1>   0.0800 
 40 H       -7.5490     2.6070    -0.5740 H     1 <1>   0.0800 
 41 H       -9.4610     1.2960    -0.2840 H     1 <1>   0.0800 
 42 H       -8.9350     1.6170     1.3360 H     1 <1>   0.0800 
 43 H      -10.3730    -3.5890    -0.5130 H     1 <1>   0.1500 
 44 H       -6.4210    -2.0790    -0.3070 H     1 <1>   0.1500 
 45 H       -5.6170    -4.3660    -0.4440 H     1 <1>   0.1500 
 46 H      -10.0340    -7.9950    -0.8160 H     1 <1>   0.0800 
 47 H       -8.6040    -7.5790     0.1290 H     1 <1>   0.0800 
 48 H       -8.5720    -7.4420    -1.6320 H     1 <1>   0.0800 
@<TRIPOS>BOND
  1   1   2  2   
  2   2   3  1   
  3   2   4  1   
  4   3   5  2   
  5   4   6  1   
  6   4   7  2   
  7   5   8  1   
  8   5   9  1   
  9   6  10  2   
 10   6  11  am  
 11   7   8  1   
 12   7  28  1   
 13   8  29  1   
 14   9  30  1   
 15   9  31  1   
 16   9  32  1   
 17  11  12  1   
 18  11  13  1   
 19  12  14  1   
 20  12  33  1   
 21  12  34  1   
 22  13  15  1   
 23  13  35  1   
 24  13  36  1   
 25  14  16  1   
 26  14  37  1   
 27  14  38  1   
 28  15  17  1   
 29  15  39  1   
 30  15  40  1   
 31  16  17  1   
 32  16  18  am  
 33  17  41  1   
 34  17  42  1   
 35  18  19  2   
 36  18  20  1   
 37  20  21  ar  
 38  20  22  ar  
 39  21  23  ar  
 40  21  43  1   
 41  22  24  ar  
 42  22  44  1   
 43  23  25  1   
 44  23  26  ar  
 45  24  26  ar  
 46  24  45  1   
 47  25  27  1   
 48  27  46  1   
 49  27  47  1   
 50  27  48  1   
@<TRIPOS>SUBSTRUCTURE
  1 ****  22 GROUP 4 **** **** 0

# MOE 2024.06 (io_trps.svl 2023.06)
