@<TRIPOS>MOLECULE
NONAME
41 43 1 0 0 
SMALL
USER_CHARGES


@<TRIPOS>ATOM
  1 F        0.5390    -0.2380     1.2580 F     1 <1>  -0.1900 
  2 C        0.2890    -1.4730     0.9080 C.ar  1 <1>   0.1900 
  3 C        0.7210    -1.9330    -0.3280 C.ar  1 <1>   0.0830 
  4 C       -0.3990    -2.2910     1.7820 C.ar  1 <1>  -0.1500 
  5 O        1.3920    -1.1290    -1.1760 O.3   1 <1>  -0.5330 
  6 C        0.4550    -3.2400    -0.6900 C.ar  1 <1>  -0.1500 
  7 C       -0.6570    -3.5980     1.4020 C.ar  1 <1>  -0.1500 
  8 C       -0.2410    -4.1020     0.1630 C.ar  1 <1>   0.0860 
  9 C       -0.5180    -5.4750    -0.2290 C.2   1 <1>   0.5440 
 10 O        0.1810    -6.0370    -1.0520 O.2   1 <1>  -0.5700 
 11 N       -1.5570    -6.1850     0.3240 N.am  1 <1>  -0.6600 
 12 C       -2.9400    -6.0590    -0.2160 C.3   1 <1>   0.2200 
 13 C       -1.2490    -7.5440     0.8520 C.3   1 <1>   0.0600 
 14 C       -3.9830    -6.0960     0.8970 C.3   1 <1>  -0.1600 
 15 C       -3.2430    -4.7440    -0.9330 C.3   1 <1>  -0.1600 
 16 C       -5.2520    -5.5080     0.2650 C.3   1 <1>  -0.0800 
 17 C       -4.7730    -4.6510    -0.9320 C.3   1 <1>  -0.0800 
 18 C       -6.1470    -4.7800     1.2870 C.3   1 <1>   0.1400 
 19 C       -5.2930    -3.1990    -0.9320 C.3   1 <1>  -0.0990 
 20 N       -7.0950    -3.9020     0.5700 N.am  1 <1>  -0.7300 
 21 C       -6.7400    -3.1460    -0.4900 C.2   1 <1>   0.5690 
 22 O       -7.5370    -2.4470    -1.0600 O.2   1 <1>  -0.5700 
 23 H       -0.7210    -1.9110     2.7350 H     1 <1>   0.1500 
 24 H        1.5440    -0.2410    -0.7970 H     1 <1>   0.4500 
 25 H        0.7940    -3.6000    -1.6460 H     1 <1>   0.1500 
 26 H       -1.1890    -4.2470     2.0770 H     1 <1>   0.1500 
 27 H       -3.1240    -6.8710    -0.9020 H     1 <1>   0.0800 
 28 H       -1.8060    -7.7260     1.7540 H     1 <1>   0.0800 
 29 H       -0.1980    -7.6230     1.0740 H     1 <1>   0.0800 
 30 H       -1.4980    -8.2890     0.1170 H     1 <1>   0.0800 
 31 H       -4.1510    -7.0970     1.2520 H     1 <1>   0.0800 
 32 H       -3.6480    -5.4740     1.7080 H     1 <1>   0.0800 
 33 H       -2.8440    -3.9210    -0.3710 H     1 <1>   0.0800 
 34 H       -2.8430    -4.7330    -1.9320 H     1 <1>   0.0800 
 35 H       -5.8280    -6.3250    -0.1380 H     1 <1>   0.0800 
 36 H       -5.1390    -5.1270    -1.8280 H     1 <1>   0.0800 
 37 H       -5.5490    -4.1700     1.9420 H     1 <1>   0.0800 
 38 H       -6.6890    -5.4960     1.8810 H     1 <1>   0.0800 
 39 H       -5.2000    -2.7710    -1.9130 H     1 <1>   0.0800 
 40 H       -4.7280    -2.5940    -0.2470 H     1 <1>   0.0800 
 41 H       -8.0640    -3.8460     0.8910 H     1 <1>   0.3700 
@<TRIPOS>BOND
  1   1   2  1   
  2   2   3  ar  
  3   2   4  ar  
  4   3   5  1   
  5   3   6  ar  
  6   4   7  ar  
  7   4  23  1   
  8   5  24  1   
  9   6   8  ar  
 10   6  25  1   
 11   7   8  ar  
 12   7  26  1   
 13   8   9  1   
 14   9  10  2   
 15   9  11  am  
 16  11  12  1   
 17  11  13  1   
 18  12  14  1   
 19  12  15  1   
 20  12  27  1   
 21  13  28  1   
 22  13  29  1   
 23  13  30  1   
 24  14  16  1   
 25  14  31  1   
 26  14  32  1   
 27  15  17  1   
 28  15  33  1   
 29  15  34  1   
 30  16  17  1   
 31  16  18  1   
 32  16  35  1   
 33  17  19  1   
 34  17  36  1   
 35  18  20  1   
 36  18  37  1   
 37  18  38  1   
 38  19  21  1   
 39  19  39  1   
 40  19  40  1   
 41  20  21  am  
 42  20  41  1   
 43  21  22  2   
@<TRIPOS>SUBSTRUCTURE
  1 ****  15 GROUP 4 **** **** 0

# MOE 2024.06 (io_trps.svl 2023.06)
