@<TRIPOS>MOLECULE
NONAME
44 46 1 0 0 
SMALL
USER_CHARGES


@<TRIPOS>ATOM
  1 S       -1.0650     0.5500     1.2200 S.3   1 <1>  -0.3320 
  2 C       -0.4140     1.7220     0.0200 C.ar  1 <1>   0.1020 
  3 C       -2.6810     0.0100     0.5080 C.3   1 <1>   0.1500 
  4 C       -1.0270     2.9470    -0.2300 C.ar  1 <1>  -0.1440 
  5 C        0.7330     1.3390    -0.6520 C.ar  1 <1>  -0.1500 
  6 C       -3.3200    -0.9640     1.5010 C.3   1 <1>  -0.1600 
  7 C       -2.4220    -0.6430    -0.8530 C.3   1 <1>  -0.1600 
  8 C       -0.4700     3.7720    -1.1970 C.ar  1 <1>  -0.1500 
  9 C       -2.2610     3.4330     0.5170 C.3   1 <1>  -0.0970 
 10 C        1.2770     2.1760    -1.6100 C.ar  1 <1>  -0.1500 
 11 C       -4.5840    -1.5880     0.9090 C.3   1 <1>   0.2090 
 12 C       -3.7060    -1.2620    -1.4030 C.3   1 <1>   0.2090 
 13 C        0.6710     3.3900    -1.8840 C.ar  1 <1>  -0.1500 
 14 N       -4.2590    -2.2100    -0.3990 N.pl3 1 <1>  -0.8380 
 15 C       -5.1260    -3.1930    -0.8440 C.ar  1 <1>   0.4100 
 16 N       -6.1220    -2.7250    -1.5950 N.ar  1 <1>  -0.6200 
 17 C       -4.9730    -4.5570    -0.5000 C.ar  1 <1>   0.0860 
 18 C       -7.0120    -3.5990    -2.0170 C.ar  1 <1>   0.1600 
 19 C       -3.8700    -5.0670     0.2900 C.2   1 <1>   0.5440 
 20 C       -5.9430    -5.4390    -0.9630 C.ar  1 <1>  -0.1500 
 21 C       -6.9740    -4.9500    -1.7310 C.ar  1 <1>  -0.1500 
 22 O       -3.9370    -6.1360     0.8620 O.2   1 <1>  -0.5700 
 23 N       -2.7030    -4.4040     0.4330 N.am  1 <1>  -0.8000 
 24 H       -3.2960     0.8830     0.3960 H     1 <1>   0.0800 
 25 H        1.1910     0.3940    -0.4270 H     1 <1>   0.1500 
 26 H       -3.5690    -0.4440     2.4080 H     1 <1>   0.0800 
 27 H       -2.6260    -1.7470     1.7460 H     1 <1>   0.0800 
 28 H       -1.6750    -1.4100    -0.7580 H     1 <1>   0.0800 
 29 H       -2.0610     0.0930    -1.5490 H     1 <1>   0.0800 
 30 H       -0.9210     4.7230    -1.4200 H     1 <1>   0.1500 
 31 H       -2.2860     3.0420     1.5180 H     1 <1>   0.0800 
 32 H       -3.1500     3.1320    -0.0060 H     1 <1>   0.0800 
 33 H       -2.2550     4.5050     0.5860 H     1 <1>   0.0800 
 34 H        2.1680     1.8840    -2.1390 H     1 <1>   0.1500 
 35 H       -5.3400    -0.8340     0.7640 H     1 <1>   0.0800 
 36 H       -4.9750    -2.3340     1.5820 H     1 <1>   0.0800 
 37 H       -3.5020    -1.7850    -2.3220 H     1 <1>   0.0800 
 38 H       -4.4340    -0.4940    -1.6060 H     1 <1>   0.0800 
 39 H        1.0910     4.0420    -2.6300 H     1 <1>   0.1500 
 40 H       -7.8190    -3.2210    -2.6220 H     1 <1>   0.1500 
 41 H       -5.8830    -6.4870    -0.7240 H     1 <1>   0.1500 
 42 H       -7.7390    -5.6050    -2.1070 H     1 <1>   0.1500 
 43 H       -1.9870    -4.7540     1.0670 H     1 <1>   0.3700 
 44 H       -2.6690    -3.4150     0.1540 H     1 <1>   0.3700 
@<TRIPOS>BOND
  1   1   2  1   
  2   1   3  1   
  3   2   4  ar  
  4   2   5  ar  
  5   3   6  1   
  6   3   7  1   
  7   3  24  1   
  8   4   8  ar  
  9   4   9  1   
 10   5  10  ar  
 11   5  25  1   
 12   6  11  1   
 13   6  26  1   
 14   6  27  1   
 15   7  12  1   
 16   7  28  1   
 17   7  29  1   
 18   8  13  ar  
 19   8  30  1   
 20   9  31  1   
 21   9  32  1   
 22   9  33  1   
 23  10  13  ar  
 24  10  34  1   
 25  11  14  1   
 26  11  35  1   
 27  11  36  1   
 28  12  14  1   
 29  12  37  1   
 30  12  38  1   
 31  13  39  1   
 32  14  15  1   
 33  15  16  ar  
 34  15  17  ar  
 35  16  18  ar  
 36  17  19  1   
 37  17  20  ar  
 38  18  21  ar  
 39  18  40  1   
 40  19  22  2   
 41  19  23  am  
 42  20  21  ar  
 43  20  41  1   
 44  21  42  1   
 45  23  43  1   
 46  23  44  1   
@<TRIPOS>SUBSTRUCTURE
  1 ****   7 GROUP 4 **** **** 0

# MOE 2024.06 (io_trps.svl 2023.06)
