@<TRIPOS>MOLECULE
NONAME
49 51 1 0 0 
SMALL
USER_CHARGES


@<TRIPOS>ATOM
  1 O        2.3400    -0.2610     1.8120 O.2   1 <1>  -0.5700 
  2 C        2.9990    -1.1870     1.3770 C.2   1 <1>   0.5440 
  3 N        4.3340    -0.9470     1.1480 N.am  1 <1>  -0.6600 
  4 C        2.3730    -2.4510     1.0340 C.ar  1 <1>   0.0860 
  5 C        5.0770     0.0700     1.9830 C.3   1 <1>   0.1400 
  6 C        4.9590    -1.3190    -0.1580 C.3   1 <1>   0.1400 
  7 C        1.0880    -2.4890     0.5000 C.ar  1 <1>  -0.1500 
  8 C        3.0320    -3.6680     1.2150 C.ar  1 <1>  -0.1500 
  9 C        5.1310     1.4750     1.3280 C.3   1 <1>   0.4230 
 10 C        5.1870    -0.1260    -1.1230 C.3   1 <1>  -0.0800 
 11 C        0.4840    -3.6790     0.1380 C.ar  1 <1>   0.0830 
 12 C        2.4390    -4.8670     0.8620 C.ar  1 <1>  -0.1500 
 13 N        3.9750     1.5890     0.3670 N.4   1 <1>  -0.9590 
 14 C        6.5380     1.7640     0.7410 C.3   1 <1>   0.1200 
 15 C        6.6450     0.3560    -1.1420 C.3   1 <1>   0.1200 
 16 C        4.2240     1.0740    -1.0150 C.3   1 <1>   0.3430 
 17 O       -0.7620    -3.5900    -0.3870 O.3   1 <1>  -0.3630 
 18 C        1.1660    -4.8780     0.3200 C.ar  1 <1>  -0.1500 
 19 C        3.4440     3.0140     0.3100 C.3   1 <1>   0.2370 
 20 O        7.1010     0.6330     0.1370 O.3   1 <1>  -0.5600 
 21 C       -1.4960    -4.7390    -0.7380 C.3   1 <1>   0.1200 
 22 C        4.4570     4.0540    -0.1700 C.2   1 <1>   0.9060 
 23 C       -2.8540    -4.2870    -1.2650 C.3   1 <1>  -0.2400 
 24 O        5.1450     4.6190     0.6840 O.co2 1 <1>  -0.9000 
 25 O        4.6580     4.1500    -1.3840 O.co2 1 <1>  -0.9000 
 26 H        4.5800     0.1670     2.9330 H     1 <1>   0.0800 
 27 H        6.0700    -0.2900     2.1930 H     1 <1>   0.0800 
 28 H        5.8960    -1.8160     0.0340 H     1 <1>   0.0800 
 29 H        4.3250    -2.0320    -0.6570 H     1 <1>   0.0800 
 30 H        0.5420    -1.5720     0.3630 H     1 <1>   0.1500 
 31 H        4.0210    -3.6710     1.6400 H     1 <1>   0.1500 
 32 H        4.9810     2.2040     2.1080 H     1 <1>   0.0800 
 33 H        5.0320    -0.5160    -2.1130 H     1 <1>   0.0800 
 34 H        2.9660    -5.7940     1.0100 H     1 <1>   0.1500 
 35 H        3.2510     0.9780     0.7950 H     1 <1>   0.4500 
 36 H        7.1920     2.0310     1.5510 H     1 <1>   0.0800 
 37 H        6.5400     2.5850     0.0460 H     1 <1>   0.0800 
 38 H        6.7680     1.2360    -1.7550 H     1 <1>   0.0800 
 39 H        7.2800    -0.4180    -1.5370 H     1 <1>   0.0800 
 40 H        3.2760     0.7960    -1.4450 H     1 <1>   0.0800 
 41 H        4.6220     1.8730    -1.6210 H     1 <1>   0.0800 
 42 H        0.7260    -5.8200     0.0510 H     1 <1>   0.1500 
 43 H        2.5990     3.0610    -0.3510 H     1 <1>   0.0800 
 44 H        3.1230     3.3180     1.2890 H     1 <1>   0.0800 
 45 H       -0.9520    -5.2720    -1.4990 H     1 <1>   0.0800 
 46 H       -1.6120    -5.3510     0.1390 H     1 <1>   0.0800 
 47 H       -2.7260    -3.6620    -2.1300 H     1 <1>   0.0800 
 48 H       -3.3820    -3.7410    -0.5030 H     1 <1>   0.0800 
 49 H       -3.4410    -5.1430    -1.5430 H     1 <1>   0.0800 
@<TRIPOS>BOND
  1   1   2  2   
  2   2   3  am  
  3   2   4  1   
  4   3   5  1   
  5   3   6  1   
  6   4   7  ar  
  7   4   8  ar  
  8   5   9  1   
  9   5  26  1   
 10   5  27  1   
 11   6  10  1   
 12   6  28  1   
 13   6  29  1   
 14   7  11  ar  
 15   7  30  1   
 16   8  12  ar  
 17   8  31  1   
 18   9  13  1   
 19   9  14  1   
 20   9  32  1   
 21  10  15  1   
 22  10  16  1   
 23  10  33  1   
 24  11  17  1   
 25  11  18  ar  
 26  12  18  ar  
 27  12  34  1   
 28  13  16  1   
 29  13  19  1   
 30  13  35  1   
 31  14  20  1   
 32  14  36  1   
 33  14  37  1   
 34  15  20  1   
 35  15  38  1   
 36  15  39  1   
 37  16  40  1   
 38  16  41  1   
 39  17  21  1   
 40  18  42  1   
 41  19  22  1   
 42  19  43  1   
 43  19  44  1   
 44  21  23  1   
 45  21  45  1   
 46  21  46  1   
 47  22  24  ar  
 48  22  25  ar  
 49  23  47  1   
 50  23  48  1   
 51  23  49  1   
@<TRIPOS>SUBSTRUCTURE
  1 ****   2 GROUP 4 **** **** 0

# MOE 2024.06 (io_trps.svl 2023.06)
