@<TRIPOS>MOLECULE
NONAME
50 53 1 0 0 
SMALL
USER_CHARGES


@<TRIPOS>ATOM
  1 O       -0.2640    -3.1700    -1.5510 O.3   1 <1>  -0.6800 
  2 C        0.0810    -1.8680    -1.2200 C.3   1 <1>   0.1200 
  3 C        1.0860    -1.7940    -0.0310 C.3   1 <1>   0.0000 
  4 C        2.5090    -2.3410    -0.3510 C.3   1 <1>   0.4230 
  5 C        1.2650    -0.2910     0.3050 C.3   1 <1>  -0.1600 
  6 C        0.5080    -2.5090     1.2260 C.3   1 <1>  -0.1600 
  7 N        2.6230    -3.8490    -0.5040 N.4   1 <1>  -0.9590 
  8 C        3.2010    -1.5280    -1.4730 C.3   1 <1>   0.1100 
  9 C        1.9860     0.5020    -0.8000 C.3   1 <1>   0.1100 
 10 C        1.2280    -3.8260     1.5710 C.3   1 <1>  -0.1600 
 11 C        1.6140    -4.6010     0.3110 C.3   1 <1>   0.3430 
 12 C        2.5650    -4.3380    -1.9190 C.3   1 <1>   0.2630 
 13 N        3.2990    -0.0910    -1.1400 N.3   1 <1>  -0.8100 
 14 C        4.3530     0.1910    -0.1290 C.3   1 <1>   0.2900 
 15 C        4.5430     1.6790     0.0940 C.2   1 <1>   0.0060 
 16 N        4.5230     2.2470     1.2510 N.2   1 <1>  -0.5650 
 17 N        4.7350     2.5360    -0.9390 N.pl3 1 <1>   0.0330 
 18 C        4.7140     3.5690     0.9770 C.ar  1 <1>   0.2270 
 19 C        4.8460     3.7680    -0.3850 C.ar  1 <1>  -0.1520 
 20 C        4.7800     4.6550     1.8470 C.ar  1 <1>  -0.1500 
 21 C        5.0430     5.0440    -0.9170 C.ar  1 <1>  -0.1500 
 22 C        4.9750     5.9190     1.3320 C.ar  1 <1>  -0.1500 
 23 C        5.1060     6.1120    -0.0490 C.ar  1 <1>  -0.1500 
 24 H       -1.0590    -3.1720    -2.1280 H     1 <1>   0.4000 
 25 H        0.4720    -1.4010    -2.1070 H     1 <1>   0.0800 
 26 H       -0.8300    -1.3590    -0.9500 H     1 <1>   0.0800 
 27 H        3.0770    -2.1120     0.5340 H     1 <1>   0.0800 
 28 H        1.8240    -0.1710     1.2170 H     1 <1>   0.0800 
 29 H        0.3040     0.1630     0.4770 H     1 <1>   0.0800 
 30 H        0.5580    -1.8720     2.0940 H     1 <1>   0.0800 
 31 H       -0.5380    -2.7180     1.0720 H     1 <1>   0.0800 
 32 H        3.5450    -4.1010    -0.1280 H     1 <1>   0.4500 
 33 H        2.6460    -1.6230    -2.3890 H     1 <1>   0.0800 
 34 H        4.1920    -1.9120    -1.6440 H     1 <1>   0.0800 
 35 H        2.1030     1.5250    -0.4830 H     1 <1>   0.0800 
 36 H        1.3800     0.5300    -1.6890 H     1 <1>   0.0800 
 37 H        0.5730    -4.4340     2.1710 H     1 <1>   0.0800 
 38 H        2.1090    -3.6330     2.1580 H     1 <1>   0.0800 
 39 H        0.7220    -4.7660    -0.2710 H     1 <1>   0.0800 
 40 H        2.0100    -5.5660     0.5830 H     1 <1>   0.0800 
 41 H        1.6330    -4.0560    -2.3800 H     1 <1>   0.0800 
 42 H        2.6450    -5.4120    -1.9460 H     1 <1>   0.0800 
 43 H        3.3720    -3.9220    -2.4980 H     1 <1>   0.0800 
 44 H        4.1070    -0.2660     0.8130 H     1 <1>   0.0800 
 45 H        5.2900    -0.2180    -0.4640 H     1 <1>   0.0800 
 46 H        4.7320     2.2960    -1.9330 H     1 <1>   0.2700 
 47 H        4.6770     4.4790     2.9010 H     1 <1>   0.1500 
 48 H        5.1430     5.1820    -1.9790 H     1 <1>   0.1500 
 49 H        5.0290     6.7690     1.9890 H     1 <1>   0.1500 
 50 H        5.2580     7.1080    -0.4260 H     1 <1>   0.1500 
@<TRIPOS>BOND
  1   1   2  1   
  2   1  24  1   
  3   2   3  1   
  4   2  25  1   
  5   2  26  1   
  6   3   4  1   
  7   3   5  1   
  8   3   6  1   
  9   4   7  1   
 10   4   8  1   
 11   4  27  1   
 12   5   9  1   
 13   5  28  1   
 14   5  29  1   
 15   6  10  1   
 16   6  30  1   
 17   6  31  1   
 18   7  11  1   
 19   7  12  1   
 20   7  32  1   
 21   8  13  1   
 22   8  33  1   
 23   8  34  1   
 24   9  13  1   
 25   9  35  1   
 26   9  36  1   
 27  10  11  1   
 28  10  37  1   
 29  10  38  1   
 30  11  39  1   
 31  11  40  1   
 32  12  41  1   
 33  12  42  1   
 34  12  43  1   
 35  13  14  1   
 36  14  15  1   
 37  14  44  1   
 38  14  45  1   
 39  15  16  2   
 40  15  17  1   
 41  16  18  1   
 42  17  19  1   
 43  17  46  1   
 44  18  19  ar  
 45  18  20  ar  
 46  19  21  ar  
 47  20  22  ar  
 48  20  47  1   
 49  21  23  ar  
 50  21  48  1   
 51  22  23  ar  
 52  22  49  1   
 53  23  50  1   
@<TRIPOS>SUBSTRUCTURE
  1 ****  13 GROUP 4 **** **** 0

# MOE 2024.06 (io_trps.svl 2023.06)
