@<TRIPOS>MOLECULE
NONAME
48 50 1 0 0 
SMALL
USER_CHARGES


@<TRIPOS>ATOM
  1 CL      -0.2130    -0.2750    -1.0120 Cl    1 <1>  -0.1770 
  2 C       -0.4160    -1.9320    -0.5020 C.ar  1 <1>   0.1770 
  3 C        0.6970    -2.6830    -0.1770 C.ar  1 <1>  -0.1500 
  4 C       -1.6880    -2.4670    -0.4310 C.ar  1 <1>  -0.1500 
  5 C        0.5310    -3.9970     0.2260 C.ar  1 <1>  -0.1500 
  6 C       -1.8470    -3.7830    -0.0270 C.ar  1 <1>  -0.1500 
  7 C       -0.7390    -4.5520     0.3020 C.ar  1 <1>  -0.1430 
  8 C       -0.9100    -5.9970     0.7400 C.3   1 <1>  -0.0160 
  9 C       -0.6770    -6.9460    -0.4400 C.3   1 <1>  -0.0990 
 10 C       -0.9060    -8.3860    -0.0240 C.2   1 <1>   0.5690 
 11 O        0.0360    -9.0010     0.4140 O.2   1 <1>  -0.5700 
 12 N       -2.1440    -8.9520    -0.1350 N.am  1 <1>  -0.6600 
 13 C       -3.3760    -8.3320    -0.6860 C.3   1 <1>   0.1400 
 14 C       -2.4380   -10.3170     0.3530 C.3   1 <1>   0.1400 
 15 C       -4.5070    -9.3300    -0.3990 C.3   1 <1>   0.2000 
 16 C       -3.7860   -10.6770    -0.2760 C.3   1 <1>  -0.0800 
 17 O       -5.1060    -9.0240     0.8280 O.3   1 <1>  -0.5600 
 18 C       -4.5640   -11.7500     0.5070 C.3   1 <1>   0.0200 
 19 C       -6.1510    -8.1050     0.7680 C.3   1 <1>   0.0400 
 20 C       -3.9080   -13.1210     0.4610 C.2   1 <1>  -0.0400 
 21 O       -4.4420   -14.0950     1.1500 O.3   1 <1>  -0.0190 
 22 C       -2.8310   -13.6140    -0.1720 C.2   1 <1>  -0.1500 
 23 N       -3.7810   -15.2080     1.0160 N.2   1 <1>  -0.4100 
 24 C       -2.8030   -14.9480     0.2260 C.2   1 <1>   0.1080 
 25 C       -1.7670   -15.9600    -0.2080 C.3   1 <1>  -0.0590 
 26 H        1.6760    -2.2440    -0.2400 H     1 <1>   0.1500 
 27 H       -2.5370    -1.8610    -0.6880 H     1 <1>   0.1500 
 28 H        1.3950    -4.5880     0.4800 H     1 <1>   0.1500 
 29 H       -2.8360    -4.2020     0.0300 H     1 <1>   0.1500 
 30 H       -0.2090    -6.2240     1.5260 H     1 <1>   0.0800 
 31 H       -1.8990    -6.1450     1.1390 H     1 <1>   0.0800 
 32 H        0.3380    -6.8480    -0.7800 H     1 <1>   0.0800 
 33 H       -1.3190    -6.6870    -1.2590 H     1 <1>   0.0800 
 34 H       -3.5680    -7.3770    -0.2310 H     1 <1>   0.0800 
 35 H       -3.2580    -8.2150    -1.7480 H     1 <1>   0.0800 
 36 H       -1.6580   -11.0020     0.0690 H     1 <1>   0.0800 
 37 H       -2.5160   -10.2890     1.4270 H     1 <1>   0.0800 
 38 H       -5.2580    -9.3450    -1.1700 H     1 <1>   0.0800 
 39 H       -3.5980   -11.0400    -1.2710 H     1 <1>   0.0800 
 40 H       -5.5560   -11.8370     0.1010 H     1 <1>   0.0800 
 41 H       -4.6600   -11.4520     1.5370 H     1 <1>   0.0800 
 42 H       -6.5100    -7.9440     1.7700 H     1 <1>   0.0800 
 43 H       -6.9440    -8.5080     0.1620 H     1 <1>   0.0800 
 44 H       -5.7940    -7.1760     0.3600 H     1 <1>   0.0800 
 45 H       -2.1300   -13.1400    -0.8330 H     1 <1>   0.1500 
 46 H       -0.7880   -15.6280     0.0860 H     1 <1>   0.0800 
 47 H       -1.7960   -16.0770    -1.2750 H     1 <1>   0.0800 
 48 H       -1.9660   -16.9100     0.2540 H     1 <1>   0.0800 
@<TRIPOS>BOND
  1   1   2  1   
  2   2   3  ar  
  3   2   4  ar  
  4   3   5  ar  
  5   3  26  1   
  6   4   6  ar  
  7   4  27  1   
  8   5   7  ar  
  9   5  28  1   
 10   6   7  ar  
 11   6  29  1   
 12   7   8  1   
 13   8   9  1   
 14   8  30  1   
 15   8  31  1   
 16   9  10  1   
 17   9  32  1   
 18   9  33  1   
 19  10  11  2   
 20  10  12  am  
 21  12  13  1   
 22  12  14  1   
 23  13  15  1   
 24  13  34  1   
 25  13  35  1   
 26  14  16  1   
 27  14  36  1   
 28  14  37  1   
 29  15  16  1   
 30  15  17  1   
 31  15  38  1   
 32  16  18  1   
 33  16  39  1   
 34  17  19  1   
 35  18  20  1   
 36  18  40  1   
 37  18  41  1   
 38  19  42  1   
 39  19  43  1   
 40  19  44  1   
 41  20  21  1   
 42  20  22  2   
 43  21  23  1   
 44  22  24  1   
 45  22  45  1   
 46  23  24  2   
 47  24  25  1   
 48  25  46  1   
 49  25  47  1   
 50  25  48  1   
@<TRIPOS>SUBSTRUCTURE
  1 ****  12 GROUP 4 **** **** 0

# MOE 2024.06 (io_trps.svl 2023.06)
