@<TRIPOS>MOLECULE
NONAME
36 38 1 0 0 
SMALL
USER_CHARGES


@<TRIPOS>ATOM
  1 S        0.3610     0.2990     0.1760 S.3   1 <1>  -0.0800 
  2 C       -0.3720    -1.2970     0.1670 C.2   1 <1>  -0.1120 
  3 C       -1.2570     1.0660     0.1450 C.2   1 <1>  -0.0450 
  4 N        0.0580    -2.5610     0.1770 N.pl3 1 <1>   0.3140 
  5 C       -1.7140    -1.2460     0.1420 C.2   1 <1>   0.0000 
  6 C       -1.3470     2.5020     0.1390 C.2   1 <1>   0.7150 
  7 C       -2.2120     0.0960     0.1300 C.2   1 <1>  -0.1500 
  8 N       -1.0140    -3.3880     0.1600 N.2   1 <1>  -0.7070 
  9 C        1.4380    -3.0570     0.2030 C.3   1 <1>   0.0160 
 10 C       -2.0760    -2.6040     0.1390 C.2   1 <1>   0.1080 
 11 O       -2.4260     3.0610     0.1160 O.2   1 <1>  -0.5700 
 12 N       -0.2300     3.2740     0.1600 N.am  1 <1>  -0.7300 
 13 C       -3.5660    -3.0210     0.1130 C.3   1 <1>   1.2010 
 14 C       -0.2240     4.7570     0.1330 C.3   1 <1>   0.3200 
 15 F       -3.7630    -4.3360     0.1150 F     1 <1>  -0.3400 
 16 F       -4.1970    -2.5560    -0.9620 F     1 <1>  -0.3400 
 17 F       -4.2370    -2.5470     1.1600 F     1 <1>  -0.3400 
 18 C        1.1960     5.3060     0.0900 C.2   1 <1>   0.2980 
 19 O        1.3950     6.5840     0.0540 O.3   1 <1>  -0.2800 
 20 N        2.2930     4.6450     0.0840 N.2   1 <1>  -0.3380 
 21 C        2.6840     6.6950     0.0240 C.2   1 <1>   0.2980 
 22 N        3.2660     5.5550     0.0410 N.2   1 <1>  -0.3380 
 23 C        3.3090     8.0810    -0.0240 C.3   1 <1>   0.0200 
 24 C        4.8440     8.0600    -0.0550 C.3   1 <1>  -0.2400 
 25 H       -3.2710     0.2920     0.1100 H     1 <1>   0.1500 
 26 H        2.1210    -2.2280     0.2100 H     1 <1>   0.0800 
 27 H        1.6070    -3.6620    -0.6680 H     1 <1>   0.0800 
 28 H        1.5780    -3.6520     1.0870 H     1 <1>   0.0800 
 29 H        0.6970     2.8380     0.1650 H     1 <1>   0.3700 
 30 H       -0.7220     5.1280     1.0120 H     1 <1>   0.0800 
 31 H       -0.7630     5.0980    -0.7330 H     1 <1>   0.0800 
 32 H        2.9800     8.6310     0.8390 H     1 <1>   0.0800 
 33 H        2.9430     8.5870    -0.8990 H     1 <1>   0.0800 
 34 H        5.2270     7.5710     0.8230 H     1 <1>   0.0800 
 35 H        5.2290     9.0630    -0.0890 H     1 <1>   0.0800 
 36 H        5.1900     7.5270    -0.9230 H     1 <1>   0.0800 
@<TRIPOS>BOND
  1   1   2  1   
  2   1   3  1   
  3   2   4  1   
  4   2   5  2   
  5   3   6  1   
  6   3   7  2   
  7   4   8  1   
  8   4   9  1   
  9   5   7  1   
 10   5  10  1   
 11   6  11  2   
 12   6  12  am  
 13   7  25  1   
 14   8  10  2   
 15   9  26  1   
 16   9  27  1   
 17   9  28  1   
 18  10  13  1   
 19  12  14  1   
 20  12  29  1   
 21  13  15  1   
 22  13  16  1   
 23  13  17  1   
 24  14  18  1   
 25  14  30  1   
 26  14  31  1   
 27  18  19  1   
 28  18  20  2   
 29  19  21  1   
 30  20  22  1   
 31  21  22  2   
 32  21  23  1   
 33  23  24  1   
 34  23  32  1   
 35  23  33  1   
 36  24  34  1   
 37  24  35  1   
 38  24  36  1   
@<TRIPOS>SUBSTRUCTURE
  1 ****   3 GROUP 4 **** **** 0

# MOE 2024.06 (io_trps.svl 2023.06)
