@<TRIPOS>MOLECULE
NONAME
47 48 1 0 0 
SMALL
USER_CHARGES


@<TRIPOS>ATOM
  1 S        0.5740     0.1530    -0.5490 S.o2  1 <1>   1.3330 
  2 O       -0.0900    -0.0080    -1.8200 O.2   1 <1>  -0.6500 
  3 O        1.9470     0.6070    -0.5200 O.2   1 <1>  -0.6500 
  4 N        0.4250    -1.2650     0.3640 N.am  1 <1>  -0.8490 
  5 C       -0.3440     1.3700     0.3910 C.3   1 <1>  -0.0550 
  6 C       -0.8140    -2.0050     0.0940 C.3   1 <1>   0.1160 
  7 C        1.5780    -2.1580     0.2010 C.3   1 <1>   0.1160 
  8 C       -0.3630     2.7500    -0.3080 C.3   1 <1>  -0.0800 
  9 C       -1.0310     3.8720     0.4790 C.3   1 <1>   0.2000 
 10 C        1.0250     3.3120    -0.6290 C.3   1 <1>   0.3430 
 11 O       -0.6450     3.8160     1.8140 O.3   1 <1>  -0.6800 
 12 C       -0.4740     5.1510    -0.1560 C.3   1 <1>   0.3430 
 13 N        0.8680     4.7960    -0.7430 N.4   1 <1>  -0.9590 
 14 C        2.0230     5.5090    -0.1000 C.3   1 <1>   0.3430 
 15 C        2.0300     7.0130    -0.3910 C.3   1 <1>   0.1200 
 16 O        3.1470     7.5550     0.2680 O.3   1 <1>  -0.3630 
 17 C        3.4560     8.8740     0.1780 C.ar  1 <1>   0.0820 
 18 C        2.7000     9.8000    -0.5440 C.ar  1 <1>  -0.1500 
 19 C        4.5980     9.2860     0.8540 C.ar  1 <1>  -0.1500 
 20 C        3.0890    11.1290    -0.5840 C.ar  1 <1>  -0.1500 
 21 C        4.9940    10.6130     0.8200 C.ar  1 <1>  -0.1500 
 22 C        4.2290    11.5100     0.0990 C.ar  1 <1>   0.1900 
 23 F        4.5970    12.7630     0.0610 F     1 <1>  -0.1900 
 24 H       -1.3530     1.0310     0.5230 H     1 <1>   0.0800 
 25 H        0.0990     1.4490     1.3650 H     1 <1>   0.0800 
 26 H       -0.8920    -2.8500     0.7570 H     1 <1>   0.0800 
 27 H       -0.8300    -2.3570    -0.9250 H     1 <1>   0.0800 
 28 H       -1.6700    -1.3710     0.2540 H     1 <1>   0.0800 
 29 H        1.4610    -3.0350     0.8160 H     1 <1>   0.0800 
 30 H        2.4810    -1.6560     0.5040 H     1 <1>   0.0800 
 31 H        1.6780    -2.4600    -0.8290 H     1 <1>   0.0800 
 32 H       -0.8850     2.6380    -1.2440 H     1 <1>   0.0800 
 33 H       -2.1070     3.8340     0.4430 H     1 <1>   0.0800 
 34 H        1.4210     2.8830    -1.5380 H     1 <1>   0.0800 
 35 H        1.6990     3.0730     0.1800 H     1 <1>   0.0800 
 36 H        0.3220     3.7760     1.9400 H     1 <1>   0.4000 
 37 H       -0.4070     5.9380     0.5770 H     1 <1>   0.0800 
 38 H       -1.1360     5.4640    -0.9470 H     1 <1>   0.0800 
 39 H        0.8600     5.0250    -1.7480 H     1 <1>   0.4500 
 40 H        1.9900     5.3630     0.9670 H     1 <1>   0.0800 
 41 H        2.9470     5.0940    -0.4700 H     1 <1>   0.0800 
 42 H        1.1500     7.4930     0.0000 H     1 <1>   0.0800 
 43 H        2.1400     7.2000    -1.4450 H     1 <1>   0.0800 
 44 H        1.8130     9.5150    -1.0770 H     1 <1>   0.1500 
 45 H        5.1740     8.5670     1.4080 H     1 <1>   0.1500 
 46 H        2.5260    11.8630    -1.1320 H     1 <1>   0.1500 
 47 H        5.8750    10.9480     1.3370 H     1 <1>   0.1500 
@<TRIPOS>BOND
  1   1   2  2   
  2   1   3  2   
  3   1   4  am  
  4   1   5  1   
  5   4   6  1   
  6   4   7  1   
  7   5   8  1   
  8   5  24  1   
  9   5  25  1   
 10   6  26  1   
 11   6  27  1   
 12   6  28  1   
 13   7  29  1   
 14   7  30  1   
 15   7  31  1   
 16   8   9  1   
 17   8  10  1   
 18   8  32  1   
 19   9  11  1   
 20   9  12  1   
 21   9  33  1   
 22  10  13  1   
 23  10  34  1   
 24  10  35  1   
 25  11  36  1   
 26  12  13  1   
 27  12  37  1   
 28  12  38  1   
 29  13  14  1   
 30  13  39  1   
 31  14  15  1   
 32  14  40  1   
 33  14  41  1   
 34  15  16  1   
 35  15  42  1   
 36  15  43  1   
 37  16  17  1   
 38  17  18  ar  
 39  17  19  ar  
 40  18  20  ar  
 41  18  44  1   
 42  19  21  ar  
 43  19  45  1   
 44  20  22  ar  
 45  20  46  1   
 46  21  22  ar  
 47  21  47  1   
 48  22  23  1   
@<TRIPOS>SUBSTRUCTURE
  1 ****  14 GROUP 4 **** **** 0

# MOE 2024.06 (io_trps.svl 2023.06)
