@<TRIPOS>MOLECULE
NONAME
62 64 1 0 0 
SMALL
USER_CHARGES


@<TRIPOS>ATOM
  1 O        3.3100     3.8190     0.5380 O.co2 1 <1>  -0.9000 
  2 C        3.1740     2.5900     0.6390 C.2   1 <1>   0.9060 
  3 O        3.8880     1.9690     1.4250 O.co2 1 <1>  -0.9000 
  4 C        2.4230     1.8120    -0.4560 C.3   1 <1>  -0.1060 
  5 C        3.4930     0.8790    -1.0810 C.3   1 <1>   0.2000 
  6 C        1.9020     2.7560    -1.5980 C.3   1 <1>  -0.1600 
  7 C        1.2680     1.0110     0.1920 C.3   1 <1>  -0.0160 
  8 O        2.9410     0.1740    -2.1510 O.3   1 <1>  -0.6800 
  9 C        4.6950     1.7030    -1.6160 C.3   1 <1>   0.3430 
 10 C        2.9920     3.2170    -2.5910 C.3   1 <1>   0.3430 
 11 C        0.1300     1.8960     0.6870 C.ar  1 <1>  -0.1440 
 12 N        4.3090     3.1320    -1.9160 N.4   1 <1>  -0.9590 
 13 C       -1.0330     2.0300    -0.0570 C.ar  1 <1>  -0.1500 
 14 C        0.2440     2.5740     1.8910 C.ar  1 <1>  -0.1500 
 15 C        5.3880     4.0420    -2.3580 C.3   1 <1>   0.3430 
 16 C       -2.0640     2.8370     0.3910 C.ar  1 <1>  -0.1500 
 17 C       -0.7860     3.3820     2.3410 C.ar  1 <1>  -0.1500 
 18 C        5.6350     5.0000    -1.1760 C.3   1 <1>  -0.0800 
 19 C       -1.9410     3.5150     1.5910 C.ar  1 <1>  -0.1500 
 20 C        6.4620     6.2530    -1.4770 C.3   1 <1>  -0.1600 
 21 C        6.2860     4.3090     0.0360 C.3   1 <1>  -0.1600 
 22 C        6.4420     7.1830    -0.2510 C.3   1 <1>   0.3430 
 23 C        6.1560     5.2180     1.2490 C.3   1 <1>   0.3430 
 24 N        6.9190     6.4910     0.9980 N.4   1 <1>  -0.9590 
 25 C        6.8770     7.3810     2.1940 C.3   1 <1>   0.4230 
 26 C        7.6670     8.6650     1.9280 C.3   1 <1>  -0.2400 
 27 C        7.4910     6.6690     3.4010 C.3   1 <1>  -0.2400 
 28 H        3.8470     0.1560    -0.3640 H     1 <1>   0.0800 
 29 H        1.4330     3.6220    -1.1610 H     1 <1>   0.0800 
 30 H        1.1410     2.2540    -2.1670 H     1 <1>   0.0800 
 31 H        0.8660     0.3060    -0.5120 H     1 <1>   0.0800 
 32 H        1.6500     0.4420     1.0240 H     1 <1>   0.0800 
 33 H        2.2600    -0.4480    -1.8260 H     1 <1>   0.4000 
 34 H        5.0880     1.2220    -2.4960 H     1 <1>   0.0800 
 35 H        5.4590     1.7020    -0.8570 H     1 <1>   0.0800 
 36 H        2.7870     4.2260    -2.9070 H     1 <1>   0.0800 
 37 H        2.9910     2.5710    -3.4550 H     1 <1>   0.0800 
 38 H        4.0570     3.5160    -0.9710 H     1 <1>   0.4500 
 39 H       -1.1430     1.5080    -0.9910 H     1 <1>   0.1500 
 40 H        1.1380     2.4810     2.4850 H     1 <1>   0.1500 
 41 H        6.2820     3.4900    -2.6000 H     1 <1>   0.0800 
 42 H        5.0680     4.5960    -3.2250 H     1 <1>   0.0800 
 43 H       -2.9620     2.9380    -0.1910 H     1 <1>   0.1500 
 44 H       -0.6830     3.9070     3.2740 H     1 <1>   0.1500 
 45 H        4.6620     5.3630    -0.8840 H     1 <1>   0.0800 
 46 H       -2.7400     4.1440     1.9420 H     1 <1>   0.1500 
 47 H        6.0350     6.7800    -2.3120 H     1 <1>   0.0800 
 48 H        7.4760     5.9990    -1.7300 H     1 <1>   0.0800 
 49 H        7.3180     4.0720    -0.1490 H     1 <1>   0.0800 
 50 H        5.7940     3.3910     0.2880 H     1 <1>   0.0800 
 51 H        5.4330     7.5320    -0.0940 H     1 <1>   0.0800 
 52 H        7.0620     8.0400    -0.4570 H     1 <1>   0.0800 
 53 H        6.5450     4.7000     2.1100 H     1 <1>   0.0800 
 54 H        5.1110     5.4260     1.4270 H     1 <1>   0.0800 
 55 H        7.9000     6.2280     0.8600 H     1 <1>   0.4500 
 56 H        5.8530     7.6380     2.4210 H     1 <1>   0.0800 
 57 H        8.6690     8.4440     1.6040 H     1 <1>   0.0800 
 58 H        7.7320     9.2430     2.8330 H     1 <1>   0.0800 
 59 H        7.1770     9.2890     1.2040 H     1 <1>   0.0800 
 60 H        8.4790     6.3050     3.1790 H     1 <1>   0.0800 
 61 H        6.8720     5.8580     3.7390 H     1 <1>   0.0800 
 62 H        7.5690     7.3550     4.2260 H     1 <1>   0.0800 
@<TRIPOS>BOND
  1   1   2  ar  
  2   2   3  ar  
  3   2   4  1   
  4   4   5  1   
  5   4   6  1   
  6   4   7  1   
  7   5   8  1   
  8   5   9  1   
  9   5  28  1   
 10   6  10  1   
 11   6  29  1   
 12   6  30  1   
 13   7  11  1   
 14   7  31  1   
 15   7  32  1   
 16   8  33  1   
 17   9  12  1   
 18   9  34  1   
 19   9  35  1   
 20  10  12  1   
 21  10  36  1   
 22  10  37  1   
 23  11  13  ar  
 24  11  14  ar  
 25  12  15  1   
 26  12  38  1   
 27  13  16  ar  
 28  13  39  1   
 29  14  17  ar  
 30  14  40  1   
 31  15  18  1   
 32  15  41  1   
 33  15  42  1   
 34  16  19  ar  
 35  16  43  1   
 36  17  19  ar  
 37  17  44  1   
 38  18  20  1   
 39  18  21  1   
 40  18  45  1   
 41  19  46  1   
 42  20  22  1   
 43  20  47  1   
 44  20  48  1   
 45  21  23  1   
 46  21  49  1   
 47  21  50  1   
 48  22  24  1   
 49  22  51  1   
 50  22  52  1   
 51  23  24  1   
 52  23  53  1   
 53  23  54  1   
 54  24  25  1   
 55  24  55  1   
 56  25  26  1   
 57  25  27  1   
 58  25  56  1   
 59  26  57  1   
 60  26  58  1   
 61  26  59  1   
 62  27  60  1   
 63  27  61  1   
 64  27  62  1   
@<TRIPOS>SUBSTRUCTURE
  1 ****   1 GROUP 4 **** **** 0

# MOE 2024.06 (io_trps.svl 2023.06)
