@<TRIPOS>MOLECULE
NONAME
28 28 1 0 0 
SMALL
USER_CHARGES


@<TRIPOS>ATOM
  1 F        0.5520     0.4430    -0.2480 F     1 <1>  -0.3400 
  2 C        0.4660     1.6400     0.3210 C.3   1 <1>   0.2600 
  3 C        1.2290     2.6700    -0.5400 C.3   1 <1>   0.2000 
  4 C       -1.0220     1.9850     0.4410 C.3   1 <1>  -0.1600 
  5 O        2.5900     2.4010    -0.5850 O.3   1 <1>  -0.6800 
  6 C        1.0480     4.0900     0.0060 C.3   1 <1>  -0.1600 
  7 C       -1.2080     3.4150     0.9760 C.3   1 <1>  -0.1600 
  8 C       -0.4460     4.4570     0.1270 C.3   1 <1>  -0.0190 
  9 C       -0.6120     5.8650     0.6930 C.2   1 <1>   0.6590 
 10 O       -0.3250     6.1310     1.8320 O.2   1 <1>  -0.5700 
 11 O       -1.0860     6.7760    -0.1470 O.3   1 <1>  -0.4300 
 12 C       -1.2760     8.1130     0.2510 C.3   1 <1>   0.1200 
 13 C       -1.8210     8.8900    -0.9430 C.3   1 <1>  -0.2400 
 14 H        0.9120     1.5500     1.2950 H     1 <1>   0.0800 
 15 H        0.8580     2.6300    -1.5510 H     1 <1>   0.0800 
 16 H       -1.4840     1.9070    -0.5290 H     1 <1>   0.0800 
 17 H       -1.4990     1.2870     1.1070 H     1 <1>   0.0800 
 18 H        2.9510     2.2740     0.3120 H     1 <1>   0.4000 
 19 H        1.5080     4.1660     0.9760 H     1 <1>   0.0800 
 20 H        1.5320     4.7880    -0.6570 H     1 <1>   0.0800 
 21 H       -0.8560     3.4600     1.9940 H     1 <1>   0.0800 
 22 H       -2.2570     3.6590     0.9860 H     1 <1>   0.0800 
 23 H       -0.8720     4.4560    -0.8610 H     1 <1>   0.0800 
 24 H       -1.9720     8.1280     1.0740 H     1 <1>   0.0800 
 25 H       -0.3280     8.5110     0.5730 H     1 <1>   0.0800 
 26 H       -2.7610     8.4750    -1.2580 H     1 <1>   0.0800 
 27 H       -1.1200     8.8560    -1.7580 H     1 <1>   0.0800 
 28 H       -1.9750     9.9170    -0.6670 H     1 <1>   0.0800 
@<TRIPOS>BOND
  1   1   2  1   
  2   2   3  1   
  3   2   4  1   
  4   2  14  1   
  5   3   5  1   
  6   3   6  1   
  7   3  15  1   
  8   4   7  1   
  9   4  16  1   
 10   4  17  1   
 11   5  18  1   
 12   6   8  1   
 13   6  19  1   
 14   6  20  1   
 15   7   8  1   
 16   7  21  1   
 17   7  22  1   
 18   8   9  1   
 19   8  23  1   
 20   9  10  2   
 21   9  11  1   
 22  11  12  1   
 23  12  13  1   
 24  12  24  1   
 25  12  25  1   
 26  13  26  1   
 27  13  27  1   
 28  13  28  1   
@<TRIPOS>SUBSTRUCTURE
  1 ****   8 GROUP 4 **** **** 0

# MOE 2024.06 (io_trps.svl 2023.06)
