@<TRIPOS>MOLECULE
NONAME
50 52 1 0 0 
SMALL
USER_CHARGES


@<TRIPOS>ATOM
  1 F       -0.9390     0.4000     0.4410 F     1 <1>  -0.1900 
  2 C       -0.9120    -0.9030     0.4110 C.ar  1 <1>   0.1900 
  3 C        0.2550    -1.5380     0.0370 C.ar  1 <1>  -0.1500 
  4 C       -2.0570    -1.5950     0.7510 C.ar  1 <1>  -0.1500 
  5 C        0.2900    -2.9290     0.0010 C.ar  1 <1>  -0.1440 
  6 C       -2.0370    -2.9810     0.7110 C.ar  1 <1>  -0.1440 
  7 C       -0.8650    -3.6340     0.3450 C.ar  1 <1>  -0.1500 
  8 C        1.5680    -3.6880    -0.4020 C.3   1 <1>   1.1640 
  9 C       -3.2920    -3.7590     1.0730 C.3   1 <1>   0.4870 
 10 F        2.4730    -2.9220    -0.9950 F     1 <1>  -0.3400 
 11 F        1.3010    -4.6770    -1.2450 F     1 <1>  -0.3400 
 12 F        2.1620    -4.2400     0.6460 F     1 <1>  -0.3400 
 13 N       -3.8820    -4.3600    -0.1610 N.4   1 <1>  -0.9590 
 14 C       -4.2860    -3.3050    -1.1590 C.3   1 <1>   0.3430 
 15 C       -4.9980    -5.2840     0.1930 C.3   1 <1>   0.3430 
 16 C       -5.8040    -3.1640    -1.3150 C.3   1 <1>  -0.1600 
 17 C       -6.2260    -4.5390     0.7310 C.3   1 <1>  -0.1600 
 18 C       -6.5130    -3.1770     0.0570 C.3   1 <1>   0.2800 
 19 O       -5.8720    -2.2120     0.8550 O.3   1 <1>  -0.5600 
 20 C       -8.0640    -2.9360     0.0240 C.3   1 <1>   0.2000 
 21 C       -6.0380    -0.8430     0.5740 C.3   1 <1>   0.1200 
 22 O       -8.5690    -3.3360    -1.2210 O.3   1 <1>  -0.6800 
 23 C       -8.4960    -1.4840     0.3800 C.3   1 <1>   0.2800 
 24 C       -7.4080    -0.4950    -0.0300 C.3   1 <1>  -0.1600 
 25 O       -8.6350    -1.4080     1.7520 O.3   1 <1>  -0.6800 
 26 C       -9.8630    -1.0710    -0.1820 C.3   1 <1>  -0.2400 
 27 H        1.1160    -0.9410    -0.2150 H     1 <1>   0.1500 
 28 H       -2.9360    -1.0460     1.0430 H     1 <1>   0.1500 
 29 H       -0.8380    -4.7130     0.3290 H     1 <1>   0.1500 
 30 H       -4.0000    -3.1050     1.5520 H     1 <1>   0.0800 
 31 H       -3.0340    -4.5360     1.7730 H     1 <1>   0.0800 
 32 H       -3.1300    -4.9080    -0.5950 H     1 <1>   0.4500 
 33 H       -3.8900    -2.3520    -0.8510 H     1 <1>   0.0800 
 34 H       -3.8600    -3.5350    -2.1220 H     1 <1>   0.0800 
 35 H       -5.2940    -5.8190    -0.6960 H     1 <1>   0.0800 
 36 H       -4.6700    -6.0130     0.9180 H     1 <1>   0.0800 
 37 H       -6.1710    -3.9710    -1.9240 H     1 <1>   0.0800 
 38 H       -6.0260    -2.2620    -1.8510 H     1 <1>   0.0800 
 39 H       -6.1520    -4.4080     1.7960 H     1 <1>   0.0800 
 40 H       -7.0590    -5.1990     0.5650 H     1 <1>   0.0800 
 41 H       -8.5370    -3.5800     0.7440 H     1 <1>   0.0800 
 42 H       -5.9220    -0.3240     1.5110 H     1 <1>   0.0800 
 43 H       -5.2490    -0.5280    -0.0860 H     1 <1>   0.0800 
 44 H       -9.5430    -3.2410    -1.2290 H     1 <1>   0.4000 
 45 H       -7.3250    -0.4980    -1.1020 H     1 <1>   0.0800 
 46 H       -7.6790     0.5070     0.2500 H     1 <1>   0.0800 
 47 H       -8.9420    -0.5180     2.0070 H     1 <1>   0.4000 
 48 H       -9.8360    -1.0440    -1.2570 H     1 <1>   0.0800 
 49 H      -10.1350    -0.0890     0.1610 H     1 <1>   0.0800 
 50 H      -10.6210    -1.7700     0.1240 H     1 <1>   0.0800 
@<TRIPOS>BOND
  1   1   2  1   
  2   2   3  ar  
  3   2   4  ar  
  4   3   5  ar  
  5   3  27  1   
  6   4   6  ar  
  7   4  28  1   
  8   5   7  ar  
  9   5   8  1   
 10   6   7  ar  
 11   6   9  1   
 12   7  29  1   
 13   8  10  1   
 14   8  11  1   
 15   8  12  1   
 16   9  13  1   
 17   9  30  1   
 18   9  31  1   
 19  13  14  1   
 20  13  15  1   
 21  13  32  1   
 22  14  16  1   
 23  14  33  1   
 24  14  34  1   
 25  15  17  1   
 26  15  35  1   
 27  15  36  1   
 28  16  18  1   
 29  16  37  1   
 30  16  38  1   
 31  17  18  1   
 32  17  39  1   
 33  17  40  1   
 34  18  19  1   
 35  18  20  1   
 36  19  21  1   
 37  20  22  1   
 38  20  23  1   
 39  20  41  1   
 40  21  24  1   
 41  21  42  1   
 42  21  43  1   
 43  22  44  1   
 44  23  24  1   
 45  23  25  1   
 46  23  26  1   
 47  24  45  1   
 48  24  46  1   
 49  25  47  1   
 50  26  48  1   
 51  26  49  1   
 52  26  50  1   
@<TRIPOS>SUBSTRUCTURE
  1 ****  14 GROUP 4 **** **** 0

# MOE 2024.06 (io_trps.svl 2023.06)
