@<TRIPOS>MOLECULE
NONAME
50 52 1 0 0 
SMALL
USER_CHARGES


@<TRIPOS>ATOM
  1 S        2.5370     1.9600     1.4020 S.o2  1 <1>   1.3330 
  2 O        2.6850     2.9470     2.4490 O.2   1 <1>  -0.6500 
  3 O        1.3370     1.1560     1.3500 O.2   1 <1>  -0.6500 
  4 N        3.8590     0.8980     1.5180 N.am  1 <1>  -0.8490 
  5 C        2.7400     2.7470    -0.1970 C.3   1 <1>  -0.0550 
  6 C        3.6160    -0.1690     2.4920 C.3   1 <1>   0.1160 
  7 C        5.1210     1.5760     1.8350 C.3   1 <1>   0.1160 
  8 C        2.5740     1.8060    -1.4120 C.3   1 <1>  -0.0800 
  9 C        2.5270     2.5080    -2.7660 C.3   1 <1>   0.2200 
 10 C        3.7130     0.7910    -1.5860 C.3   1 <1>   0.1200 
 11 N        3.4910     3.6300    -2.7930 N.am  1 <1>  -0.7300 
 12 C        3.0310     1.4030    -3.6820 C.3   1 <1>   0.1200 
 13 O        4.0240     0.7570    -2.9480 O.3   1 <1>  -0.5600 
 14 C        3.1630     4.9450    -2.7380 C.2   1 <1>   0.5690 
 15 O        2.0270     5.3260    -2.8830 O.2   1 <1>  -0.5700 
 16 C        4.2560     5.9470    -2.4170 C.3   1 <1>   0.0440 
 17 C        4.8180     5.6560    -1.0310 C.ar  1 <1>  -0.1440 
 18 C        6.0610     5.1090    -0.8520 C.ar  1 <1>  -0.1500 
 19 C        4.0150     5.9210     0.0870 C.ar  1 <1>  -0.1500 
 20 C        6.5460     4.7860     0.4320 C.ar  1 <1>   0.0000 
 21 C        4.4580     5.6170     1.3430 C.ar  1 <1>  -0.1500 
 22 C        5.7260     5.0430     1.5510 C.ar  1 <1>   0.0000 
 23 C        7.8120     4.2030     0.6420 C.ar  1 <1>  -0.1500 
 24 C        6.2020     4.7040     2.8340 C.ar  1 <1>  -0.1500 
 25 C        8.2480     3.8840     1.8980 C.ar  1 <1>  -0.1500 
 26 C        7.4340     4.1370     3.0070 C.ar  1 <1>  -0.1500 
 27 H        2.0070     3.5270    -0.2790 H     1 <1>   0.0800 
 28 H        3.7040     3.2110    -0.2330 H     1 <1>   0.0800 
 29 H        4.4590    -0.8360     2.5330 H     1 <1>   0.0800 
 30 H        2.7490    -0.7400     2.2050 H     1 <1>   0.0800 
 31 H        3.4450     0.2500     3.4700 H     1 <1>   0.0800 
 32 H        5.9320     0.8690     1.8430 H     1 <1>   0.0800 
 33 H        5.0640     2.0520     2.8010 H     1 <1>   0.0800 
 34 H        5.3380     2.3250     1.0950 H     1 <1>   0.0800 
 35 H        1.6580     1.2520    -1.2960 H     1 <1>   0.0800 
 36 H        1.5380     2.8440    -3.0320 H     1 <1>   0.0800 
 37 H        3.4170    -0.1960    -1.2700 H     1 <1>   0.0800 
 38 H        4.6040     1.0860    -1.0600 H     1 <1>   0.0800 
 39 H        4.4610     3.3350    -2.6620 H     1 <1>   0.3700 
 40 H        3.4410     1.7780    -4.6030 H     1 <1>   0.0800 
 41 H        2.2520     0.6890    -3.8860 H     1 <1>   0.0800 
 42 H        5.0230     5.8800    -3.1650 H     1 <1>   0.0800 
 43 H        3.8480     6.9410    -2.4440 H     1 <1>   0.0800 
 44 H        6.6980     4.9030    -1.6930 H     1 <1>   0.1500 
 45 H        3.0390     6.3560    -0.0540 H     1 <1>   0.1500 
 46 H        3.8350     5.8060     2.2000 H     1 <1>   0.1500 
 47 H        8.4370     4.0140    -0.2130 H     1 <1>   0.1500 
 48 H        5.5680     4.9020     3.6800 H     1 <1>   0.1500 
 49 H        9.2180     3.4410     2.0510 H     1 <1>   0.1500 
 50 H        7.7920     3.8830     3.9900 H     1 <1>   0.1500 
@<TRIPOS>BOND
  1   1   2  2   
  2   1   3  2   
  3   1   4  am  
  4   1   5  1   
  5   4   6  1   
  6   4   7  1   
  7   5   8  1   
  8   5  27  1   
  9   5  28  1   
 10   6  29  1   
 11   6  30  1   
 12   6  31  1   
 13   7  32  1   
 14   7  33  1   
 15   7  34  1   
 16   8   9  1   
 17   8  10  1   
 18   8  35  1   
 19   9  11  1   
 20   9  12  1   
 21   9  36  1   
 22  10  13  1   
 23  10  37  1   
 24  10  38  1   
 25  11  14  am  
 26  11  39  1   
 27  12  13  1   
 28  12  40  1   
 29  12  41  1   
 30  14  15  2   
 31  14  16  1   
 32  16  17  1   
 33  16  42  1   
 34  16  43  1   
 35  17  18  ar  
 36  17  19  ar  
 37  18  20  ar  
 38  18  44  1   
 39  19  21  ar  
 40  19  45  1   
 41  20  22  ar  
 42  20  23  ar  
 43  21  22  ar  
 44  21  46  1   
 45  22  24  ar  
 46  23  25  ar  
 47  23  47  1   
 48  24  26  ar  
 49  24  48  1   
 50  25  26  ar  
 51  25  49  1   
 52  26  50  1   
@<TRIPOS>SUBSTRUCTURE
  1 ****   5 GROUP 4 **** **** 0

# MOE 2024.06 (io_trps.svl 2023.06)
