@<TRIPOS>MOLECULE
NONAME
40 42 1 0 0 
SMALL
USER_CHARGES


@<TRIPOS>ATOM
  1 S       -1.2520    -0.3150    -1.0920 S.3   1 <1>  -0.0800 
  2 C       -1.0810    -1.3260     0.3060 C.2   1 <1>   0.4420 
  3 C       -0.8980     1.0340    -0.0700 C.2   1 <1>   0.1980 
  4 N       -0.7940    -0.6520     1.3590 N.2   1 <1>  -0.3380 
  5 N       -1.2640    -2.6780     0.1140 N.am  1 <1>  -0.4940 
  6 N       -0.6910     0.6940     1.1370 N.2   1 <1>  -0.3380 
  7 C       -0.8760     2.4100    -0.7080 C.3   1 <1>   0.0200 
  8 C       -1.2620    -3.7000     1.0230 C.2   1 <1>   0.5690 
  9 C       -0.5400     3.4940     0.3150 C.3   1 <1>   0.1200 
 10 O       -1.1150    -3.5390     2.2080 O.2   1 <1>  -0.5700 
 11 C       -1.4340    -5.1290     0.5150 C.3   1 <1>   0.2010 
 12 O       -0.5360     4.7200    -0.3410 O.3   1 <1>  -0.5600 
 13 N       -2.6840    -5.3350    -0.2690 N.am  1 <1>  -0.4770 
 14 C       -0.2420     5.7960     0.4860 C.3   1 <1>   0.1200 
 15 C       -2.9290    -4.8630    -1.5240 C.2   1 <1>   0.7800 
 16 C       -3.7580    -6.1400     0.0530 C.ar  1 <1>   0.1170 
 17 C       -0.2770     7.0550    -0.3710 C.3   1 <1>  -0.2400 
 18 O       -2.2130    -4.0910    -2.1370 O.2   1 <1>  -0.5700 
 19 O       -4.0810    -5.3320    -1.9990 O.3   1 <1>  -0.2320 
 20 C       -4.6020    -6.1200    -1.0370 C.ar  1 <1>   0.0820 
 21 C       -4.0880    -6.8820     1.1780 C.ar  1 <1>  -0.1500 
 22 C       -5.7870    -6.8310    -1.0600 C.ar  1 <1>  -0.1500 
 23 C       -5.2740    -7.6010     1.1700 C.ar  1 <1>  -0.1500 
 24 C       -6.1170    -7.5770     0.0610 C.ar  1 <1>  -0.1500 
 25 H       -1.4660    -2.9480    -0.8550 H     1 <1>   0.3700 
 26 H       -1.8420     2.6130    -1.1330 H     1 <1>   0.0800 
 27 H       -0.1390     2.4210    -1.4890 H     1 <1>   0.0800 
 28 H        0.4340     3.3210     0.7400 H     1 <1>   0.0800 
 29 H       -1.2820     3.5170     1.0960 H     1 <1>   0.0800 
 30 H       -1.4300    -5.7950     1.3590 H     1 <1>   0.0800 
 31 H       -0.5900    -5.3770    -0.1030 H     1 <1>   0.0800 
 32 H        0.7370     5.6520     0.9110 H     1 <1>   0.0800 
 33 H       -0.9810     5.8480     1.2680 H     1 <1>   0.0800 
 34 H        0.4550     6.9860    -1.1560 H     1 <1>   0.0800 
 35 H       -0.0530     7.9140     0.2340 H     1 <1>   0.0800 
 36 H       -1.2540     7.1810    -0.8010 H     1 <1>   0.0800 
 37 H       -3.4400    -6.8960     2.0350 H     1 <1>   0.1500 
 38 H       -6.4270    -6.7990    -1.9250 H     1 <1>   0.1500 
 39 H       -5.5500    -8.1850     2.0320 H     1 <1>   0.1500 
 40 H       -7.0330    -8.1430     0.0770 H     1 <1>   0.1500 
@<TRIPOS>BOND
  1   1   2  1   
  2   1   3  1   
  3   2   4  2   
  4   2   5  1   
  5   3   6  2   
  6   3   7  1   
  7   4   6  1   
  8   5   8  am  
  9   5  25  1   
 10   7   9  1   
 11   7  26  1   
 12   7  27  1   
 13   8  10  2   
 14   8  11  1   
 15   9  12  1   
 16   9  28  1   
 17   9  29  1   
 18  11  13  1   
 19  11  30  1   
 20  11  31  1   
 21  12  14  1   
 22  13  15  am  
 23  13  16  1   
 24  14  17  1   
 25  14  32  1   
 26  14  33  1   
 27  15  18  2   
 28  15  19  1   
 29  16  20  ar  
 30  16  21  ar  
 31  17  34  1   
 32  17  35  1   
 33  17  36  1   
 34  19  20  1   
 35  20  22  ar  
 36  21  23  ar  
 37  21  37  1   
 38  22  24  ar  
 39  22  38  1   
 40  23  24  ar  
 41  23  39  1   
 42  24  40  1   
@<TRIPOS>SUBSTRUCTURE
  1 ****   5 GROUP 4 **** **** 0

# MOE 2024.06 (io_trps.svl 2023.06)
