@<TRIPOS>MOLECULE
NONAME
51 54 1 0 0 
SMALL
USER_CHARGES


@<TRIPOS>ATOM
  1 O       -1.4210     1.1350    -1.8960 O.2   1 <1>  -0.5700 
  2 C       -1.5460     1.7270    -0.8400 C.2   1 <1>   0.5440 
  3 N       -2.4530     1.2520     0.0870 N.am  1 <1>  -0.6600 
  4 C       -0.7430     2.9140    -0.6040 C.ar  1 <1>   0.0860 
  5 C       -3.0260    -0.1220    -0.0730 C.3   1 <1>   0.1400 
  6 C       -2.9860     2.0890     1.2030 C.3   1 <1>   0.1400 
  7 C       -0.6990     3.9430    -1.5420 C.ar  1 <1>  -0.1500 
  8 C        0.0190     3.0690     0.5540 C.ar  1 <1>  -0.1500 
  9 C       -4.2520    -0.1030    -0.9950 C.3   1 <1>   0.1400 
 10 C       -4.5150     2.0620     1.3480 C.3   1 <1>  -0.1600 
 11 C        0.0580     5.0810    -1.3320 C.ar  1 <1>  -0.1500 
 12 C        0.7780     4.2040     0.7720 C.ar  1 <1>  -0.1500 
 13 N       -5.4340     0.5030    -0.3160 N.am  1 <1>  -0.6600 
 14 C       -5.2960     1.9410     0.0330 C.3   1 <1>   0.1400 
 15 C        0.8030     5.2200    -0.1710 C.ar  1 <1>  -0.1430 
 16 C       -6.5240    -0.2410     0.1110 C.2   1 <1>   0.7160 
 17 C        1.6480     6.4680     0.0620 C.3   1 <1>   0.2390 
 18 O       -7.5350     0.3660     0.4330 O.2   1 <1>  -0.5700 
 19 C       -6.5080    -1.7020     0.1960 C.2   1 <1>   0.1410 
 20 N        3.0630     6.2460    -0.2920 N.pl3 1 <1>   0.3140 
 21 N       -5.4310    -2.4260     0.6440 N.2   1 <1>  -0.5650 
 22 C       -7.5140    -2.5810    -0.1100 C.2   1 <1>  -0.3320 
 23 N        4.0190     7.0750     0.0680 N.2   1 <1>  -0.4180 
 24 C        3.6270     5.2750    -0.9870 C.2   1 <1>   0.0360 
 25 C       -5.8090    -3.6570     0.5990 C.2   1 <1>   0.0360 
 26 N       -7.0670    -3.8170     0.1490 N.pl3 1 <1>   0.0330 
 27 C       -8.9150    -2.3180    -0.6430 C.3   1 <1>  -0.0600 
 28 N        5.1140     6.5960    -0.4050 N.2   1 <1>   0.0000 
 29 N        4.8860     5.4680    -1.0700 N.2   1 <1>  -0.3380 
 30 H       -3.2910    -0.5370     0.8840 H     1 <1>   0.0800 
 31 H       -2.2800    -0.7630    -0.5100 H     1 <1>   0.0800 
 32 H       -2.6960     3.1130     1.0420 H     1 <1>   0.0800 
 33 H       -2.5370     1.7660     2.1270 H     1 <1>   0.0800 
 34 H       -1.2680     3.8350    -2.4500 H     1 <1>   0.1500 
 35 H        0.0150     2.2790     1.2860 H     1 <1>   0.1500 
 36 H       -4.4750    -1.1070    -1.3050 H     1 <1>   0.0800 
 37 H       -4.0200     0.4550    -1.8860 H     1 <1>   0.0800 
 38 H       -4.8100     2.9750     1.8310 H     1 <1>   0.0800 
 39 H       -4.8030     1.2630     2.0090 H     1 <1>   0.0800 
 40 H        0.0640     5.8530    -2.0840 H     1 <1>   0.1500 
 41 H        1.3550     4.2860     1.6790 H     1 <1>   0.1500 
 42 H       -4.7970     2.4700    -0.7610 H     1 <1>   0.0800 
 43 H       -6.2720     2.3790     0.1560 H     1 <1>   0.0800 
 44 H        1.6010     6.7540     1.0960 H     1 <1>   0.0800 
 45 H        1.2790     7.2850    -0.5290 H     1 <1>   0.0800 
 46 H        3.0890     4.4480    -1.4140 H     1 <1>   0.1500 
 47 H       -5.1970    -4.4930     0.8900 H     1 <1>   0.1500 
 48 H       -7.5710    -4.7010     0.0380 H     1 <1>   0.2700 
 49 H       -9.0530    -1.2740    -0.8590 H     1 <1>   0.0800 
 50 H       -9.6490    -2.6110     0.0860 H     1 <1>   0.0800 
 51 H       -9.0790    -2.8730    -1.5500 H     1 <1>   0.0800 
@<TRIPOS>BOND
  1   1   2  2   
  2   2   3  am  
  3   2   4  1   
  4   3   5  1   
  5   3   6  1   
  6   4   7  ar  
  7   4   8  ar  
  8   5   9  1   
  9   5  30  1   
 10   5  31  1   
 11   6  10  1   
 12   6  32  1   
 13   6  33  1   
 14   7  11  ar  
 15   7  34  1   
 16   8  12  ar  
 17   8  35  1   
 18   9  13  1   
 19   9  36  1   
 20   9  37  1   
 21  10  14  1   
 22  10  38  1   
 23  10  39  1   
 24  11  15  ar  
 25  11  40  1   
 26  12  15  ar  
 27  12  41  1   
 28  13  14  1   
 29  13  16  am  
 30  14  42  1   
 31  14  43  1   
 32  15  17  1   
 33  16  18  2   
 34  16  19  1   
 35  17  20  1   
 36  17  44  1   
 37  17  45  1   
 38  19  21  1   
 39  19  22  2   
 40  20  23  1   
 41  20  24  1   
 42  21  25  2   
 43  22  26  1   
 44  22  27  1   
 45  23  28  2   
 46  24  29  2   
 47  24  46  1   
 48  25  26  1   
 49  25  47  1   
 50  26  48  1   
 51  27  49  1   
 52  27  50  1   
 53  27  51  1   
 54  28  29  1   
@<TRIPOS>SUBSTRUCTURE
  1 ****   3 GROUP 4 **** **** 0

# MOE 2024.06 (io_trps.svl 2023.06)
