@<TRIPOS>MOLECULE
NONAME
47 49 1 0 0 
SMALL
USER_CHARGES


@<TRIPOS>ATOM
  1 CL       0.9020    -3.7810    -3.3140 Cl    1 <1>  -0.1770 
  2 C       -0.0410    -4.1890    -1.9020 C.ar  1 <1>   0.1770 
  3 C       -1.3500    -3.7560    -1.8150 C.ar  1 <1>  -0.1500 
  4 C        0.5360    -4.9370    -0.8960 C.ar  1 <1>  -0.1500 
  5 C       -2.1070    -4.0780    -0.6980 C.ar  1 <1>  -0.1440 
  6 C       -0.2130    -5.2610     0.2220 C.ar  1 <1>  -0.1500 
  7 C       -1.5390    -4.8380     0.3240 C.ar  1 <1>   0.0830 
  8 C       -3.5480    -3.5930    -0.6040 C.3   1 <1>  -0.0960 
  9 O       -2.3290    -5.1350     1.3920 O.3   1 <1>  -0.3630 
 10 C       -1.9310    -6.0380     2.4170 C.3   1 <1>   0.1810 
 11 C       -1.7430    -7.4760     1.9250 C.2   1 <1>   0.5690 
 12 O       -0.6810    -8.0070     2.1610 O.2   1 <1>  -0.5700 
 13 N       -2.7390    -8.1510     1.2700 N.am  1 <1>  -0.6600 
 14 C       -4.0460    -7.5970     0.8340 C.3   1 <1>   0.1400 
 15 C       -2.5820    -9.5500     0.8080 C.3   1 <1>   0.1400 
 16 C       -4.6510    -8.6750    -0.0650 C.3   1 <1>   0.2000 
 17 C       -3.9770    -9.9790     0.3520 C.3   1 <1>  -0.0800 
 18 O       -6.0230    -8.7680     0.1030 O.3   1 <1>  -0.6800 
 19 C       -3.9610   -11.0360    -0.7630 C.3   1 <1>   0.0210 
 20 C       -3.1910   -12.2680    -0.3300 C.2   1 <1>   0.1080 
 21 N       -3.5550   -13.0080     0.6710 N.2   1 <1>  -0.7070 
 22 C       -2.0270   -12.7330    -0.9320 C.2   1 <1>  -0.1500 
 23 N       -2.6220   -13.9770     0.7340 N.pl3 1 <1>   0.3000 
 24 C       -1.6850   -13.8310    -0.2260 C.2   1 <1>  -0.3320 
 25 C       -0.5020   -14.7630    -0.4120 C.3   1 <1>  -0.0600 
 26 H       -1.7630    -3.1730    -2.6180 H     1 <1>   0.1500 
 27 H        1.5580    -5.2600    -0.9870 H     1 <1>   0.1500 
 28 H        0.2570    -5.8410     0.9940 H     1 <1>   0.1500 
 29 H       -3.7960    -2.9500    -1.4290 H     1 <1>   0.0800 
 30 H       -3.6890    -3.0440     0.3090 H     1 <1>   0.0800 
 31 H       -4.2180    -4.4330    -0.6100 H     1 <1>   0.0800 
 32 H       -1.0210    -5.6730     2.8550 H     1 <1>   0.0800 
 33 H       -2.6980    -6.0270     3.1680 H     1 <1>   0.0800 
 34 H       -4.6650    -7.4200     1.6960 H     1 <1>   0.0800 
 35 H       -3.9090    -6.6890     0.2760 H     1 <1>   0.0800 
 36 H       -1.8820    -9.5710    -0.0100 H     1 <1>   0.0800 
 37 H       -2.2180   -10.1810     1.6030 H     1 <1>   0.0800 
 38 H       -4.4510    -8.4370    -1.0950 H     1 <1>   0.0800 
 39 H       -4.4760   -10.3870     1.2140 H     1 <1>   0.0800 
 40 H       -6.2310    -9.1650     0.9720 H     1 <1>   0.4000 
 41 H       -3.5130   -10.6300    -1.6520 H     1 <1>   0.0800 
 42 H       -4.9700   -11.3250    -0.9970 H     1 <1>   0.0800 
 43 H       -1.5280   -12.2920    -1.7770 H     1 <1>   0.1500 
 44 H       -2.6530   -14.7200     1.4420 H     1 <1>   0.2700 
 45 H        0.0990   -14.4370    -1.2420 H     1 <1>   0.0800 
 46 H       -0.8440   -15.7640    -0.6090 H     1 <1>   0.0800 
 47 H        0.1100   -14.7680     0.4730 H     1 <1>   0.0800 
@<TRIPOS>BOND
  1   1   2  1   
  2   2   3  ar  
  3   2   4  ar  
  4   3   5  ar  
  5   3  26  1   
  6   4   6  ar  
  7   4  27  1   
  8   5   7  ar  
  9   5   8  1   
 10   6   7  ar  
 11   6  28  1   
 12   7   9  1   
 13   8  29  1   
 14   8  30  1   
 15   8  31  1   
 16   9  10  1   
 17  10  11  1   
 18  10  32  1   
 19  10  33  1   
 20  11  12  2   
 21  11  13  am  
 22  13  14  1   
 23  13  15  1   
 24  14  16  1   
 25  14  34  1   
 26  14  35  1   
 27  15  17  1   
 28  15  36  1   
 29  15  37  1   
 30  16  17  1   
 31  16  18  1   
 32  16  38  1   
 33  17  19  1   
 34  17  39  1   
 35  18  40  1   
 36  19  20  1   
 37  19  41  1   
 38  19  42  1   
 39  20  21  2   
 40  20  22  1   
 41  21  23  1   
 42  22  24  2   
 43  22  43  1   
 44  23  24  1   
 45  23  44  1   
 46  24  25  1   
 47  25  45  1   
 48  25  46  1   
 49  25  47  1   
@<TRIPOS>SUBSTRUCTURE
  1 ****  13 GROUP 4 **** **** 0

# MOE 2024.06 (io_trps.svl 2023.06)
