@<TRIPOS>MOLECULE
NONAME
37 38 1 0 0 
SMALL
USER_CHARGES


@<TRIPOS>ATOM
  1 O       -1.8650    -0.5760    -1.6230 O.2   1 <1>  -0.5700 
  2 C       -1.7010    -1.1420    -0.5720 C.2   1 <1>   0.5690 
  3 N       -1.7310    -0.4490     0.5850 N.am  1 <1>  -0.8000 
  4 C       -1.4470    -2.6650    -0.5370 C.3   1 <1>   0.2510 
  5 N       -0.6460    -3.0930     0.6430 N.3   1 <1>  -0.9000 
  6 C       -2.7790    -3.4330    -0.5400 C.3   1 <1>  -0.1600 
  7 C       -0.3610    -4.5370     0.6180 C.3   1 <1>   0.1100 
  8 C       -2.5680    -4.9560    -0.5330 C.3   1 <1>  -0.1600 
  9 C       -1.6550    -5.3710     0.6290 C.3   1 <1>   0.1900 
 10 N       -1.3160    -6.7900     0.5210 N.3   1 <1>  -0.7300 
 11 O       -2.4310    -7.5460     0.7470 O.3   1 <1>  -0.1800 
 12 C       -2.6920    -8.4180    -0.3040 C.3   1 <1>   0.2640 
 13 C       -3.9840    -9.1690    -0.0170 C.ar  1 <1>  -0.1440 
 14 C       -5.2090    -8.5670    -0.2630 C.ar  1 <1>  -0.1500 
 15 C       -3.9510   -10.4590     0.4900 C.ar  1 <1>  -0.1500 
 16 C       -6.3870    -9.2480    -0.0120 C.ar  1 <1>  -0.1500 
 17 C       -5.1280   -11.1420     0.7420 C.ar  1 <1>  -0.1500 
 18 C       -6.3470   -10.5370     0.4910 C.ar  1 <1>  -0.1500 
 19 H       -1.8960     0.5560     0.5910 H     1 <1>   0.3700 
 20 H       -1.5750    -0.9230     1.4770 H     1 <1>   0.3700 
 21 H       -0.9040    -2.9150    -1.4320 H     1 <1>   0.0800 
 22 H        0.2490    -2.5870     0.6040 H     1 <1>   0.3600 
 23 H       -3.3510    -3.1420     0.3240 H     1 <1>   0.0800 
 24 H       -3.3430    -3.1560    -1.4130 H     1 <1>   0.0800 
 25 H        0.2060    -4.7740    -0.2670 H     1 <1>   0.0800 
 26 H        0.2280    -4.7900     1.4820 H     1 <1>   0.0800 
 27 H       -2.1160    -5.2540    -1.4620 H     1 <1>   0.0800 
 28 H       -3.5220    -5.4430    -0.4390 H     1 <1>   0.0800 
 29 H       -2.1600    -5.2030     1.5660 H     1 <1>   0.0800 
 30 H       -0.6330    -7.0480     1.2450 H     1 <1>   0.3600 
 31 H       -2.7820    -7.8420    -1.2070 H     1 <1>   0.0800 
 32 H       -1.8610    -9.0940    -0.3930 H     1 <1>   0.0800 
 33 H       -5.2480    -7.5630    -0.6490 H     1 <1>   0.1500 
 34 H       -3.0080   -10.9370     0.6930 H     1 <1>   0.1500 
 35 H       -7.3340    -8.7750    -0.2050 H     1 <1>   0.1500 
 36 H       -5.0960   -12.1430     1.1350 H     1 <1>   0.1500 
 37 H       -7.2620   -11.0670     0.6870 H     1 <1>   0.1500 
@<TRIPOS>BOND
  1   1   2  2   
  2   2   3  am  
  3   2   4  1   
  4   3  19  1   
  5   3  20  1   
  6   4   5  1   
  7   4   6  1   
  8   4  21  1   
  9   5   7  1   
 10   5  22  1   
 11   6   8  1   
 12   6  23  1   
 13   6  24  1   
 14   7   9  1   
 15   7  25  1   
 16   7  26  1   
 17   8   9  1   
 18   8  27  1   
 19   8  28  1   
 20   9  10  1   
 21   9  29  1   
 22  10  11  1   
 23  10  30  1   
 24  11  12  1   
 25  12  13  1   
 26  12  31  1   
 27  12  32  1   
 28  13  14  ar  
 29  13  15  ar  
 30  14  16  ar  
 31  14  33  1   
 32  15  17  ar  
 33  15  34  1   
 34  16  18  ar  
 35  16  35  1   
 36  17  18  ar  
 37  17  36  1   
 38  18  37  1   
@<TRIPOS>SUBSTRUCTURE
  1 ****   8 GROUP 4 **** **** 0

# MOE 2024.06 (io_trps.svl 2023.06)
