@<TRIPOS>MOLECULE
NONAME
51 53 1 0 0 
SMALL
USER_CHARGES


@<TRIPOS>ATOM
  1 O        1.2630     0.5840    -1.9360 O.2   1 <1>  -0.5700 
  2 C        1.9280     0.6160    -0.9190 C.2   1 <1>   0.7800 
  3 O        2.5860    -0.4600    -0.4790 O.3   1 <1>  -0.4300 
  4 N        2.0500     1.7460    -0.1750 N.am  1 <1>  -0.5100 
  5 C        2.6470    -1.7320    -1.0850 C.3   1 <1>   0.2800 
  6 C        1.9570     3.1320    -0.7480 C.3   1 <1>   0.2250 
  7 C        3.2840     2.1150     0.5980 C.3   1 <1>   0.2250 
  8 C        3.5430    -2.5660    -0.1700 C.3   1 <1>  -0.2400 
  9 C        3.2970    -1.6270    -2.4700 C.3   1 <1>  -0.2400 
 10 C        1.2500    -2.3620    -1.1390 C.3   1 <1>  -0.2400 
 11 C        2.8640     3.5820     0.4090 C.3   1 <1>   0.0000 
 12 C        3.8630     4.7310     0.1650 C.3   1 <1>   0.2250 
 13 C        2.2240     4.3820     1.5670 C.3   1 <1>   0.0000 
 14 N        5.1180     4.5740     0.9240 N.am  1 <1>  -0.6550 
 15 C        2.8360     5.6480     0.8960 C.3   1 <1>   0.0000 
 16 C        6.2350     3.9930     0.4420 C.2   1 <1>   0.7800 
 17 O        6.2680     3.4120    -0.6240 O.2   1 <1>  -0.5700 
 18 O        7.3090     4.0780     1.2160 O.3   1 <1>  -0.4300 
 19 C        8.5700     3.6320     0.7640 C.3   1 <1>   0.2630 
 20 C        9.2430     4.7580    -0.0070 C.ar  1 <1>  -0.1440 
 21 C        9.9870     5.7170     0.6620 C.ar  1 <1>  -0.1500 
 22 C        9.1150     4.8370    -1.3860 C.ar  1 <1>  -0.1500 
 23 C       10.6030     6.7400    -0.0390 C.ar  1 <1>  -0.1500 
 24 C        9.7300     5.8590    -2.0880 C.ar  1 <1>  -0.1500 
 25 C       10.4750     6.8110    -1.4150 C.ar  1 <1>  -0.1500 
 26 H        0.9560     3.5220    -0.7070 H     1 <1>   0.0000 
 27 H        2.4230     3.1890    -1.7170 H     1 <1>   0.0000 
 28 H        4.1760     1.8380     0.0640 H     1 <1>   0.0000 
 29 H        3.2440     1.7730     1.6160 H     1 <1>   0.0000 
 30 H        4.5200    -2.1220    -0.0990 H     1 <1>   0.0800 
 31 H        3.6500    -3.5630    -0.5570 H     1 <1>   0.0800 
 32 H        3.1150    -2.6290     0.8150 H     1 <1>   0.0800 
 33 H        4.2390    -1.1130    -2.4030 H     1 <1>   0.0800 
 34 H        2.6590    -1.1070    -3.1600 H     1 <1>   0.0800 
 35 H        3.4720    -2.6100    -2.8680 H     1 <1>   0.0800 
 36 H        0.7980    -2.3530    -0.1640 H     1 <1>   0.0800 
 37 H        1.3210    -3.3810    -1.4720 H     1 <1>   0.0800 
 38 H        0.6140    -1.8390    -1.8280 H     1 <1>   0.0800 
 39 H        4.0230     4.9770    -0.8700 H     1 <1>   0.0000 
 40 H        2.6720     4.1630     2.5210 H     1 <1>   0.0000 
 41 H        1.1490     4.3690     1.5780 H     1 <1>   0.0000 
 42 H        5.2040     5.0990     1.7920 H     1 <1>   0.3700 
 43 H        2.1480     6.1140     0.2120 H     1 <1>   0.0000 
 44 H        3.2760     6.3430     1.5900 H     1 <1>   0.0000 
 45 H        8.4510     2.7500     0.1590 H     1 <1>   0.0800 
 46 H        9.1540     3.3770     1.6300 H     1 <1>   0.0800 
 47 H       10.0890     5.6730     1.7320 H     1 <1>   0.1500 
 48 H        8.5320     4.1040    -1.9180 H     1 <1>   0.1500 
 49 H       11.1790     7.4810     0.4860 H     1 <1>   0.1500 
 50 H        9.6260     5.9130    -3.1580 H     1 <1>   0.1500 
 51 H       10.9530     7.6060    -1.9600 H     1 <1>   0.1500 
@<TRIPOS>BOND
  1   1   2  2   
  2   2   3  1   
  3   2   4  am  
  4   3   5  1   
  5   4   6  1   
  6   4   7  1   
  7   5   8  1   
  8   5   9  1   
  9   5  10  1   
 10   6  11  1   
 11   6  26  1   
 12   6  27  1   
 13   7  11  1   
 14   7  28  1   
 15   7  29  1   
 16   8  30  1   
 17   8  31  1   
 18   8  32  1   
 19   9  33  1   
 20   9  34  1   
 21   9  35  1   
 22  10  36  1   
 23  10  37  1   
 24  10  38  1   
 25  11  12  1   
 26  11  13  1   
 27  12  14  1   
 28  12  15  1   
 29  12  39  1   
 30  13  15  1   
 31  13  40  1   
 32  13  41  1   
 33  14  16  am  
 34  14  42  1   
 35  15  43  1   
 36  15  44  1   
 37  16  17  2   
 38  16  18  1   
 39  18  19  1   
 40  19  20  1   
 41  19  45  1   
 42  19  46  1   
 43  20  21  ar  
 44  20  22  ar  
 45  21  23  ar  
 46  21  47  1   
 47  22  24  ar  
 48  22  48  1   
 49  23  25  ar  
 50  23  49  1   
 51  24  25  ar  
 52  24  50  1   
 53  25  51  1   
@<TRIPOS>SUBSTRUCTURE
  1 ****  17 GROUP 4 **** **** 0

# MOE 2024.06 (io_trps.svl 2023.06)
