@<TRIPOS>MOLECULE
NONAME
56 58 1 0 0 
SMALL
USER_CHARGES


@<TRIPOS>ATOM
  1 O       -1.3800     0.8260     1.8590 O.2   1 <1>  -0.5700 
  2 C       -1.6820     1.0950     0.7110 C.2   1 <1>   0.5440 
  3 N       -2.0770     0.0860    -0.1360 N.am  1 <1>  -0.6600 
  4 C       -1.6300     2.4680     0.2570 C.ar  1 <1>   0.0860 
  5 C       -2.0320    -1.3530     0.2880 C.3   1 <1>   0.3640 
  6 C       -2.5870     0.3720    -1.5130 C.3   1 <1>   0.1400 
  7 C       -0.5740     2.9240    -0.5470 C.ar  1 <1>   0.0830 
  8 C       -2.6510     3.3720     0.5780 C.ar  1 <1>  -0.1440 
  9 C       -0.7050    -2.0240    -0.1040 C.ar  1 <1>  -0.1440 
 10 C       -3.2480    -2.1720    -0.2540 C.3   1 <1>   0.2000 
 11 C       -3.0290    -0.9010    -2.2480 C.3   1 <1>   0.1200 
 12 O        0.4650     2.1370    -0.9030 O.3   1 <1>  -0.3630 
 13 C       -0.5650     4.2200    -1.0370 C.ar  1 <1>  -0.1500 
 14 C       -2.6220     4.6680     0.0920 C.ar  1 <1>  -0.1500 
 15 C       -3.8140     2.9390     1.4640 C.3   1 <1>  -0.0960 
 16 C       -0.3730    -3.2160     0.5300 C.ar  1 <1>  -0.1500 
 17 C        0.1790    -1.5090    -1.0470 C.ar  1 <1>  -0.1500 
 18 O       -3.8580    -1.6480    -1.4150 O.3   1 <1>  -0.5600 
 19 C       -4.3540    -2.2890     0.8010 C.3   1 <1>   0.1200 
 20 C        1.3070     1.6290     0.1140 C.3   1 <1>   0.0400 
 21 C       -1.5850     5.0930    -0.7180 C.ar  1 <1>  -0.1500 
 22 C        0.7960    -3.8920     0.2250 C.ar  1 <1>   0.0830 
 23 C        1.3610    -2.1660    -1.3460 C.ar  1 <1>  -0.1500 
 24 O       -3.9540    -3.1380     1.8300 O.3   1 <1>  -0.6800 
 25 O        1.0140    -5.0720     0.8560 O.3   1 <1>  -0.3630 
 26 C        1.6860    -3.3480    -0.7060 C.ar  1 <1>   0.0830 
 27 C        1.0620    -6.2230     0.0420 C.3   1 <1>   0.0400 
 28 O        2.8760    -3.9190    -1.0150 O.3   1 <1>  -0.3630 
 29 C        3.8360    -3.9540     0.0190 C.3   1 <1>   0.0400 
 30 H       -2.0740    -1.3930     1.3630 H     1 <1>   0.0800 
 31 H       -3.4280     1.0390    -1.4430 H     1 <1>   0.0800 
 32 H       -1.8200     0.8640    -2.0870 H     1 <1>   0.0800 
 33 H       -2.9220    -3.1640    -0.5080 H     1 <1>   0.0800 
 34 H       -2.1850    -1.5050    -2.5360 H     1 <1>   0.0800 
 35 H       -3.5870    -0.6460    -3.1300 H     1 <1>   0.0800 
 36 H        0.2480     4.5390    -1.6650 H     1 <1>   0.1500 
 37 H       -3.4080     5.3610     0.3400 H     1 <1>   0.1500 
 38 H       -4.5170     3.7400     1.6050 H     1 <1>   0.0800 
 39 H       -3.4450     2.6380     2.4300 H     1 <1>   0.0800 
 40 H       -4.3310     2.1070     1.0200 H     1 <1>   0.0800 
 41 H       -1.0260    -3.6370     1.2740 H     1 <1>   0.1500 
 42 H       -0.0290    -0.5850    -1.5540 H     1 <1>   0.1500 
 43 H       -5.2520    -2.6930     0.3670 H     1 <1>   0.0800 
 44 H       -4.5620    -1.3230     1.2280 H     1 <1>   0.0800 
 45 H        2.2640     1.4070    -0.3220 H     1 <1>   0.0800 
 46 H        0.8800     0.7290     0.5190 H     1 <1>   0.0800 
 47 H        1.4170     2.3700     0.8870 H     1 <1>   0.0800 
 48 H       -1.5720     6.1020    -1.0960 H     1 <1>   0.1500 
 49 H        2.0400    -1.7570    -2.0720 H     1 <1>   0.1500 
 50 H       -4.0180    -4.0730     1.5540 H     1 <1>   0.4000 
 51 H        1.1010    -7.0860     0.6820 H     1 <1>   0.0800 
 52 H        1.9400    -6.1880    -0.5770 H     1 <1>   0.0800 
 53 H        0.1760    -6.2550    -0.5670 H     1 <1>   0.0800 
 54 H        4.7530    -4.3410    -0.3870 H     1 <1>   0.0800 
 55 H        3.4860    -4.5940     0.8090 H     1 <1>   0.0800 
 56 H        3.9850    -2.9550     0.3860 H     1 <1>   0.0800 
@<TRIPOS>BOND
  1   1   2  2   
  2   2   3  am  
  3   2   4  1   
  4   3   5  1   
  5   3   6  1   
  6   4   7  ar  
  7   4   8  ar  
  8   5   9  1   
  9   5  10  1   
 10   5  30  1   
 11   6  11  1   
 12   6  31  1   
 13   6  32  1   
 14   7  12  1   
 15   7  13  ar  
 16   8  14  ar  
 17   8  15  1   
 18   9  16  ar  
 19   9  17  ar  
 20  10  18  1   
 21  10  19  1   
 22  10  33  1   
 23  11  18  1   
 24  11  34  1   
 25  11  35  1   
 26  12  20  1   
 27  13  21  ar  
 28  13  36  1   
 29  14  21  ar  
 30  14  37  1   
 31  15  38  1   
 32  15  39  1   
 33  15  40  1   
 34  16  22  ar  
 35  16  41  1   
 36  17  23  ar  
 37  17  42  1   
 38  19  24  1   
 39  19  43  1   
 40  19  44  1   
 41  20  45  1   
 42  20  46  1   
 43  20  47  1   
 44  21  48  1   
 45  22  25  1   
 46  22  26  ar  
 47  23  26  ar  
 48  23  49  1   
 49  24  50  1   
 50  25  27  1   
 51  26  28  1   
 52  27  51  1   
 53  27  52  1   
 54  27  53  1   
 55  28  29  1   
 56  29  54  1   
 57  29  55  1   
 58  29  56  1   
@<TRIPOS>SUBSTRUCTURE
  1 ****   3 GROUP 4 **** **** 0

# MOE 2024.06 (io_trps.svl 2023.06)
