@<TRIPOS>MOLECULE
NONAME
42 44 1 0 0 
SMALL
USER_CHARGES


@<TRIPOS>ATOM
  1 S        0.5390     0.4890    -1.9130 S.3   1 <1>   0.1810 
  2 N        1.2180     1.7410    -1.0020 N.2   1 <1>  -0.2210 
  3 C        1.4640    -0.7260    -1.1010 C.2   1 <1>  -0.1400 
  4 N        2.0550     1.2880    -0.1800 N.2   1 <1>  -0.2270 
  5 C        2.2260    -0.0850    -0.2030 C.2   1 <1>   0.0460 
  6 C        1.2510    -2.1560    -1.5670 C.3   1 <1>   0.2900 
  7 C        3.2550    -0.6280     0.7930 C.3   1 <1>   0.1010 
  8 N        0.3550    -2.9180    -0.6730 N.3   1 <1>  -0.8100 
  9 C        4.6750    -0.4090     0.2590 C.3   1 <1>  -0.2400 
 10 C        3.0600    -2.1030     1.1620 C.3   1 <1>  -0.2400 
 11 C        0.1990    -4.3340    -1.1570 C.3   1 <1>   0.3940 
 12 C       -0.9560    -2.2700    -0.4440 C.3   1 <1>   0.1100 
 13 C       -1.0060    -5.1080    -0.5570 C.2   1 <1>   0.5690 
 14 C        1.5140    -5.0770    -0.9030 C.ar  1 <1>  -0.1440 
 15 C       -1.7920    -3.0330     0.6000 C.3   1 <1>   0.1400 
 16 O       -1.1990    -6.2650    -0.8430 O.2   1 <1>  -0.5700 
 17 N       -1.8870    -4.4710     0.2580 N.am  1 <1>  -0.7300 
 18 C        1.9640    -5.2630     0.4000 C.ar  1 <1>  -0.1500 
 19 C        2.2650    -5.5650    -1.9680 C.ar  1 <1>  -0.1500 
 20 C        3.1570    -5.9220     0.6440 C.ar  1 <1>  -0.1500 
 21 C        3.4600    -6.2260    -1.7360 C.ar  1 <1>  -0.1500 
 22 C        3.8840    -6.3900    -0.4320 C.ar  1 <1>   0.1900 
 23 F        5.0130    -7.0080    -0.2100 F     1 <1>  -0.1900 
 24 H        2.2100    -2.6410    -1.6080 H     1 <1>   0.0800 
 25 H        0.8510    -2.1490    -2.5670 H     1 <1>   0.0800 
 26 H        3.1460    -0.0610     1.7020 H     1 <1>   0.0800 
 27 H        4.8180    -0.9520    -0.6590 H     1 <1>   0.0800 
 28 H        5.4020    -0.7410     0.9780 H     1 <1>   0.0800 
 29 H        4.8380     0.6370     0.0660 H     1 <1>   0.0800 
 30 H        3.2920    -2.7410     0.3300 H     1 <1>   0.0800 
 31 H        2.0440    -2.2760     1.4670 H     1 <1>   0.0800 
 32 H        3.7090    -2.3680     1.9770 H     1 <1>   0.0800 
 33 H        0.0180    -4.3100    -2.2170 H     1 <1>   0.0800 
 34 H       -1.5040    -2.2070    -1.3690 H     1 <1>   0.0800 
 35 H       -0.8120    -1.2700    -0.0710 H     1 <1>   0.0800 
 36 H       -2.7810    -2.6090     0.6460 H     1 <1>   0.0800 
 37 H       -1.3340    -2.9290     1.5690 H     1 <1>   0.0800 
 38 H       -2.6380    -5.0300     0.6670 H     1 <1>   0.3700 
 39 H        1.3830    -4.8880     1.2250 H     1 <1>   0.1500 
 40 H        1.9230    -5.4390    -2.9810 H     1 <1>   0.1500 
 41 H        3.5160    -6.0720     1.6460 H     1 <1>   0.1500 
 42 H        4.0520    -6.6100    -2.5470 H     1 <1>   0.1500 
@<TRIPOS>BOND
  1   1   2  1   
  2   1   3  1   
  3   2   4  2   
  4   3   5  2   
  5   3   6  1   
  6   4   5  1   
  7   5   7  1   
  8   6   8  1   
  9   6  24  1   
 10   6  25  1   
 11   7   9  1   
 12   7  10  1   
 13   7  26  1   
 14   8  11  1   
 15   8  12  1   
 16   9  27  1   
 17   9  28  1   
 18   9  29  1   
 19  10  30  1   
 20  10  31  1   
 21  10  32  1   
 22  11  13  1   
 23  11  14  1   
 24  11  33  1   
 25  12  15  1   
 26  12  34  1   
 27  12  35  1   
 28  13  16  2   
 29  13  17  am  
 30  14  18  ar  
 31  14  19  ar  
 32  15  17  1   
 33  15  36  1   
 34  15  37  1   
 35  17  38  1   
 36  18  20  ar  
 37  18  39  1   
 38  19  21  ar  
 39  19  40  1   
 40  20  22  ar  
 41  20  41  1   
 42  21  22  ar  
 43  21  42  1   
 44  22  23  1   
@<TRIPOS>SUBSTRUCTURE
  1 ****   8 GROUP 4 **** **** 0

# MOE 2024.06 (io_trps.svl 2023.06)
