@<TRIPOS>MOLECULE
NONAME
38 38 1 0 0 
SMALL
USER_CHARGES


@<TRIPOS>ATOM
  1 O        0.5120    -0.2090     1.2460 O.2   1 <1>  -0.5700 
  2 C        1.3580    -0.6400     0.4930 C.2   1 <1>   0.5690 
  3 N        2.1760     0.1640    -0.2530 N.am  1 <1>  -0.4940 
  4 C        1.5580    -2.1760     0.3530 C.3   1 <1>   0.3410 
  5 C        2.3710     1.5650    -0.3410 C.2   1 <1>  -0.0880 
  6 O        2.6350    -2.4020    -0.5480 O.3   1 <1>  -0.5600 
  7 C        1.9130    -2.7860     1.7200 C.3   1 <1>  -0.2400 
  8 C        0.2810    -2.8170    -0.2190 C.3   1 <1>  -0.2400 
  9 N        1.4810     2.5660    -0.0860 N.pl3 1 <1>   0.3140 
 10 C        3.5210     2.1720    -0.7210 C.2   1 <1>  -0.1810 
 11 C        3.0320    -3.7080    -0.8600 C.3   1 <1>   0.0400 
 12 N        2.0360     3.7820    -0.2880 N.2   1 <1>  -0.7070 
 13 C        0.0610     2.4730     0.2730 C.3   1 <1>   0.0160 
 14 C        3.2500     3.5360    -0.6600 C.2   1 <1>   0.1080 
 15 C        4.8330     1.5190    -1.1240 C.3   1 <1>   0.0210 
 16 C        4.2220     4.6470    -0.9830 C.3   1 <1>  -0.0590 
 17 C        5.7010     1.2650     0.1100 C.3   1 <1>  -0.2400 
 18 H        2.8560    -0.4000    -0.7730 H     1 <1>   0.3700 
 19 H        2.8580    -2.4030     2.0600 H     1 <1>   0.0800 
 20 H        1.9460    -3.8580     1.6820 H     1 <1>   0.0800 
 21 H        1.1630    -2.5120     2.4420 H     1 <1>   0.0800 
 22 H        0.1050    -2.4600    -1.2170 H     1 <1>   0.0800 
 23 H       -0.5620    -2.5410     0.3890 H     1 <1>   0.0800 
 24 H        0.3410    -3.8890    -0.2200 H     1 <1>   0.0800 
 25 H        3.8510    -3.6450    -1.5540 H     1 <1>   0.0800 
 26 H        2.2210    -4.2390    -1.3260 H     1 <1>   0.0800 
 27 H        3.3650    -4.2150     0.0270 H     1 <1>   0.0800 
 28 H       -0.3940     1.6740    -0.2800 H     1 <1>   0.0800 
 29 H       -0.4250     3.4000     0.0340 H     1 <1>   0.0800 
 30 H       -0.0210     2.2840     1.3260 H     1 <1>   0.0800 
 31 H        5.3570     2.1510    -1.8180 H     1 <1>   0.0800 
 32 H        4.6320     0.5860    -1.6190 H     1 <1>   0.0800 
 33 H        5.1730     4.4510    -0.5260 H     1 <1>   0.0800 
 34 H        3.8440     5.5810    -0.6080 H     1 <1>   0.0800 
 35 H        4.3430     4.7230    -2.0480 H     1 <1>   0.0800 
 36 H        5.9160     2.1930     0.6090 H     1 <1>   0.0800 
 37 H        6.6270     0.8000    -0.1760 H     1 <1>   0.0800 
 38 H        5.1840     0.6190     0.7970 H     1 <1>   0.0800 
@<TRIPOS>BOND
  1   1   2  2   
  2   2   3  am  
  3   2   4  1   
  4   3   5  1   
  5   3  18  1   
  6   4   6  1   
  7   4   7  1   
  8   4   8  1   
  9   5   9  1   
 10   5  10  2   
 11   6  11  1   
 12   7  19  1   
 13   7  20  1   
 14   7  21  1   
 15   8  22  1   
 16   8  23  1   
 17   8  24  1   
 18   9  12  1   
 19   9  13  1   
 20  10  14  1   
 21  10  15  1   
 22  11  25  1   
 23  11  26  1   
 24  11  27  1   
 25  12  14  2   
 26  13  28  1   
 27  13  29  1   
 28  13  30  1   
 29  14  16  1   
 30  15  17  1   
 31  15  31  1   
 32  15  32  1   
 33  16  33  1   
 34  16  34  1   
 35  16  35  1   
 36  17  36  1   
 37  17  37  1   
 38  17  38  1   
@<TRIPOS>SUBSTRUCTURE
  1 ****   3 GROUP 4 **** **** 0

# MOE 2024.06 (io_trps.svl 2023.06)
