@<TRIPOS>MOLECULE
NONAME
47 50 1 0 0 
SMALL
USER_CHARGES


@<TRIPOS>ATOM
  1 S       -0.9990    -0.5230     1.3430 S.3   1 <1>  -0.0800 
  2 C       -1.4990    -1.3080    -0.1490 C.2   1 <1>  -0.1400 
  3 C       -1.0480     1.0580     0.5860 C.2   1 <1>  -0.1100 
  4 C       -1.6770    -0.3900    -1.1210 C.2   1 <1>  -0.1500 
  5 C       -1.6480    -2.8190    -0.1050 C.3   1 <1>   0.3800 
  6 C       -1.4200     0.9550    -0.7020 C.2   1 <1>  -0.1500 
  7 O       -1.7790    -3.2770    -1.4030 O.3   1 <1>  -0.6800 
  8 C       -2.8820    -3.2670     0.7130 C.3   1 <1>  -0.0800 
  9 C       -2.9950    -4.8030     0.7840 C.3   1 <1>  -0.1600 
 10 C       -4.1980    -2.6610     0.1780 C.3   1 <1>  -0.1600 
 11 C       -4.2490    -5.2570     1.5280 C.3   1 <1>   0.3430 
 12 C       -5.4180    -3.1680     0.9410 C.3   1 <1>   0.3430 
 13 N       -5.4560    -4.6560     0.8840 N.4   1 <1>  -0.9590 
 14 C       -6.7330    -5.1860     1.4510 C.3   1 <1>   0.5230 
 15 C       -6.9090    -6.6490     1.0950 C.2   1 <1>  -0.0400 
 16 O       -6.2150    -7.5480     1.7320 O.3   1 <1>  -0.0190 
 17 C       -7.6800    -7.2890     0.2050 C.2   1 <1>  -0.1500 
 18 N       -6.4630    -8.7460     1.3090 N.2   1 <1>  -0.4100 
 19 C       -7.3610    -8.6440     0.3780 C.2   1 <1>   0.2350 
 20 C       -7.9210    -9.7600    -0.3590 C.ar  1 <1>   0.0540 
 21 C       -7.3160   -11.0180    -0.3200 C.ar  1 <1>   0.1600 
 22 C       -9.0700    -9.6440    -1.1320 C.ar  1 <1>  -0.1500 
 23 N       -7.7300   -12.1020    -0.9580 N.ar  1 <1>  -0.6200 
 24 C       -9.5190   -10.7600    -1.8030 C.ar  1 <1>  -0.1500 
 25 C       -8.8230   -11.9500    -1.6860 C.ar  1 <1>   0.1600 
 26 H       -0.7890     1.9080     1.1930 H     1 <1>   0.1500 
 27 H       -1.9860    -0.5950    -2.1310 H     1 <1>   0.1500 
 28 H       -0.7500    -3.2550     0.3020 H     1 <1>   0.0800 
 29 H       -1.5270     1.7770    -1.3890 H     1 <1>   0.1500 
 30 H       -1.0560    -2.8970    -1.9400 H     1 <1>   0.4000 
 31 H       -2.7400    -2.9060     1.7180 H     1 <1>   0.0800 
 32 H       -2.1310    -5.2040     1.2840 H     1 <1>   0.0800 
 33 H       -3.0120    -5.2250    -0.2070 H     1 <1>   0.0800 
 34 H       -4.3170    -2.8880    -0.8670 H     1 <1>   0.0800 
 35 H       -4.1640    -1.5880     0.2680 H     1 <1>   0.0800 
 36 H       -4.1900    -4.9530     2.5610 H     1 <1>   0.0800 
 37 H       -4.2990    -6.3340     1.4940 H     1 <1>   0.0800 
 38 H       -6.3100    -2.7540     0.4980 H     1 <1>   0.0800 
 39 H       -5.3630    -2.8400     1.9670 H     1 <1>   0.0800 
 40 H       -5.4220    -4.9310    -0.1070 H     1 <1>   0.4500 
 41 H       -7.5620    -4.6340     1.0430 H     1 <1>   0.0800 
 42 H       -6.7450    -5.0700     2.5230 H     1 <1>   0.0800 
 43 H       -8.3890    -6.8970    -0.5010 H     1 <1>   0.1500 
 44 H       -6.4280   -11.1330     0.2790 H     1 <1>   0.1500 
 45 H       -9.6080    -8.7180    -1.2110 H     1 <1>   0.1500 
 46 H      -10.4030   -10.7160    -2.4140 H     1 <1>   0.1500 
 47 H       -9.1800   -12.8170    -2.2150 H     1 <1>   0.1500 
@<TRIPOS>BOND
  1   1   2  1   
  2   1   3  1   
  3   2   4  2   
  4   2   5  1   
  5   3   6  2   
  6   3  26  1   
  7   4   6  1   
  8   4  27  1   
  9   5   7  1   
 10   5   8  1   
 11   5  28  1   
 12   6  29  1   
 13   7  30  1   
 14   8   9  1   
 15   8  10  1   
 16   8  31  1   
 17   9  11  1   
 18   9  32  1   
 19   9  33  1   
 20  10  12  1   
 21  10  34  1   
 22  10  35  1   
 23  11  13  1   
 24  11  36  1   
 25  11  37  1   
 26  12  13  1   
 27  12  38  1   
 28  12  39  1   
 29  13  14  1   
 30  13  40  1   
 31  14  15  1   
 32  14  41  1   
 33  14  42  1   
 34  15  16  1   
 35  15  17  2   
 36  16  18  1   
 37  17  19  1   
 38  17  43  1   
 39  18  19  2   
 40  19  20  1   
 41  20  21  ar  
 42  20  22  ar  
 43  21  23  ar  
 44  21  44  1   
 45  22  24  ar  
 46  22  45  1   
 47  23  25  ar  
 48  24  25  ar  
 49  24  46  1   
 50  25  47  1   
@<TRIPOS>SUBSTRUCTURE
  1 ****  13 GROUP 4 **** **** 0

# MOE 2024.06 (io_trps.svl 2023.06)
