@<TRIPOS>MOLECULE
NONAME
52 53 1 0 0 
SMALL
USER_CHARGES


@<TRIPOS>ATOM
  1 O       -0.2660     0.3300    -0.7600 O.2   1 <1>  -0.5700 
  2 C        0.6400    -0.4040    -0.4530 C.2   1 <1>   0.5690 
  3 N        1.7340     0.0540     0.1910 N.am  1 <1>  -0.7300 
  4 C        0.5460    -1.8710    -0.7920 C.3   1 <1>  -0.0990 
  5 C        1.9900     1.4680     0.5020 C.3   1 <1>   0.3200 
  6 C       -0.0070    -2.6840     0.3870 C.3   1 <1>   0.1760 
  7 C        3.4780     1.6670     0.7720 C.2   1 <1>   0.0060 
  8 N        0.0530    -4.1430     0.0700 N.pl3 1 <1>   0.3140 
  9 C       -1.4060    -2.2370     0.8530 C.3   1 <1>  -0.2400 
 10 N        4.3160     0.6970     0.9880 N.2   1 <1>  -0.5650 
 11 N        4.0550     2.8950     0.8100 N.pl3 1 <1>   0.0480 
 12 N        1.0720    -4.8520     0.5810 N.2   1 <1>  -0.7070 
 13 C       -0.7370    -4.9300    -0.7000 C.2   1 <1>  -0.3320 
 14 C        5.4930     1.3190     1.1740 C.2   1 <1>   0.0770 
 15 C        5.3530     2.6570     1.0690 C.2   1 <1>  -0.3020 
 16 C        3.4400     4.2260     0.6130 C.3   1 <1>   0.0960 
 17 C        0.9130    -6.0550     0.1470 C.2   1 <1>   0.1080 
 18 C       -0.2220    -6.2000    -0.6610 C.2   1 <1>  -0.0860 
 19 C       -1.9540    -4.4390    -1.4780 C.3   1 <1>  -0.0600 
 20 C        3.4710     4.6190    -0.8700 C.3   1 <1>  -0.1600 
 21 C        1.8850    -7.1550     0.5180 C.3   1 <1>  -0.0590 
 22 C       -0.6560    -7.4450    -1.2460 C.2   1 <1>   0.5950 
 23 C        2.8160     5.9850    -1.0960 C.3   1 <1>  -0.2400 
 24 O        0.0940    -8.3270    -1.5820 O.2   1 <1>  -0.5700 
 25 C       -2.1330    -7.7160    -1.4330 C.3   1 <1>  -0.1790 
 26 H        2.5550    -0.5300     0.3940 H     1 <1>   0.3700 
 27 H        1.5270    -2.2300    -1.0450 H     1 <1>   0.0800 
 28 H       -0.0840    -1.9780    -1.6540 H     1 <1>   0.0800 
 29 H        1.4230     1.7460     1.3720 H     1 <1>   0.0800 
 30 H        1.6770     2.0750    -0.3290 H     1 <1>   0.0800 
 31 H        0.6600    -2.5350     1.2190 H     1 <1>   0.0800 
 32 H       -2.0860    -2.1500     0.0280 H     1 <1>   0.0800 
 33 H       -1.3410    -1.2720     1.3220 H     1 <1>   0.0800 
 34 H       -1.7960    -2.9330     1.5750 H     1 <1>   0.0800 
 35 H        6.3940     0.7630     1.3760 H     1 <1>   0.1500 
 36 H        6.0920     3.4320     1.1620 H     1 <1>   0.1500 
 37 H        3.9880     4.9460     1.1940 H     1 <1>   0.0800 
 38 H        2.4270     4.2030     0.9720 H     1 <1>   0.0800 
 39 H       -1.7550    -3.4920    -1.9440 H     1 <1>   0.0800 
 40 H       -2.7970    -4.3340    -0.8200 H     1 <1>   0.0800 
 41 H       -2.2120    -5.1240    -2.2620 H     1 <1>   0.0800 
 42 H        2.9490     3.8790    -1.4530 H     1 <1>   0.0800 
 43 H        4.4930     4.6570    -1.2080 H     1 <1>   0.0800 
 44 H        2.5870    -6.7960     1.2490 H     1 <1>   0.0800 
 45 H        2.4240    -7.4700    -0.3570 H     1 <1>   0.0800 
 46 H        1.3550    -7.9940     0.9270 H     1 <1>   0.0800 
 47 H        1.7850     5.9680    -0.7880 H     1 <1>   0.0800 
 48 H        2.8530     6.2400    -2.1410 H     1 <1>   0.0800 
 49 H        3.3320     6.7500    -0.5420 H     1 <1>   0.0800 
 50 H       -2.7130    -7.1140    -0.7600 H     1 <1>   0.0800 
 51 H       -2.3330    -8.7510    -1.2270 H     1 <1>   0.0800 
 52 H       -2.4110    -7.5060    -2.4480 H     1 <1>   0.0800 
@<TRIPOS>BOND
  1   1   2  2   
  2   2   3  am  
  3   2   4  1   
  4   3   5  1   
  5   3  26  1   
  6   4   6  1   
  7   4  27  1   
  8   4  28  1   
  9   5   7  1   
 10   5  29  1   
 11   5  30  1   
 12   6   8  1   
 13   6   9  1   
 14   6  31  1   
 15   7  10  2   
 16   7  11  1   
 17   8  12  1   
 18   8  13  1   
 19   9  32  1   
 20   9  33  1   
 21   9  34  1   
 22  10  14  1   
 23  11  15  1   
 24  11  16  1   
 25  12  17  2   
 26  13  18  2   
 27  13  19  1   
 28  14  15  2   
 29  14  35  1   
 30  15  36  1   
 31  16  20  1   
 32  16  37  1   
 33  16  38  1   
 34  17  18  1   
 35  17  21  1   
 36  18  22  1   
 37  19  39  1   
 38  19  40  1   
 39  19  41  1   
 40  20  23  1   
 41  20  42  1   
 42  20  43  1   
 43  21  44  1   
 44  21  45  1   
 45  21  46  1   
 46  22  24  2   
 47  22  25  1   
 48  23  47  1   
 49  23  48  1   
 50  23  49  1   
 51  25  50  1   
 52  25  51  1   
 53  25  52  1   
@<TRIPOS>SUBSTRUCTURE
  1 ****   4 GROUP 4 **** **** 0

# MOE 2024.06 (io_trps.svl 2023.06)
