@<TRIPOS>MOLECULE
NONAME
45 47 1 0 0 
SMALL
USER_CHARGES


@<TRIPOS>ATOM
  1 F       -2.1230    -0.1740     1.0170 F     1 <1>  -0.3400 
  2 C       -2.8240     0.9140     0.7210 C.3   1 <1>   1.1640 
  3 F       -3.7390     0.5430    -0.1630 F     1 <1>  -0.3400 
  4 F       -3.4820     1.2420     1.8270 F     1 <1>  -0.3400 
  5 C       -1.9490     2.0630     0.1930 C.ar  1 <1>  -0.1440 
  6 C       -0.7570     1.8060    -0.4760 C.ar  1 <1>  -0.1500 
  7 C       -2.3360     3.3870     0.3610 C.ar  1 <1>  -0.1500 
  8 C        0.0250     2.8430    -0.9500 C.ar  1 <1>  -0.1500 
  9 C       -1.5500     4.4200    -0.1150 C.ar  1 <1>  -0.1500 
 10 C       -0.3450     4.1760    -0.7740 C.ar  1 <1>   0.0860 
 11 C        0.4980     5.2580    -1.2520 C.2   1 <1>   0.5440 
 12 O        1.3420     5.0750    -2.1100 O.2   1 <1>  -0.5700 
 13 N        0.4480     6.5090    -0.6890 N.am  1 <1>  -0.6600 
 14 C        0.9830     6.6340     0.7160 C.3   1 <1>   0.2200 
 15 C        0.5270     7.7060    -1.5900 C.3   1 <1>   0.1400 
 16 C        0.4580     7.8840     1.4400 C.3   1 <1>   0.1200 
 17 C        2.5330     6.5760     0.7330 C.3   1 <1>   0.3430 
 18 C        1.5820     8.7590    -1.2000 C.3   1 <1>  -0.0800 
 19 O        1.2740     8.9880     1.1980 O.3   1 <1>  -0.5600 
 20 N        3.1310     6.8100    -0.6260 N.4   1 <1>  -0.9590 
 21 C        1.1180     9.6310    -0.0220 C.3   1 <1>   0.1200 
 22 C        3.0270     8.2450    -1.0270 C.3   1 <1>   0.3430 
 23 C        4.5970     6.4090    -0.5950 C.3   1 <1>   0.2370 
 24 C        5.4400     7.1740     0.4300 C.2   1 <1>   0.9060 
 25 O        5.4780     6.7400     1.5850 O.co2 1 <1>  -0.9000 
 26 O        5.9310     8.2520     0.0840 O.co2 1 <1>  -0.9000 
 27 H       -0.4300     0.7910    -0.6370 H     1 <1>   0.1500 
 28 H       -3.2620     3.6220     0.8630 H     1 <1>   0.1500 
 29 H        0.9420     2.6180    -1.4680 H     1 <1>   0.1500 
 30 H       -1.8810     5.4350     0.0230 H     1 <1>   0.1500 
 31 H        0.6260     5.7910     1.2810 H     1 <1>   0.0800 
 32 H        0.7310     7.3790    -2.5970 H     1 <1>   0.0800 
 33 H       -0.4440     8.1720    -1.6120 H     1 <1>   0.0800 
 34 H        0.4960     7.7130     2.5020 H     1 <1>   0.0800 
 35 H       -0.5590     8.1100     1.1680 H     1 <1>   0.0800 
 36 H        2.8340     5.6040     1.0850 H     1 <1>   0.0800 
 37 H        2.9250     7.2960     1.4370 H     1 <1>   0.0800 
 38 H        1.6220     9.4420    -2.0300 H     1 <1>   0.0800 
 39 H        2.6010     6.2260    -1.3030 H     1 <1>   0.4500 
 40 H        0.0890     9.9290    -0.1280 H     1 <1>   0.0800 
 41 H        1.7210    10.5220     0.0240 H     1 <1>   0.0800 
 42 H        3.5390     8.8580    -0.3000 H     1 <1>   0.0800 
 43 H        3.5460     8.3690    -1.9630 H     1 <1>   0.0800 
 44 H        4.6820     5.3650    -0.3570 H     1 <1>   0.0800 
 45 H        5.0400     6.5740    -1.5590 H     1 <1>   0.0800 
@<TRIPOS>BOND
  1   1   2  1   
  2   2   3  1   
  3   2   4  1   
  4   2   5  1   
  5   5   6  ar  
  6   5   7  ar  
  7   6   8  ar  
  8   6  27  1   
  9   7   9  ar  
 10   7  28  1   
 11   8  10  ar  
 12   8  29  1   
 13   9  10  ar  
 14   9  30  1   
 15  10  11  1   
 16  11  12  2   
 17  11  13  am  
 18  13  14  1   
 19  13  15  1   
 20  14  16  1   
 21  14  17  1   
 22  14  31  1   
 23  15  18  1   
 24  15  32  1   
 25  15  33  1   
 26  16  19  1   
 27  16  34  1   
 28  16  35  1   
 29  17  20  1   
 30  17  36  1   
 31  17  37  1   
 32  18  21  1   
 33  18  22  1   
 34  18  38  1   
 35  19  21  1   
 36  20  22  1   
 37  20  23  1   
 38  20  39  1   
 39  21  40  1   
 40  21  41  1   
 41  22  42  1   
 42  22  43  1   
 43  23  24  1   
 44  23  44  1   
 45  23  45  1   
 46  24  25  ar  
 47  24  26  ar  
@<TRIPOS>SUBSTRUCTURE
  1 ****  11 GROUP 4 **** **** 0

# MOE 2024.06 (io_trps.svl 2023.06)
