@<TRIPOS>MOLECULE
NONAME
45 47 1 0 0 
SMALL
USER_CHARGES


@<TRIPOS>ATOM
  1 O       -0.8250    -0.0370    -1.3540 O.2   1 <1>  -0.5700 
  2 C       -1.2950     1.0730    -1.3220 C.2   1 <1>   0.5690 
  3 N       -2.6020     1.3800    -1.4490 N.am  1 <1>  -0.6600 
  4 C       -0.4780     2.3120    -1.0880 C.3   1 <1>  -0.0990 
  5 C       -2.8600     2.8230    -1.2960 C.3   1 <1>   0.1400 
  6 C       -3.6980     0.3990    -1.6040 C.3   1 <1>   0.2840 
  7 C       -1.5460     3.3520    -0.7000 C.3   1 <1>  -0.0190 
  8 C       -4.5940     0.4530    -0.3800 C.ar  1 <1>  -0.1440 
  9 C       -1.2100     4.7630    -1.1520 C.2   1 <1>   0.5690 
 10 C       -4.0880     0.0860     0.8590 C.ar  1 <1>   0.1600 
 11 C       -5.9060     0.8740    -0.4660 C.ar  1 <1>  -0.1500 
 12 O       -1.3110     5.0340    -2.3250 O.2   1 <1>  -0.5700 
 13 N       -0.8040     5.6590    -0.2090 N.am  1 <1>  -0.4930 
 14 N       -4.7690     0.1120     1.9940 N.ar  1 <1>  -0.6200 
 15 C       -6.6320     0.9010     0.7060 C.ar  1 <1>  -0.1500 
 16 C       -0.4300     7.0170    -0.3700 C.2   1 <1>   0.0630 
 17 C       -6.0240     0.5160     1.8900 C.ar  1 <1>   0.1600 
 18 C       -0.0690     7.8710     0.6130 C.2   1 <1>  -0.3320 
 19 C       -0.3470     7.7700    -1.5420 C.2   1 <1>   0.1390 
 20 N        0.2090     9.0580     0.0120 N.pl3 1 <1>   0.3140 
 21 C        0.0330     7.6340     2.1140 C.3   1 <1>  -0.0600 
 22 N        0.0330     8.9910    -1.3190 N.2   1 <1>  -0.7070 
 23 C        0.6500    10.3180     0.6510 C.3   1 <1>   0.0960 
 24 C        2.1770    10.3680     0.7860 C.3   1 <1>  -0.2400 
 25 H        0.0150     2.5760    -2.0070 H     1 <1>   0.0800 
 26 H        0.2450     2.1580    -0.3090 H     1 <1>   0.0800 
 27 H       -3.6900     3.0080    -0.6350 H     1 <1>   0.0800 
 28 H       -3.0610     3.2500    -2.2650 H     1 <1>   0.0800 
 29 H       -3.2880    -0.5920    -1.7090 H     1 <1>   0.0800 
 30 H       -4.2570     0.6280    -2.4940 H     1 <1>   0.0800 
 31 H       -1.6580     3.3390     0.3690 H     1 <1>   0.0800 
 32 H       -3.0630    -0.2440     0.9170 H     1 <1>   0.1500 
 33 H       -6.3500     1.1690    -1.4010 H     1 <1>   0.1500 
 34 H       -0.7430     5.3300     0.7510 H     1 <1>   0.3700 
 35 H       -7.6590     1.2160     0.7070 H     1 <1>   0.1500 
 36 H       -6.6020     0.5420     2.7980 H     1 <1>   0.1500 
 37 H       -0.5710     7.3910    -2.5240 H     1 <1>   0.1500 
 38 H       -0.2340     6.6230     2.3620 H     1 <1>   0.0800 
 39 H       -0.6330     8.2960     2.6390 H     1 <1>   0.0800 
 40 H        1.0390     7.8110     2.4510 H     1 <1>   0.0800 
 41 H        0.1830    10.4020     1.6150 H     1 <1>   0.0800 
 42 H        0.3120    11.1350     0.0390 H     1 <1>   0.0800 
 43 H        2.5300     9.5600     1.4010 H     1 <1>   0.0800 
 44 H        2.4740    11.2990     1.2350 H     1 <1>   0.0800 
 45 H        2.6310    10.2970    -0.1870 H     1 <1>   0.0800 
@<TRIPOS>BOND
  1   1   2  2   
  2   2   3  am  
  3   2   4  1   
  4   3   5  1   
  5   3   6  1   
  6   4   7  1   
  7   4  25  1   
  8   4  26  1   
  9   5   7  1   
 10   5  27  1   
 11   5  28  1   
 12   6   8  1   
 13   6  29  1   
 14   6  30  1   
 15   7   9  1   
 16   7  31  1   
 17   8  10  ar  
 18   8  11  ar  
 19   9  12  2   
 20   9  13  am  
 21  10  14  ar  
 22  10  32  1   
 23  11  15  ar  
 24  11  33  1   
 25  13  16  1   
 26  13  34  1   
 27  14  17  ar  
 28  15  17  ar  
 29  15  35  1   
 30  16  18  2   
 31  16  19  1   
 32  17  36  1   
 33  18  20  1   
 34  18  21  1   
 35  19  22  2   
 36  19  37  1   
 37  20  22  1   
 38  20  23  1   
 39  21  38  1   
 40  21  39  1   
 41  21  40  1   
 42  23  24  1   
 43  23  41  1   
 44  23  42  1   
 45  24  43  1   
 46  24  44  1   
 47  24  45  1   
@<TRIPOS>SUBSTRUCTURE
  1 ****   7 GROUP 4 **** **** 0

# MOE 2024.06 (io_trps.svl 2023.06)
