@<TRIPOS>MOLECULE
NONAME
46 47 1 0 0 
SMALL
USER_CHARGES


@<TRIPOS>ATOM
  1 O        1.8500    -0.9010     1.1590 O.2   1 <1>  -0.5700 
  2 C        1.5510    -0.8010    -0.0080 C.2   1 <1>   0.5690 
  3 N        1.6730     0.3590    -0.7200 N.am  1 <1>  -0.5470 
  4 C        0.9660    -2.0590    -0.7020 C.3   1 <1>   0.4840 
  5 C        2.0880     1.6240    -0.3720 C.ar  1 <1>   0.4270 
  6 N        0.1990    -2.9490     0.2620 N.4   1 <1>  -0.9590 
  7 C        2.1030    -2.8520    -1.3590 C.3   1 <1>  -0.2400 
  8 N        1.8470     2.4920    -1.3400 N.ar  1 <1>  -0.6200 
  9 C        2.6940     1.9650     0.8370 C.ar  1 <1>  -0.1500 
 10 C       -0.2610    -4.2530    -0.3270 C.3   1 <1>   0.3430 
 11 C       -0.9320    -2.1890     0.8950 C.3   1 <1>   0.2630 
 12 C        2.2120     3.7420    -1.1010 C.ar  1 <1>   0.1600 
 13 C        3.0670     3.2680     1.0720 C.ar  1 <1>  -0.1500 
 14 C       -0.7980    -5.2260     0.7230 C.3   1 <1>   0.0210 
 15 C        2.8140     4.1770     0.0660 C.ar  1 <1>  -0.1500 
 16 C       -1.0600    -6.5470     0.0320 C.2   1 <1>  -0.1810 
 17 C       -0.1290    -7.5600    -0.1950 C.2   1 <1>   0.1080 
 18 C       -2.2100    -7.0030    -0.5120 C.2   1 <1>  -0.3320 
 19 N       -0.6440    -8.5570    -0.8370 N.2   1 <1>  -0.7070 
 20 C        1.3230    -7.5670     0.2310 C.3   1 <1>  -0.0590 
 21 N       -1.9310    -8.2220    -1.0250 N.pl3 1 <1>   0.3000 
 22 C       -3.5970    -6.3870    -0.5970 C.3   1 <1>  -0.0600 
 23 H        1.3800     0.3780    -1.6960 H     1 <1>   0.3700 
 24 H        0.2940    -1.7230    -1.4730 H     1 <1>   0.0800 
 25 H        0.8800    -3.1400     1.0170 H     1 <1>   0.4500 
 26 H        2.7320    -3.3070    -0.6140 H     1 <1>   0.0800 
 27 H        2.7160    -2.1850    -1.9410 H     1 <1>   0.0800 
 28 H        1.7300    -3.6000    -2.0340 H     1 <1>   0.0800 
 29 H        2.8780     1.2240     1.5900 H     1 <1>   0.1500 
 30 H        0.5620    -4.7420    -0.8200 H     1 <1>   0.0800 
 31 H       -1.0260    -4.0780    -1.0660 H     1 <1>   0.0800 
 32 H       -1.6690    -1.9220     0.1550 H     1 <1>   0.0800 
 33 H       -0.5670    -1.2880     1.3630 H     1 <1>   0.0800 
 34 H       -1.4080    -2.7860     1.6560 H     1 <1>   0.0800 
 35 H        2.0210     4.4620    -1.8790 H     1 <1>   0.1500 
 36 H        3.5350     3.5650     1.9950 H     1 <1>   0.1500 
 37 H       -1.7140    -4.8660     1.1520 H     1 <1>   0.0800 
 38 H       -0.0790    -5.3730     1.5090 H     1 <1>   0.0800 
 39 H        3.0800     5.2120     0.1860 H     1 <1>   0.1500 
 40 H        1.8570    -6.7720    -0.2520 H     1 <1>   0.0800 
 41 H        1.7750    -8.5020    -0.0460 H     1 <1>   0.0800 
 42 H        1.3930    -7.4590     1.2970 H     1 <1>   0.0800 
 43 H       -2.5900    -8.8480    -1.5040 H     1 <1>   0.2700 
 44 H       -3.6190    -5.4150    -0.1400 H     1 <1>   0.0800 
 45 H       -4.3090    -7.0150    -0.0900 H     1 <1>   0.0800 
 46 H       -3.8970    -6.2880    -1.6250 H     1 <1>   0.0800 
@<TRIPOS>BOND
  1   1   2  2   
  2   2   3  am  
  3   2   4  1   
  4   3   5  1   
  5   3  23  1   
  6   4   6  1   
  7   4   7  1   
  8   4  24  1   
  9   5   8  ar  
 10   5   9  ar  
 11   6  10  1   
 12   6  11  1   
 13   6  25  1   
 14   7  26  1   
 15   7  27  1   
 16   7  28  1   
 17   8  12  ar  
 18   9  13  ar  
 19   9  29  1   
 20  10  14  1   
 21  10  30  1   
 22  10  31  1   
 23  11  32  1   
 24  11  33  1   
 25  11  34  1   
 26  12  15  ar  
 27  12  35  1   
 28  13  15  ar  
 29  13  36  1   
 30  14  16  1   
 31  14  37  1   
 32  14  38  1   
 33  15  39  1   
 34  16  17  1   
 35  16  18  2   
 36  17  19  2   
 37  17  20  1   
 38  18  21  1   
 39  18  22  1   
 40  19  21  1   
 41  20  40  1   
 42  20  41  1   
 43  20  42  1   
 44  21  43  1   
 45  22  44  1   
 46  22  45  1   
 47  22  46  1   
@<TRIPOS>SUBSTRUCTURE
  1 ****   6 GROUP 4 **** **** 0

# MOE 2024.06 (io_trps.svl 2023.06)
