@<TRIPOS>MOLECULE
NONAME
50 51 1 0 0 
SMALL
USER_CHARGES


@<TRIPOS>ATOM
  1 F        0.8240     0.6560     1.8350 F     1 <1>  -0.1900 
  2 C        1.8590     1.3870     1.5120 C.ar  1 <1>   0.1900 
  3 C        3.1250     0.9110     1.7960 C.ar  1 <1>  -0.1500 
  4 C        1.6470     2.6070     0.8990 C.ar  1 <1>  -0.1500 
  5 C        4.2150     1.6920     1.4510 C.ar  1 <1>  -0.1500 
  6 C        2.7440     3.3810     0.5570 C.ar  1 <1>  -0.1500 
  7 C        4.0340     2.9230     0.8340 C.ar  1 <1>   0.0830 
  8 O        5.1590     3.6190     0.5320 O.3   1 <1>  -0.3630 
  9 C        5.1020     4.8770    -0.0880 C.3   1 <1>   0.1200 
 10 C        6.5440     5.3480    -0.2750 C.3   1 <1>  -0.1600 
 11 C        6.5880     6.7300    -0.9240 C.3   1 <1>   0.3430 
 12 N        8.0030     7.2060    -1.0280 N.4   1 <1>  -0.9590 
 13 C        8.0610     8.6900    -1.2440 C.3   1 <1>   0.3430 
 14 C        8.7290     6.4670    -2.1180 C.3   1 <1>   0.2630 
 15 C        9.1410     9.3840    -0.3720 C.3   1 <1>   0.0000 
 16 C        9.0960    10.9040    -0.5820 C.3   1 <1>   0.3430 
 17 C        8.8560     9.2620     1.1350 C.3   1 <1>  -0.1600 
 18 C       10.5620     8.8600    -0.6870 C.3   1 <1>  -0.2400 
 19 N        9.6670    11.4870     0.6630 N.4   1 <1>  -0.9590 
 20 C        9.3610    10.5530     1.7850 C.3   1 <1>   0.3430 
 21 C        9.2050    12.8870     0.9300 C.3   1 <1>   0.2630 
 22 H        3.2490    -0.0440     2.2740 H     1 <1>   0.1500 
 23 H        0.6440     2.9380     0.6970 H     1 <1>   0.1500 
 24 H        5.2130     1.3490     1.6590 H     1 <1>   0.1500 
 25 H        2.5700     4.3270     0.0820 H     1 <1>   0.1500 
 26 H        4.5490     5.5420     0.5540 H     1 <1>   0.0800 
 27 H        4.6000     4.7630    -1.0350 H     1 <1>   0.0800 
 28 H        7.0480     4.6270    -0.8930 H     1 <1>   0.0800 
 29 H        7.0140     5.3840     0.6910 H     1 <1>   0.0800 
 30 H        6.0190     7.4130    -0.3130 H     1 <1>   0.0800 
 31 H        6.1340     6.6940    -1.9020 H     1 <1>   0.0800 
 32 H        8.4640     6.9840    -0.1330 H     1 <1>   0.4500 
 33 H        7.1030     9.1200    -1.0010 H     1 <1>   0.0800 
 34 H        8.2500     8.8940    -2.2860 H     1 <1>   0.0800 
 35 H        8.2400     6.6200    -3.0670 H     1 <1>   0.0800 
 36 H        8.7470     5.4090    -1.9110 H     1 <1>   0.0800 
 37 H        9.7470     6.8100    -2.1990 H     1 <1>   0.0800 
 38 H        8.0730    11.2270    -0.6910 H     1 <1>   0.0800 
 39 H        9.6580    11.2070    -1.4520 H     1 <1>   0.0800 
 40 H        9.3270     8.4040     1.5840 H     1 <1>   0.0800 
 41 H        7.7980     9.1950     1.3210 H     1 <1>   0.0800 
 42 H       10.7870     8.9720    -1.7350 H     1 <1>   0.0800 
 43 H       10.6630     7.8200    -0.4310 H     1 <1>   0.0800 
 44 H       11.3130     9.3960    -0.1330 H     1 <1>   0.0800 
 45 H       10.6940    11.5090     0.5590 H     1 <1>   0.4500 
 46 H       10.2510    10.3660     2.3650 H     1 <1>   0.0800 
 47 H        8.6020    10.9630     2.4340 H     1 <1>   0.0800 
 48 H        8.1350    12.9150     1.0570 H     1 <1>   0.0800 
 49 H        9.4720    13.5330     0.1080 H     1 <1>   0.0800 
 50 H        9.6680    13.2690     1.8260 H     1 <1>   0.0800 
@<TRIPOS>BOND
  1   1   2  1   
  2   2   3  ar  
  3   2   4  ar  
  4   3   5  ar  
  5   3  22  1   
  6   4   6  ar  
  7   4  23  1   
  8   5   7  ar  
  9   5  24  1   
 10   6   7  ar  
 11   6  25  1   
 12   7   8  1   
 13   8   9  1   
 14   9  10  1   
 15   9  26  1   
 16   9  27  1   
 17  10  11  1   
 18  10  28  1   
 19  10  29  1   
 20  11  12  1   
 21  11  30  1   
 22  11  31  1   
 23  12  13  1   
 24  12  14  1   
 25  12  32  1   
 26  13  15  1   
 27  13  33  1   
 28  13  34  1   
 29  14  35  1   
 30  14  36  1   
 31  14  37  1   
 32  15  16  1   
 33  15  17  1   
 34  15  18  1   
 35  16  19  1   
 36  16  38  1   
 37  16  39  1   
 38  17  20  1   
 39  17  40  1   
 40  17  41  1   
 41  18  42  1   
 42  18  43  1   
 43  18  44  1   
 44  19  20  1   
 45  19  21  1   
 46  19  45  1   
 47  20  46  1   
 48  20  47  1   
 49  21  48  1   
 50  21  49  1   
 51  21  50  1   
@<TRIPOS>SUBSTRUCTURE
  1 ****  10 GROUP 4 **** **** 0

# MOE 2024.06 (io_trps.svl 2023.06)
