@<TRIPOS>MOLECULE
NONAME
54 56 1 0 0 
SMALL
USER_CHARGES


@<TRIPOS>ATOM
  1 S        0.0160    -0.3270     1.8310 S.o2  1 <1>   1.4470 
  2 O        0.7970    -1.4570     2.2890 O.2   1 <1>  -0.6500 
  3 O       -0.8240     0.3770     2.7730 O.2   1 <1>  -0.6500 
  4 N       -1.0050    -0.9420     0.6240 N.am  1 <1>  -0.8490 
  5 C        1.0930     0.8300     0.9380 C.ar  1 <1>  -0.0090 
  6 C       -1.8000    -2.0730     1.1350 C.3   1 <1>   0.1960 
  7 C       -1.8950     0.0810     0.0550 C.3   1 <1>   0.1960 
  8 C        2.0500     0.3690     0.0430 C.ar  1 <1>  -0.1500 
  9 C        0.9780     2.2050     1.1110 C.ar  1 <1>  -0.1500 
 10 C       -2.5670    -2.7580    -0.0250 C.3   1 <1>   0.4230 
 11 C       -2.6660    -0.5220    -1.1290 C.3   1 <1>  -0.1600 
 12 C        2.8630     1.2440    -0.6560 C.ar  1 <1>  -0.1500 
 13 C        1.7890     3.0860     0.4160 C.ar  1 <1>  -0.1500 
 14 N       -3.3170    -4.0060     0.3540 N.4   1 <1>  -0.9590 
 15 C       -3.5170    -1.7460    -0.6940 C.3   1 <1>  -0.1060 
 16 C        2.7360     2.6110    -0.4740 C.ar  1 <1>  -0.1430 
 17 C       -3.9060    -4.6810    -0.8310 C.3   1 <1>   0.3430 
 18 C       -2.5980    -4.9460     1.2540 C.3   1 <1>   0.2630 
 19 C       -4.5940    -1.3200     0.3210 C.2   1 <1>   0.9060 
 20 C       -4.1620    -2.3950    -1.9400 C.3   1 <1>  -0.1600 
 21 C        3.6290     3.5760    -1.2390 C.3   1 <1>  -0.0170 
 22 C       -4.8390    -3.7290    -1.5860 C.3   1 <1>  -0.1600 
 23 O       -4.9460    -2.1260     1.1970 O.co2 1 <1>  -0.9000 
 24 O       -5.0800    -0.1930     0.2460 O.co2 1 <1>  -0.9000 
 25 C        4.9080     3.8690    -0.4460 C.3   1 <1>  -0.1600 
 26 C        5.8260     4.8420    -1.1950 C.3   1 <1>  -0.2400 
 27 H       -1.1300    -2.7880     1.5760 H     1 <1>   0.0800 
 28 H       -2.4820    -1.7280     1.8960 H     1 <1>   0.0800 
 29 H       -2.5810     0.4460     0.8050 H     1 <1>   0.0800 
 30 H       -1.3170     0.9180    -0.2990 H     1 <1>   0.0800 
 31 H        2.1600    -0.6920    -0.1070 H     1 <1>   0.1500 
 32 H        0.2450     2.5920     1.7990 H     1 <1>   0.1500 
 33 H       -1.8230    -3.0350    -0.7510 H     1 <1>   0.0800 
 34 H       -3.3100     0.2370    -1.5410 H     1 <1>   0.0800 
 35 H       -1.9620    -0.7970    -1.8940 H     1 <1>   0.0800 
 36 H        3.5980     0.8560    -1.3400 H     1 <1>   0.1500 
 37 H        1.6800     4.1460     0.5720 H     1 <1>   0.1500 
 38 H       -4.1310    -3.5870     0.8840 H     1 <1>   0.4500 
 39 H       -3.1170    -5.0070    -1.4890 H     1 <1>   0.0800 
 40 H       -4.4670    -5.5460    -0.5170 H     1 <1>   0.0800 
 41 H       -1.7040    -5.3120     0.7780 H     1 <1>   0.0800 
 42 H       -3.2330    -5.7820     1.4980 H     1 <1>   0.0800 
 43 H       -2.3290    -4.4500     2.1720 H     1 <1>   0.0800 
 44 H       -4.8940    -1.7200    -2.3540 H     1 <1>   0.0800 
 45 H       -3.4120    -2.5680    -2.6930 H     1 <1>   0.0800 
 46 H        3.8830     3.1520    -2.1950 H     1 <1>   0.0800 
 47 H        3.0960     4.4930    -1.4200 H     1 <1>   0.0800 
 48 H       -5.1790    -4.2070    -2.4870 H     1 <1>   0.0800 
 49 H       -5.7100    -3.5430    -0.9800 H     1 <1>   0.0800 
 50 H        4.6460     4.2900     0.5100 H     1 <1>   0.0800 
 51 H        5.4350     2.9470    -0.2670 H     1 <1>   0.0800 
 52 H        5.3260     5.7800    -1.3640 H     1 <1>   0.0800 
 53 H        6.1190     4.4290    -2.1450 H     1 <1>   0.0800 
 54 H        6.7130     5.0290    -0.6170 H     1 <1>   0.0800 
@<TRIPOS>BOND
  1   1   2  2   
  2   1   3  2   
  3   1   4  am  
  4   1   5  1   
  5   4   6  1   
  6   4   7  1   
  7   5   8  ar  
  8   5   9  ar  
  9   6  10  1   
 10   6  27  1   
 11   6  28  1   
 12   7  11  1   
 13   7  29  1   
 14   7  30  1   
 15   8  12  ar  
 16   8  31  1   
 17   9  13  ar  
 18   9  32  1   
 19  10  14  1   
 20  10  15  1   
 21  10  33  1   
 22  11  15  1   
 23  11  34  1   
 24  11  35  1   
 25  12  16  ar  
 26  12  36  1   
 27  13  16  ar  
 28  13  37  1   
 29  14  17  1   
 30  14  18  1   
 31  14  38  1   
 32  15  19  1   
 33  15  20  1   
 34  16  21  1   
 35  17  22  1   
 36  17  39  1   
 37  17  40  1   
 38  18  41  1   
 39  18  42  1   
 40  18  43  1   
 41  19  23  ar  
 42  19  24  ar  
 43  20  22  1   
 44  20  44  1   
 45  20  45  1   
 46  21  25  1   
 47  21  46  1   
 48  21  47  1   
 49  22  48  1   
 50  22  49  1   
 51  25  26  1   
 52  25  50  1   
 53  25  51  1   
 54  26  52  1   
 55  26  53  1   
 56  26  54  1   
@<TRIPOS>SUBSTRUCTURE
  1 ****   4 GROUP 4 **** **** 0

# MOE 2024.06 (io_trps.svl 2023.06)
