@<TRIPOS>MOLECULE
NONAME
43 44 1 0 0 
SMALL
USER_CHARGES


@<TRIPOS>ATOM
  1 S        0.4650     0.1460     0.4410 S.o2  1 <1>   1.3330 
  2 O        1.6570     0.3550     1.2330 O.2   1 <1>  -0.6500 
  3 O       -0.6470    -0.5770     1.0170 O.2   1 <1>  -0.6500 
  4 N        0.9330    -0.6620    -0.9780 N.am  1 <1>  -0.8490 
  5 C       -0.1640     1.7070    -0.1810 C.3   1 <1>  -0.0550 
  6 C        2.2480    -0.2410    -1.4750 C.3   1 <1>   0.1160 
  7 C        0.9060    -2.1190    -0.8170 C.3   1 <1>   0.1160 
  8 C       -0.6580     2.6630     0.9240 C.3   1 <1>  -0.0800 
  9 C       -1.4310     3.8330     0.3180 C.3   1 <1>   0.2000 
 10 C        0.5100     3.3710     1.6130 C.3   1 <1>   0.1100 
 11 O       -2.2890     4.3310     1.2860 O.3   1 <1>  -0.6800 
 12 C       -0.3620     4.8890     0.0100 C.3   1 <1>   0.1100 
 13 N        0.8700     4.4540     0.6980 N.3   1 <1>  -0.8100 
 14 C        1.6280     5.5530     1.3500 C.3   1 <1>   0.2910 
 15 C        2.0920     6.6550     0.3920 C.2   1 <1>   0.3350 
 16 N        3.2410     6.7060    -0.1600 N.2   1 <1>  -0.4100 
 17 N        1.3130     7.6870     0.0790 N.2   1 <1>  -0.5650 
 18 O        3.2720     7.7830    -0.8840 O.3   1 <1>  -0.0190 
 19 C        2.0940     8.3250    -0.6970 C.2   1 <1>   0.2980 
 20 C        1.7660     9.6280    -1.4040 C.3   1 <1>   0.0200 
 21 C        2.6240    10.7920    -0.8900 C.3   1 <1>  -0.2400 
 22 H        0.5940     2.1970    -0.7600 H     1 <1>   0.0800 
 23 H       -0.9830     1.4890    -0.8380 H     1 <1>   0.0800 
 24 H        2.4560    -0.7160    -2.4190 H     1 <1>   0.0800 
 25 H        3.0200    -0.5050    -0.7720 H     1 <1>   0.0800 
 26 H        2.2670     0.8260    -1.6220 H     1 <1>   0.0800 
 27 H        1.1940    -2.6020    -1.7350 H     1 <1>   0.0800 
 28 H       -0.0900    -2.4440    -0.5650 H     1 <1>   0.0800 
 29 H        1.5770    -2.4220    -0.0300 H     1 <1>   0.0800 
 30 H       -1.2650     2.1130     1.6230 H     1 <1>   0.0800 
 31 H       -2.0200     3.5690    -0.5430 H     1 <1>   0.0800 
 32 H        1.3530     2.7250     1.7900 H     1 <1>   0.0800 
 33 H        0.1790     3.7760     2.5540 H     1 <1>   0.0800 
 34 H       -1.7680     4.6760     2.0360 H     1 <1>   0.4000 
 35 H       -0.6850     5.8650     0.3330 H     1 <1>   0.0800 
 36 H       -0.1670     4.9210    -1.0480 H     1 <1>   0.0800 
 37 H        1.0260     6.0020     2.1190 H     1 <1>   0.0800 
 38 H        2.5030     5.1340     1.8160 H     1 <1>   0.0800 
 39 H        1.9230     9.4970    -2.4600 H     1 <1>   0.0800 
 40 H        0.7270     9.8540    -1.2480 H     1 <1>   0.0800 
 41 H        3.6670    10.5940    -1.0630 H     1 <1>   0.0800 
 42 H        2.4680    10.9260     0.1660 H     1 <1>   0.0800 
 43 H        2.3560    11.7010    -1.3980 H     1 <1>   0.0800 
@<TRIPOS>BOND
  1   1   2  2   
  2   1   3  2   
  3   1   4  am  
  4   1   5  1   
  5   4   6  1   
  6   4   7  1   
  7   5   8  1   
  8   5  22  1   
  9   5  23  1   
 10   6  24  1   
 11   6  25  1   
 12   6  26  1   
 13   7  27  1   
 14   7  28  1   
 15   7  29  1   
 16   8   9  1   
 17   8  10  1   
 18   8  30  1   
 19   9  11  1   
 20   9  12  1   
 21   9  31  1   
 22  10  13  1   
 23  10  32  1   
 24  10  33  1   
 25  11  34  1   
 26  12  13  1   
 27  12  35  1   
 28  12  36  1   
 29  13  14  1   
 30  14  15  1   
 31  14  37  1   
 32  14  38  1   
 33  15  16  2   
 34  15  17  1   
 35  16  18  1   
 36  17  19  2   
 37  18  19  1   
 38  19  20  1   
 39  20  21  1   
 40  20  39  1   
 41  20  40  1   
 42  21  41  1   
 43  21  42  1   
 44  21  43  1   
@<TRIPOS>SUBSTRUCTURE
  1 ****  13 GROUP 4 **** **** 0

# MOE 2024.06 (io_trps.svl 2023.06)
