@<TRIPOS>MOLECULE
NONAME
41 43 1 0 0 
SMALL
USER_CHARGES


@<TRIPOS>ATOM
  1 CL       1.2980     0.8580    -1.8360 Cl    1 <1>  -0.1770 
  2 C        0.7840     2.0630    -0.6770 C.ar  1 <1>   0.1770 
  3 C        1.6570     2.5760     0.2780 C.ar  1 <1>  -0.1440 
  4 C       -0.5310     2.4850    -0.7550 C.ar  1 <1>  -0.1500 
  5 C        1.1700     3.5340     1.1600 C.ar  1 <1>  -0.1500 
  6 C        3.1160     2.1440     0.3980 C.3   1 <1>   0.3640 
  7 C       -0.9990     3.4380     0.1320 C.ar  1 <1>  -0.1500 
  8 C       -0.1460     3.9610     1.0880 C.ar  1 <1>  -0.1500 
  9 N        3.1840     0.6910     0.6810 N.am  1 <1>  -0.7300 
 10 C        3.9690     2.5570    -0.8300 C.3   1 <1>   0.2610 
 11 C        4.0100    -0.1570     0.0290 C.2   1 <1>   0.5690 
 12 O        5.1530     1.7770    -0.9420 O.3   1 <1>  -0.5600 
 13 C        4.2630     4.0620    -0.7600 C.2   1 <1>   0.5690 
 14 O        4.0360    -1.3280     0.3100 O.2   1 <1>  -0.5700 
 15 C        4.9110     0.3920    -1.0820 C.3   1 <1>   0.1810 
 16 O        3.6190     4.7690    -1.4990 O.2   1 <1>  -0.5700 
 17 N        5.2010     4.6160     0.0930 N.am  1 <1>  -0.6600 
 18 C        5.4670     6.0860     0.0630 C.3   1 <1>   0.1400 
 19 C        6.1610     3.8460     0.9390 C.3   1 <1>   0.1400 
 20 C        6.7490     6.3380    -0.7220 C.3   1 <1>  -0.0550 
 21 C        7.5190     3.8350     0.2490 C.3   1 <1>  -0.0550 
 22 S        8.1210     5.5030     0.0530 S.o2  1 <1>   1.0900 
 23 O        8.2840     6.0620     1.3760 O.2   1 <1>  -0.6500 
 24 O        9.2360     5.4890    -0.8630 O.2   1 <1>  -0.6500 
 25 H       -1.1800     2.0700    -1.5050 H     1 <1>   0.1500 
 26 H        1.8080     3.9630     1.9140 H     1 <1>   0.1500 
 27 H        3.5330     2.6400     1.2560 H     1 <1>   0.0800 
 28 H       -2.0210     3.7730     0.0770 H     1 <1>   0.1500 
 29 H       -0.5090     4.7040     1.7770 H     1 <1>   0.1500 
 30 H        2.5340     0.3050     1.3680 H     1 <1>   0.3700 
 31 H        3.4070     2.3930    -1.7300 H     1 <1>   0.0800 
 32 H        4.4490     0.2190    -2.0370 H     1 <1>   0.0800 
 33 H        5.8590    -0.1130    -1.0560 H     1 <1>   0.0800 
 34 H        4.6500     6.6140    -0.4000 H     1 <1>   0.0800 
 35 H        5.5680     6.4570     1.0700 H     1 <1>   0.0800 
 36 H        6.2460     4.3180     1.9040 H     1 <1>   0.0800 
 37 H        5.8260     2.8390     1.1020 H     1 <1>   0.0800 
 38 H        6.9420     7.3920    -0.7590 H     1 <1>   0.0800 
 39 H        6.6160     5.9890    -1.7280 H     1 <1>   0.0800 
 40 H        7.4250     3.3540    -0.7060 H     1 <1>   0.0800 
 41 H        8.2140     3.2680     0.8380 H     1 <1>   0.0800 
@<TRIPOS>BOND
  1   1   2  1   
  2   2   3  ar  
  3   2   4  ar  
  4   3   5  ar  
  5   3   6  1   
  6   4   7  ar  
  7   4  25  1   
  8   5   8  ar  
  9   5  26  1   
 10   6   9  1   
 11   6  10  1   
 12   6  27  1   
 13   7   8  ar  
 14   7  28  1   
 15   8  29  1   
 16   9  11  am  
 17   9  30  1   
 18  10  12  1   
 19  10  13  1   
 20  10  31  1   
 21  11  14  2   
 22  11  15  1   
 23  12  15  1   
 24  13  16  2   
 25  13  17  am  
 26  15  32  1   
 27  15  33  1   
 28  17  18  1   
 29  17  19  1   
 30  18  20  1   
 31  18  34  1   
 32  18  35  1   
 33  19  21  1   
 34  19  36  1   
 35  19  37  1   
 36  20  22  1   
 37  20  38  1   
 38  20  39  1   
 39  21  22  1   
 40  21  40  1   
 41  21  41  1   
 42  22  23  2   
 43  22  24  2   
@<TRIPOS>SUBSTRUCTURE
  1 ****  10 GROUP 4 **** **** 0

# MOE 2024.06 (io_trps.svl 2023.06)
