@<TRIPOS>MOLECULE
NONAME
39 40 1 0 0 
SMALL
USER_CHARGES


@<TRIPOS>ATOM
  1 O        1.9910    -0.8900     1.8970 O.2   1 <1>  -0.5700 
  2 C        1.8340    -0.7710     0.7070 C.2   1 <1>   0.5690 
  3 N        1.9630     0.4180     0.0680 N.am  1 <1>  -0.7300 
  4 C        1.4730    -1.9980    -0.0950 C.3   1 <1>  -0.0990 
  5 C        2.3340     1.6910     0.7210 C.3   1 <1>   0.1400 
  6 C        0.3120    -2.7440     0.5740 C.3   1 <1>   0.0960 
  7 C        3.4680     2.3430    -0.0680 C.3   1 <1>  -0.1600 
  8 N       -0.0410    -3.9510    -0.1930 N.pl3 1 <1>   0.3140 
  9 C        3.9270     3.6470     0.5920 C.3   1 <1>   0.0210 
 10 N       -0.6320    -3.9170    -1.3660 N.2   1 <1>  -0.4180 
 11 C        0.1640    -5.2180     0.1110 C.2   1 <1>   0.0360 
 12 C        5.0410     4.2810    -0.2230 C.2   1 <1>  -0.1810 
 13 N       -0.7710    -5.1400    -1.7370 N.2   1 <1>   0.0000 
 14 N       -0.2760    -5.9690    -0.8230 N.2   1 <1>  -0.3380 
 15 C        4.9000     5.2210    -1.2440 C.2   1 <1>   0.1080 
 16 C        6.3730     4.0700    -0.1330 C.2   1 <1>  -0.3320 
 17 N        6.0380     5.5720    -1.7500 N.2   1 <1>  -0.7070 
 18 C        3.5950     5.8010    -1.7410 C.3   1 <1>  -0.0590 
 19 N        6.9490     4.8610    -1.0620 N.pl3 1 <1>   0.3000 
 20 C        7.1660     3.1530     0.7820 C.3   1 <1>  -0.0600 
 21 H        1.8250     0.4710    -0.9430 H     1 <1>   0.3700 
 22 H        2.3380    -2.6330    -0.1420 H     1 <1>   0.0800 
 23 H        1.1950    -1.7100    -1.0930 H     1 <1>   0.0800 
 24 H        2.6500     1.5050     1.7340 H     1 <1>   0.0800 
 25 H        1.4750     2.3400     0.7460 H     1 <1>   0.0800 
 26 H       -0.5540    -2.1090     0.6240 H     1 <1>   0.0800 
 27 H        0.5820    -3.0340     1.5740 H     1 <1>   0.0800 
 28 H        3.1400     2.5540    -1.0700 H     1 <1>   0.0800 
 29 H        4.3050     1.6680    -0.1160 H     1 <1>   0.0800 
 30 H        4.2850     3.4480     1.5860 H     1 <1>   0.0800 
 31 H        3.1050     4.3360     0.6720 H     1 <1>   0.0800 
 32 H        0.6350    -5.5520     1.0170 H     1 <1>   0.1500 
 33 H        2.8810     5.0170    -1.9080 H     1 <1>   0.0800 
 34 H        3.7600     6.3220    -2.6660 H     1 <1>   0.0800 
 35 H        3.2090     6.4920    -1.0160 H     1 <1>   0.0800 
 36 H        7.9540     4.9380    -1.2520 H     1 <1>   0.2700 
 37 H        6.5080     2.5860     1.4160 H     1 <1>   0.0800 
 38 H        7.8250     3.7320     1.4050 H     1 <1>   0.0800 
 39 H        7.7510     2.4640     0.1990 H     1 <1>   0.0800 
@<TRIPOS>BOND
  1   1   2  2   
  2   2   3  am  
  3   2   4  1   
  4   3   5  1   
  5   3  21  1   
  6   4   6  1   
  7   4  22  1   
  8   4  23  1   
  9   5   7  1   
 10   5  24  1   
 11   5  25  1   
 12   6   8  1   
 13   6  26  1   
 14   6  27  1   
 15   7   9  1   
 16   7  28  1   
 17   7  29  1   
 18   8  10  1   
 19   8  11  1   
 20   9  12  1   
 21   9  30  1   
 22   9  31  1   
 23  10  13  2   
 24  11  14  2   
 25  11  32  1   
 26  12  15  1   
 27  12  16  2   
 28  13  14  1   
 29  15  17  2   
 30  15  18  1   
 31  16  19  1   
 32  16  20  1   
 33  17  19  1   
 34  18  33  1   
 35  18  34  1   
 36  18  35  1   
 37  19  36  1   
 38  20  37  1   
 39  20  38  1   
 40  20  39  1   
@<TRIPOS>SUBSTRUCTURE
  1 ****   3 GROUP 4 **** **** 0

# MOE 2024.06 (io_trps.svl 2023.06)
