@<TRIPOS>MOLECULE
NONAME
49 51 1 0 0 
SMALL
USER_CHARGES


@<TRIPOS>ATOM
  1 O       -2.1890     1.8430    -1.9370 O.2   1 <1>  -0.5700 
  2 C       -2.2140     2.0340    -0.7330 C.2   1 <1>   0.5440 
  3 N       -3.0560     1.2410     0.0340 N.am  1 <1>  -0.6600 
  4 C       -1.3490     3.0640    -0.1540 C.ar  1 <1>   0.3960 
  5 C       -4.2990     0.6160    -0.5200 C.3   1 <1>   0.2200 
  6 C       -2.5670     0.7090     1.3420 C.3   1 <1>   0.0600 
  7 N       -1.6590     3.6490     1.0180 N.ar  1 <1>  -0.6200 
  8 C       -0.1930     3.4330    -0.8540 C.ar  1 <1>   0.1600 
  9 C       -5.0550     1.5430    -1.4740 C.3   1 <1>  -0.1600 
 10 C       -5.3390     0.3410     0.5690 C.3   1 <1>  -0.1600 
 11 C       -0.7810     4.5580     1.3980 C.ar  1 <1>   0.1600 
 12 N        0.6890     4.3410    -0.4680 N.ar  1 <1>  -0.6200 
 13 C       -6.5140     1.0760    -1.4560 C.3   1 <1>  -0.0800 
 14 C       -6.7030     0.3180    -0.1350 C.3   1 <1>  -0.0800 
 15 C        0.3630     4.8980     0.6820 C.ar  1 <1>   0.1670 
 16 C       -7.5110     2.2400    -1.4400 C.3   1 <1>  -0.1600 
 17 C       -7.7950     1.0680     0.6410 C.3   1 <1>  -0.1600 
 18 C        1.3160     5.9560     1.2000 C.3   1 <1>  -0.0970 
 19 C       -7.7700     2.4730     0.0470 C.3   1 <1>   0.4230 
 20 N       -8.9990     3.2650     0.3540 N.4   1 <1>  -0.9590 
 21 C      -10.2710     2.7190    -0.2220 C.3   1 <1>   0.2630 
 22 C       -8.8150     4.6910    -0.0590 C.3   1 <1>   0.2630 
 23 H       -4.0490    -0.3000    -1.0290 H     1 <1>   0.0800 
 24 H       -2.7200    -0.3550     1.3900 H     1 <1>   0.0800 
 25 H       -3.0940     1.1850     2.1510 H     1 <1>   0.0800 
 26 H       -1.5150     0.9010     1.4610 H     1 <1>   0.0800 
 27 H        0.0050     2.9390    -1.7900 H     1 <1>   0.1500 
 28 H       -4.9730     2.5540    -1.1150 H     1 <1>   0.0800 
 29 H       -4.6520     1.4880    -2.4700 H     1 <1>   0.0800 
 30 H       -5.1470    -0.5940     1.0650 H     1 <1>   0.0800 
 31 H       -5.3110     1.1410     1.2870 H     1 <1>   0.0800 
 32 H       -0.9750     5.0620     2.3280 H     1 <1>   0.1500 
 33 H       -6.6930     0.4220    -2.2950 H     1 <1>   0.0800 
 34 H       -6.9960    -0.7020    -0.3270 H     1 <1>   0.0800 
 35 H       -8.4030     1.9190    -1.9460 H     1 <1>   0.0800 
 36 H       -7.1150     3.1120    -1.9290 H     1 <1>   0.0800 
 37 H       -7.6090     1.0720     1.7000 H     1 <1>   0.0800 
 38 H       -8.7330     0.5820     0.4460 H     1 <1>   0.0800 
 39 H        0.9820     6.3590     2.1370 H     1 <1>   0.0800 
 40 H        1.3900     6.7540     0.4840 H     1 <1>   0.0800 
 41 H        2.2920     5.5250     1.3340 H     1 <1>   0.0800 
 42 H       -6.9090     2.9800     0.4540 H     1 <1>   0.0800 
 43 H       -9.0930     3.2490     1.3810 H     1 <1>   0.4500 
 44 H      -10.2340     2.7340    -1.2990 H     1 <1>   0.0800 
 45 H      -11.1110     3.3160     0.0980 H     1 <1>   0.0800 
 46 H      -10.4320     1.7060     0.1050 H     1 <1>   0.0800 
 47 H       -8.7160     4.7600    -1.1300 H     1 <1>   0.0800 
 48 H       -7.9280     5.1010     0.3960 H     1 <1>   0.0800 
 49 H       -9.6630     5.2820     0.2470 H     1 <1>   0.0800 
@<TRIPOS>BOND
  1   1   2  2   
  2   2   3  am  
  3   2   4  1   
  4   3   5  1   
  5   3   6  1   
  6   4   7  ar  
  7   4   8  ar  
  8   5   9  1   
  9   5  10  1   
 10   5  23  1   
 11   6  24  1   
 12   6  25  1   
 13   6  26  1   
 14   7  11  ar  
 15   8  12  ar  
 16   8  27  1   
 17   9  13  1   
 18   9  28  1   
 19   9  29  1   
 20  10  14  1   
 21  10  30  1   
 22  10  31  1   
 23  11  15  ar  
 24  11  32  1   
 25  12  15  ar  
 26  13  14  1   
 27  13  16  1   
 28  13  33  1   
 29  14  17  1   
 30  14  34  1   
 31  15  18  1   
 32  16  19  1   
 33  16  35  1   
 34  16  36  1   
 35  17  19  1   
 36  17  37  1   
 37  17  38  1   
 38  18  39  1   
 39  18  40  1   
 40  18  41  1   
 41  19  20  1   
 42  19  42  1   
 43  20  21  1   
 44  20  22  1   
 45  20  43  1   
 46  21  44  1   
 47  21  45  1   
 48  21  46  1   
 49  22  47  1   
 50  22  48  1   
 51  22  49  1   
@<TRIPOS>SUBSTRUCTURE
  1 ****   3 GROUP 4 **** **** 0

# MOE 2024.06 (io_trps.svl 2023.06)
