@<TRIPOS>MOLECULE
NONAME
33 35 1 0 0 
SMALL
USER_CHARGES


@<TRIPOS>ATOM
  1 S       -0.1940    -0.0680     0.7470 S.3   1 <1>  -0.0800 
  2 C       -0.1750    -1.8240     0.5790 C.ar  1 <1>   0.2970 
  3 C       -1.4530     0.0870    -0.4810 C.2   1 <1>  -0.1100 
  4 N        0.6170    -2.6090     1.2750 N.ar  1 <1>  -0.5670 
  5 C       -1.0890    -2.2230    -0.3640 C.ar  1 <1>   0.0000 
  6 C       -1.8050    -1.1220    -0.9560 C.2   1 <1>  -0.1500 
  7 C        0.4550    -3.8840     0.9810 C.ar  1 <1>   0.4770 
  8 C       -1.1560    -3.5990    -0.5700 C.ar  1 <1>   0.4100 
  9 N       -0.3820    -4.4280     0.1060 N.ar  1 <1>  -0.6200 
 10 C        1.3280    -4.8590     1.7330 C.3   1 <1>  -0.0960 
 11 N       -2.0370    -4.1370    -1.4760 N.pl3 1 <1>  -0.8690 
 12 C       -2.2050    -5.5780    -1.7480 C.3   1 <1>   0.2090 
 13 C       -3.3080    -6.1170    -0.8410 C.3   1 <1>  -0.1600 
 14 C       -3.4310    -7.6390    -0.9760 C.3   1 <1>   0.0960 
 15 N       -4.5370    -8.1480    -0.1440 N.pl3 1 <1>   0.3140 
 16 N       -5.7310    -8.4710    -0.6490 N.2   1 <1>  -0.4180 
 17 C       -4.5400    -8.3580     1.1730 C.2   1 <1>  -0.3020 
 18 N       -6.4840    -8.8780     0.3140 N.2   1 <1>  -0.2270 
 19 C       -5.7710    -8.8160     1.4420 C.2   1 <1>   0.0770 
 20 H       -1.7910     1.0820    -0.7110 H     1 <1>   0.1500 
 21 H       -2.5480    -1.2980    -1.7120 H     1 <1>   0.1500 
 22 H        2.0370    -4.3370     2.3490 H     1 <1>   0.0800 
 23 H        1.8610    -5.4760     1.0350 H     1 <1>   0.0800 
 24 H        0.7140    -5.4810     2.3570 H     1 <1>   0.0800 
 25 H       -2.7240    -3.5190    -1.9120 H     1 <1>   0.4000 
 26 H       -1.2790    -6.0960    -1.5600 H     1 <1>   0.0800 
 27 H       -2.4650    -5.7200    -2.7840 H     1 <1>   0.0800 
 28 H       -4.2420    -5.6550    -1.1060 H     1 <1>   0.0800 
 29 H       -3.0680    -5.8720     0.1800 H     1 <1>   0.0800 
 30 H       -2.5210    -8.1190    -0.6650 H     1 <1>   0.0800 
 31 H       -3.6310    -7.9060    -1.9980 H     1 <1>   0.0800 
 32 H       -3.6990    -8.1740     1.8160 H     1 <1>   0.1500 
 33 H       -6.1900    -9.1080     2.3890 H     1 <1>   0.1500 
@<TRIPOS>BOND
  1   1   2  1   
  2   1   3  1   
  3   2   4  ar  
  4   2   5  ar  
  5   3   6  2   
  6   3  20  1   
  7   4   7  ar  
  8   5   6  1   
  9   5   8  ar  
 10   6  21  1   
 11   7   9  ar  
 12   7  10  1   
 13   8   9  ar  
 14   8  11  1   
 15  10  22  1   
 16  10  23  1   
 17  10  24  1   
 18  11  12  1   
 19  11  25  1   
 20  12  13  1   
 21  12  26  1   
 22  12  27  1   
 23  13  14  1   
 24  13  28  1   
 25  13  29  1   
 26  14  15  1   
 27  14  30  1   
 28  14  31  1   
 29  15  16  1   
 30  15  17  1   
 31  16  18  2   
 32  17  19  2   
 33  17  32  1   
 34  18  19  1   
 35  19  33  1   
@<TRIPOS>SUBSTRUCTURE
  1 ****  11 GROUP 4 **** **** 0

# MOE 2024.06 (io_trps.svl 2023.06)
