@<TRIPOS>MOLECULE
NONAME
41 43 1 0 0 
SMALL
USER_CHARGES


@<TRIPOS>ATOM
  1 O       -2.1660    -0.5640    -2.6480 O.2   1 <1>  -0.5700 
  2 C       -2.2610    -0.9170    -1.5010 C.2   1 <1>   0.5690 
  3 N       -2.1370    -0.0490    -0.4550 N.am  1 <1>  -0.6600 
  4 C       -2.5810    -2.3680    -1.2520 C.3   1 <1>  -0.0190 
  5 C       -2.3300    -0.4560     0.9660 C.3   1 <1>   0.2200 
  6 C       -1.7440     1.3780    -0.6760 C.3   1 <1>   0.0600 
  7 C       -1.4950    -3.0710    -0.4100 C.3   1 <1>   0.1200 
  8 C       -4.0280    -2.4660    -0.7550 C.3   1 <1>   0.3430 
  9 C       -1.2830    -1.5160     1.3880 C.3   1 <1>   0.1200 
 10 C       -3.8030    -0.8790     1.2260 C.3   1 <1>   0.3430 
 11 O       -1.6140    -2.8130     0.9620 O.3   1 <1>  -0.5600 
 12 N       -4.1800    -2.2480     0.7220 N.4   1 <1>  -0.9590 
 13 C       -5.4950    -2.7050     1.2420 C.3   1 <1>   0.4860 
 14 C       -5.6570    -4.1850     0.9400 C.ar  1 <1>  -0.1440 
 15 C       -6.6030    -4.6130     0.0200 C.ar  1 <1>  -0.1500 
 16 C       -4.8540    -5.1220     1.5740 C.ar  1 <1>  -0.1500 
 17 C       -6.7560    -5.9610    -0.2860 C.ar  1 <1>   0.0730 
 18 C       -4.9950    -6.4670     1.2810 C.ar  1 <1>  -0.1500 
 19 C       -7.7320    -6.3870    -1.2480 C.1   1 <1>   0.4840 
 20 C       -5.9370    -6.8810     0.3580 C.ar  1 <1>  -0.1500 
 21 N       -8.5060    -6.6960    -2.0260 N.1   1 <1>  -0.5570 
 22 H       -2.5600    -2.8390    -2.2180 H     1 <1>   0.0800 
 23 H       -2.1460     0.4160     1.5710 H     1 <1>   0.0800 
 24 H       -2.5160     2.0350    -0.3150 H     1 <1>   0.0800 
 25 H       -1.5910     1.5790    -1.7230 H     1 <1>   0.0800 
 26 H       -0.8250     1.5910    -0.1570 H     1 <1>   0.0800 
 27 H       -0.5090    -2.7830    -0.7350 H     1 <1>   0.0800 
 28 H       -1.5840    -4.1370    -0.5320 H     1 <1>   0.0800 
 29 H       -4.3810    -3.4550    -0.9990 H     1 <1>   0.0800 
 30 H       -4.6380    -1.7610    -1.2970 H     1 <1>   0.0800 
 31 H       -1.2290    -1.5510     2.4620 H     1 <1>   0.0800 
 32 H       -0.3050    -1.2590     1.0170 H     1 <1>   0.0800 
 33 H       -4.4520    -0.1370     0.7900 H     1 <1>   0.0800 
 34 H       -3.9570    -0.8580     2.2920 H     1 <1>   0.0800 
 35 H       -3.4560    -2.8770     1.1250 H     1 <1>   0.4500 
 36 H       -5.5440    -2.5560     2.3090 H     1 <1>   0.0800 
 37 H       -6.2920    -2.1440     0.7820 H     1 <1>   0.0800 
 38 H       -7.2430    -3.9000    -0.4770 H     1 <1>   0.1500 
 39 H       -4.1150    -4.8260     2.3000 H     1 <1>   0.1500 
 40 H       -4.3710    -7.1950     1.7750 H     1 <1>   0.1500 
 41 H       -6.0390    -7.9320     0.1380 H     1 <1>   0.1500 
@<TRIPOS>BOND
  1   1   2  2   
  2   2   3  am  
  3   2   4  1   
  4   3   5  1   
  5   3   6  1   
  6   4   7  1   
  7   4   8  1   
  8   4  22  1   
  9   5   9  1   
 10   5  10  1   
 11   5  23  1   
 12   6  24  1   
 13   6  25  1   
 14   6  26  1   
 15   7  11  1   
 16   7  27  1   
 17   7  28  1   
 18   8  12  1   
 19   8  29  1   
 20   8  30  1   
 21   9  11  1   
 22   9  31  1   
 23   9  32  1   
 24  10  12  1   
 25  10  33  1   
 26  10  34  1   
 27  12  13  1   
 28  12  35  1   
 29  13  14  1   
 30  13  36  1   
 31  13  37  1   
 32  14  15  ar  
 33  14  16  ar  
 34  15  17  ar  
 35  15  38  1   
 36  16  18  ar  
 37  16  39  1   
 38  17  19  1   
 39  17  20  ar  
 40  18  20  ar  
 41  18  40  1   
 42  19  21  3   
 43  20  41  1   
@<TRIPOS>SUBSTRUCTURE
  1 ****   8 GROUP 4 **** **** 0

# MOE 2024.06 (io_trps.svl 2023.06)
