@<TRIPOS>MOLECULE
NONAME
54 57 1 0 0 
SMALL
USER_CHARGES


@<TRIPOS>ATOM
  1 O        1.3530     0.5310    -2.1650 O.2   1 <1>  -0.5700 
  2 C        1.8870    -0.3450    -1.5280 C.2   1 <1>   0.5690 
  3 N        2.9260    -0.0430    -0.6750 N.am  1 <1>  -0.6600 
  4 C        1.3700    -1.7630    -1.7370 C.3   1 <1>   0.0810 
  5 C        3.8800    -1.0290    -0.0700 C.3   1 <1>   0.1400 
  6 C        3.0400     1.3440    -0.1460 C.3   1 <1>   0.1400 
  7 C        0.6740    -2.2990    -0.4980 C.2   1 <1>  -0.0400 
  8 C        5.3360    -0.8510    -0.5600 C.3   1 <1>   0.3430 
  9 C        3.9890     2.1730    -1.0130 C.3   1 <1>  -0.1600 
 10 O        1.3700    -2.6300     0.5560 O.3   1 <1>  -0.0190 
 11 C       -0.6190    -2.5290    -0.2230 C.2   1 <1>  -0.1500 
 12 N        5.8280     0.5690    -0.5570 N.4   1 <1>  -0.9590 
 13 C        5.1510     1.3840    -1.6110 C.3   1 <1>   0.3430 
 14 N        0.6180    -3.0640     1.5220 N.2   1 <1>  -0.4100 
 15 C       -0.5890    -3.0150     1.0820 C.2   1 <1>   0.1080 
 16 C        7.3080     0.6470    -0.6790 C.3   1 <1>   0.4860 
 17 C       -1.8040    -3.4310     1.8800 C.3   1 <1>  -0.0590 
 18 C        7.7300     2.0560    -0.3110 C.ar  1 <1>  -0.1440 
 19 C        8.1060     2.9540    -1.2990 C.ar  1 <1>  -0.1500 
 20 C        7.7260     2.4670     1.0140 C.ar  1 <1>  -0.1500 
 21 C        8.4500     4.2510    -0.9650 C.ar  1 <1>  -0.1500 
 22 C        8.0730     3.7650     1.3440 C.ar  1 <1>  -0.1500 
 23 C        8.4350     4.6790     0.3580 C.ar  1 <1>  -0.0230 
 24 N        8.7770     6.0230     0.6850 N.pl3 1 <1>   0.5930 
 25 N        8.4260     7.0830    -0.0860 N.2   1 <1>  -0.7070 
 26 C        9.4690     6.4550     1.7680 C.2   1 <1>  -0.3020 
 27 C        8.8920     8.1280     0.5220 C.2   1 <1>   0.1390 
 28 C        9.5590     7.7990     1.6950 C.2   1 <1>  -0.1500 
 29 H        2.1720    -2.4140    -2.0240 H     1 <1>   0.0800 
 30 H        0.6620    -1.7480    -2.5450 H     1 <1>   0.0800 
 31 H        3.5850    -2.0340    -0.3060 H     1 <1>   0.0800 
 32 H        3.8450    -0.9400     1.0020 H     1 <1>   0.0800 
 33 H        3.3920     1.3130     0.8710 H     1 <1>   0.0800 
 34 H        2.0680     1.8120    -0.1290 H     1 <1>   0.0800 
 35 H        5.4090    -1.2480    -1.5590 H     1 <1>   0.0800 
 36 H        5.9710    -1.4530     0.0700 H     1 <1>   0.0800 
 37 H        4.3640     3.0050    -0.4440 H     1 <1>   0.0800 
 38 H        3.4200     2.5880    -1.8260 H     1 <1>   0.0800 
 39 H       -1.4920    -2.3830    -0.8310 H     1 <1>   0.1500 
 40 H        5.5920     1.0090     0.3400 H     1 <1>   0.4500 
 41 H        5.8410     2.0800    -2.0600 H     1 <1>   0.0800 
 42 H        4.7760     0.7380    -2.3890 H     1 <1>   0.0800 
 43 H        7.6180     0.4120    -1.6850 H     1 <1>   0.0800 
 44 H        7.7770    -0.0490    -0.0020 H     1 <1>   0.0800 
 45 H       -2.4790    -2.6000     1.9760 H     1 <1>   0.0800 
 46 H       -1.5070    -3.7530     2.8610 H     1 <1>   0.0800 
 47 H       -2.3070    -4.2410     1.3850 H     1 <1>   0.0800 
 48 H        8.1350     2.6650    -2.3360 H     1 <1>   0.1500 
 49 H        7.4560     1.7880     1.8060 H     1 <1>   0.1500 
 50 H        8.7310     4.9490    -1.7380 H     1 <1>   0.1500 
 51 H        8.0590     4.0730     2.3760 H     1 <1>   0.1500 
 52 H        9.8540     5.7860     2.5130 H     1 <1>   0.1500 
 53 H        8.7720     9.1340     0.1520 H     1 <1>   0.1500 
 54 H       10.0330     8.4900     2.3700 H     1 <1>   0.1500 
@<TRIPOS>BOND
  1   1   2  2   
  2   2   3  am  
  3   2   4  1   
  4   3   5  1   
  5   3   6  1   
  6   4   7  1   
  7   4  29  1   
  8   4  30  1   
  9   5   8  1   
 10   5  31  1   
 11   5  32  1   
 12   6   9  1   
 13   6  33  1   
 14   6  34  1   
 15   7  10  1   
 16   7  11  2   
 17   8  12  1   
 18   8  35  1   
 19   8  36  1   
 20   9  13  1   
 21   9  37  1   
 22   9  38  1   
 23  10  14  1   
 24  11  15  1   
 25  11  39  1   
 26  12  13  1   
 27  12  16  1   
 28  12  40  1   
 29  13  41  1   
 30  13  42  1   
 31  14  15  2   
 32  15  17  1   
 33  16  18  1   
 34  16  43  1   
 35  16  44  1   
 36  17  45  1   
 37  17  46  1   
 38  17  47  1   
 39  18  19  ar  
 40  18  20  ar  
 41  19  21  ar  
 42  19  48  1   
 43  20  22  ar  
 44  20  49  1   
 45  21  23  ar  
 46  21  50  1   
 47  22  23  ar  
 48  22  51  1   
 49  23  24  1   
 50  24  25  1   
 51  24  26  1   
 52  25  27  2   
 53  26  28  2   
 54  26  52  1   
 55  27  28  1   
 56  27  53  1   
 57  28  54  1   
@<TRIPOS>SUBSTRUCTURE
  1 ****  12 GROUP 4 **** **** 0

# MOE 2024.06 (io_trps.svl 2023.06)
