@<TRIPOS>MOLECULE
NONAME
59 61 1 0 0 
SMALL
USER_CHARGES


@<TRIPOS>ATOM
  1 O       -2.0360     1.2670    -0.1840 O.2   1 <1>  -0.5700 
  2 C       -2.4180     1.4180     0.9680 C.2   1 <1>   0.5440 
  3 N       -2.9660     0.3130     1.5830 N.am  1 <1>  -0.6600 
  4 C       -2.2910     2.7010     1.6470 C.ar  1 <1>   0.0860 
  5 C       -4.4320     0.0130     1.6820 C.3   1 <1>   0.2200 
  6 C       -2.1180    -0.9080     1.6640 C.3   1 <1>   0.0600 
  7 C       -2.1800     3.9310     0.9560 C.ar  1 <1>   0.1000 
  8 C       -2.2910     2.7460     3.0450 C.ar  1 <1>  -0.1500 
  9 C       -5.0400    -0.3390     0.3180 C.3   1 <1>  -0.1600 
 10 C       -5.2910     1.1420     2.2530 C.3   1 <1>  -0.1600 
 11 N       -2.0570     3.9830    -0.4320 N.pl3 1 <1>  -0.8690 
 12 C       -2.1770     5.1240     1.6780 C.ar  1 <1>  -0.1500 
 13 C       -2.2580     3.9350     3.7440 C.ar  1 <1>  -0.1500 
 14 C       -6.1590     0.6740    -0.0040 C.3   1 <1>  -0.0800 
 15 C       -6.1430     1.7220     1.1190 C.3   1 <1>  -0.0800 
 16 C       -1.0270     4.8770    -1.0140 C.3   1 <1>   0.2090 
 17 C       -2.2150     5.1320     3.0550 C.ar  1 <1>  -0.1500 
 18 C       -5.8860     1.4540    -1.2960 C.3   1 <1>  -0.1600 
 19 C       -5.5710     3.0050     0.4960 C.3   1 <1>  -0.1600 
 20 C       -0.4470     4.2090    -2.2600 C.3   1 <1>  -0.1600 
 21 C       -4.9420     2.5390    -0.8110 C.3   1 <1>   0.4230 
 22 C        0.6400     5.0770    -2.9040 C.3   1 <1>  -0.2400 
 23 N       -4.6240     3.6230    -1.7750 N.4   1 <1>  -0.9590 
 24 C       -5.7430     4.5560    -2.0980 C.3   1 <1>   0.2630 
 25 C       -4.0060     3.0600    -3.0090 C.3   1 <1>   0.2630 
 26 H       -4.5450    -0.8370     2.3350 H     1 <1>   0.0800 
 27 H       -2.2120    -1.3580     2.6370 H     1 <1>   0.0800 
 28 H       -1.0840    -0.6540     1.5000 H     1 <1>   0.0800 
 29 H       -2.4200    -1.6160     0.9120 H     1 <1>   0.0800 
 30 H       -2.3270     1.8240     3.6000 H     1 <1>   0.1500 
 31 H       -4.2790    -0.3650    -0.4430 H     1 <1>   0.0800 
 32 H       -5.4730    -1.3220     0.3780 H     1 <1>   0.0800 
 33 H       -5.9670     0.6960     2.9620 H     1 <1>   0.0800 
 34 H       -4.7310     1.8840     2.7860 H     1 <1>   0.0800 
 35 H       -1.8700     3.0190    -0.7760 H     1 <1>   0.4000 
 36 H       -2.1370     6.0610     1.1550 H     1 <1>   0.1500 
 37 H       -2.2690     3.9350     4.8210 H     1 <1>   0.1500 
 38 H       -7.1100     0.1690    -0.0490 H     1 <1>   0.0800 
 39 H       -7.1420     1.9160     1.4770 H     1 <1>   0.0800 
 40 H       -1.4710     5.8240    -1.2700 H     1 <1>   0.0800 
 41 H       -0.2400     5.0460    -0.2970 H     1 <1>   0.0800 
 42 H       -2.2020     6.0640     3.5960 H     1 <1>   0.1500 
 43 H       -6.8040     1.8830    -1.6560 H     1 <1>   0.0800 
 44 H       -5.4490     0.8280    -2.0530 H     1 <1>   0.0800 
 45 H       -4.8660     3.4960     1.1380 H     1 <1>   0.0800 
 46 H       -6.3930     3.6710     0.3110 H     1 <1>   0.0800 
 47 H       -0.0160     3.2600    -1.9860 H     1 <1>   0.0800 
 48 H       -1.2270     4.0410    -2.9780 H     1 <1>   0.0800 
 49 H       -4.0240     2.0460    -0.5680 H     1 <1>   0.0800 
 50 H        1.4480     5.2440    -2.2130 H     1 <1>   0.0800 
 51 H        0.2390     6.0300    -3.2040 H     1 <1>   0.0800 
 52 H        1.0360     4.5850    -3.7750 H     1 <1>   0.0800 
 53 H       -3.8620     4.1470    -1.2860 H     1 <1>   0.4500 
 54 H       -6.5680     4.0150    -2.5300 H     1 <1>   0.0800 
 55 H       -5.4120     5.3040    -2.8000 H     1 <1>   0.0800 
 56 H       -6.0830     5.0570    -1.2060 H     1 <1>   0.0800 
 57 H       -4.7300     2.4830    -3.5610 H     1 <1>   0.0800 
 58 H       -3.1800     2.4180    -2.7460 H     1 <1>   0.0800 
 59 H       -3.6390     3.8540    -3.6380 H     1 <1>   0.0800 
@<TRIPOS>BOND
  1   1   2  2   
  2   2   3  am  
  3   2   4  1   
  4   3   5  1   
  5   3   6  1   
  6   4   7  ar  
  7   4   8  ar  
  8   5   9  1   
  9   5  10  1   
 10   5  26  1   
 11   6  27  1   
 12   6  28  1   
 13   6  29  1   
 14   7  11  1   
 15   7  12  ar  
 16   8  13  ar  
 17   8  30  1   
 18   9  14  1   
 19   9  31  1   
 20   9  32  1   
 21  10  15  1   
 22  10  33  1   
 23  10  34  1   
 24  11  16  1   
 25  11  35  1   
 26  12  17  ar  
 27  12  36  1   
 28  13  17  ar  
 29  13  37  1   
 30  14  15  1   
 31  14  18  1   
 32  14  38  1   
 33  15  19  1   
 34  15  39  1   
 35  16  20  1   
 36  16  40  1   
 37  16  41  1   
 38  17  42  1   
 39  18  21  1   
 40  18  43  1   
 41  18  44  1   
 42  19  21  1   
 43  19  45  1   
 44  19  46  1   
 45  20  22  1   
 46  20  47  1   
 47  20  48  1   
 48  21  23  1   
 49  21  49  1   
 50  22  50  1   
 51  22  51  1   
 52  22  52  1   
 53  23  24  1   
 54  23  25  1   
 55  23  53  1   
 56  24  54  1   
 57  24  55  1   
 58  24  56  1   
 59  25  57  1   
 60  25  58  1   
 61  25  59  1   
@<TRIPOS>SUBSTRUCTURE
  1 ****   2 GROUP 4 **** **** 0

# MOE 2024.06 (io_trps.svl 2023.06)
