@<TRIPOS>MOLECULE
NONAME
47 50 1 0 0 
SMALL
USER_CHARGES


@<TRIPOS>ATOM
  1 S       -0.0130     0.7430     0.1500 S.o2  1 <1>   1.5010 
  2 O       -0.5420    -0.1120     1.1930 O.2   1 <1>  -0.6500 
  3 O        0.3940     2.0920     0.4860 O.2   1 <1>  -0.6500 
  4 N       -1.2000     0.8720    -1.0560 N.am  1 <1>  -0.8490 
  5 C        1.3380    -0.0960    -0.7160 C.2   1 <1>  -0.0630 
  6 C       -2.1760     1.9630    -0.8670 C.3   1 <1>   0.1960 
  7 C       -1.7980    -0.4080    -1.4780 C.3   1 <1>   0.1960 
  8 C        1.9900     0.3390    -1.8170 C.2   1 <1>  -0.1400 
  9 C        1.8310    -1.3700    -0.2660 C.2   1 <1>  -0.1500 
 10 C       -3.2990     1.6460     0.1570 C.3   1 <1>   0.1440 
 11 C       -3.3030    -0.5200    -1.1750 C.3   1 <1>  -0.1600 
 12 S        3.2170    -0.8040    -2.3300 S.3   1 <1>  -0.0800 
 13 C        1.8500     1.5950    -2.6570 C.3   1 <1>  -0.0600 
 14 C        2.8250    -1.8840    -1.0100 C.2   1 <1>  -0.1400 
 15 C       -4.4900     2.5200    -0.2110 C.ar  1 <1>   0.1670 
 16 C       -3.6660     0.1420     0.1620 C.3   1 <1>  -0.1600 
 17 C       -2.9720     2.1500     1.5900 C.3   1 <1>  -0.1600 
 18 C        3.6220    -3.1670    -0.9040 C.3   1 <1>  -0.0600 
 19 N       -5.2840     2.3340    -1.2410 N.ar  1 <1>  -0.6200 
 20 C       -4.6410     3.5610     0.6580 C.ar  1 <1>  -0.1440 
 21 C       -3.5890     3.5500     1.7360 C.3   1 <1>  -0.0160 
 22 C       -6.2390     3.2440    -1.3590 C.ar  1 <1>   0.7200 
 23 C       -5.6760     4.4380     0.4380 C.ar  1 <1>   0.1600 
 24 N       -6.4950     4.2840    -0.5780 N.ar  1 <1>  -0.6200 
 25 N       -7.0700     3.0790    -2.3890 N.pl3 1 <1>  -0.9000 
 26 H       -2.6370     2.1420    -1.8240 H     1 <1>   0.0800 
 27 H       -1.6760     2.8770    -0.5970 H     1 <1>   0.0800 
 28 H       -1.2880    -1.2260    -0.9960 H     1 <1>   0.0800 
 29 H       -1.6480    -0.5250    -2.5380 H     1 <1>   0.0800 
 30 H        1.4060    -1.8380     0.6070 H     1 <1>   0.1500 
 31 H       -3.5830    -1.5580    -1.1590 H     1 <1>   0.0800 
 32 H       -3.8600    -0.0520    -1.9690 H     1 <1>   0.0800 
 33 H        1.0800     2.2340    -2.2640 H     1 <1>   0.0800 
 34 H        1.5970     1.3330    -3.6680 H     1 <1>   0.0800 
 35 H        2.7780     2.1370    -2.6590 H     1 <1>   0.0800 
 36 H       -4.7160     0.0180     0.3640 H     1 <1>   0.0800 
 37 H       -3.1240    -0.3650     0.9410 H     1 <1>   0.0800 
 38 H       -1.9200     2.1650     1.8030 H     1 <1>   0.0800 
 39 H       -3.4460     1.5050     2.3100 H     1 <1>   0.0800 
 40 H        3.2920    -3.7400    -0.0570 H     1 <1>   0.0800 
 41 H        4.6660    -2.9400    -0.7840 H     1 <1>   0.0800 
 42 H        3.4920    -3.7540    -1.7950 H     1 <1>   0.0800 
 43 H       -2.8550     4.3110     1.5370 H     1 <1>   0.0800 
 44 H       -4.0140     3.6950     2.7140 H     1 <1>   0.0800 
 45 H       -5.8340     5.2720     1.1010 H     1 <1>   0.1500 
 46 H       -7.9540     3.5720    -2.3090 H     1 <1>   0.4000 
 47 H       -7.0990     2.1400    -2.7740 H     1 <1>   0.4000 
@<TRIPOS>BOND
  1   1   2  2   
  2   1   3  2   
  3   1   4  am  
  4   1   5  1   
  5   4   6  1   
  6   4   7  1   
  7   5   8  2   
  8   5   9  1   
  9   6  10  1   
 10   6  26  1   
 11   6  27  1   
 12   7  11  1   
 13   7  28  1   
 14   7  29  1   
 15   8  12  1   
 16   8  13  1   
 17   9  14  2   
 18   9  30  1   
 19  10  15  1   
 20  10  16  1   
 21  10  17  1   
 22  11  16  1   
 23  11  31  1   
 24  11  32  1   
 25  12  14  1   
 26  13  33  1   
 27  13  34  1   
 28  13  35  1   
 29  14  18  1   
 30  15  19  ar  
 31  15  20  ar  
 32  16  36  1   
 33  16  37  1   
 34  17  21  1   
 35  17  38  1   
 36  17  39  1   
 37  18  40  1   
 38  18  41  1   
 39  18  42  1   
 40  19  22  ar  
 41  20  21  1   
 42  20  23  ar  
 43  21  43  1   
 44  21  44  1   
 45  22  24  ar  
 46  22  25  1   
 47  23  24  ar  
 48  23  45  1   
 49  25  46  1   
 50  25  47  1   
@<TRIPOS>SUBSTRUCTURE
  1 ****   4 GROUP 4 **** **** 0

# MOE 2024.06 (io_trps.svl 2023.06)
