@<TRIPOS>MOLECULE
Untitled Document
45 47 1 0 0 
SMALL
USER_CHARGES


@<TRIPOS>ATOM
  1 O        2.2490    -0.2640     1.2460 O.2   1 <1>  -0.5700 
  2 C        3.0450     0.6080     1.0120 C.2   1 <1>   0.5690 
  3 N        2.9750     1.3850    -0.1060 N.am  1 <1>  -0.3680 
  4 C        4.1680     0.9130     1.9750 C.3   1 <1>  -0.0990 
  5 N        3.8780     2.3550    -0.5030 N.2   1 <1>  -0.5120 
  6 C        5.3840     1.5120     1.2410 C.3   1 <1>  -0.0990 
  7 C        5.0050     2.4790     0.0990 C.2   1 <1>   0.3750 
  8 C        5.9590     3.4860    -0.3410 C.2   1 <1>  -0.1240 
  9 C        5.7370     4.2880    -1.4060 C.2   1 <1>  -0.2880 
 10 C        7.2860     3.6460     0.4110 C.3   1 <1>  -0.0220 
 11 C        6.6750     5.3180    -1.9910 C.3   1 <1>   0.4810 
 12 C        8.0890     4.8740    -0.0370 C.3   1 <1>   0.3430 
 13 N        8.0440     5.0080    -1.5190 N.4   1 <1>  -0.9590 
 14 C        9.0840     5.9360    -2.0740 C.3   1 <1>   0.3430 
 15 C       10.4130     5.1930    -2.3570 C.3   1 <1>   0.3430 
 16 O       10.1040     3.9600    -2.9270 O.3   1 <1>  -0.6800 
 17 C       11.2380     4.9830    -1.0850 C.ar  1 <1>  -0.1440 
 18 C       11.9630     6.0540    -0.5810 C.ar  1 <1>  -0.1500 
 19 C       11.2960     3.7680    -0.4090 C.ar  1 <1>  -0.1500 
 20 C       12.7190     5.9170     0.5700 C.ar  1 <1>  -0.1500 
 21 C       12.0540     3.6370     0.7410 C.ar  1 <1>  -0.1500 
 22 C       12.7770     4.7080     1.2510 C.ar  1 <1>   0.0730 
 23 C       13.5630     4.5670     2.4450 C.1   1 <1>   0.4840 
 24 N       14.1750     4.4560     3.4000 N.1   1 <1>  -0.5570 
 25 H        2.1460     1.2200    -0.6880 H     1 <1>   0.3700 
 26 H        4.4470     0.0160     2.4980 H     1 <1>   0.0800 
 27 H        3.7930     1.6200     2.6910 H     1 <1>   0.0800 
 28 H        5.9490     0.7070     0.8050 H     1 <1>   0.0800 
 29 H        5.9960     1.9820     1.9840 H     1 <1>   0.0800 
 30 H        4.8130     4.2450    -1.9620 H     1 <1>   0.1500 
 31 H        7.8860     2.7630     0.2730 H     1 <1>   0.0800 
 32 H        7.1050     3.7670     1.4630 H     1 <1>   0.0800 
 33 H        6.3750     6.3070    -1.6840 H     1 <1>   0.0800 
 34 H        6.6430     5.2620    -3.0680 H     1 <1>   0.0800 
 35 H        9.1060     4.7790     0.3070 H     1 <1>   0.0800 
 36 H        7.6650     5.7570     0.4130 H     1 <1>   0.0800 
 37 H        8.2890     4.0880    -1.9280 H     1 <1>   0.4500 
 38 H        9.2590     6.7600    -1.4020 H     1 <1>   0.0800 
 39 H        8.7380     6.3420    -3.0090 H     1 <1>   0.0800 
 40 H       10.9930     5.7520    -3.0730 H     1 <1>   0.0800 
 41 H       10.9340     3.4950    -3.1670 H     1 <1>   0.4000 
 42 H       11.9580     7.0090    -1.0800 H     1 <1>   0.1500 
 43 H       10.7590     2.9050    -0.7660 H     1 <1>   0.1500 
 44 H       13.2770     6.7600     0.9440 H     1 <1>   0.1500 
 45 H       12.0920     2.6860     1.2490 H     1 <1>   0.1500 
@<TRIPOS>BOND
  1   1   2  2   
  2   2   3  am  
  3   2   4  1   
  4   3   5  1   
  5   3  25  1   
  6   4   6  1   
  7   4  26  1   
  8   4  27  1   
  9   5   7  2   
 10   6   7  1   
 11   6  28  1   
 12   6  29  1   
 13   7   8  1   
 14   8   9  2   
 15   8  10  1   
 16   9  11  1   
 17   9  30  1   
 18  10  12  1   
 19  10  31  1   
 20  10  32  1   
 21  11  13  1   
 22  11  33  1   
 23  11  34  1   
 24  12  13  1   
 25  12  35  1   
 26  12  36  1   
 27  13  14  1   
 28  13  37  1   
 29  14  15  1   
 30  14  38  1   
 31  14  39  1   
 32  15  16  1   
 33  15  17  1   
 34  15  40  1   
 35  16  41  1   
 36  17  18  ar  
 37  17  19  ar  
 38  18  20  ar  
 39  18  42  1   
 40  19  21  ar  
 41  19  43  1   
 42  20  22  ar  
 43  20  44  1   
 44  21  22  ar  
 45  21  45  1   
 46  22  23  1   
 47  23  24  3   
@<TRIPOS>SUBSTRUCTURE
  1 ****  10 GROUP 4 **** **** 0

# MOE 2024.06 (io_trps.svl 2023.06)
