@<TRIPOS>MOLECULE
NONAME
45 47 1 0 0 
SMALL
USER_CHARGES


@<TRIPOS>ATOM
  1 S       -0.8670     0.4700     1.3540 S.3   1 <1>  -0.0800 
  2 C       -1.7120    -0.4430     0.1000 C.2   1 <1>  -0.0450 
  3 C       -0.0740     1.4980     0.1790 C.2   1 <1>  -0.1400 
  4 C       -2.5940    -1.5110     0.5020 C.2   1 <1>   0.7150 
  5 C       -1.3530     0.0570    -1.1110 C.2   1 <1>  -0.1500 
  6 C       -0.4370     1.1480    -1.0670 C.2   1 <1>  -0.1500 
  7 C        0.8570     2.5680     0.7090 C.3   1 <1>  -0.0600 
  8 O       -2.2980    -2.2270     1.4430 O.2   1 <1>  -0.5700 
  9 N       -3.7880    -1.7510    -0.1510 N.am  1 <1>  -0.6600 
 10 C       -4.5200    -3.0350     0.0590 C.3   1 <1>   0.1400 
 11 C       -4.5870    -0.6580    -0.7690 C.3   1 <1>   0.1400 
 12 C       -5.6900    -2.8730     1.0400 C.3   1 <1>   0.1400 
 13 C       -5.4650    -0.0010     0.3020 C.3   1 <1>  -0.1600 
 14 N       -6.8370    -2.1530     0.4020 N.am  1 <1>  -0.6600 
 15 C       -6.8380    -0.6600     0.4970 C.3   1 <1>   0.1400 
 16 C       -7.9610    -2.8170    -0.0680 C.2   1 <1>   0.7150 
 17 O       -8.9670    -2.1610    -0.2720 O.2   1 <1>  -0.5700 
 18 C       -7.9990    -4.2470    -0.3130 C.2   1 <1>   0.0550 
 19 O       -6.9290    -4.9040    -0.7480 O.3   1 <1>  -0.2800 
 20 C       -9.0170    -5.1270    -0.1920 C.2   1 <1>   0.0460 
 21 C       -7.3840    -6.1350    -0.8530 C.2   1 <1>   0.2980 
 22 N       -8.6060    -6.3410    -0.5380 N.2   1 <1>  -0.5650 
 23 C      -10.4510    -4.9260     0.2550 C.3   1 <1>  -0.0590 
 24 C       -6.4300    -7.2000    -1.3370 C.3   1 <1>  -0.0600 
 25 H       -1.7070    -0.3210    -2.0540 H     1 <1>   0.1500 
 26 H       -0.0900     1.6180    -1.9710 H     1 <1>   0.1500 
 27 H        0.3150     3.2400     1.3500 H     1 <1>   0.0800 
 28 H        1.2810     3.1280    -0.1050 H     1 <1>   0.0800 
 29 H        1.6530     2.1140     1.2720 H     1 <1>   0.0800 
 30 H       -3.8440    -3.7760     0.4500 H     1 <1>   0.0800 
 31 H       -4.8790    -3.4000    -0.8860 H     1 <1>   0.0800 
 32 H       -5.1920    -1.0470    -1.5700 H     1 <1>   0.0800 
 33 H       -3.9340     0.0860    -1.1860 H     1 <1>   0.0800 
 34 H       -5.3560    -2.3440     1.9160 H     1 <1>   0.0800 
 35 H       -6.0100    -3.8470     1.3640 H     1 <1>   0.0800 
 36 H       -5.6420     1.0190     0.0130 H     1 <1>   0.0800 
 37 H       -4.9390     0.0350     1.2400 H     1 <1>   0.0800 
 38 H       -7.4970    -0.2680    -0.2600 H     1 <1>   0.0800 
 39 H       -7.2420    -0.3720     1.4520 H     1 <1>   0.0800 
 40 H      -10.6230    -3.9140     0.5710 H     1 <1>   0.0800 
 41 H      -10.6690    -5.5860     1.0740 H     1 <1>   0.0800 
 42 H      -11.1150    -5.1530    -0.5590 H     1 <1>   0.0800 
 43 H       -6.0750    -6.9480    -2.3180 H     1 <1>   0.0800 
 44 H       -6.9320    -8.1490    -1.3770 H     1 <1>   0.0800 
 45 H       -5.5960    -7.2720    -0.6640 H     1 <1>   0.0800 
@<TRIPOS>BOND
  1   1   2  1   
  2   1   3  1   
  3   2   4  1   
  4   2   5  2   
  5   3   6  2   
  6   3   7  1   
  7   4   8  2   
  8   4   9  am  
  9   5   6  1   
 10   5  25  1   
 11   6  26  1   
 12   7  27  1   
 13   7  28  1   
 14   7  29  1   
 15   9  10  1   
 16   9  11  1   
 17  10  12  1   
 18  10  30  1   
 19  10  31  1   
 20  11  13  1   
 21  11  32  1   
 22  11  33  1   
 23  12  14  1   
 24  12  34  1   
 25  12  35  1   
 26  13  15  1   
 27  13  36  1   
 28  13  37  1   
 29  14  15  1   
 30  14  16  am  
 31  15  38  1   
 32  15  39  1   
 33  16  17  2   
 34  16  18  1   
 35  18  19  1   
 36  18  20  2   
 37  19  21  1   
 38  20  22  1   
 39  20  23  1   
 40  21  22  2   
 41  21  24  1   
 42  23  40  1   
 43  23  41  1   
 44  23  42  1   
 45  24  43  1   
 46  24  44  1   
 47  24  45  1   
@<TRIPOS>SUBSTRUCTURE
  1 ****  10 GROUP 4 **** **** 0

# MOE 2024.06 (io_trps.svl 2023.06)
