@<TRIPOS>MOLECULE
NONAME
61 64 1 0 0 
SMALL
USER_CHARGES


@<TRIPOS>ATOM
  1 N       -0.1780     0.0240    -0.0630 N.ar  1 <1>  -0.6200 
  2 C        0.9790     0.6410    -0.2460 C.ar  1 <1>   0.7710 
  3 C       -0.1800    -1.2600     0.2430 C.ar  1 <1>   0.4100 
  4 N        2.1450    -0.0170    -0.1330 N.ar  1 <1>  -0.1790 
  5 N        0.9990     1.9680    -0.5470 N.pl3 1 <1>  -0.8380 
  6 N       -1.3850    -1.8540     0.4560 N.pl3 1 <1>  -0.8380 
  7 C        1.0270    -1.9790     0.3420 C.ar  1 <1>  -0.1500 
  8 C        2.2040    -1.3370     0.1540 C.ar  1 <1>   0.2180 
  9 C        2.1830     2.7860    -0.9560 C.3   1 <1>   0.2090 
 10 C       -0.2400     2.8110    -0.4680 C.3   1 <1>   0.2090 
 11 C       -1.6380    -3.0750     1.2940 C.3   1 <1>   0.2090 
 12 C       -2.6850    -1.2610    -0.0120 C.3   1 <1>   0.2090 
 13 C        3.5650    -2.0160     0.2450 C.3   1 <1>  -0.0170 
 14 C        2.4430     3.8560     0.1080 C.3   1 <1>  -0.1600 
 15 C       -0.0380     3.8980     0.5930 C.3   1 <1>  -0.1600 
 16 C       -2.4910    -4.1030     0.5280 C.3   1 <1>   0.1100 
 17 C       -3.5460    -2.3120    -0.7400 C.3   1 <1>   0.1100 
 18 C        4.4240    -1.4420     1.3810 C.3   1 <1>  -0.2400 
 19 C        1.2100     4.7480     0.3140 C.3   1 <1>  -0.1600 
 20 N       -3.7720    -3.5180     0.0820 N.3   1 <1>  -0.8100 
 21 C       -4.6540    -4.4900    -0.6140 C.3   1 <1>   0.2530 
 22 C       -4.9250    -5.7850     0.1710 C.ar  1 <1>   0.1670 
 23 N       -5.7550    -5.6600     1.2020 N.ar  1 <1>  -0.6200 
 24 C       -4.3390    -6.9980    -0.2040 C.ar  1 <1>  -0.1430 
 25 C       -6.0010    -6.7560     1.8950 C.ar  1 <1>   0.1600 
 26 C       -4.6160    -8.1300     0.5370 C.ar  1 <1>  -0.1500 
 27 C       -3.4090    -7.1380    -1.4040 C.3   1 <1>  -0.0970 
 28 C       -5.4660    -7.9970     1.6110 C.ar  1 <1>  -0.1500 
 29 H        2.9750     0.5460    -0.2490 H     1 <1>   0.4570 
 30 H        0.9950    -3.0290     0.5530 H     1 <1>   0.1500 
 31 H        1.9680     3.2670    -1.8980 H     1 <1>   0.0800 
 32 H        3.0630     2.1870    -1.0960 H     1 <1>   0.0800 
 33 H       -1.1120     2.2330    -0.2120 H     1 <1>   0.0800 
 34 H       -0.4240     3.2670    -1.4260 H     1 <1>   0.0800 
 35 H       -2.1780    -2.7830     2.1790 H     1 <1>   0.0800 
 36 H       -0.7240    -3.5340     1.6140 H     1 <1>   0.0800 
 37 H       -2.5140    -0.4380    -0.6820 H     1 <1>   0.0800 
 38 H       -3.2300    -0.8880     0.8380 H     1 <1>   0.0800 
 39 H        4.0860    -1.9120    -0.6920 H     1 <1>   0.0800 
 40 H        3.4270    -3.0700     0.4170 H     1 <1>   0.0800 
 41 H        3.2750     4.4680    -0.1960 H     1 <1>   0.0800 
 42 H        2.7060     3.3830     1.0370 H     1 <1>   0.0800 
 43 H        0.0490     3.4280     1.5580 H     1 <1>   0.0800 
 44 H       -0.9060     4.5320     0.6190 H     1 <1>   0.0800 
 45 H       -2.6860    -4.9340     1.1830 H     1 <1>   0.0800 
 46 H       -1.9340    -4.4590    -0.3200 H     1 <1>   0.0800 
 47 H       -3.0560    -2.5820    -1.6590 H     1 <1>   0.0800 
 48 H       -4.4950    -1.8670    -0.9830 H     1 <1>   0.0800 
 49 H        4.6590    -0.4060     1.2160 H     1 <1>   0.0800 
 50 H        5.3510    -1.9870     1.4460 H     1 <1>   0.0800 
 51 H        3.9140    -1.5390     2.3240 H     1 <1>   0.0800 
 52 H        1.0450     5.3380    -0.5720 H     1 <1>   0.0800 
 53 H        1.3800     5.4260     1.1330 H     1 <1>   0.0800 
 54 H       -4.2360    -4.7170    -1.5770 H     1 <1>   0.0800 
 55 H       -5.6050    -4.0180    -0.7870 H     1 <1>   0.0800 
 56 H       -6.6680    -6.6590     2.7340 H     1 <1>   0.1500 
 57 H       -4.1910    -9.0880     0.2930 H     1 <1>   0.1500 
 58 H       -2.5860    -6.4520    -1.3260 H     1 <1>   0.0800 
 59 H       -3.9490    -6.9390    -2.3130 H     1 <1>   0.0800 
 60 H       -3.0060    -8.1330    -1.4660 H     1 <1>   0.0800 
 61 H       -5.7140    -8.8450     2.2230 H     1 <1>   0.1500 
@<TRIPOS>BOND
  1   1   2  ar  
  2   1   3  ar  
  3   2   4  ar  
  4   2   5  1   
  5   3   6  1   
  6   3   7  ar  
  7   4   8  ar  
  8   4  29  1   
  9   5   9  1   
 10   5  10  1   
 11   6  11  1   
 12   6  12  1   
 13   7   8  ar  
 14   7  30  1   
 15   8  13  1   
 16   9  14  1   
 17   9  31  1   
 18   9  32  1   
 19  10  15  1   
 20  10  33  1   
 21  10  34  1   
 22  11  16  1   
 23  11  35  1   
 24  11  36  1   
 25  12  17  1   
 26  12  37  1   
 27  12  38  1   
 28  13  18  1   
 29  13  39  1   
 30  13  40  1   
 31  14  19  1   
 32  14  41  1   
 33  14  42  1   
 34  15  19  1   
 35  15  43  1   
 36  15  44  1   
 37  16  20  1   
 38  16  45  1   
 39  16  46  1   
 40  17  20  1   
 41  17  47  1   
 42  17  48  1   
 43  18  49  1   
 44  18  50  1   
 45  18  51  1   
 46  19  52  1   
 47  19  53  1   
 48  20  21  1   
 49  21  22  1   
 50  21  54  1   
 51  21  55  1   
 52  22  23  ar  
 53  22  24  ar  
 54  23  25  ar  
 55  24  26  ar  
 56  24  27  1   
 57  25  28  ar  
 58  25  56  1   
 59  26  28  ar  
 60  26  57  1   
 61  27  58  1   
 62  27  59  1   
 63  27  60  1   
 64  28  61  1   
@<TRIPOS>SUBSTRUCTURE
  1 ****   6 GROUP 4 **** **** 0

# MOE 2024.06 (io_trps.svl 2023.06)
