@<TRIPOS>MOLECULE
NONAME
57 59 1 0 0 
SMALL
USER_CHARGES


@<TRIPOS>ATOM
  1 O        0.3020    -1.1540    -2.2930 O.3   1 <1>  -0.6800 
  2 C       -0.1430    -1.3500    -0.9850 C.3   1 <1>   0.1200 
  3 C        1.0730    -1.8720    -0.0800 C.3   1 <1>   0.0000 
  4 C        2.2550    -2.3390     0.8930 C.3   1 <1>   0.4230 
  5 C        1.4170    -0.3240     0.2820 C.3   1 <1>  -0.1600 
  6 C        0.7110    -3.3880    -0.5340 C.3   1 <1>  -0.1600 
  7 N        2.1850    -3.6850     1.5920 N.4   1 <1>  -0.9590 
  8 C        3.6320    -2.0440     0.2330 C.3   1 <1>   0.2090 
  9 C        2.7770     0.2300     0.7870 C.3   1 <1>   0.2090 
 10 C        1.7890    -4.4930    -0.6470 C.3   1 <1>  -0.1600 
 11 C        2.4730    -4.8030     0.6720 C.3   1 <1>   0.3430 
 12 C        3.0310    -3.7490     2.8250 C.3   1 <1>   0.2630 
 13 N        3.8970    -0.5790     0.2330 N.pl3 1 <1>  -0.8380 
 14 C        5.0580    -0.0020    -0.1910 C.ar  1 <1>   0.4100 
 15 N        5.3380     1.2030     0.2640 N.ar  1 <1>  -0.6200 
 16 C        5.9270    -0.6630    -1.0830 C.ar  1 <1>  -0.1500 
 17 C        6.4550     1.7940    -0.1370 C.ar  1 <1>   0.7710 
 18 C        7.0610    -0.0420    -1.4900 C.ar  1 <1>   0.2170 
 19 N        7.2940     1.1960    -0.9970 N.ar  1 <1>  -0.1790 
 20 N        6.7640     3.0370     0.3280 N.pl3 1 <1>  -0.8380 
 21 C        8.0610    -0.6520    -2.4640 C.3   1 <1>  -0.0170 
 22 C        5.7870     3.8160     1.1610 C.3   1 <1>   0.1290 
 23 C        8.0640     3.7640     0.1670 C.3   1 <1>   0.1290 
 24 C        9.4440    -0.8530    -1.8290 C.3   1 <1>  -0.2400 
 25 H       -0.4120    -0.8000    -2.8620 H     1 <1>   0.4000 
 26 H       -0.6020    -0.4260    -0.6650 H     1 <1>   0.0800 
 27 H       -0.9980    -2.0100    -1.0220 H     1 <1>   0.0800 
 28 H        2.2030    -1.6830     1.7420 H     1 <1>   0.0800 
 29 H        0.6850     0.0310     0.9900 H     1 <1>   0.0800 
 30 H        1.3170     0.3090    -0.5890 H     1 <1>   0.0800 
 31 H       -0.0680    -3.7530     0.1170 H     1 <1>   0.0800 
 32 H        0.3000    -3.4680    -1.5320 H     1 <1>   0.0800 
 33 H        1.2020    -3.7910     1.8760 H     1 <1>   0.4500 
 34 H        3.6250    -2.3900    -0.7840 H     1 <1>   0.0800 
 35 H        4.4230    -2.5320     0.7720 H     1 <1>   0.0800 
 36 H        2.8260     0.2040     1.8630 H     1 <1>   0.0800 
 37 H        2.8690     1.2640     0.4920 H     1 <1>   0.0800 
 38 H        2.5230    -4.2140    -1.3810 H     1 <1>   0.0800 
 39 H        1.3360    -5.4010    -1.0090 H     1 <1>   0.0800 
 40 H        3.5340    -4.9120     0.5180 H     1 <1>   0.0800 
 41 H        2.0870    -5.7230     1.0830 H     1 <1>   0.0800 
 42 H        4.0750    -3.6560     2.5750 H     1 <1>   0.0800 
 43 H        2.8830    -4.6890     3.3330 H     1 <1>   0.0800 
 44 H        2.7680    -2.9520     3.5020 H     1 <1>   0.0800 
 45 H        5.6710    -1.6400    -1.4400 H     1 <1>   0.1500 
 46 H        8.1020     1.7400    -1.2660 H     1 <1>   0.4570 
 47 H        7.6950    -1.6080    -2.8010 H     1 <1>   0.0800 
 48 H        8.1500    -0.0230    -3.3340 H     1 <1>   0.0800 
 49 H        5.8670     4.8680     0.9440 H     1 <1>   0.0800 
 50 H        5.9920     3.6590     2.2060 H     1 <1>   0.0800 
 51 H        4.7720     3.5170     0.9600 H     1 <1>   0.0800 
 52 H        8.3360     4.2320     1.0990 H     1 <1>   0.0800 
 53 H        7.9630     4.5330    -0.5810 H     1 <1>   0.0800 
 54 H        8.8650     3.1010    -0.1090 H     1 <1>   0.0800 
 55 H        9.3720    -1.4810    -0.9570 H     1 <1>   0.0800 
 56 H        9.8910     0.0840    -1.5470 H     1 <1>   0.0800 
 57 H       10.1000    -1.3360    -2.5330 H     1 <1>   0.0800 
@<TRIPOS>BOND
  1   1   2  1   
  2   1  25  1   
  3   2   3  1   
  4   2  26  1   
  5   2  27  1   
  6   3   4  1   
  7   3   5  1   
  8   3   6  1   
  9   4   7  1   
 10   4   8  1   
 11   4  28  1   
 12   5   9  1   
 13   5  29  1   
 14   5  30  1   
 15   6  10  1   
 16   6  31  1   
 17   6  32  1   
 18   7  11  1   
 19   7  12  1   
 20   7  33  1   
 21   8  13  1   
 22   8  34  1   
 23   8  35  1   
 24   9  13  1   
 25   9  36  1   
 26   9  37  1   
 27  10  11  1   
 28  10  38  1   
 29  10  39  1   
 30  11  40  1   
 31  11  41  1   
 32  12  42  1   
 33  12  43  1   
 34  12  44  1   
 35  13  14  1   
 36  14  15  ar  
 37  14  16  ar  
 38  15  17  ar  
 39  16  18  ar  
 40  16  45  1   
 41  17  19  ar  
 42  17  20  1   
 43  18  19  ar  
 44  18  21  1   
 45  19  46  1   
 46  20  22  1   
 47  20  23  1   
 48  21  24  1   
 49  21  47  1   
 50  21  48  1   
 51  22  49  1   
 52  22  50  1   
 53  22  51  1   
 54  23  52  1   
 55  23  53  1   
 56  23  54  1   
 57  24  55  1   
 58  24  56  1   
 59  24  57  1   
@<TRIPOS>SUBSTRUCTURE
  1 ****  13 GROUP 4 **** **** 0

# MOE 2024.06 (io_trps.svl 2023.06)
