@<TRIPOS>MOLECULE
NONAME
53 56 1 0 0 
SMALL
USER_CHARGES


@<TRIPOS>ATOM
  1 O        0.1490     0.1850     0.9630 O.3   1 <1>  -0.0190 
  2 N       -0.3460    -0.9930     0.7600 N.2   1 <1>  -0.4100 
  3 C       -0.8830     0.9810     0.8670 C.2   1 <1>   0.2980 
  4 C       -1.6130    -0.8670     0.5680 C.2   1 <1>   0.4620 
  5 N       -1.9890     0.4170     0.6250 N.2   1 <1>  -0.5650 
  6 C       -0.6640     2.4680     1.0230 C.3   1 <1>   0.0200 
  7 C       -2.5460    -1.9520     0.3120 C.ar  1 <1>   0.0540 
  8 C        0.0360     3.0060    -0.2250 C.3   1 <1>   0.2090 
  9 C       -3.9100    -1.7210     0.1250 C.ar  1 <1>  -0.1500 
 10 C       -2.1150    -3.2780     0.2430 C.ar  1 <1>  -0.1500 
 11 N        0.3900     4.4400    -0.0380 N.pl3 1 <1>  -0.8690 
 12 C       -4.7950    -2.7560    -0.1200 C.ar  1 <1>  -0.1500 
 13 C       -2.9950    -4.3160    -0.0020 C.ar  1 <1>  -0.1500 
 14 C        1.5340     5.1260    -0.1420 C.ar  1 <1>   0.7710 
 15 C       -4.3430    -4.0620    -0.1840 C.ar  1 <1>  -0.1430 
 16 N        1.4540     6.4100     0.1280 N.ar  1 <1>  -0.6200 
 17 N        2.6810     4.5210    -0.5010 N.ar  1 <1>  -0.1790 
 18 C       -5.3120    -5.1990    -0.4540 C.3   1 <1>  -0.0970 
 19 C        2.5590     7.1320     0.0580 C.ar  1 <1>   0.4100 
 20 C        3.8310     5.2280    -0.6110 C.ar  1 <1>   0.2110 
 21 N        2.4730     8.4510     0.3740 N.pl3 1 <1>  -0.8380 
 22 C        3.7830     6.5530    -0.3340 C.ar  1 <1>  -0.1500 
 23 C        3.5880     9.2610     0.9680 C.3   1 <1>   0.2090 
 24 C        1.2060     9.2340     0.2330 C.3   1 <1>   0.2090 
 25 C        3.8700    10.4980     0.1000 C.3   1 <1>   0.2000 
 26 C        1.4610    10.4670    -0.6450 C.3   1 <1>  -0.1600 
 27 O        4.8280    11.2880     0.7100 O.3   1 <1>  -0.6800 
 28 C        2.6080    11.3420    -0.1100 C.3   1 <1>  -0.1600 
 29 H       -0.0650     2.6400     1.8990 H     1 <1>   0.0800 
 30 H       -1.6160     2.9510     1.1480 H     1 <1>   0.0800 
 31 H       -0.6270     2.9090    -1.0710 H     1 <1>   0.0800 
 32 H        0.9170     2.4200    -0.4220 H     1 <1>   0.0800 
 33 H       -4.2880    -0.7150     0.1710 H     1 <1>   0.1500 
 34 H       -1.0710    -3.5020     0.3820 H     1 <1>   0.1500 
 35 H       -0.4090     5.0390     0.2090 H     1 <1>   0.4000 
 36 H       -5.8390    -2.5390    -0.2610 H     1 <1>   0.1500 
 37 H       -2.6250    -5.3260    -0.0500 H     1 <1>   0.1500 
 38 H        2.6310     3.5270    -0.6960 H     1 <1>   0.4570 
 39 H       -6.2850    -4.9640    -0.0630 H     1 <1>   0.0800 
 40 H       -4.9690    -6.1040     0.0140 H     1 <1>   0.0800 
 41 H       -5.3920    -5.3630    -1.5130 H     1 <1>   0.0800 
 42 H        4.7360     4.7270    -0.9170 H     1 <1>   0.1500 
 43 H        4.6550     7.1720    -0.4220 H     1 <1>   0.1500 
 44 H        4.4840     8.6790     1.0710 H     1 <1>   0.0800 
 45 H        3.2860     9.5810     1.9510 H     1 <1>   0.0800 
 46 H        0.8670     9.5390     1.2080 H     1 <1>   0.0800 
 47 H        0.4300     8.6390    -0.2180 H     1 <1>   0.0800 
 48 H        4.2700    10.1810    -0.8480 H     1 <1>   0.0800 
 49 H        0.5600    11.0520    -0.7010 H     1 <1>   0.0800 
 50 H        1.6930    10.1360    -1.6420 H     1 <1>   0.0800 
 51 H        4.4380    11.7870     1.4530 H     1 <1>   0.4000 
 52 H        2.8140    12.1320    -0.8110 H     1 <1>   0.0800 
 53 H        2.3010    11.7780     0.8250 H     1 <1>   0.0800 
@<TRIPOS>BOND
  1   1   2  1   
  2   1   3  1   
  3   2   4  2   
  4   3   5  2   
  5   3   6  1   
  6   4   5  1   
  7   4   7  1   
  8   6   8  1   
  9   6  29  1   
 10   6  30  1   
 11   7   9  ar  
 12   7  10  ar  
 13   8  11  1   
 14   8  31  1   
 15   8  32  1   
 16   9  12  ar  
 17   9  33  1   
 18  10  13  ar  
 19  10  34  1   
 20  11  14  1   
 21  11  35  1   
 22  12  15  ar  
 23  12  36  1   
 24  13  15  ar  
 25  13  37  1   
 26  14  16  ar  
 27  14  17  ar  
 28  15  18  1   
 29  16  19  ar  
 30  17  20  ar  
 31  17  38  1   
 32  18  39  1   
 33  18  40  1   
 34  18  41  1   
 35  19  21  1   
 36  19  22  ar  
 37  20  22  ar  
 38  20  42  1   
 39  21  23  1   
 40  21  24  1   
 41  22  43  1   
 42  23  25  1   
 43  23  44  1   
 44  23  45  1   
 45  24  26  1   
 46  24  46  1   
 47  24  47  1   
 48  25  27  1   
 49  25  28  1   
 50  25  48  1   
 51  26  28  1   
 52  26  49  1   
 53  26  50  1   
 54  27  51  1   
 55  28  52  1   
 56  28  53  1   
@<TRIPOS>SUBSTRUCTURE
  1 ****   8 GROUP 4 **** **** 0

# MOE 2024.06 (io_trps.svl 2023.06)
