@<TRIPOS>MOLECULE
NONAME
34 36 1 0 0 
SMALL
USER_CHARGES


@<TRIPOS>ATOM
  1 F       -0.4970    -0.6150     0.5760 F     1 <1>  -0.1900 
  2 C       -1.6870    -1.1400     0.3820 C.ar  1 <1>   0.1900 
  3 C       -2.8410    -0.3840     0.2100 C.ar  1 <1>   0.3920 
  4 C       -1.7920    -2.5040     0.3490 C.ar  1 <1>   0.1600 
  5 O       -2.9110     0.9680     0.2140 O.3   1 <1>  -0.3630 
  6 N       -4.0000    -0.9740     0.0210 N.ar  1 <1>  -0.6200 
  7 N       -2.9470    -3.1030     0.1590 N.ar  1 <1>  -0.6200 
  8 C       -1.8100     1.8290     0.4040 C.3   1 <1>   0.0400 
  9 C       -4.0050    -2.3050     0.0020 C.ar  1 <1>   0.7200 
 10 N       -5.2200    -2.9170    -0.1840 N.pl3 1 <1>  -0.8380 
 11 C       -6.4640    -2.2400    -0.5600 C.3   1 <1>   0.2890 
 12 C       -5.4230    -4.3370    -0.4820 C.3   1 <1>   0.2890 
 13 C       -7.4680    -2.5630     0.5600 C.3   1 <1>  -0.1600 
 14 C       -6.8070    -2.9090    -1.8950 C.3   1 <1>  -0.1600 
 15 C       -6.3190    -4.8740     0.6470 C.3   1 <1>  -0.1600 
 16 C       -6.1230    -4.2870    -1.8430 C.3   1 <1>  -0.1600 
 17 C       -7.6200    -4.0700     0.8460 C.3   1 <1>   0.2000 
 18 O       -8.5800    -4.5800    -0.0040 O.3   1 <1>  -0.6800 
 19 H       -0.9150    -3.1130     0.4800 H     1 <1>   0.1500 
 20 H       -2.1690     2.8420     0.3610 H     1 <1>   0.0800 
 21 H       -1.0950     1.6630    -0.3820 H     1 <1>   0.0800 
 22 H       -1.3770     1.6380     1.3700 H     1 <1>   0.0800 
 23 H       -6.3470    -1.1750    -0.6740 H     1 <1>   0.0800 
 24 H       -4.5000    -4.8910    -0.5360 H     1 <1>   0.0800 
 25 H       -8.4250    -2.1240     0.3470 H     1 <1>   0.0800 
 26 H       -7.0980    -2.0900     1.4520 H     1 <1>   0.0800 
 27 H       -7.8680    -2.9640    -2.0540 H     1 <1>   0.0800 
 28 H       -6.3780    -2.3240    -2.6900 H     1 <1>   0.0800 
 29 H       -5.7470    -4.8110     1.5550 H     1 <1>   0.0800 
 30 H       -6.5430    -5.9140     0.4890 H     1 <1>   0.0800 
 31 H       -5.3760    -4.3470    -2.6150 H     1 <1>   0.0800 
 32 H       -6.8060    -5.1070    -1.9730 H     1 <1>   0.0800 
 33 H       -7.9920    -4.2180     1.8460 H     1 <1>   0.0800 
 34 H       -8.2810    -4.4550    -0.9230 H     1 <1>   0.4000 
@<TRIPOS>BOND
  1   1   2  1   
  2   2   3  ar  
  3   2   4  ar  
  4   3   5  1   
  5   3   6  ar  
  6   4   7  ar  
  7   4  19  1   
  8   5   8  1   
  9   6   9  ar  
 10   7   9  ar  
 11   8  20  1   
 12   8  21  1   
 13   8  22  1   
 14   9  10  1   
 15  10  11  1   
 16  10  12  1   
 17  11  13  1   
 18  11  14  1   
 19  11  23  1   
 20  12  15  1   
 21  12  16  1   
 22  12  24  1   
 23  13  17  1   
 24  13  25  1   
 25  13  26  1   
 26  14  16  1   
 27  14  27  1   
 28  14  28  1   
 29  15  17  1   
 30  15  29  1   
 31  15  30  1   
 32  16  31  1   
 33  16  32  1   
 34  17  18  1   
 35  17  33  1   
 36  18  34  1   
@<TRIPOS>SUBSTRUCTURE
  1 ****   9 GROUP 4 **** **** 0

# MOE 2024.06 (io_trps.svl 2023.06)
