@<TRIPOS>MOLECULE
NONAME
38 39 1 0 0 
SMALL
USER_CHARGES


@<TRIPOS>ATOM
  1 O        0.1850     0.0660     0.1260 O.2   1 <1>  -0.5700 
  2 C        1.3150     0.5160     0.2060 C.2   1 <1>   0.5440 
  3 N        1.4940     1.7060     0.8620 N.am  1 <1>  -0.7300 
  4 C        2.4490    -0.1720    -0.3680 C.ar  1 <1>   0.0860 
  5 C        0.4180     2.5220     1.4830 C.3   1 <1>   0.0600 
  6 C        2.5790    -1.5740    -0.2990 C.ar  1 <1>   0.4100 
  7 C        3.4610     0.5350    -1.0070 C.ar  1 <1>  -0.1500 
  8 N        3.6170    -2.2490    -0.7890 N.ar  1 <1>  -0.6200 
  9 N        1.6080    -2.3340     0.3080 N.pl3 1 <1>  -0.8690 
 10 C        4.5290    -0.1660    -1.5180 C.ar  1 <1>  -0.1500 
 11 C        4.5570    -1.5410    -1.3810 C.ar  1 <1>   0.1600 
 12 C        1.4120    -3.7850     0.0250 C.3   1 <1>   0.2890 
 13 C        0.0670    -4.2790     0.5300 C.3   1 <1>   0.2000 
 14 C        2.3990    -4.6800     0.7800 C.3   1 <1>   0.1200 
 15 O       -0.9150    -4.1670    -0.4630 O.3   1 <1>  -0.5600 
 16 C        0.3540    -5.7350     0.8700 C.3   1 <1>   0.1200 
 17 O        1.6840    -5.7760     1.2920 O.3   1 <1>  -0.5600 
 18 C       -2.2140    -4.0760     0.0170 C.3   1 <1>   0.1200 
 19 C       -3.1390    -3.9810    -1.1890 C.3   1 <1>  -0.2400 
 20 H        2.4480     2.0220     1.0460 H     1 <1>   0.3700 
 21 H       -0.5510     2.1430     1.2060 H     1 <1>   0.0800 
 22 H        0.4970     3.5420     1.1520 H     1 <1>   0.0800 
 23 H        0.5090     2.4870     2.5550 H     1 <1>   0.0800 
 24 H        3.4060     1.6050    -1.1070 H     1 <1>   0.1500 
 25 H        0.7080    -1.8320     0.3810 H     1 <1>   0.4000 
 26 H        5.3330     0.3420    -2.0200 H     1 <1>   0.1500 
 27 H        5.3970    -2.0840    -1.7820 H     1 <1>   0.1500 
 28 H        1.5010    -3.9740    -1.0310 H     1 <1>   0.0800 
 29 H       -0.2220    -3.7360     1.4130 H     1 <1>   0.0800 
 30 H        2.8370    -4.1530     1.6090 H     1 <1>   0.0800 
 31 H        3.1690    -5.0430     0.1240 H     1 <1>   0.0800 
 32 H        0.2670    -6.3550    -0.0050 H     1 <1>   0.0800 
 33 H       -0.2730    -6.1010     1.6630 H     1 <1>   0.0800 
 34 H       -2.4360    -4.9540     0.6000 H     1 <1>   0.0800 
 35 H       -2.2980    -3.1920     0.6270 H     1 <1>   0.0800 
 36 H       -3.0340    -4.8560    -1.8040 H     1 <1>   0.0800 
 37 H       -2.8980    -3.1060    -1.7660 H     1 <1>   0.0800 
 38 H       -4.1590    -3.9070    -0.8620 H     1 <1>   0.0800 
@<TRIPOS>BOND
  1   1   2  2   
  2   2   3  am  
  3   2   4  1   
  4   3   5  1   
  5   3  20  1   
  6   4   6  ar  
  7   4   7  ar  
  8   5  21  1   
  9   5  22  1   
 10   5  23  1   
 11   6   8  ar  
 12   6   9  1   
 13   7  10  ar  
 14   7  24  1   
 15   8  11  ar  
 16   9  12  1   
 17   9  25  1   
 18  10  11  ar  
 19  10  26  1   
 20  11  27  1   
 21  12  13  1   
 22  12  14  1   
 23  12  28  1   
 24  13  15  1   
 25  13  16  1   
 26  13  29  1   
 27  14  17  1   
 28  14  30  1   
 29  14  31  1   
 30  15  18  1   
 31  16  17  1   
 32  16  32  1   
 33  16  33  1   
 34  18  19  1   
 35  18  34  1   
 36  18  35  1   
 37  19  36  1   
 38  19  37  1   
 39  19  38  1   
@<TRIPOS>SUBSTRUCTURE
  1 ****   9 GROUP 4 **** **** 0

# MOE 2024.06 (io_trps.svl 2023.06)
