@<TRIPOS>MOLECULE
NONAME
54 56 1 0 0 
SMALL
USER_CHARGES


@<TRIPOS>ATOM
  1 O       -2.9150     2.1670     2.2820 O.2   1 <1>  -0.5700 
  2 C       -2.8700     1.8870     1.1050 C.2   1 <1>   0.5690 
  3 N       -3.8550     1.1210     0.5220 N.am  1 <1>  -0.6600 
  4 C       -1.6680     2.4020     0.2910 C.3   1 <1>  -0.0190 
  5 C       -5.0590     0.7030     1.2960 C.3   1 <1>   0.1400 
  6 C       -3.8480     0.5840    -0.8700 C.3   1 <1>   0.1400 
  7 C       -0.5670     1.3200     0.2310 C.3   1 <1>  -0.1600 
  8 C       -1.1160     3.7330     0.8440 C.3   1 <1>  -0.2400 
  9 C       -5.1040    -0.8240     1.3740 C.3   1 <1>  -0.1600 
 10 C       -3.8840    -0.9450    -0.8210 C.3   1 <1>  -0.1600 
 11 C        0.5640     1.6440    -0.7540 C.3   1 <1>  -0.2400 
 12 C       -5.0870    -1.4670    -0.0230 C.3   1 <1>   0.4240 
 13 O       -6.2190    -1.0180    -0.7300 O.3   1 <1>  -0.5600 
 14 C       -5.0460    -3.0080     0.0680 C.ar  1 <1>  -0.1440 
 15 C       -7.4210    -1.6890    -0.5130 C.3   1 <1>   0.1200 
 16 C       -6.0870    -3.7880    -0.4190 C.ar  1 <1>  -0.1440 
 17 C       -3.9600    -3.6510     0.6480 C.ar  1 <1>  -0.1500 
 18 C       -7.2910    -3.1130    -1.0450 C.3   1 <1>  -0.0170 
 19 C       -6.0340    -5.1700    -0.3320 C.ar  1 <1>  -0.1500 
 20 C       -3.8860    -5.0300     0.7380 C.ar  1 <1>   0.0820 
 21 C       -4.9440    -5.8130     0.2500 C.ar  1 <1>   0.0820 
 22 O       -2.7440    -5.5000     1.3190 O.3   1 <1>  -0.3620 
 23 O       -4.9020    -7.1730     0.3670 O.3   1 <1>  -0.3620 
 24 C       -2.2010    -6.7530     0.9720 C.3   1 <1>   0.0400 
 25 C       -6.0020    -7.9920     0.0350 C.3   1 <1>   0.0400 
 26 H       -2.0100     2.6130    -0.7040 H     1 <1>   0.0800 
 27 H       -5.9410     1.0740     0.8030 H     1 <1>   0.0800 
 28 H       -5.0400     1.1140     2.2910 H     1 <1>   0.0800 
 29 H       -2.9760     0.8930    -1.4140 H     1 <1>   0.0800 
 30 H       -4.7140     0.9550    -1.3930 H     1 <1>   0.0800 
 31 H       -1.0110     0.3850    -0.0610 H     1 <1>   0.0800 
 32 H       -0.1560     1.1800     1.2170 H     1 <1>   0.0800 
 33 H       -0.6750     3.5820     1.8140 H     1 <1>   0.0800 
 34 H       -1.9170     4.4450     0.9470 H     1 <1>   0.0800 
 35 H       -0.3780     4.1520     0.1850 H     1 <1>   0.0800 
 36 H       -5.9740    -1.1400     1.9180 H     1 <1>   0.0800 
 37 H       -4.2480    -1.1530     1.9340 H     1 <1>   0.0800 
 38 H       -2.9690    -1.2880    -0.3780 H     1 <1>   0.0800 
 39 H       -3.9280    -1.3420    -1.8190 H     1 <1>   0.0800 
 40 H        0.1690     1.8290    -1.7370 H     1 <1>   0.0800 
 41 H        1.2450     0.8120    -0.8120 H     1 <1>   0.0800 
 42 H        1.1210     2.5060    -0.4330 H     1 <1>   0.0800 
 43 H       -8.1950    -1.1590    -1.0400 H     1 <1>   0.0800 
 44 H       -7.6450    -1.6870     0.5390 H     1 <1>   0.0800 
 45 H       -3.1390    -3.0830     1.0460 H     1 <1>   0.1500 
 46 H       -7.1770    -3.0860    -2.1140 H     1 <1>   0.0800 
 47 H       -8.1880    -3.6590    -0.8140 H     1 <1>   0.0800 
 48 H       -6.8580    -5.7310    -0.7260 H     1 <1>   0.1500 
 49 H       -1.1690    -6.7660     1.2720 H     1 <1>   0.0800 
 50 H       -2.2780    -6.8880    -0.0930 H     1 <1>   0.0800 
 51 H       -2.7400    -7.5220     1.4940 H     1 <1>   0.0800 
 52 H       -5.7450    -9.0080     0.2740 H     1 <1>   0.0800 
 53 H       -6.1980    -7.9050    -1.0190 H     1 <1>   0.0800 
 54 H       -6.8540    -7.6850     0.6160 H     1 <1>   0.0800 
@<TRIPOS>BOND
  1   1   2  2   
  2   2   3  am  
  3   2   4  1   
  4   3   5  1   
  5   3   6  1   
  6   4   7  1   
  7   4   8  1   
  8   4  26  1   
  9   5   9  1   
 10   5  27  1   
 11   5  28  1   
 12   6  10  1   
 13   6  29  1   
 14   6  30  1   
 15   7  11  1   
 16   7  31  1   
 17   7  32  1   
 18   8  33  1   
 19   8  34  1   
 20   8  35  1   
 21   9  12  1   
 22   9  36  1   
 23   9  37  1   
 24  10  12  1   
 25  10  38  1   
 26  10  39  1   
 27  11  40  1   
 28  11  41  1   
 29  11  42  1   
 30  12  13  1   
 31  12  14  1   
 32  13  15  1   
 33  14  16  ar  
 34  14  17  ar  
 35  15  18  1   
 36  15  43  1   
 37  15  44  1   
 38  16  18  1   
 39  16  19  ar  
 40  17  20  ar  
 41  17  45  1   
 42  18  46  1   
 43  18  47  1   
 44  19  21  ar  
 45  19  48  1   
 46  20  21  ar  
 47  20  22  1   
 48  21  23  1   
 49  22  24  1   
 50  23  25  1   
 51  24  49  1   
 52  24  50  1   
 53  24  51  1   
 54  25  52  1   
 55  25  53  1   
 56  25  54  1   
@<TRIPOS>SUBSTRUCTURE
  1 ****  12 GROUP 4 **** **** 0

# MOE 2024.06 (io_trps.svl 2023.06)
