@<TRIPOS>MOLECULE
NONAME
46 48 1 0 0 
SMALL
USER_CHARGES


@<TRIPOS>ATOM
  1 O        0.6500     0.3870    -0.1000 O.3   1 <1>  -0.6800 
  2 C        1.6340    -0.2230    -0.8670 C.3   1 <1>   0.2000 
  3 C        2.2620    -1.3790    -0.0720 C.3   1 <1>  -0.0800 
  4 C        2.7810     0.7660    -1.0850 C.3   1 <1>   0.1100 
  5 C        3.7410    -0.9970     0.0670 C.3   1 <1>   0.1100 
  6 C        2.0580    -2.7460    -0.7500 C.3   1 <1>  -0.0170 
  7 N        3.7570     0.4590    -0.0300 N.3   1 <1>  -0.8100 
  8 C        2.7650    -3.8630     0.0030 C.ar  1 <1>   0.1670 
  9 C        5.1050     1.0380    -0.2510 C.3   1 <1>   0.2540 
 10 N        4.0270    -4.0910    -0.3260 N.ar  1 <1>  -0.6200 
 11 C        2.0830    -4.5830     0.9830 C.ar  1 <1>   0.1600 
 12 C        5.1510     2.5320     0.1130 C.cat 1 <1>   0.6560 
 13 C        4.5530    -5.0790     0.3790 C.ar  1 <1>   0.1600 
 14 N        2.6090    -5.5670     1.6920 N.ar  1 <1>  -0.6200 
 15 N        4.1710     3.1210     0.7700 N.pl3 1 <1>  -0.7000 
 16 N        6.1130     3.4190    -0.1510 N.pl3 1 <1>  -0.7640 
 17 C        3.8670    -5.7930     1.3550 C.ar  1 <1>   0.1600 
 18 C        4.4860     4.4320     0.9470 C.2   1 <1>   0.1820 
 19 C        5.6980     4.6250     0.3740 C.2   1 <1>   0.1820 
 20 C        7.4000     3.1890    -0.8630 C.3   1 <1>   0.2740 
 21 C        3.5390     5.3670     1.6740 C.3   1 <1>  -0.0720 
 22 C        6.5360     5.8870     0.2690 C.3   1 <1>  -0.0720 
 23 H       -0.0700    -0.2400     0.1040 H     1 <1>   0.4000 
 24 H        1.1970    -0.5270    -1.8030 H     1 <1>   0.0800 
 25 H        1.8440    -1.4140     0.9190 H     1 <1>   0.0800 
 26 H        2.4370     1.7850    -1.0370 H     1 <1>   0.0800 
 27 H        3.2190     0.5800    -2.0510 H     1 <1>   0.0800 
 28 H        4.3140    -1.4230    -0.7410 H     1 <1>   0.0800 
 29 H        4.1470    -1.3320     1.0070 H     1 <1>   0.0800 
 30 H        2.4340    -2.7170    -1.7580 H     1 <1>   0.0800 
 31 H        1.0060    -2.9640    -0.8050 H     1 <1>   0.0800 
 32 H        5.8120     0.5290     0.3800 H     1 <1>   0.0800 
 33 H        5.4030     0.9000    -1.2750 H     1 <1>   0.0800 
 34 H        1.0580    -4.3340     1.1920 H     1 <1>   0.1500 
 35 H        5.5760    -5.3390     0.1760 H     1 <1>   0.1500 
 36 H        3.3360     2.5910     1.0560 H     1 <1>   0.4500 
 37 H        4.3820    -6.5810     1.8770 H     1 <1>   0.1500 
 38 H        7.4440     3.8060    -1.7450 H     1 <1>   0.0800 
 39 H        7.4980     2.1590    -1.1570 H     1 <1>   0.0800 
 40 H        8.2240     3.4420    -0.2170 H     1 <1>   0.0800 
 41 H        3.9420     6.3620     1.7220 H     1 <1>   0.0800 
 42 H        3.3750     5.0140     2.6760 H     1 <1>   0.0800 
 43 H        2.5960     5.4030     1.1600 H     1 <1>   0.0800 
 44 H        6.0370     6.7160     0.7360 H     1 <1>   0.0800 
 45 H        6.7050     6.1310    -0.7640 H     1 <1>   0.0800 
 46 H        7.4820     5.7420     0.7570 H     1 <1>   0.0800 
@<TRIPOS>BOND
  1   1   2  1   
  2   1  23  1   
  3   2   3  1   
  4   2   4  1   
  5   2  24  1   
  6   3   5  1   
  7   3   6  1   
  8   3  25  1   
  9   4   7  1   
 10   4  26  1   
 11   4  27  1   
 12   5   7  1   
 13   5  28  1   
 14   5  29  1   
 15   6   8  1   
 16   6  30  1   
 17   6  31  1   
 18   7   9  1   
 19   8  10  ar  
 20   8  11  ar  
 21   9  12  1   
 22   9  32  1   
 23   9  33  1   
 24  10  13  ar  
 25  11  14  ar  
 26  11  34  1   
 27  12  15  ar  
 28  12  16  ar  
 29  13  17  ar  
 30  13  35  1   
 31  14  17  ar  
 32  15  18  1   
 33  15  36  1   
 34  16  19  1   
 35  16  20  1   
 36  17  37  1   
 37  18  19  2   
 38  18  21  1   
 39  19  22  1   
 40  20  38  1   
 41  20  39  1   
 42  20  40  1   
 43  21  41  1   
 44  21  42  1   
 45  21  43  1   
 46  22  44  1   
 47  22  45  1   
 48  22  46  1   
@<TRIPOS>SUBSTRUCTURE
  1 ****   7 GROUP 4 **** **** 0

# MOE 2024.06 (io_trps.svl 2023.06)
