@<TRIPOS>MOLECULE
NONAME
44 47 1 0 0 
SMALL
USER_CHARGES


@<TRIPOS>ATOM
  1 S       -0.4650    -1.6820    -2.2690 S.3   1 <1>  -0.4600 
  2 C       -1.4170    -0.2120    -1.7680 C.3   1 <1>   0.2510 
  3 C       -1.3610    -2.9390    -1.3090 C.3   1 <1>   0.2510 
  4 C       -2.4370    -0.7760    -0.8070 C.2   1 <1>   0.1080 
  5 C       -2.4090    -2.1350    -0.5760 C.2   1 <1>  -0.1810 
  6 N       -3.3640    -0.1670    -0.1410 N.2   1 <1>  -0.7070 
  7 C       -3.4090    -2.3750     0.3030 C.2   1 <1>  -0.0880 
  8 N       -3.9810    -1.1560     0.5530 N.pl3 1 <1>   0.3140 
  9 N       -3.7540    -3.6360     0.8500 N.am  1 <1>  -0.4940 
 10 C       -5.0570    -0.8150     1.4940 C.3   1 <1>   0.0160 
 11 C       -4.9700    -4.1520     1.2020 C.2   1 <1>   0.5690 
 12 O       -6.0060    -3.5390     1.1220 O.2   1 <1>  -0.5700 
 13 C       -5.0170    -5.5770     1.7100 C.3   1 <1>  -0.0990 
 14 C       -6.0980    -6.3750     0.9810 C.3   1 <1>   0.0700 
 15 S       -5.9900    -8.1260     1.5560 S.3   1 <1>  -0.3310 
 16 C       -7.2840    -9.0330     0.6870 C.ar  1 <1>   0.1010 
 17 C       -7.3710   -10.3910     0.9380 C.ar  1 <1>  -0.1500 
 18 C       -8.1560    -8.4090    -0.1950 C.ar  1 <1>  -0.1500 
 19 C       -8.3420   -11.1390     0.2960 C.ar  1 <1>   0.0830 
 20 C       -9.1320    -9.1590    -0.8320 C.ar  1 <1>  -0.1500 
 21 O       -8.4070   -12.4730     0.5360 O.3   1 <1>  -0.3630 
 22 C       -9.2320   -10.5180    -0.5850 C.ar  1 <1>   0.0830 
 23 C       -9.1820   -13.2470    -0.3590 C.3   1 <1>   0.1200 
 24 O      -10.2080   -11.2260    -1.2110 O.3   1 <1>  -0.3630 
 25 C      -10.4880   -12.5160    -0.7010 C.3   1 <1>   0.1200 
 26 H       -1.8770     0.2130    -2.6410 H     1 <1>   0.0800 
 27 H       -0.7510     0.4830    -1.2900 H     1 <1>   0.0800 
 28 H       -0.6610    -3.4110    -0.6440 H     1 <1>   0.0800 
 29 H       -1.7930    -3.6410    -2.0000 H     1 <1>   0.0800 
 30 H       -2.9750    -4.2890     0.9180 H     1 <1>   0.3700 
 31 H       -4.9610     0.2160     1.7810 H     1 <1>   0.0800 
 32 H       -4.9840    -1.4400     2.3630 H     1 <1>   0.0800 
 33 H       -6.0030    -0.9670     1.0110 H     1 <1>   0.0800 
 34 H       -5.2360    -5.5600     2.7620 H     1 <1>   0.0800 
 35 H       -4.0660    -6.0530     1.5640 H     1 <1>   0.0800 
 36 H       -5.9420    -6.3750    -0.0830 H     1 <1>   0.0800 
 37 H       -7.0830    -6.0110     1.2190 H     1 <1>   0.0800 
 38 H       -6.6910   -10.8640     1.6210 H     1 <1>   0.1500 
 39 H       -8.0960    -7.3570    -0.3960 H     1 <1>   0.1500 
 40 H       -9.8200    -8.6970    -1.5170 H     1 <1>   0.1500 
 41 H       -9.3840   -14.1930     0.1100 H     1 <1>   0.0800 
 42 H       -8.6010   -13.4100    -1.2500 H     1 <1>   0.0800 
 43 H      -11.0940   -12.4030     0.1800 H     1 <1>   0.0800 
 44 H      -11.0440   -13.0540    -1.4470 H     1 <1>   0.0800 
@<TRIPOS>BOND
  1   1   2  1   
  2   1   3  1   
  3   2   4  1   
  4   2  26  1   
  5   2  27  1   
  6   3   5  1   
  7   3  28  1   
  8   3  29  1   
  9   4   5  1   
 10   4   6  2   
 11   5   7  2   
 12   6   8  1   
 13   7   8  1   
 14   7   9  1   
 15   8  10  1   
 16   9  11  am  
 17   9  30  1   
 18  10  31  1   
 19  10  32  1   
 20  10  33  1   
 21  11  12  2   
 22  11  13  1   
 23  13  14  1   
 24  13  34  1   
 25  13  35  1   
 26  14  15  1   
 27  14  36  1   
 28  14  37  1   
 29  15  16  1   
 30  16  17  ar  
 31  16  18  ar  
 32  17  19  ar  
 33  17  38  1   
 34  18  20  ar  
 35  18  39  1   
 36  19  21  1   
 37  19  22  ar  
 38  20  22  ar  
 39  20  40  1   
 40  21  23  1   
 41  22  24  1   
 42  23  25  1   
 43  23  41  1   
 44  23  42  1   
 45  24  25  1   
 46  25  43  1   
 47  25  44  1   
@<TRIPOS>SUBSTRUCTURE
  1 ****  14 GROUP 4 **** **** 0

# MOE 2024.06 (io_trps.svl 2023.06)
