@<TRIPOS>MOLECULE
NONAME
49 50 1 0 0 
SMALL
USER_CHARGES


@<TRIPOS>ATOM
  1 O       -0.7530    -1.3720    -1.7890 O.2   1 <1>  -0.5700 
  2 C       -0.1920    -1.5370    -0.7240 C.2   1 <1>   0.5440 
  3 N       -0.8140    -2.3770     0.1520 N.am  1 <1>  -0.7300 
  4 C        1.0140    -0.8110    -0.4210 C.ar  1 <1>   0.0860 
  5 C       -0.4230    -2.7070     1.5430 C.3   1 <1>   0.0600 
  6 C        2.2590    -1.4400    -0.2130 C.ar  1 <1>   0.4100 
  7 C        0.9620     0.5730    -0.3330 C.ar  1 <1>  -0.1500 
  8 N        3.3720    -0.7720     0.1010 N.ar  1 <1>  -0.6200 
  9 N        2.4280    -2.8110    -0.3360 N.pl3 1 <1>  -0.8380 
 10 C        2.1150     1.2550    -0.0230 C.ar  1 <1>  -0.1500 
 11 C        3.2790     0.5390     0.1850 C.ar  1 <1>   0.1600 
 12 C        2.5410    -3.3530    -1.7220 C.3   1 <1>   0.2090 
 13 C        3.3160    -3.4880     0.6540 C.3   1 <1>   0.1290 
 14 C        1.3560    -4.2520    -2.0930 C.3   1 <1>  -0.1600 
 15 C        1.0290    -5.2900    -1.0220 C.3   1 <1>   0.1200 
 16 O       -0.0610    -6.0650    -1.4630 O.3   1 <1>  -0.3630 
 17 C       -0.6960    -6.9130    -0.6170 C.ar  1 <1>   0.0830 
 18 C       -1.9020    -7.4410    -1.0500 C.ar  1 <1>  -0.1500 
 19 C       -0.2050    -7.2650     0.6370 C.ar  1 <1>  -0.1500 
 20 C       -2.6260    -8.3080    -0.2480 C.ar  1 <1>  -0.1430 
 21 C       -0.9260    -8.1300     1.4420 C.ar  1 <1>  -0.1500 
 22 C       -2.1320    -8.6490     1.0010 C.ar  1 <1>  -0.1500 
 23 C       -3.9490    -8.8770    -0.7340 C.3   1 <1>  -0.0170 
 24 C       -5.1070    -7.9640    -0.3270 C.3   1 <1>  -0.2400 
 25 H       -1.6370    -2.8570    -0.2220 H     1 <1>   0.3700 
 26 H        0.5130    -2.2420     1.7970 H     1 <1>   0.0800 
 27 H       -0.3210    -3.7730     1.6460 H     1 <1>   0.0800 
 28 H       -1.1810    -2.3600     2.2230 H     1 <1>   0.0800 
 29 H        0.0340     1.0900    -0.5060 H     1 <1>   0.1500 
 30 H        2.1170     2.3270     0.0570 H     1 <1>   0.1500 
 31 H        4.1790     1.0760     0.4320 H     1 <1>   0.1500 
 32 H        3.4560    -3.9140    -1.8130 H     1 <1>   0.0800 
 33 H        2.5950    -2.5380    -2.4250 H     1 <1>   0.0800 
 34 H        3.1870    -3.0410     1.6250 H     1 <1>   0.0800 
 35 H        4.3450    -3.3750     0.3590 H     1 <1>   0.0800 
 36 H        3.0770    -4.5340     0.7210 H     1 <1>   0.0800 
 37 H        1.5860    -4.7570    -3.0130 H     1 <1>   0.0800 
 38 H        0.4910    -3.6420    -2.2660 H     1 <1>   0.0800 
 39 H        0.7440    -4.8020    -0.1080 H     1 <1>   0.0800 
 40 H        1.8640    -5.9460    -0.8520 H     1 <1>   0.0800 
 41 H       -2.2670    -7.1600    -2.0210 H     1 <1>   0.1500 
 42 H        0.7290    -6.8810     0.9980 H     1 <1>   0.1500 
 43 H       -0.5490    -8.4040     2.4120 H     1 <1>   0.1500 
 44 H       -2.6850    -9.3190     1.6350 H     1 <1>   0.1500 
 45 H       -4.0980    -9.8580    -0.3180 H     1 <1>   0.0800 
 46 H       -3.9280    -8.9770    -1.8060 H     1 <1>   0.0800 
 47 H       -5.1470    -7.8700     0.7430 H     1 <1>   0.0800 
 48 H       -6.0400    -8.3690    -0.6750 H     1 <1>   0.0800 
 49 H       -4.9730    -6.9850    -0.7540 H     1 <1>   0.0800 
@<TRIPOS>BOND
  1   1   2  2   
  2   2   3  am  
  3   2   4  1   
  4   3   5  1   
  5   3  25  1   
  6   4   6  ar  
  7   4   7  ar  
  8   5  26  1   
  9   5  27  1   
 10   5  28  1   
 11   6   8  ar  
 12   6   9  1   
 13   7  10  ar  
 14   7  29  1   
 15   8  11  ar  
 16   9  12  1   
 17   9  13  1   
 18  10  11  ar  
 19  10  30  1   
 20  11  31  1   
 21  12  14  1   
 22  12  32  1   
 23  12  33  1   
 24  13  34  1   
 25  13  35  1   
 26  13  36  1   
 27  14  15  1   
 28  14  37  1   
 29  14  38  1   
 30  15  16  1   
 31  15  39  1   
 32  15  40  1   
 33  16  17  1   
 34  17  18  ar  
 35  17  19  ar  
 36  18  20  ar  
 37  18  41  1   
 38  19  21  ar  
 39  19  42  1   
 40  20  22  ar  
 41  20  23  1   
 42  21  22  ar  
 43  21  43  1   
 44  22  44  1   
 45  23  24  1   
 46  23  45  1   
 47  23  46  1   
 48  24  47  1   
 49  24  48  1   
 50  24  49  1   
@<TRIPOS>SUBSTRUCTURE
  1 ****  15 GROUP 4 **** **** 0

# MOE 2024.06 (io_trps.svl 2023.06)
