@<TRIPOS>MOLECULE
NONAME
61 63 1 0 0 
SMALL
USER_CHARGES


@<TRIPOS>ATOM
  1 O        0.5480     0.0290    -1.1300 O.3   1 <1>  -0.5600 
  2 C        1.7740    -0.6590    -1.2140 C.3   1 <1>   0.2000 
  3 C        0.6250     1.4130    -1.3110 C.3   1 <1>   0.1200 
  4 C        2.8110    -0.0880    -0.2090 C.3   1 <1>   0.5660 
  5 C        1.5190    -2.1490    -0.9360 C.3   1 <1>   0.1200 
  6 C        1.5250     2.0390    -0.2320 C.3   1 <1>   0.3430 
  7 N        2.8820     1.4050    -0.2220 N.4   1 <1>  -0.9590 
  8 C        4.2090    -0.6300    -0.4780 C.ar  1 <1>  -0.1430 
  9 O        1.3100    -2.3580     0.4260 O.3   1 <1>  -0.6800 
 10 C        3.7470     1.9370     0.8590 C.3   1 <1>   0.4870 
 11 C        4.8440    -1.3700     0.5100 C.ar  1 <1>  -0.1500 
 12 C        4.8670    -0.4010    -1.6810 C.ar  1 <1>  -0.1500 
 13 C        3.9430     3.4170     0.6070 C.ar  1 <1>  -0.1430 
 14 C        6.1200    -1.8670     0.3130 C.ar  1 <1>   0.0830 
 15 C        6.1470    -0.8890    -1.8810 C.ar  1 <1>  -0.1500 
 16 C        4.5240     3.8530    -0.5790 C.ar  1 <1>   0.0830 
 17 C        3.5210     4.3430     1.5480 C.ar  1 <1>  -0.1500 
 18 O        6.6560    -2.6000     1.3170 O.3   1 <1>  -0.3620 
 19 C        6.7900    -1.6030    -0.8860 C.ar  1 <1>   0.0830 
 20 O        4.9460     2.9310    -1.4760 O.3   1 <1>  -0.3630 
 21 C        4.6400     5.2150    -0.8470 C.ar  1 <1>  -0.1430 
 22 C        3.6570     5.6980     1.3010 C.ar  1 <1>  -0.1430 
 23 C        6.8930    -3.9650     1.0460 C.3   1 <1>   0.0400 
 24 O        8.0570    -2.0130    -1.1410 O.3   1 <1>  -0.3630 
 25 C        6.3380     2.6820    -1.5020 C.3   1 <1>   0.0400 
 26 C        4.2110     6.1240     0.1060 C.ar  1 <1>  -0.1500 
 27 C        5.2120     5.7460    -2.1550 C.3   1 <1>  -0.0970 
 28 C        3.2050     6.7220     2.3280 C.3   1 <1>  -0.0970 
 29 C        9.0780    -1.5160    -0.3020 C.3   1 <1>   0.0400 
 30 H        2.1310    -0.5530    -2.2230 H     1 <1>   0.0800 
 31 H        0.9980     1.6190    -2.2990 H     1 <1>   0.0800 
 32 H       -0.3740     1.8080    -1.2320 H     1 <1>   0.0800 
 33 H        2.5060    -0.4070     0.7740 H     1 <1>   0.0800 
 34 H        2.3690    -2.7410    -1.2320 H     1 <1>   0.0800 
 35 H        0.6500    -2.4840    -1.4780 H     1 <1>   0.0800 
 36 H        1.0510     1.9060     0.7270 H     1 <1>   0.0800 
 37 H        1.6160     3.0980    -0.4140 H     1 <1>   0.0800 
 38 H        3.3770     1.6900    -1.0810 H     1 <1>   0.4500 
 39 H        0.9160    -3.2420     0.5830 H     1 <1>   0.4000 
 40 H        3.2910     1.7750     1.8210 H     1 <1>   0.0800 
 41 H        4.7090     1.4490     0.8430 H     1 <1>   0.0800 
 42 H        4.3560    -1.5840     1.4460 H     1 <1>   0.1500 
 43 H        4.4030     0.1580    -2.4760 H     1 <1>   0.1500 
 44 H        6.6610    -0.7160    -2.8110 H     1 <1>   0.1500 
 45 H        3.0850     4.0210     2.4780 H     1 <1>   0.1500 
 46 H        7.2430    -4.4320     1.9490 H     1 <1>   0.0800 
 47 H        7.6380    -4.0550     0.2760 H     1 <1>   0.0800 
 48 H        5.9730    -4.4220     0.7280 H     1 <1>   0.0800 
 49 H        6.5540     2.0330    -2.3310 H     1 <1>   0.0800 
 50 H        6.6280     2.2090    -0.5800 H     1 <1>   0.0800 
 51 H        6.8680     3.6100    -1.6210 H     1 <1>   0.0800 
 52 H        4.3080     7.1800    -0.0830 H     1 <1>   0.1500 
 53 H        4.7630     6.6900    -2.4060 H     1 <1>   0.0800 
 54 H        5.0200     5.0630    -2.9630 H     1 <1>   0.0800 
 55 H        6.2740     5.8870    -2.0620 H     1 <1>   0.0800 
 56 H        2.7140     7.5450     1.8420 H     1 <1>   0.0800 
 57 H        4.0570     7.0980     2.8660 H     1 <1>   0.0800 
 58 H        2.5190     6.2860     3.0320 H     1 <1>   0.0800 
 59 H       10.0250    -1.8150    -0.7140 H     1 <1>   0.0800 
 60 H        8.9650    -1.9260     0.6850 H     1 <1>   0.0800 
 61 H        9.0130    -0.4430    -0.2710 H     1 <1>   0.0800 
@<TRIPOS>BOND
  1   1   2  1   
  2   1   3  1   
  3   2   4  1   
  4   2   5  1   
  5   2  30  1   
  6   3   6  1   
  7   3  31  1   
  8   3  32  1   
  9   4   7  1   
 10   4   8  1   
 11   4  33  1   
 12   5   9  1   
 13   5  34  1   
 14   5  35  1   
 15   6   7  1   
 16   6  36  1   
 17   6  37  1   
 18   7  10  1   
 19   7  38  1   
 20   8  11  ar  
 21   8  12  ar  
 22   9  39  1   
 23  10  13  1   
 24  10  40  1   
 25  10  41  1   
 26  11  14  ar  
 27  11  42  1   
 28  12  15  ar  
 29  12  43  1   
 30  13  16  ar  
 31  13  17  ar  
 32  14  18  1   
 33  14  19  ar  
 34  15  19  ar  
 35  15  44  1   
 36  16  20  1   
 37  16  21  ar  
 38  17  22  ar  
 39  17  45  1   
 40  18  23  1   
 41  19  24  1   
 42  20  25  1   
 43  21  26  ar  
 44  21  27  1   
 45  22  26  ar  
 46  22  28  1   
 47  23  46  1   
 48  23  47  1   
 49  23  48  1   
 50  24  29  1   
 51  25  49  1   
 52  25  50  1   
 53  25  51  1   
 54  26  52  1   
 55  27  53  1   
 56  27  54  1   
 57  27  55  1   
 58  28  56  1   
 59  28  57  1   
 60  28  58  1   
 61  29  59  1   
 62  29  60  1   
 63  29  61  1   
@<TRIPOS>SUBSTRUCTURE
  1 ****   7 GROUP 4 **** **** 0

# MOE 2024.06 (io_trps.svl 2023.06)
