@<TRIPOS>MOLECULE
NONAME
58 61 1 0 0 
SMALL
USER_CHARGES


@<TRIPOS>ATOM
  1 O       -3.9750     1.3670    -2.3180 O.2   1 <1>  -0.5700 
  2 C       -2.8750     1.2620    -1.8200 C.2   1 <1>   0.5690 
  3 N       -2.3140     0.0340    -1.6480 N.am  1 <1>  -0.7300 
  4 C       -2.1050     2.5310    -1.3600 C.3   1 <1>   0.3410 
  5 C       -2.9660    -1.2520    -1.9760 C.3   1 <1>   0.2200 
  6 O       -0.8880     2.1050    -0.7330 O.3   1 <1>  -0.3630 
  7 C       -2.9470     3.3240    -0.3440 C.3   1 <1>  -0.2400 
  8 C       -1.7660     3.4110    -2.5760 C.3   1 <1>  -0.2400 
  9 C       -3.7080    -1.7530    -0.7500 C.3   1 <1>  -0.0800 
 10 C       -1.9180    -2.3430    -2.1930 C.3   1 <1>   0.1200 
 11 C       -0.0090     2.9830    -0.1960 C.ar  1 <1>   0.0820 
 12 C       -2.5970    -2.4780     0.0080 C.3   1 <1>   0.1200 
 13 C       -4.8650    -2.6940    -1.1370 C.3   1 <1>  -0.0160 
 14 O       -1.7060    -2.9580    -0.9540 O.3   1 <1>  -0.5600 
 15 C       -0.1040     3.3240     1.1440 C.ar  1 <1>  -0.1500 
 16 C        1.0170     3.5020    -0.9700 C.ar  1 <1>  -0.1500 
 17 C       -5.6820    -3.1020     0.0840 C.ar  1 <1>  -0.1440 
 18 C        0.8040     4.2090     1.6980 C.ar  1 <1>  -0.1500 
 19 C        1.9240     4.3870    -0.4130 C.ar  1 <1>  -0.1500 
 20 C       -6.6050    -2.2250     0.7040 C.ar  1 <1>   0.0000 
 21 C       -5.5380    -4.3480     0.6200 C.ar  1 <1>  -0.1500 
 22 C        1.8190     4.7480     0.9220 C.ar  1 <1>  -0.1440 
 23 C       -7.2990    -2.7010     1.8430 C.ar  1 <1>   0.3100 
 24 C       -6.8820    -0.9100     0.2610 C.ar  1 <1>  -0.1500 
 25 C       -6.2780    -4.7200     1.7480 C.ar  1 <1>   0.1600 
 26 C        2.8150     5.7180     1.5310 C.3   1 <1>  -0.0970 
 27 N       -7.1240    -3.9470     2.3520 N.ar  1 <1>  -0.6200 
 28 C       -8.2150    -1.8520     2.4850 C.ar  1 <1>  -0.1500 
 29 C       -7.7820    -0.1090     0.9090 C.ar  1 <1>  -0.1500 
 30 C       -8.4580    -0.5820     2.0360 C.ar  1 <1>  -0.1500 
 31 H       -1.4120    -0.0220    -1.1640 H     1 <1>   0.3700 
 32 H       -3.6040    -1.1270    -2.8350 H     1 <1>   0.0800 
 33 H       -3.8920     3.5870    -0.7840 H     1 <1>   0.0800 
 34 H       -2.4530     4.2340    -0.0570 H     1 <1>   0.0800 
 35 H       -3.1390     2.7230     0.5260 H     1 <1>   0.0800 
 36 H       -2.6700     3.6660    -3.1000 H     1 <1>   0.0800 
 37 H       -1.1260     2.8750    -3.2530 H     1 <1>   0.0800 
 38 H       -1.2910     4.3250    -2.2720 H     1 <1>   0.0800 
 39 H       -4.0940    -0.9350    -0.1680 H     1 <1>   0.0800 
 40 H       -0.9880    -1.9530    -2.5660 H     1 <1>   0.0800 
 41 H       -2.2920    -3.0950    -2.8640 H     1 <1>   0.0800 
 42 H       -2.9530    -3.3000     0.6040 H     1 <1>   0.0800 
 43 H       -2.0570    -1.7900     0.6350 H     1 <1>   0.0800 
 44 H       -4.4720    -3.5730    -1.6190 H     1 <1>   0.0800 
 45 H       -5.5120    -2.2120    -1.8480 H     1 <1>   0.0800 
 46 H       -0.8830     2.8970     1.7480 H     1 <1>   0.1500 
 47 H        1.1070     3.2120    -2.0010 H     1 <1>   0.1500 
 48 H        0.7210     4.4730     2.7380 H     1 <1>   0.1500 
 49 H        2.7140     4.7900    -1.0210 H     1 <1>   0.1500 
 50 H       -4.8590    -5.0670     0.2000 H     1 <1>   0.1500 
 51 H       -6.3770    -0.5220    -0.6050 H     1 <1>   0.1500 
 52 H       -6.1330    -5.7130     2.1400 H     1 <1>   0.1500 
 53 H        2.3560     6.2790     2.3250 H     1 <1>   0.0800 
 54 H        3.1690     6.4110     0.7890 H     1 <1>   0.0800 
 55 H        3.6530     5.1760     1.9290 H     1 <1>   0.0800 
 56 H       -8.7240    -2.2380     3.3480 H     1 <1>   0.1500 
 57 H       -7.9810     0.8900     0.5600 H     1 <1>   0.1500 
 58 H       -9.1640     0.0570     2.5370 H     1 <1>   0.1500 
@<TRIPOS>BOND
  1   1   2  2   
  2   2   3  am  
  3   2   4  1   
  4   3   5  1   
  5   3  31  1   
  6   4   6  1   
  7   4   7  1   
  8   4   8  1   
  9   5   9  1   
 10   5  10  1   
 11   5  32  1   
 12   6  11  1   
 13   7  33  1   
 14   7  34  1   
 15   7  35  1   
 16   8  36  1   
 17   8  37  1   
 18   8  38  1   
 19   9  12  1   
 20   9  13  1   
 21   9  39  1   
 22  10  14  1   
 23  10  40  1   
 24  10  41  1   
 25  11  15  ar  
 26  11  16  ar  
 27  12  14  1   
 28  12  42  1   
 29  12  43  1   
 30  13  17  1   
 31  13  44  1   
 32  13  45  1   
 33  15  18  ar  
 34  15  46  1   
 35  16  19  ar  
 36  16  47  1   
 37  17  20  ar  
 38  17  21  ar  
 39  18  22  ar  
 40  18  48  1   
 41  19  22  ar  
 42  19  49  1   
 43  20  23  ar  
 44  20  24  ar  
 45  21  25  ar  
 46  21  50  1   
 47  22  26  1   
 48  23  27  ar  
 49  23  28  ar  
 50  24  29  ar  
 51  24  51  1   
 52  25  27  ar  
 53  25  52  1   
 54  26  53  1   
 55  26  54  1   
 56  26  55  1   
 57  28  30  ar  
 58  28  56  1   
 59  29  30  ar  
 60  29  57  1   
 61  30  58  1   
@<TRIPOS>SUBSTRUCTURE
  1 ****   3 GROUP 4 **** **** 0

# MOE 2024.06 (io_trps.svl 2023.06)
