@<TRIPOS>MOLECULE
NONAME
47 51 1 0 0 
SMALL
USER_CHARGES


@<TRIPOS>ATOM
  1 O        0.6400     0.9200    -1.0480 O.3   1 <1>  -0.5600 
  2 C        1.6490     0.4380    -0.2250 C.3   1 <1>   0.2800 
  3 C       -0.4500     0.7470    -0.2310 C.3   1 <1>   0.2000 
  4 C        1.4810     1.3390     0.9940 C.3   1 <1>  -0.0800 
  5 C        3.0630     0.6660    -0.7700 C.3   1 <1>   0.2090 
  6 C        1.1610    -0.9810     0.0570 C.3   1 <1>  -0.1600 
  7 C       -0.0380     1.6400     0.9490 C.3   1 <1>  -0.0800 
  8 C       -0.3510    -0.7470     0.1120 C.3   1 <1>  -0.1600 
  9 C        2.5050     2.4590     0.7580 C.3   1 <1>   0.2090 
 10 N        3.6060     1.8220    -0.0020 N.pl3 1 <1>  -0.8380 
 11 C       -0.3440     3.1180     0.6680 C.3   1 <1>   0.3430 
 12 C        4.8930     1.7460     0.4960 C.ar  1 <1>   0.4100 
 13 N       -1.8130     3.3800     0.5760 N.4   1 <1>  -0.9590 
 14 N        5.0740     1.9000     1.7880 N.ar  1 <1>  -0.6200 
 15 C        5.9820     1.4860    -0.3510 C.ar  1 <1>   0.0000 
 16 C       -2.2050     3.6670    -0.8420 C.3   1 <1>   0.2630 
 17 C       -2.2100     4.5180     1.4620 C.3   1 <1>   0.2630 
 18 C        6.3330     1.7840     2.2320 C.ar  1 <1>   0.4700 
 19 C        7.2210     1.3840     0.2410 C.ar  1 <1>   0.1050 
 20 C        6.1920     1.2900    -1.7370 C.2   1 <1>  -0.1500 
 21 N        7.4240     1.5310     1.5520 N.ar  1 <1>  -0.5670 
 22 N        8.1560     1.1270    -0.7140 N.pl3 1 <1>   0.0330 
 23 C        7.5170     1.0710    -1.9250 C.2   1 <1>  -0.3020 
 24 H       -1.3610     1.0110    -0.7370 H     1 <1>   0.0800 
 25 H        1.7590     0.8090     1.8890 H     1 <1>   0.0800 
 26 H        3.0340     0.8850    -1.8230 H     1 <1>   0.0800 
 27 H        3.6730    -0.2030    -0.5940 H     1 <1>   0.0800 
 28 H        1.4230    -1.6330    -0.7580 H     1 <1>   0.0800 
 29 H        1.5620    -1.3740     0.9750 H     1 <1>   0.0800 
 30 H       -0.5130     1.3310     1.8630 H     1 <1>   0.0800 
 31 H       -0.7680    -0.9700     1.0780 H     1 <1>   0.0800 
 32 H       -0.8530    -1.3350    -0.6370 H     1 <1>   0.0800 
 33 H        2.8400     2.8870     1.6870 H     1 <1>   0.0800 
 34 H        2.1200     3.2450     0.1360 H     1 <1>   0.0800 
 35 H        0.1340     3.4050    -0.2560 H     1 <1>   0.0800 
 36 H        0.0840     3.7130     1.4600 H     1 <1>   0.0800 
 37 H       -2.3140     2.5370     0.8930 H     1 <1>   0.4500 
 38 H       -1.7240     4.5680    -1.1880 H     1 <1>   0.0800 
 39 H       -3.2730     3.7970    -0.9170 H     1 <1>   0.0800 
 40 H       -1.9110     2.8560    -1.4880 H     1 <1>   0.0800 
 41 H       -1.7050     5.4220     1.1620 H     1 <1>   0.0800 
 42 H       -1.9530     4.3030     2.4870 H     1 <1>   0.0800 
 43 H       -3.2740     4.6840     1.4040 H     1 <1>   0.0800 
 44 H        6.4540     1.9150     3.2930 H     1 <1>   0.1500 
 45 H        5.4100     1.3250    -2.4740 H     1 <1>   0.1500 
 46 H        9.1540     1.0120    -0.5210 H     1 <1>   0.2700 
 47 H        8.0470     0.8840    -2.8430 H     1 <1>   0.1500 
@<TRIPOS>BOND
  1   1   2  1   
  2   1   3  1   
  3   2   4  1   
  4   2   5  1   
  5   2   6  1   
  6   3   7  1   
  7   3   8  1   
  8   3  24  1   
  9   4   7  1   
 10   4   9  1   
 11   4  25  1   
 12   5  10  1   
 13   5  26  1   
 14   5  27  1   
 15   6   8  1   
 16   6  28  1   
 17   6  29  1   
 18   7  11  1   
 19   7  30  1   
 20   8  31  1   
 21   8  32  1   
 22   9  10  1   
 23   9  33  1   
 24   9  34  1   
 25  10  12  1   
 26  11  13  1   
 27  11  35  1   
 28  11  36  1   
 29  12  14  ar  
 30  12  15  ar  
 31  13  16  1   
 32  13  17  1   
 33  13  37  1   
 34  14  18  ar  
 35  15  19  ar  
 36  15  20  1   
 37  16  38  1   
 38  16  39  1   
 39  16  40  1   
 40  17  41  1   
 41  17  42  1   
 42  17  43  1   
 43  18  21  ar  
 44  18  44  1   
 45  19  21  ar  
 46  19  22  1   
 47  20  23  2   
 48  20  45  1   
 49  22  23  1   
 50  22  46  1   
 51  23  47  1   
@<TRIPOS>SUBSTRUCTURE
  1 ****  10 GROUP 4 **** **** 0

# MOE 2024.06 (io_trps.svl 2023.06)
