@<TRIPOS>MOLECULE
NONAME
48 50 1 0 0 
SMALL
USER_CHARGES


@<TRIPOS>ATOM
  1 O       -3.9990     1.9970    -2.3030 O.2   1 <1>  -0.5700 
  2 C       -3.4620     1.5480    -1.3070 C.2   1 <1>   0.5440 
  3 N       -3.8240     0.2870    -0.8750 N.am  1 <1>  -0.6600 
  4 C       -2.4830     2.3560    -0.6200 C.ar  1 <1>   0.0860 
  5 C       -2.9750    -0.5020     0.0930 C.3   1 <1>   0.3640 
  6 C       -5.1140    -0.3100    -1.3360 C.3   1 <1>   0.1400 
  7 C       -1.3460     2.8080    -1.2830 C.ar  1 <1>   0.1600 
  8 C       -2.6160     2.7170     0.7160 C.ar  1 <1>  -0.1500 
  9 C       -1.5310    -0.5180    -0.4190 C.ar  1 <1>  -0.1440 
 10 C       -3.4250    -1.9740     0.3560 C.3   1 <1>   0.2000 
 11 C       -5.1180    -1.8360    -1.2560 C.3   1 <1>   0.1200 
 12 N       -0.3760     3.5360    -0.7570 N.ar  1 <1>  -0.6200 
 13 C       -1.6150     3.4690     1.2820 C.ar  1 <1>  -0.1500 
 14 C       -1.2390    -0.9300    -1.7130 C.ar  1 <1>  -0.1500 
 15 C       -0.4920    -0.1060     0.4040 C.ar  1 <1>  -0.1500 
 16 O       -4.7670    -2.2230     0.0320 O.3   1 <1>  -0.5600 
 17 C       -3.2580    -2.3900     1.8270 C.3   1 <1>   0.1200 
 18 C       -0.5120     3.8620     0.5250 C.ar  1 <1>   0.4100 
 19 C        0.0650    -0.9320    -2.1750 C.ar  1 <1>  -0.1500 
 20 C        0.8120    -0.1030    -0.0570 C.ar  1 <1>  -0.1500 
 21 O       -1.9780    -2.1160     2.2990 O.3   1 <1>  -0.6800 
 22 N        0.4910     4.6170     1.0990 N.pl3 1 <1>  -0.8380 
 23 C        1.0920    -0.5170    -1.3470 C.ar  1 <1>  -0.1500 
 24 C        0.1620     5.8820     1.8060 C.3   1 <1>   0.1290 
 25 C        1.8730     4.5480     0.5500 C.3   1 <1>   0.1290 
 26 H       -2.9990     0.0140     1.0360 H     1 <1>   0.0800 
 27 H       -5.9120     0.0740    -0.7250 H     1 <1>   0.0800 
 28 H       -5.3120    -0.0200    -2.3540 H     1 <1>   0.0800 
 29 H       -1.2410     2.5380    -2.3200 H     1 <1>   0.1500 
 30 H       -3.4780     2.4110     1.2810 H     1 <1>   0.1500 
 31 H       -2.8370    -2.6400    -0.2500 H     1 <1>   0.0800 
 32 H       -4.4280    -2.2660    -1.9610 H     1 <1>   0.0800 
 33 H       -6.1040    -2.2140    -1.4570 H     1 <1>   0.0800 
 34 H       -1.6620     3.7600     2.3130 H     1 <1>   0.1500 
 35 H       -2.0310    -1.2410    -2.3720 H     1 <1>   0.1500 
 36 H       -0.6910     0.2250     1.4100 H     1 <1>   0.1500 
 37 H       -3.4380    -3.4450     1.9390 H     1 <1>   0.0800 
 38 H       -3.9510    -1.8440     2.4430 H     1 <1>   0.0800 
 39 H        0.2810    -1.2490    -3.1800 H     1 <1>   0.1500 
 40 H        1.6070     0.2300     0.5870 H     1 <1>   0.1500 
 41 H       -1.2990    -2.6040     1.7880 H     1 <1>   0.4000 
 42 H        2.1070    -0.5110    -1.7050 H     1 <1>   0.1500 
 43 H        0.5750     5.8580     2.7990 H     1 <1>   0.0800 
 44 H       -0.9040     6.0140     1.8710 H     1 <1>   0.0800 
 45 H        0.5750     6.7180     1.2690 H     1 <1>   0.0800 
 46 H        2.5870     4.7970     1.3150 H     1 <1>   0.0800 
 47 H        1.9710     5.2340    -0.2730 H     1 <1>   0.0800 
 48 H        2.0780     3.5520     0.1970 H     1 <1>   0.0800 
@<TRIPOS>BOND
  1   1   2  2   
  2   2   3  am  
  3   2   4  1   
  4   3   5  1   
  5   3   6  1   
  6   4   7  ar  
  7   4   8  ar  
  8   5   9  1   
  9   5  10  1   
 10   5  26  1   
 11   6  11  1   
 12   6  27  1   
 13   6  28  1   
 14   7  12  ar  
 15   7  29  1   
 16   8  13  ar  
 17   8  30  1   
 18   9  14  ar  
 19   9  15  ar  
 20  10  16  1   
 21  10  17  1   
 22  10  31  1   
 23  11  16  1   
 24  11  32  1   
 25  11  33  1   
 26  12  18  ar  
 27  13  18  ar  
 28  13  34  1   
 29  14  19  ar  
 30  14  35  1   
 31  15  20  ar  
 32  15  36  1   
 33  17  21  1   
 34  17  37  1   
 35  17  38  1   
 36  18  22  1   
 37  19  23  ar  
 38  19  39  1   
 39  20  23  ar  
 40  20  40  1   
 41  21  41  1   
 42  22  24  1   
 43  22  25  1   
 44  23  42  1   
 45  24  43  1   
 46  24  44  1   
 47  24  45  1   
 48  25  46  1   
 49  25  47  1   
 50  25  48  1   
@<TRIPOS>SUBSTRUCTURE
  1 ****   9 GROUP 4 **** **** 0

# MOE 2024.06 (io_trps.svl 2023.06)
