@<TRIPOS>MOLECULE
NONAME
48 49 1 0 0 
SMALL
USER_CHARGES


@<TRIPOS>ATOM
  1 O       -0.4070     0.2790     1.1350 O.2   1 <1>  -0.5700 
  2 C       -0.4270     1.4290     0.7600 C.2   1 <1>   0.5690 
  3 N       -1.6060     2.1170     0.6110 N.am  1 <1>  -0.6600 
  4 C        0.8970     2.1190     0.4730 C.3   1 <1>  -0.0990 
  5 C       -1.6880     3.5290     0.1250 C.3   1 <1>   0.1400 
  6 C       -2.9020     1.4640     0.9730 C.3   1 <1>   0.1400 
  7 C        2.1010     1.1940     0.6610 C.3   1 <1>   0.1400 
  8 C       -3.0450     3.7790    -0.5330 C.3   1 <1>  -0.1600 
  9 C       -3.8960     2.5000     1.5040 C.3   1 <1>  -0.1600 
 10 N        3.3550     1.9630     0.4760 N.am  1 <1>  -0.7300 
 11 C       -4.2010     3.6220     0.4820 C.3   1 <1>   0.2800 
 12 C        3.9090     2.2560    -0.7260 C.2   1 <1>   0.5690 
 13 O       -4.1900     4.8210     1.2270 O.3   1 <1>  -0.5600 
 14 C       -5.5830     3.3780    -0.2110 C.3   1 <1>   0.2000 
 15 O        3.3870     1.9600    -1.7710 O.2   1 <1>  -0.5700 
 16 C        5.2230     2.9890    -0.7400 C.3   1 <1>  -0.1790 
 17 C       -5.3070     5.6630     1.2070 C.3   1 <1>   0.1200 
 18 O       -5.5490     2.2450    -1.0400 O.3   1 <1>  -0.6800 
 19 C       -6.1490     4.6400    -0.9390 C.3   1 <1>   0.2800 
 20 C       -5.6970     5.9360    -0.2460 C.3   1 <1>  -0.1600 
 21 O       -7.5260     4.5960    -0.8310 O.3   1 <1>  -0.6800 
 22 C       -5.8630     4.7070    -2.4460 C.3   1 <1>  -0.2400 
 23 H        0.8940     2.4580    -0.5450 H     1 <1>   0.0800 
 24 H        0.9880     2.9610     1.1310 H     1 <1>   0.0800 
 25 H       -1.5600     4.1990     0.9580 H     1 <1>   0.0800 
 26 H       -0.9140     3.7230    -0.5950 H     1 <1>   0.0800 
 27 H       -3.3070     0.9780     0.1010 H     1 <1>   0.0800 
 28 H       -2.7370     0.7120     1.7260 H     1 <1>   0.0800 
 29 H        2.0570     0.3950    -0.0620 H     1 <1>   0.0800 
 30 H        2.0890     0.7600     1.6460 H     1 <1>   0.0800 
 31 H       -3.1440     3.0790    -1.3420 H     1 <1>   0.0800 
 32 H       -3.0570     4.7660    -0.9550 H     1 <1>   0.0800 
 33 H       -3.4780     2.9200     2.4020 H     1 <1>   0.0800 
 34 H       -4.8000     1.9900     1.7820 H     1 <1>   0.0800 
 35 H        3.8300     2.2490     1.3330 H     1 <1>   0.3700 
 36 H       -6.2760     3.1340     0.5750 H     1 <1>   0.0800 
 37 H        5.9670     2.4120    -0.2250 H     1 <1>   0.0800 
 38 H        5.1120     3.9440    -0.2640 H     1 <1>   0.0800 
 39 H        5.5410     3.1410    -1.7560 H     1 <1>   0.0800 
 40 H       -6.1090     5.1930     1.7520 H     1 <1>   0.0800 
 41 H       -5.0340     6.5770     1.7060 H     1 <1>   0.0800 
 42 H       -5.1420     2.4690    -1.8970 H     1 <1>   0.4000 
 43 H       -4.8360     6.3480    -0.7400 H     1 <1>   0.0800 
 44 H       -6.4720     6.6810    -0.2820 H     1 <1>   0.0800 
 45 H       -7.9280     5.2630    -1.4170 H     1 <1>   0.4000 
 46 H       -4.8050     4.6830    -2.6300 H     1 <1>   0.0800 
 47 H       -6.2490     5.6200    -2.8630 H     1 <1>   0.0800 
 48 H       -6.3160     3.8760    -2.9570 H     1 <1>   0.0800 
@<TRIPOS>BOND
  1   1   2  2   
  2   2   3  am  
  3   2   4  1   
  4   3   5  1   
  5   3   6  1   
  6   4   7  1   
  7   4  23  1   
  8   4  24  1   
  9   5   8  1   
 10   5  25  1   
 11   5  26  1   
 12   6   9  1   
 13   6  27  1   
 14   6  28  1   
 15   7  10  1   
 16   7  29  1   
 17   7  30  1   
 18   8  11  1   
 19   8  31  1   
 20   8  32  1   
 21   9  11  1   
 22   9  33  1   
 23   9  34  1   
 24  10  12  am  
 25  10  35  1   
 26  11  13  1   
 27  11  14  1   
 28  12  15  2   
 29  12  16  1   
 30  13  17  1   
 31  14  18  1   
 32  14  19  1   
 33  14  36  1   
 34  16  37  1   
 35  16  38  1   
 36  16  39  1   
 37  17  20  1   
 38  17  40  1   
 39  17  41  1   
 40  18  42  1   
 41  19  20  1   
 42  19  21  1   
 43  19  22  1   
 44  20  43  1   
 45  20  44  1   
 46  21  45  1   
 47  22  46  1   
 48  22  47  1   
 49  22  48  1   
@<TRIPOS>SUBSTRUCTURE
  1 ****   5 GROUP 4 **** **** 0

# MOE 2024.06 (io_trps.svl 2023.06)
