@<TRIPOS>MOLECULE
NONAME
51 54 1 0 0 
SMALL
USER_CHARGES


@<TRIPOS>ATOM
  1 O       -0.3760     1.0470    -2.7370 O.co2 1 <1>  -0.9000 
  2 C       -0.9560     1.1070    -1.6480 C.2   1 <1>   0.9060 
  3 O       -1.7740     0.2350    -1.3110 O.co2 1 <1>  -0.9000 
  4 C       -0.6850     2.2620    -0.6800 C.3   1 <1>  -0.1060 
  5 C       -2.0720     2.8610    -0.3460 C.3   1 <1>   0.2000 
  6 C        0.1310     3.3440    -1.4250 C.3   1 <1>   0.2090 
  7 C        0.0940     1.6470     0.5300 C.3   1 <1>  -0.0650 
  8 O       -2.8320     1.9660     0.3830 O.3   1 <1>  -0.6800 
  9 C       -2.0370     4.1880     0.4020 C.3   1 <1>  -0.1600 
 10 N        0.1010     4.6830    -0.7350 N.pl3 1 <1>  -0.8380 
 11 C        0.9680     2.5680     1.3990 C.3   1 <1>  -0.1950 
 12 C       -1.2480     5.2130    -0.4070 C.3   1 <1>   0.2090 
 13 C        1.2450     5.4280    -0.5420 C.ar  1 <1>   0.7200 
 14 C        2.4240     2.7500     1.1070 C.3   1 <1>  -0.2000 
 15 C        1.9900     1.9710     2.3140 C.3   1 <1>  -0.2000 
 16 N        2.2740     5.1820    -1.3460 N.ar  1 <1>  -0.6200 
 17 N        1.2250     6.3340     0.4330 N.ar  1 <1>  -0.6200 
 18 C        3.3650     5.8710    -1.1390 C.ar  1 <1>   0.1670 
 19 C        2.3240     7.0160     0.6300 C.ar  1 <1>   0.1670 
 20 C        3.4520     6.8280    -0.1460 C.ar  1 <1>  -0.1440 
 21 C        4.5240     5.5570    -2.0720 C.3   1 <1>  -0.0170 
 22 C        2.2720     8.0200     1.7660 C.3   1 <1>  -0.0970 
 23 C        4.7360     7.6270     0.0830 C.3   1 <1>  -0.0170 
 24 C        5.8670     6.1100    -1.5780 C.3   1 <1>  -0.1600 
 25 C        5.7020     7.5570    -1.1060 C.3   1 <1>  -0.1600 
 26 H       -2.5970     3.0150    -1.2740 H     1 <1>   0.0800 
 27 H       -0.2740     3.4800    -2.4140 H     1 <1>   0.0800 
 28 H        1.1400     2.9910    -1.5450 H     1 <1>   0.0800 
 29 H       -0.5990     1.1380     1.1740 H     1 <1>   0.0800 
 30 H        0.7430     0.8810     0.1400 H     1 <1>   0.0800 
 31 H       -2.6950     1.0850    -0.0730 H     1 <1>   0.4000 
 32 H       -3.0400     4.5470     0.5340 H     1 <1>   0.0800 
 33 H       -1.5930     4.0680     1.3700 H     1 <1>   0.0800 
 34 H        0.4420     3.4280     1.7670 H     1 <1>   0.1000 
 35 H       -1.1840     6.1330     0.1470 H     1 <1>   0.0800 
 36 H       -1.7640     5.4200    -1.3280 H     1 <1>   0.0800 
 37 H        2.8360     2.2380     0.2550 H     1 <1>   0.1000 
 38 H        2.8350     3.7370     1.2290 H     1 <1>   0.1000 
 39 H        2.1200     2.4070     3.2890 H     1 <1>   0.1000 
 40 H        2.1270     0.9040     2.3150 H     1 <1>   0.1000 
 41 H        4.6000     4.4900    -2.1920 H     1 <1>   0.0800 
 42 H        4.2940     5.9770    -3.0350 H     1 <1>   0.0800 
 43 H        3.1880     8.0110     2.3270 H     1 <1>   0.0800 
 44 H        1.4680     7.7760     2.4370 H     1 <1>   0.0800 
 45 H        2.1010     9.0040     1.3700 H     1 <1>   0.0800 
 46 H        4.5010     8.6590     0.2710 H     1 <1>   0.0800 
 47 H        5.2270     7.2320     0.9560 H     1 <1>   0.0800 
 48 H        6.2210     5.5050    -0.7610 H     1 <1>   0.0800 
 49 H        6.5910     6.0580    -2.3720 H     1 <1>   0.0800 
 50 H        5.3170     8.1550    -1.9150 H     1 <1>   0.0800 
 51 H        6.6570     7.9610    -0.8190 H     1 <1>   0.0800 
@<TRIPOS>BOND
  1   1   2  ar  
  2   2   3  ar  
  3   2   4  1   
  4   4   5  1   
  5   4   6  1   
  6   4   7  1   
  7   5   8  1   
  8   5   9  1   
  9   5  26  1   
 10   6  10  1   
 11   6  27  1   
 12   6  28  1   
 13   7  11  1   
 14   7  29  1   
 15   7  30  1   
 16   8  31  1   
 17   9  12  1   
 18   9  32  1   
 19   9  33  1   
 20  10  12  1   
 21  10  13  1   
 22  11  14  1   
 23  11  15  1   
 24  11  34  1   
 25  12  35  1   
 26  12  36  1   
 27  13  16  ar  
 28  13  17  ar  
 29  14  15  1   
 30  14  37  1   
 31  14  38  1   
 32  15  39  1   
 33  15  40  1   
 34  16  18  ar  
 35  17  19  ar  
 36  18  20  ar  
 37  18  21  1   
 38  19  20  ar  
 39  19  22  1   
 40  20  23  1   
 41  21  24  1   
 42  21  41  1   
 43  21  42  1   
 44  22  43  1   
 45  22  44  1   
 46  22  45  1   
 47  23  25  1   
 48  23  46  1   
 49  23  47  1   
 50  24  25  1   
 51  24  48  1   
 52  24  49  1   
 53  25  50  1   
 54  25  51  1   
@<TRIPOS>SUBSTRUCTURE
  1 ****  13 GROUP 4 **** **** 0

# MOE 2024.06 (io_trps.svl 2023.06)
