@<TRIPOS>MOLECULE
NONAME
46 49 1 0 0 
SMALL
USER_CHARGES


@<TRIPOS>ATOM
  1 S       -0.0790    -0.0100     0.4450 S.o2  1 <1>   1.0900 
  2 O        0.0650    -0.7220     1.6930 O.2   1 <1>  -0.6500 
  3 O        0.5510    -0.4800    -0.7680 O.2   1 <1>  -0.6500 
  4 C        0.3100     1.6980     0.6390 C.3   1 <1>  -0.0550 
  5 C       -1.7820     0.3110     0.0940 C.3   1 <1>  -0.0550 
  6 C       -0.4490     2.3700    -0.4950 C.3   1 <1>   0.1900 
  7 C       -1.8540     1.6750    -0.6100 C.3   1 <1>   0.1900 
  8 N       -0.4650     3.8300    -0.2730 N.3   1 <1>  -0.8100 
  9 N       -2.9700     2.4530    -0.0190 N.3   1 <1>  -0.8100 
 10 C       -1.6310     4.4240    -0.9450 C.3   1 <1>   0.1100 
 11 C        0.7860     4.4800    -0.7100 C.3   1 <1>   0.2900 
 12 C       -2.9530     3.8990    -0.3550 C.3   1 <1>   0.1100 
 13 C       -4.2990     1.8800    -0.2880 C.3   1 <1>   0.0300 
 14 C        0.9180     5.8720    -0.1160 C.2   1 <1>  -0.1400 
 15 S        2.1190     6.9290    -0.8330 S.3   1 <1>  -0.0800 
 16 C        0.2930     6.5060     0.8930 C.2   1 <1>  -0.1500 
 17 C        1.7350     8.2520     0.2750 C.2   1 <1>  -0.0130 
 18 C        0.7500     7.8400     1.1090 C.2   1 <1>  -0.1500 
 19 C        2.4430     9.5070     0.1630 C.ar  1 <1>   0.0530 
 20 C        3.7120     9.6040    -0.4100 C.ar  1 <1>  -0.1500 
 21 C        1.8680    10.6840     0.6410 C.ar  1 <1>  -0.1500 
 22 C        4.3720    10.8150    -0.5050 C.ar  1 <1>  -0.1500 
 23 C        2.5220    11.9000     0.5510 C.ar  1 <1>  -0.1500 
 24 C        3.7780    11.9680    -0.0240 C.ar  1 <1>  -0.1500 
 25 H       -0.0670     2.0580     1.5780 H     1 <1>   0.0800 
 26 H        1.3660     1.8680     0.5730 H     1 <1>   0.0800 
 27 H       -2.2020    -0.4630    -0.5180 H     1 <1>   0.0800 
 28 H       -2.3180     0.3610     1.0230 H     1 <1>   0.0800 
 29 H        0.0740     2.1570    -1.4130 H     1 <1>   0.0800 
 30 H       -2.0530     1.5190    -1.6570 H     1 <1>   0.0800 
 31 H       -1.6170     5.4950    -0.8410 H     1 <1>   0.0800 
 32 H       -1.5990     4.1990    -1.9970 H     1 <1>   0.0800 
 33 H        1.6360     3.9050    -0.3890 H     1 <1>   0.0800 
 34 H        0.8090     4.5410    -1.7850 H     1 <1>   0.0800 
 35 H       -3.7380     4.1300    -1.0550 H     1 <1>   0.0800 
 36 H       -3.1610     4.4480     0.5460 H     1 <1>   0.0800 
 37 H       -5.0550     2.4720     0.1990 H     1 <1>   0.0800 
 38 H       -4.3680     0.8770     0.0950 H     1 <1>   0.0800 
 39 H       -4.4950     1.8660    -1.3470 H     1 <1>   0.0800 
 40 H       -0.4830     6.0720     1.5010 H     1 <1>   0.1500 
 41 H        0.3200     8.4390     1.8910 H     1 <1>   0.1500 
 42 H        4.1960     8.7210    -0.7850 H     1 <1>   0.1500 
 43 H        0.8910    10.6490     1.0860 H     1 <1>   0.1500 
 44 H        5.3500    10.8620    -0.9520 H     1 <1>   0.1500 
 45 H        2.0550    12.7940     0.9270 H     1 <1>   0.1500 
 46 H        4.2900    12.9120    -0.0960 H     1 <1>   0.1500 
@<TRIPOS>BOND
  1   1   2  2   
  2   1   3  2   
  3   1   4  1   
  4   1   5  1   
  5   4   6  1   
  6   4  25  1   
  7   4  26  1   
  8   5   7  1   
  9   5  27  1   
 10   5  28  1   
 11   6   7  1   
 12   6   8  1   
 13   6  29  1   
 14   7   9  1   
 15   7  30  1   
 16   8  10  1   
 17   8  11  1   
 18   9  12  1   
 19   9  13  1   
 20  10  12  1   
 21  10  31  1   
 22  10  32  1   
 23  11  14  1   
 24  11  33  1   
 25  11  34  1   
 26  12  35  1   
 27  12  36  1   
 28  13  37  1   
 29  13  38  1   
 30  13  39  1   
 31  14  15  1   
 32  14  16  2   
 33  15  17  1   
 34  16  18  1   
 35  16  40  1   
 36  17  18  2   
 37  17  19  1   
 38  18  41  1   
 39  19  20  ar  
 40  19  21  ar  
 41  20  22  ar  
 42  20  42  1   
 43  21  23  ar  
 44  21  43  1   
 45  22  24  ar  
 46  22  44  1   
 47  23  24  ar  
 48  23  45  1   
 49  24  46  1   
@<TRIPOS>SUBSTRUCTURE
  1 ****  14 GROUP 4 **** **** 0

# MOE 2024.06 (io_trps.svl 2023.06)
