@<TRIPOS>MOLECULE
NONAME
50 51 1 0 0 
SMALL
USER_CHARGES


@<TRIPOS>ATOM
  1 F       -0.3210     0.7570     0.1790 F     1 <1>  -0.1900 
  2 C       -1.6150     0.9540     0.1560 C.ar  1 <1>   0.1900 
  3 C       -2.2180     1.8210    -0.7630 C.ar  1 <1>   0.0830 
  4 C       -2.3580     0.2610     1.0920 C.ar  1 <1>  -0.1500 
  5 O       -1.5960     2.5570    -1.7280 O.3   1 <1>  -0.3630 
  6 C       -3.5940     1.9630    -0.7030 C.ar  1 <1>  -0.1500 
  7 C       -3.7300     0.4270     1.1240 C.ar  1 <1>  -0.1500 
  8 C       -0.2060     2.5020    -1.9620 C.3   1 <1>   0.0400 
  9 C       -4.3790     1.2760     0.2260 C.ar  1 <1>   0.0530 
 10 C       -5.8080     1.4640     0.2540 C.2   1 <1>   0.0870 
 11 O       -6.2960     2.6680     0.0920 O.3   1 <1>  -0.0190 
 12 C       -6.8680     0.6260     0.4300 C.2   1 <1>  -0.0860 
 13 N       -7.5990     2.7060     0.1560 N.2   1 <1>  -0.4100 
 14 C       -7.9700     1.4920     0.3610 C.2   1 <1>   0.3720 
 15 C       -6.9240    -0.7930     0.6200 C.2   1 <1>   0.7160 
 16 N       -9.3200     1.1210     0.4710 N.pl3 1 <1>  -0.8210 
 17 O       -5.9500    -1.5000     0.4430 O.2   1 <1>  -0.5700 
 18 N       -8.0910    -1.3830     0.9980 N.am  1 <1>  -0.7300 
 19 C       -9.9770     0.9860    -0.8580 C.3   1 <1>   0.1290 
 20 C      -10.1090     2.0040     1.3760 C.3   1 <1>   0.1290 
 21 C       -8.3640    -2.8260     1.1280 C.3   1 <1>   0.1400 
 22 C       -9.3040    -3.2470    -0.0030 C.3   1 <1>  -0.1600 
 23 C       -9.5620    -4.7650    -0.0460 C.3   1 <1>  -0.0800 
 24 C      -10.3530    -5.1020    -1.3230 C.3   1 <1>   0.1200 
 25 C      -10.3030    -5.2440     1.2170 C.3   1 <1>  -0.2400 
 26 O      -10.5110    -6.4730    -1.4370 O.3   1 <1>  -0.6800 
 27 H       -1.8680    -0.3990     1.7840 H     1 <1>   0.1500 
 28 H       -4.0700     2.6260    -1.4020 H     1 <1>   0.1500 
 29 H       -4.3080    -0.1110     1.8550 H     1 <1>   0.1500 
 30 H        0.0200     3.1530    -2.7870 H     1 <1>   0.0800 
 31 H        0.0670     1.4910    -2.2100 H     1 <1>   0.0800 
 32 H        0.3120     2.8380    -1.0810 H     1 <1>   0.0800 
 33 H       -8.8970    -0.7420     1.0390 H     1 <1>   0.3700 
 34 H      -10.9700     0.5860    -0.7410 H     1 <1>   0.0800 
 35 H       -9.4070     0.3190    -1.4820 H     1 <1>   0.0800 
 36 H      -10.0350     1.9470    -1.3410 H     1 <1>   0.0800 
 37 H      -11.0590     1.5490     1.5990 H     1 <1>   0.0800 
 38 H      -10.2740     2.9620     0.9130 H     1 <1>   0.0800 
 39 H       -9.5730     2.1550     2.2980 H     1 <1>   0.0800 
 40 H       -7.4410    -3.3800     1.0690 H     1 <1>   0.0800 
 41 H       -8.8130    -3.0100     2.0890 H     1 <1>   0.0800 
 42 H      -10.2400    -2.7260     0.1000 H     1 <1>   0.0800 
 43 H       -8.8530    -2.9490    -0.9340 H     1 <1>   0.0800 
 44 H       -8.6090    -5.2630    -0.1040 H     1 <1>   0.0800 
 45 H       -9.8330    -4.7560    -2.2010 H     1 <1>   0.0800 
 46 H      -11.3330    -4.6580    -1.2970 H     1 <1>   0.0800 
 47 H      -11.2420    -4.7300     1.3210 H     1 <1>   0.0800 
 48 H       -9.7150    -5.0760     2.1000 H     1 <1>   0.0800 
 49 H      -10.5040    -6.2990     1.1590 H     1 <1>   0.0800 
 50 H       -9.6430    -6.9200    -1.4180 H     1 <1>   0.4000 
@<TRIPOS>BOND
  1   1   2  1   
  2   2   3  ar  
  3   2   4  ar  
  4   3   5  1   
  5   3   6  ar  
  6   4   7  ar  
  7   4  27  1   
  8   5   8  1   
  9   6   9  ar  
 10   6  28  1   
 11   7   9  ar  
 12   7  29  1   
 13   8  30  1   
 14   8  31  1   
 15   8  32  1   
 16   9  10  1   
 17  10  11  1   
 18  10  12  2   
 19  11  13  1   
 20  12  14  1   
 21  12  15  1   
 22  13  14  2   
 23  14  16  1   
 24  15  17  2   
 25  15  18  am  
 26  16  19  1   
 27  16  20  1   
 28  18  21  1   
 29  18  33  1   
 30  19  34  1   
 31  19  35  1   
 32  19  36  1   
 33  20  37  1   
 34  20  38  1   
 35  20  39  1   
 36  21  22  1   
 37  21  40  1   
 38  21  41  1   
 39  22  23  1   
 40  22  42  1   
 41  22  43  1   
 42  23  24  1   
 43  23  25  1   
 44  23  44  1   
 45  24  26  1   
 46  24  45  1   
 47  24  46  1   
 48  25  47  1   
 49  25  48  1   
 50  25  49  1   
 51  26  50  1   
@<TRIPOS>SUBSTRUCTURE
  1 ****  15 GROUP 4 **** **** 0

# MOE 2024.06 (io_trps.svl 2023.06)
