@<TRIPOS>MOLECULE
NONAME
53 55 1 0 0 
SMALL
USER_CHARGES


@<TRIPOS>ATOM
  1 O       -0.6780     0.0780     1.6260 O.2   1 <1>  -0.5700 
  2 C       -1.6720    -0.1720     0.9800 C.2   1 <1>   0.5440 
  3 N       -1.8720    -1.4790     0.6610 N.am  1 <1>  -0.7300 
  4 C       -2.5690     0.8800     0.5510 C.ar  1 <1>   0.0860 
  5 C       -2.7340    -2.0100    -0.4120 C.3   1 <1>   0.1400 
  6 C       -3.8990     0.9170     0.9680 C.ar  1 <1>  -0.1500 
  7 C       -2.1280     1.8880    -0.3060 C.ar  1 <1>  -0.1500 
  8 C       -3.1960    -3.4160    -0.0360 C.3   1 <1>  -0.1600 
  9 C       -4.7610     1.9100     0.5360 C.ar  1 <1>   0.0820 
 10 C       -2.9800     2.8870    -0.7410 C.ar  1 <1>  -0.1500 
 11 C       -4.1550    -3.9650    -1.0920 C.3   1 <1>   0.1400 
 12 O       -6.0460     1.8730     0.9590 O.3   1 <1>  -0.3630 
 13 C       -4.3000     2.9150    -0.3220 C.ar  1 <1>   0.0820 
 14 N       -4.5950    -5.3210    -0.7050 N.am  1 <1>  -0.7300 
 15 C       -6.9040     1.0440     0.2150 C.3   1 <1>   0.1200 
 16 O       -5.0690     3.9290    -0.7860 O.3   1 <1>  -0.3630 
 17 C       -5.7100    -5.7030    -0.0380 C.2   1 <1>   0.5690 
 18 C       -8.3390     1.2950     0.6860 C.3   1 <1>  -0.1600 
 19 C       -5.8450     4.6720     0.1300 C.3   1 <1>   0.0400 
 20 O       -5.9500    -6.8740     0.1010 O.2   1 <1>  -0.5700 
 21 C       -6.6680    -4.6820     0.5350 C.3   1 <1>  -0.0990 
 22 C       -9.3680     0.4430    -0.0760 C.3   1 <1>   0.0960 
 23 C       -7.7450    -4.2860    -0.4820 C.3   1 <1>   0.0210 
 24 N       -9.1130    -0.9990     0.1040 N.pl3 1 <1>   0.3140 
 25 C       -8.4110    -2.9920    -0.0590 C.2   1 <1>   0.0460 
 26 N       -9.4870    -1.6660     1.1980 N.2   1 <1>  -0.4180 
 27 C       -8.4360    -1.8170    -0.7050 C.2   1 <1>  -0.3020 
 28 N       -9.0670    -2.8790     1.0990 N.2   1 <1>  -0.2270 
 29 H       -1.1510    -2.1110     1.0170 H     1 <1>   0.3700 
 30 H       -2.1740    -2.0380    -1.3310 H     1 <1>   0.0800 
 31 H       -3.5870    -1.3660    -0.5490 H     1 <1>   0.0800 
 32 H       -4.2590     0.1610     1.6420 H     1 <1>   0.1500 
 33 H       -1.1000     1.8830    -0.6260 H     1 <1>   0.1500 
 34 H       -3.6970    -3.3790     0.9160 H     1 <1>   0.0800 
 35 H       -2.3410    -4.0640     0.0400 H     1 <1>   0.0800 
 36 H       -2.6250     3.6570    -1.4030 H     1 <1>   0.1500 
 37 H       -3.6640    -4.0160    -2.0490 H     1 <1>   0.0800 
 38 H       -5.0090    -3.3160    -1.1880 H     1 <1>   0.0800 
 39 H       -3.9940    -6.0940    -1.0040 H     1 <1>   0.3700 
 40 H       -6.6070     0.0240     0.3860 H     1 <1>   0.0800 
 41 H       -6.7930     1.2910    -0.8270 H     1 <1>   0.0800 
 42 H       -8.5780     2.3330     0.5410 H     1 <1>   0.0800 
 43 H       -8.4140     1.0760     1.7380 H     1 <1>   0.0800 
 44 H       -6.0490     5.6330    -0.3070 H     1 <1>   0.0800 
 45 H       -5.2910     4.7940     1.0450 H     1 <1>   0.0800 
 46 H       -6.7670     4.1530     0.3130 H     1 <1>   0.0800 
 47 H       -6.1210    -3.8150     0.8520 H     1 <1>   0.0800 
 48 H       -7.1410    -5.0970     1.4070 H     1 <1>   0.0800 
 49 H       -9.3400     0.6710    -1.1260 H     1 <1>   0.0800 
 50 H      -10.3560     0.6540     0.2910 H     1 <1>   0.0800 
 51 H       -8.4810    -5.0670    -0.5570 H     1 <1>   0.0800 
 52 H       -7.3030    -4.1490    -1.4530 H     1 <1>   0.0800 
 53 H       -8.0230    -1.5230    -1.6510 H     1 <1>   0.1500 
@<TRIPOS>BOND
  1   1   2  2   
  2   2   3  am  
  3   2   4  1   
  4   3   5  1   
  5   3  29  1   
  6   4   6  ar  
  7   4   7  ar  
  8   5   8  1   
  9   5  30  1   
 10   5  31  1   
 11   6   9  ar  
 12   6  32  1   
 13   7  10  ar  
 14   7  33  1   
 15   8  11  1   
 16   8  34  1   
 17   8  35  1   
 18   9  12  1   
 19   9  13  ar  
 20  10  13  ar  
 21  10  36  1   
 22  11  14  1   
 23  11  37  1   
 24  11  38  1   
 25  12  15  1   
 26  13  16  1   
 27  14  17  am  
 28  14  39  1   
 29  15  18  1   
 30  15  40  1   
 31  15  41  1   
 32  16  19  1   
 33  17  20  2   
 34  17  21  1   
 35  18  22  1   
 36  18  42  1   
 37  18  43  1   
 38  19  44  1   
 39  19  45  1   
 40  19  46  1   
 41  21  23  1   
 42  21  47  1   
 43  21  48  1   
 44  22  24  1   
 45  22  49  1   
 46  22  50  1   
 47  23  25  1   
 48  23  51  1   
 49  23  52  1   
 50  24  26  1   
 51  24  27  1   
 52  25  27  2   
 53  25  28  1   
 54  26  28  2   
 55  27  53  1   
@<TRIPOS>SUBSTRUCTURE
  1 ****  15 GROUP 4 **** **** 0

# MOE 2024.06 (io_trps.svl 2023.06)
