@<TRIPOS>MOLECULE
NONAME
57 60 1 0 0 
SMALL
USER_CHARGES


@<TRIPOS>ATOM
  1 O       -0.9400     0.8180     0.4300 O.2   1 <1>  -0.5700 
  2 C       -2.0870     1.1970     0.3820 C.2   1 <1>   0.5690 
  3 N       -3.1100     0.3000     0.2210 N.am  1 <1>  -0.6600 
  4 C       -2.3780     2.6990     0.5000 C.3   1 <1>  -0.0190 
  5 C       -4.5730     0.5650     0.2050 C.3   1 <1>   0.1400 
  6 C       -2.8600    -1.1550     0.0450 C.3   1 <1>   0.1400 
  7 C       -2.6370     3.3220    -0.8860 C.3   1 <1>  -0.1600 
  8 C       -1.2490     3.4730     1.2140 C.3   1 <1>  -0.1600 
  9 C       -5.2000    -0.7820     0.5550 C.3   1 <1>   0.2000 
 10 C       -4.2480    -1.7930    -0.0880 C.3   1 <1>  -0.0800 
 11 C       -2.9180     4.8250    -0.7920 C.3   1 <1>   0.1400 
 12 C       -1.5520     4.9710     1.2900 C.3   1 <1>   0.1400 
 13 O       -5.1650    -0.9200     1.9350 O.3   1 <1>  -0.6800 
 14 C       -4.3270    -3.2280     0.4630 C.3   1 <1>   0.0210 
 15 N       -1.7930     5.4940    -0.0830 N.am  1 <1>  -0.6600 
 16 C       -3.3400    -4.1320    -0.2500 C.2   1 <1>   0.1080 
 17 C       -1.0480     6.4720    -0.7000 C.2   1 <1>   0.5770 
 18 N       -3.4020    -4.3760    -1.5230 N.2   1 <1>  -0.7070 
 19 C       -2.2700    -4.7790     0.3580 C.2   1 <1>  -0.1500 
 20 O       -1.3680     6.9130    -1.7810 O.2   1 <1>  -0.5700 
 21 C        0.2060     7.0370    -0.0310 C.3   1 <1>   0.0530 
 22 N       -2.3620    -5.1960    -1.7620 N.pl3 1 <1>   0.3000 
 23 C       -1.6600    -5.4540    -0.6390 C.2   1 <1>  -0.3320 
 24 C        1.1180     7.9500    -0.9020 C.3   1 <1>   0.0000 
 25 C        1.4040     6.0490     0.0260 C.3   1 <1>   0.0000 
 26 C       -0.4310    -6.3420    -0.5860 C.3   1 <1>  -0.0600 
 27 C        2.3250     7.2740    -0.2040 C.3   1 <1>   0.0000 
 28 H       -3.2620     2.8190     1.0970 H     1 <1>   0.0800 
 29 H       -4.8660     1.3240     0.9080 H     1 <1>   0.0800 
 30 H       -4.8650     0.8540    -0.7890 H     1 <1>   0.0800 
 31 H       -2.2610    -1.3360    -0.8330 H     1 <1>   0.0800 
 32 H       -2.3390    -1.5310     0.9090 H     1 <1>   0.0800 
 33 H       -3.4720     2.8390    -1.3580 H     1 <1>   0.0800 
 34 H       -1.7770     3.1700    -1.5160 H     1 <1>   0.0800 
 35 H       -0.3200     3.3360     0.6870 H     1 <1>   0.0800 
 36 H       -1.1180     3.0830     2.2080 H     1 <1>   0.0800 
 37 H       -6.2200    -0.8790     0.2230 H     1 <1>   0.0800 
 38 H       -4.4760    -1.8320    -1.1390 H     1 <1>   0.0800 
 39 H       -3.8300     5.0010    -0.2480 H     1 <1>   0.0800 
 40 H       -3.0400     5.2280    -1.7830 H     1 <1>   0.0800 
 41 H       -0.7380     5.4810     1.7710 H     1 <1>   0.0800 
 42 H       -2.4350     5.1340     1.8840 H     1 <1>   0.0800 
 43 H       -4.2530    -0.7410     2.2410 H     1 <1>   0.4000 
 44 H       -5.3180    -3.6160     0.3130 H     1 <1>   0.0800 
 45 H       -4.1190    -3.2440     1.5170 H     1 <1>   0.0800 
 46 H       -2.0080    -4.7320     1.4000 H     1 <1>   0.1500 
 47 H        0.0050     7.4880     0.9270 H     1 <1>   0.0000 
 48 H       -2.1590    -5.5610    -2.7000 H     1 <1>   0.2700 
 49 H        1.0870     7.7260    -1.9550 H     1 <1>   0.0000 
 50 H        1.0220     8.9990    -0.6830 H     1 <1>   0.0000 
 51 H        1.5410     5.5790     0.9840 H     1 <1>   0.0000 
 52 H        1.4200     5.3580    -0.7990 H     1 <1>   0.0000 
 53 H       -0.0520    -6.3890     0.4200 H     1 <1>   0.0800 
 54 H        0.3410    -5.9480    -1.2230 H     1 <1>   0.0800 
 55 H       -0.6770    -7.3390    -0.9060 H     1 <1>   0.0800 
 56 H        2.6040     7.7640     0.7140 H     1 <1>   0.0000 
 57 H        3.1550     7.0780    -0.8600 H     1 <1>   0.0000 
@<TRIPOS>BOND
  1   1   2  2   
  2   2   3  am  
  3   2   4  1   
  4   3   5  1   
  5   3   6  1   
  6   4   7  1   
  7   4   8  1   
  8   4  28  1   
  9   5   9  1   
 10   5  29  1   
 11   5  30  1   
 12   6  10  1   
 13   6  31  1   
 14   6  32  1   
 15   7  11  1   
 16   7  33  1   
 17   7  34  1   
 18   8  12  1   
 19   8  35  1   
 20   8  36  1   
 21   9  10  1   
 22   9  13  1   
 23   9  37  1   
 24  10  14  1   
 25  10  38  1   
 26  11  15  1   
 27  11  39  1   
 28  11  40  1   
 29  12  15  1   
 30  12  41  1   
 31  12  42  1   
 32  13  43  1   
 33  14  16  1   
 34  14  44  1   
 35  14  45  1   
 36  15  17  am  
 37  16  18  2   
 38  16  19  1   
 39  17  20  2   
 40  17  21  1   
 41  18  22  1   
 42  19  23  2   
 43  19  46  1   
 44  21  24  1   
 45  21  25  1   
 46  21  47  1   
 47  22  23  1   
 48  22  48  1   
 49  23  26  1   
 50  24  27  1   
 51  24  49  1   
 52  24  50  1   
 53  25  27  1   
 54  25  51  1   
 55  25  52  1   
 56  26  53  1   
 57  26  54  1   
 58  26  55  1   
 59  27  56  1   
 60  27  57  1   
@<TRIPOS>SUBSTRUCTURE
  1 ****   2 GROUP 4 **** **** 0

# MOE 2024.06 (io_trps.svl 2023.06)
