@<TRIPOS>MOLECULE
NONAME
58 61 1 0 0 
SMALL
USER_CHARGES


@<TRIPOS>ATOM
  1 O       -0.1690    -0.1930     0.2800 O.2   1 <1>  -0.5700 
  2 C       -0.6120     0.9220     0.4850 C.2   1 <1>   0.6900 
  3 N       -1.9700     1.1170     0.5620 N.am  1 <1>  -0.6600 
  4 N        0.2160     1.9990     0.6200 N.am  1 <1>  -0.5470 
  5 C       -2.6350     2.4350     0.8000 C.3   1 <1>   0.1400 
  6 C       -2.9100     0.0030     0.2230 C.3   1 <1>   0.1400 
  7 C        1.5950     2.2120     0.4550 C.ar  1 <1>   0.1170 
  8 C       -3.3470     2.9190    -0.4830 C.3   1 <1>   0.1430 
  9 C       -4.2520     0.5260    -0.3240 C.3   1 <1>  -0.1600 
 10 C        2.0490     3.5340     0.3960 C.ar  1 <1>   0.0820 
 11 C        2.5210     1.1800     0.3570 C.ar  1 <1>  -0.1500 
 12 C       -4.3120     4.0180    -0.0720 C.ar  1 <1>   0.1660 
 13 C       -4.0460     1.7510    -1.2320 C.3   1 <1>  -0.1600 
 14 C       -2.3730     3.6820    -1.4200 C.3   1 <1>  -0.1600 
 15 O        1.1100     4.5270     0.5030 O.3   1 <1>  -0.3630 
 16 C        3.4060     3.7950     0.2350 C.ar  1 <1>  -0.1500 
 17 C        3.8710     1.4400     0.1950 C.ar  1 <1>  -0.1430 
 18 N       -5.4600     3.8360     0.5310 N.ar  1 <1>  -0.6200 
 19 C       -3.8300     5.2520    -0.3910 C.ar  1 <1>  -0.1430 
 20 C       -2.4810     5.1730    -1.0610 C.3   1 <1>  -0.0170 
 21 C        1.4960     5.8810     0.5960 C.3   1 <1>   0.0400 
 22 C        4.3100     2.7510     0.1360 C.ar  1 <1>  -0.1500 
 23 C        4.8620     0.2950     0.0890 C.3   1 <1>  -0.0970 
 24 C       -6.1460     4.9480     0.8050 C.ar  1 <1>   0.7200 
 25 C       -4.6010     6.3400    -0.0680 C.ar  1 <1>   0.1600 
 26 N       -5.7600     6.1990     0.5310 N.ar  1 <1>  -0.6200 
 27 N       -7.3670     4.7910     1.4310 N.pl3 1 <1>  -0.8380 
 28 C       -8.0520     3.4710     1.5070 C.3   1 <1>   0.1290 
 29 C       -8.1050     5.9390     2.0280 C.3   1 <1>   0.1290 
 30 H       -0.2790     2.8690     0.7740 H     1 <1>   0.3700 
 31 H       -1.9450     3.1800     1.1490 H     1 <1>   0.0800 
 32 H       -3.3670     2.3020     1.5790 H     1 <1>   0.0800 
 33 H       -3.0760    -0.6010     1.0980 H     1 <1>   0.0800 
 34 H       -2.4530    -0.6210    -0.5270 H     1 <1>   0.0800 
 35 H       -4.8960     0.7910     0.4970 H     1 <1>   0.0800 
 36 H       -4.7410    -0.2600    -0.8710 H     1 <1>   0.0800 
 37 H        2.1880     0.1600     0.4110 H     1 <1>   0.1500 
 38 H       -3.4350     1.4360    -2.0590 H     1 <1>   0.0800 
 39 H       -4.9900     2.0800    -1.6300 H     1 <1>   0.0800 
 40 H       -2.6990     3.5700    -2.4390 H     1 <1>   0.0800 
 41 H       -1.3620     3.3200    -1.3500 H     1 <1>   0.0800 
 42 H        3.7850     4.7970     0.1830 H     1 <1>   0.1500 
 43 H       -2.4320     5.7950    -1.9380 H     1 <1>   0.0800 
 44 H       -1.7100     5.4550    -0.3650 H     1 <1>   0.0800 
 45 H        0.6100     6.4740     0.7360 H     1 <1>   0.0800 
 46 H        1.9870     6.1680    -0.3170 H     1 <1>   0.0800 
 47 H        2.1520     6.0010     1.4400 H     1 <1>   0.0800 
 48 H        5.3570     2.9640     0.0120 H     1 <1>   0.1500 
 49 H        4.3800    -0.5850    -0.2990 H     1 <1>   0.0800 
 50 H        5.2630     0.0700     1.0600 H     1 <1>   0.0800 
 51 H        5.6690     0.5570    -0.5710 H     1 <1>   0.0800 
 52 H       -4.2650     7.3350    -0.3010 H     1 <1>   0.1500 
 53 H       -7.7790     2.8550     0.6670 H     1 <1>   0.0800 
 54 H       -9.1200     3.6060     1.4940 H     1 <1>   0.0800 
 55 H       -7.7670     2.9700     2.4150 H     1 <1>   0.0800 
 56 H       -7.4170     6.6940     2.3680 H     1 <1>   0.0800 
 57 H       -8.6860     5.6080     2.8710 H     1 <1>   0.0800 
 58 H       -8.7580     6.3680     1.2900 H     1 <1>   0.0800 
@<TRIPOS>BOND
  1   1   2  2   
  2   2   3  am  
  3   2   4  am  
  4   3   5  1   
  5   3   6  1   
  6   4   7  1   
  7   4  30  1   
  8   5   8  1   
  9   5  31  1   
 10   5  32  1   
 11   6   9  1   
 12   6  33  1   
 13   6  34  1   
 14   7  10  ar  
 15   7  11  ar  
 16   8  12  1   
 17   8  13  1   
 18   8  14  1   
 19   9  13  1   
 20   9  35  1   
 21   9  36  1   
 22  10  15  1   
 23  10  16  ar  
 24  11  17  ar  
 25  11  37  1   
 26  12  18  ar  
 27  12  19  ar  
 28  13  38  1   
 29  13  39  1   
 30  14  20  1   
 31  14  40  1   
 32  14  41  1   
 33  15  21  1   
 34  16  22  ar  
 35  16  42  1   
 36  17  22  ar  
 37  17  23  1   
 38  18  24  ar  
 39  19  20  1   
 40  19  25  ar  
 41  20  43  1   
 42  20  44  1   
 43  21  45  1   
 44  21  46  1   
 45  21  47  1   
 46  22  48  1   
 47  23  49  1   
 48  23  50  1   
 49  23  51  1   
 50  24  26  ar  
 51  24  27  1   
 52  25  26  ar  
 53  25  52  1   
 54  27  28  1   
 55  27  29  1   
 56  28  53  1   
 57  28  54  1   
 58  28  55  1   
 59  29  56  1   
 60  29  57  1   
 61  29  58  1   
@<TRIPOS>SUBSTRUCTURE
  1 ****   5 GROUP 4 **** **** 0

# MOE 2024.06 (io_trps.svl 2023.06)
