@<TRIPOS>MOLECULE
NONAME
47 49 1 0 0 
SMALL
USER_CHARGES


@<TRIPOS>ATOM
  1 CL       1.1020     4.4070     2.0810 Cl    1 <1>  -0.1770 
  2 C        1.4300     4.3010     0.3690 C.ar  1 <1>   0.1770 
  3 C        2.0690     3.1930    -0.1780 C.ar  1 <1>  -0.1440 
  4 C        1.0160     5.3590    -0.4200 C.ar  1 <1>  -0.1500 
  5 C        2.2590     3.1630    -1.5550 C.ar  1 <1>  -0.1500 
  6 C        2.5660     2.0390     0.6940 C.3   1 <1>   0.3640 
  7 C        1.2270     5.3190    -1.7860 C.ar  1 <1>  -0.1500 
  8 C        1.8450     4.2180    -2.3520 C.ar  1 <1>  -0.1500 
  9 N        1.9210     0.7910     0.2230 N.am  1 <1>  -0.7300 
 10 C        4.1090     1.9190     0.6240 C.3   1 <1>   0.2610 
 11 C        2.5670    -0.3930     0.1410 C.2   1 <1>   0.5690 
 12 O        4.5540     0.6750     1.1410 O.3   1 <1>  -0.5600 
 13 C        4.7840     3.1020     1.3340 C.2   1 <1>   0.5690 
 14 O        1.9800    -1.3870    -0.2020 O.2   1 <1>  -0.5700 
 15 C        4.0680    -0.4580     0.4510 C.3   1 <1>   0.1810 
 16 O        4.2680     3.5440     2.3360 O.2   1 <1>  -0.5700 
 17 N        5.9250     3.6700     0.8210 N.am  1 <1>  -0.6600 
 18 C        6.4090     4.9770     1.3610 C.3   1 <1>   0.3200 
 19 C        6.8050     3.0200    -0.1860 C.3   1 <1>   0.1400 
 20 C        5.8090     6.1490     0.5990 C.2   1 <1>  -0.0400 
 21 C        6.5300     3.5910    -1.5760 C.3   1 <1>  -0.2400 
 22 O        6.3790     7.3320     0.7250 O.3   1 <1>  -0.2800 
 23 C        4.7440     6.2310    -0.2300 C.2   1 <1>  -0.1500 
 24 C        5.7020     8.1880    -0.0120 C.2   1 <1>  -0.0400 
 25 C        4.6750     7.5700    -0.6310 C.2   1 <1>  -0.1500 
 26 C        6.1510     9.6320    -0.0420 C.3   1 <1>  -0.0600 
 27 H        0.5330     6.2040     0.0370 H     1 <1>   0.1500 
 28 H        2.7280     2.3140    -2.0230 H     1 <1>   0.1500 
 29 H        2.2820     2.1860     1.7210 H     1 <1>   0.0800 
 30 H        0.9080     6.1400    -2.4060 H     1 <1>   0.1500 
 31 H        2.0020     4.1820    -3.4170 H     1 <1>   0.1500 
 32 H        0.9140     0.8170     0.0540 H     1 <1>   0.3700 
 33 H        4.3950     1.9470    -0.4080 H     1 <1>   0.0800 
 34 H        4.6150    -0.5540    -0.4680 H     1 <1>   0.0800 
 35 H        4.2650    -1.3200     1.0620 H     1 <1>   0.0800 
 36 H        6.1540     5.0720     2.4020 H     1 <1>   0.0800 
 37 H        7.4800     5.0240     1.2860 H     1 <1>   0.0800 
 38 H        7.8370     3.1820     0.0760 H     1 <1>   0.0800 
 39 H        6.6420     1.9550    -0.1860 H     1 <1>   0.0800 
 40 H        6.7960     4.6320    -1.6120 H     1 <1>   0.0800 
 41 H        5.4940     3.4820    -1.8380 H     1 <1>   0.0800 
 42 H        7.1240     3.0700    -2.3040 H     1 <1>   0.0800 
 43 H        4.0700     5.4530    -0.5350 H     1 <1>   0.1500 
 44 H        3.9380     7.9840    -1.2960 H     1 <1>   0.1500 
 45 H        5.5070    10.2090    -0.6800 H     1 <1>   0.0800 
 46 H        7.1580     9.6900    -0.4130 H     1 <1>   0.0800 
 47 H        6.1200    10.0410     0.9510 H     1 <1>   0.0800 
@<TRIPOS>BOND
  1   1   2  1   
  2   2   3  ar  
  3   2   4  ar  
  4   3   5  ar  
  5   3   6  1   
  6   4   7  ar  
  7   4  27  1   
  8   5   8  ar  
  9   5  28  1   
 10   6   9  1   
 11   6  10  1   
 12   6  29  1   
 13   7   8  ar  
 14   7  30  1   
 15   8  31  1   
 16   9  11  am  
 17   9  32  1   
 18  10  12  1   
 19  10  13  1   
 20  10  33  1   
 21  11  14  2   
 22  11  15  1   
 23  12  15  1   
 24  13  16  2   
 25  13  17  am  
 26  15  34  1   
 27  15  35  1   
 28  17  18  1   
 29  17  19  1   
 30  18  20  1   
 31  18  36  1   
 32  18  37  1   
 33  19  21  1   
 34  19  38  1   
 35  19  39  1   
 36  20  22  1   
 37  20  23  2   
 38  21  40  1   
 39  21  41  1   
 40  21  42  1   
 41  22  24  1   
 42  23  25  1   
 43  23  43  1   
 44  24  25  2   
 45  24  26  1   
 46  25  44  1   
 47  26  45  1   
 48  26  46  1   
 49  26  47  1   
@<TRIPOS>SUBSTRUCTURE
  1 ****  13 GROUP 4 **** **** 0

# MOE 2024.06 (io_trps.svl 2023.06)
