@<TRIPOS>MOLECULE
NONAME
51 53 1 0 0 
SMALL
USER_CHARGES


@<TRIPOS>ATOM
  1 O       -0.8980     0.3740     1.5350 O.2   1 <1>  -0.5700 
  2 C       -1.7450     0.9440     0.8710 C.2   1 <1>   0.7160 
  3 N       -2.8310     0.2280     0.4250 N.am  1 <1>  -0.6600 
  4 C       -1.6090     2.3460     0.5280 C.2   1 <1>  -0.0860 
  5 C       -3.7060     0.6720    -0.6870 C.3   1 <1>   0.1400 
  6 C       -3.0420    -1.2090     0.6970 C.3   1 <1>   0.1400 
  7 C       -2.4240     3.3980     0.8700 C.2   1 <1>  -0.3320 
  8 C       -0.5870     2.9090    -0.2550 C.2   1 <1>  -0.1810 
  9 C       -4.5420    -0.5560    -1.0750 C.3   1 <1>   0.2000 
 10 C       -3.7120    -1.7430    -0.5700 C.3   1 <1>  -0.0800 
 11 N       -1.9480     4.5350     0.3320 N.pl3 1 <1>   0.0330 
 12 C       -3.6740     3.3680     1.7350 C.3   1 <1>  -0.0600 
 13 C       -0.8080     4.2610    -0.3790 C.2   1 <1>  -0.2370 
 14 C        0.5530     2.0820    -0.8300 C.3   1 <1>  -0.0590 
 15 O       -5.7620    -0.5360    -0.3880 O.3   1 <1>  -0.5600 
 16 C       -4.5130    -3.0370    -0.3430 C.3   1 <1>   0.0200 
 17 C       -0.0750     5.2820    -1.0800 C.2   1 <1>   0.5940 
 18 C       -6.7800     0.1870    -1.0080 C.3   1 <1>   0.0400 
 19 C       -3.6340    -4.2320    -0.0100 C.2   1 <1>  -0.0400 
 20 O        0.8390     5.0680    -1.8330 O.2   1 <1>  -0.5700 
 21 C       -0.4650     6.7320    -0.8860 C.3   1 <1>  -0.1790 
 22 O       -4.2070    -5.3660     0.2940 O.3   1 <1>  -0.0190 
 23 C       -2.3050    -4.4200     0.0460 C.2   1 <1>  -0.1500 
 24 N       -3.3360    -6.2990     0.5540 N.2   1 <1>  -0.4100 
 25 C       -2.1810    -5.7560     0.4140 C.2   1 <1>   0.1080 
 26 C       -0.8700    -6.4800     0.6220 C.3   1 <1>  -0.0590 
 27 H       -4.3260     1.4950    -0.3810 H     1 <1>   0.0800 
 28 H       -3.0890     0.9740    -1.5150 H     1 <1>   0.0800 
 29 H       -2.1130    -1.7100     0.9060 H     1 <1>   0.0800 
 30 H       -3.7000    -1.3060     1.5440 H     1 <1>   0.0800 
 31 H       -4.7290    -0.6170    -2.1330 H     1 <1>   0.0800 
 32 H       -2.9410    -1.9330    -1.2950 H     1 <1>   0.0800 
 33 H       -2.3650     5.4650     0.4440 H     1 <1>   0.2700 
 34 H       -3.8640     2.3710     2.0910 H     1 <1>   0.0800 
 35 H       -4.5270     3.6980     1.1710 H     1 <1>   0.0800 
 36 H       -3.5470     4.0100     2.5880 H     1 <1>   0.0800 
 37 H        0.1680     1.3720    -1.5370 H     1 <1>   0.0800 
 38 H        1.0480     1.5490    -0.0380 H     1 <1>   0.0800 
 39 H        1.2810     2.6970    -1.3230 H     1 <1>   0.0800 
 40 H       -5.0760    -3.2680    -1.2300 H     1 <1>   0.0800 
 41 H       -5.2150    -2.8950     0.4600 H     1 <1>   0.0800 
 42 H       -7.6500     0.1430    -0.3770 H     1 <1>   0.0800 
 43 H       -7.0030    -0.2600    -1.9610 H     1 <1>   0.0800 
 44 H       -6.4740     1.2110    -1.1300 H     1 <1>   0.0800 
 45 H       -0.4660     6.9750     0.1600 H     1 <1>   0.0800 
 46 H       -1.4370     6.9080    -1.3060 H     1 <1>   0.0800 
 47 H        0.2450     7.3670    -1.3840 H     1 <1>   0.0800 
 48 H       -1.4950    -3.7390    -0.1380 H     1 <1>   0.1500 
 49 H       -0.2940    -5.9810     1.3790 H     1 <1>   0.0800 
 50 H       -0.3130    -6.4970    -0.2960 H     1 <1>   0.0800 
 51 H       -1.0550    -7.4910     0.9360 H     1 <1>   0.0800 
@<TRIPOS>BOND
  1   1   2  2   
  2   2   3  am  
  3   2   4  1   
  4   3   5  1   
  5   3   6  1   
  6   4   7  2   
  7   4   8  1   
  8   5   9  1   
  9   5  27  1   
 10   5  28  1   
 11   6  10  1   
 12   6  29  1   
 13   6  30  1   
 14   7  11  1   
 15   7  12  1   
 16   8  13  2   
 17   8  14  1   
 18   9  10  1   
 19   9  15  1   
 20   9  31  1   
 21  10  16  1   
 22  10  32  1   
 23  11  13  1   
 24  11  33  1   
 25  12  34  1   
 26  12  35  1   
 27  12  36  1   
 28  13  17  1   
 29  14  37  1   
 30  14  38  1   
 31  14  39  1   
 32  15  18  1   
 33  16  19  1   
 34  16  40  1   
 35  16  41  1   
 36  17  20  2   
 37  17  21  1   
 38  18  42  1   
 39  18  43  1   
 40  18  44  1   
 41  19  22  1   
 42  19  23  2   
 43  21  45  1   
 44  21  46  1   
 45  21  47  1   
 46  22  24  1   
 47  23  25  1   
 48  23  48  1   
 49  24  25  2   
 50  25  26  1   
 51  26  49  1   
 52  26  50  1   
 53  26  51  1   
@<TRIPOS>SUBSTRUCTURE
  1 ****   3 GROUP 4 **** **** 0

# MOE 2024.06 (io_trps.svl 2023.06)
