@<TRIPOS>MOLECULE
NONAME
52 55 1 0 0 
SMALL
USER_CHARGES


@<TRIPOS>ATOM
  1 O       -0.1850     0.9560    -1.0080 O.2   1 <1>  -0.5700 
  2 C       -0.1980     2.1350    -0.7410 C.2   1 <1>   0.5690 
  3 N       -1.2100     2.7310    -0.0330 N.am  1 <1>  -0.5090 
  4 C        0.9610     2.9870    -1.2590 C.3   1 <1>   0.1810 
  5 C       -1.2730     4.2180     0.1440 C.3   1 <1>   0.3640 
  6 C       -2.3000     1.9500     0.6050 C.3   1 <1>   0.0490 
  7 O        1.0510     4.2380    -0.6230 O.3   1 <1>  -0.5600 
  8 C       -2.6380     4.7390    -0.3070 C.ar  1 <1>  -0.1440 
  9 C       -0.1560     4.9740    -0.6220 C.3   1 <1>   0.2610 
 10 C       -2.5210     2.0890     2.0800 C.3   1 <1>  -0.2000 
 11 C       -1.9530     0.8230     1.5260 C.3   1 <1>  -0.2000 
 12 C       -3.1990     4.3330    -1.5120 C.ar  1 <1>   0.1600 
 13 C       -3.3380     5.6390     0.4740 C.ar  1 <1>  -0.1500 
 14 C        0.0810     6.3900    -0.0620 C.2   1 <1>   0.5690 
 15 N       -4.3600     4.7500    -1.9890 N.ar  1 <1>  -0.6200 
 16 C       -4.5530     6.0780    -0.0050 C.ar  1 <1>  -0.1500 
 17 O       -0.4000     6.6770     1.0130 O.2   1 <1>  -0.5700 
 18 N        0.8310     7.3100    -0.7610 N.am  1 <1>  -0.6600 
 19 C       -5.0110     5.6100    -1.2240 C.ar  1 <1>   0.1600 
 20 C        1.1630     8.6360    -0.1550 C.3   1 <1>   0.2840 
 21 C        1.5190     7.0260    -2.0560 C.3   1 <1>   0.0600 
 22 C        2.6740     8.8480    -0.0920 C.ar  1 <1>  -0.1430 
 23 C        3.5160     8.1360     0.7500 C.ar  1 <1>  -0.1430 
 24 C        3.2750     9.7900    -0.9050 C.ar  1 <1>  -0.1500 
 25 C        4.8780     8.4050     0.7150 C.ar  1 <1>   0.1600 
 26 C        2.9910     7.0670     1.7010 C.3   1 <1>  -0.0970 
 27 C        4.6450     9.9740    -0.8520 C.ar  1 <1>   0.1600 
 28 N        5.4620     9.3010    -0.0630 N.ar  1 <1>  -0.6200 
 29 H        0.8470     3.1460    -2.3150 H     1 <1>   0.0800 
 30 H        1.8850     2.4670    -1.0860 H     1 <1>   0.0800 
 31 H       -1.1570     4.4110     1.1950 H     1 <1>   0.0800 
 32 H       -3.1570     1.8310    -0.0370 H     1 <1>   0.1000 
 33 H       -0.4690     5.0800    -1.6440 H     1 <1>   0.0800 
 34 H       -1.8720     2.7100     2.6710 H     1 <1>   0.1000 
 35 H       -3.5300     2.0700     2.4540 H     1 <1>   0.1000 
 36 H       -2.5700    -0.0570     1.5100 H     1 <1>   0.1000 
 37 H       -0.9140     0.5950     1.6870 H     1 <1>   0.1000 
 38 H       -2.6670     3.6220    -2.1210 H     1 <1>   0.1500 
 39 H       -2.9550     5.9920     1.4180 H     1 <1>   0.1500 
 40 H       -5.1410     6.7780     0.5600 H     1 <1>   0.1500 
 41 H       -5.9610     5.9620    -1.5880 H     1 <1>   0.1500 
 42 H        0.7090     9.4070    -0.7520 H     1 <1>   0.0800 
 43 H        0.7560     8.7230     0.8370 H     1 <1>   0.0800 
 44 H        1.5700     7.9230    -2.6480 H     1 <1>   0.0800 
 45 H        0.9980     6.2790    -2.6240 H     1 <1>   0.0800 
 46 H        2.5210     6.6810    -1.8610 H     1 <1>   0.0800 
 47 H        2.6920    10.3860    -1.5830 H     1 <1>   0.1500 
 48 H        5.5290     7.8490     1.3670 H     1 <1>   0.1500 
 49 H        2.1230     7.4200     2.2270 H     1 <1>   0.0800 
 50 H        3.7360     6.8010     2.4290 H     1 <1>   0.0800 
 51 H        2.7270     6.1840     1.1470 H     1 <1>   0.0800 
 52 H        5.0920    10.7130    -1.4940 H     1 <1>   0.1500 
@<TRIPOS>BOND
  1   1   2  2   
  2   2   3  am  
  3   2   4  1   
  4   3   5  1   
  5   3   6  1   
  6   4   7  1   
  7   4  29  1   
  8   4  30  1   
  9   5   8  1   
 10   5   9  1   
 11   5  31  1   
 12   6  10  1   
 13   6  11  1   
 14   6  32  1   
 15   7   9  1   
 16   8  12  ar  
 17   8  13  ar  
 18   9  14  1   
 19   9  33  1   
 20  10  11  1   
 21  10  34  1   
 22  10  35  1   
 23  11  36  1   
 24  11  37  1   
 25  12  15  ar  
 26  12  38  1   
 27  13  16  ar  
 28  13  39  1   
 29  14  17  2   
 30  14  18  am  
 31  15  19  ar  
 32  16  19  ar  
 33  16  40  1   
 34  18  20  1   
 35  18  21  1   
 36  19  41  1   
 37  20  22  1   
 38  20  42  1   
 39  20  43  1   
 40  21  44  1   
 41  21  45  1   
 42  21  46  1   
 43  22  23  ar  
 44  22  24  ar  
 45  23  25  ar  
 46  23  26  1   
 47  24  27  ar  
 48  24  47  1   
 49  25  28  ar  
 50  25  48  1   
 51  26  49  1   
 52  26  50  1   
 53  26  51  1   
 54  27  28  ar  
 55  27  52  1   
@<TRIPOS>SUBSTRUCTURE
  1 ****   9 GROUP 4 **** **** 0

# MOE 2024.06 (io_trps.svl 2023.06)
