@<TRIPOS>MOLECULE
NONAME
21 20 1 0 0 
SMALL
USER_CHARGES


@<TRIPOS>ATOM
  1 O        0.3630    -1.0160    -1.7420 O.2   1 <1>  -0.5700 
  2 C        0.1110    -1.5030    -0.6700 C.2   1 <1>   0.6590 
  3 O        0.9670    -1.4730     0.3450 O.3   1 <1>  -0.4300 
  4 C       -1.1960    -2.2180    -0.4230 C.3   1 <1>  -0.0990 
  5 C        2.2130    -0.8180     0.2390 C.3   1 <1>   0.0400 
  6 C       -2.3250    -1.2280    -0.1380 C.3   1 <1>   0.2000 
  7 O       -2.0410    -0.5480     1.0300 O.3   1 <1>  -0.6800 
  8 C       -3.6830    -1.9300     0.0190 C.3   1 <1>  -0.1600 
  9 C       -4.8400    -0.9550     0.2890 C.3   1 <1>  -0.2400 
 10 H       -1.0850    -2.9130     0.3880 H     1 <1>   0.0800 
 11 H       -1.4330    -2.7760    -1.3090 H     1 <1>   0.0800 
 12 H        2.7320    -0.9200     1.1750 H     1 <1>   0.0800 
 13 H        2.0390     0.2220     0.0220 H     1 <1>   0.0800 
 14 H        2.7800    -1.2740    -0.5540 H     1 <1>   0.0800 
 15 H       -2.3770    -0.4990    -0.9310 H     1 <1>   0.0800 
 16 H       -2.1120    -1.1450     1.7980 H     1 <1>   0.4000 
 17 H       -3.6300    -2.6570     0.8110 H     1 <1>   0.0800 
 18 H       -3.8980    -2.4610    -0.8910 H     1 <1>   0.0800 
 19 H       -4.6930    -0.4360     1.2200 H     1 <1>   0.0800 
 20 H       -5.7710    -1.4910     0.3420 H     1 <1>   0.0800 
 21 H       -4.9070    -0.2270    -0.5010 H     1 <1>   0.0800 
@<TRIPOS>BOND
  1   1   2  2   
  2   2   3  1   
  3   2   4  1   
  4   3   5  1   
  5   4   6  1   
  6   4  10  1   
  7   4  11  1   
  8   5  12  1   
  9   5  13  1   
 10   5  14  1   
 11   6   7  1   
 12   6   8  1   
 13   6  15  1   
 14   7  16  1   
 15   8   9  1   
 16   8  17  1   
 17   8  18  1   
 18   9  19  1   
 19   9  20  1   
 20   9  21  1   
@<TRIPOS>SUBSTRUCTURE
  1 ****   4 GROUP 4 **** **** 0

# MOE 2024.06 (io_trps.svl 2023.06)
