@<TRIPOS>MOLECULE
NONAME
45 47 1 0 0 
SMALL
USER_CHARGES


@<TRIPOS>ATOM
  1 S        0.2500    -0.1720    -1.5040 S.3   1 <1>  -0.0800 
  2 C        1.3580    -1.2740    -0.6740 C.2   1 <1>  -0.0450 
  3 C        1.2420     1.2200    -1.1390 C.2   1 <1>  -0.1100 
  4 C        2.4020    -0.5520    -0.1840 C.2   1 <1>  -0.1810 
  5 C        1.0470    -2.6850    -0.6600 C.2   1 <1>   0.7150 
  6 C        2.3320     0.8500    -0.4440 C.2   1 <1>  -0.1500 
  7 C        3.5850    -1.1200     0.5810 C.3   1 <1>  -0.0590 
  8 O        1.9030    -3.4790    -1.0100 O.2   1 <1>  -0.5700 
  9 N       -0.1780    -3.1680    -0.2520 N.am  1 <1>  -0.6600 
 10 C       -0.6230    -4.5670    -0.5320 C.3   1 <1>   0.1400 
 11 C       -1.1370    -2.4060     0.5960 C.3   1 <1>   0.1400 
 12 C       -1.9900    -4.5320    -1.2310 C.3   1 <1>   0.2000 
 13 C       -2.5150    -2.3750    -0.0800 C.3   1 <1>  -0.1600 
 14 O       -2.3960    -5.8280    -1.5090 O.3   1 <1>  -0.6800 
 15 C       -3.0660    -3.8000    -0.3870 C.3   1 <1>  -0.1060 
 16 C       -3.3240    -4.6070     0.9020 C.2   1 <1>   0.9060 
 17 C       -4.3790    -3.7080    -1.2110 C.3   1 <1>  -0.0170 
 18 O       -3.5330    -5.8270     0.8050 O.co2 1 <1>  -0.9000 
 19 O       -3.3110    -4.0560     2.0090 O.co2 1 <1>  -0.9000 
 20 C       -5.3880    -2.6730    -0.7160 C.ar  1 <1>  -0.1430 
 21 C       -5.6470    -1.5340    -1.4650 C.ar  1 <1>  -0.1500 
 22 C       -6.0580    -2.8580     0.4830 C.ar  1 <1>  -0.1500 
 23 C       -6.5630    -0.5940    -1.0230 C.ar  1 <1>  -0.1500 
 24 C       -6.9730    -1.9190     0.9290 C.ar  1 <1>  -0.1500 
 25 C       -7.2270    -0.7860     0.1760 C.ar  1 <1>  -0.1500 
 26 H        0.9030     2.1790    -1.4870 H     1 <1>   0.1500 
 27 H        3.1010     1.5190    -0.1000 H     1 <1>   0.1500 
 28 H        3.6530    -0.6570     1.5490 H     1 <1>   0.0800 
 29 H        4.4940    -0.9350     0.0380 H     1 <1>   0.0800 
 30 H        3.4800    -2.1820     0.7170 H     1 <1>   0.0800 
 31 H        0.0840    -5.0670    -1.1700 H     1 <1>   0.0800 
 32 H       -0.6970    -5.1080     0.3960 H     1 <1>   0.0800 
 33 H       -1.2100    -2.8890     1.5560 H     1 <1>   0.0800 
 34 H       -0.7920    -1.4030     0.7700 H     1 <1>   0.0800 
 35 H       -1.8650    -4.0390    -2.1790 H     1 <1>   0.0800 
 36 H       -3.1950    -1.8610     0.5780 H     1 <1>   0.0800 
 37 H       -2.4460    -1.8010    -0.9860 H     1 <1>   0.0800 
 38 H       -2.8580    -6.1480    -0.6730 H     1 <1>   0.4000 
 39 H       -4.1340    -3.4800    -2.2320 H     1 <1>   0.0800 
 40 H       -4.8580    -4.6720    -1.2210 H     1 <1>   0.0800 
 41 H       -5.1340    -1.3740    -2.3960 H     1 <1>   0.1500 
 42 H       -5.8630    -3.7330     1.0810 H     1 <1>   0.1500 
 43 H       -6.7580     0.2850    -1.6110 H     1 <1>   0.1500 
 44 H       -7.4780    -2.0760     1.8650 H     1 <1>   0.1500 
 45 H       -7.9360    -0.0580     0.5240 H     1 <1>   0.1500 
@<TRIPOS>BOND
  1   1   2  1   
  2   1   3  1   
  3   2   4  2   
  4   2   5  1   
  5   3   6  2   
  6   3  26  1   
  7   4   6  1   
  8   4   7  1   
  9   5   8  2   
 10   5   9  am  
 11   6  27  1   
 12   7  28  1   
 13   7  29  1   
 14   7  30  1   
 15   9  10  1   
 16   9  11  1   
 17  10  12  1   
 18  10  31  1   
 19  10  32  1   
 20  11  13  1   
 21  11  33  1   
 22  11  34  1   
 23  12  14  1   
 24  12  15  1   
 25  12  35  1   
 26  13  15  1   
 27  13  36  1   
 28  13  37  1   
 29  14  38  1   
 30  15  16  1   
 31  15  17  1   
 32  16  18  ar  
 33  16  19  ar  
 34  17  20  1   
 35  17  39  1   
 36  17  40  1   
 37  20  21  ar  
 38  20  22  ar  
 39  21  23  ar  
 40  21  41  1   
 41  22  24  ar  
 42  22  42  1   
 43  23  25  ar  
 44  23  43  1   
 45  24  25  ar  
 46  24  44  1   
 47  25  45  1   
@<TRIPOS>SUBSTRUCTURE
  1 ****  13 GROUP 4 **** **** 0

# MOE 2024.06 (io_trps.svl 2023.06)
