@<TRIPOS>MOLECULE
NONAME
49 52 1 0 0 
SMALL
USER_CHARGES


@<TRIPOS>ATOM
  1 F        2.0770    -0.8850     0.1430 F     1 <1>  -0.1900 
  2 C        1.5690    -2.0460     0.4510 C.ar  1 <1>   0.1900 
  3 C        2.3640    -3.1700     0.3520 C.ar  1 <1>  -0.1500 
  4 C        0.2530    -2.1000     0.8610 C.ar  1 <1>  -0.1500 
  5 C        1.8270    -4.4120     0.6770 C.ar  1 <1>  -0.1440 
  6 C       -0.2960    -3.3330     1.1810 C.ar  1 <1>  -0.1440 
  7 C        0.4960    -4.4730     1.0920 C.ar  1 <1>  -0.1500 
  8 C        2.6660    -5.6990     0.5910 C.3   1 <1>   1.1640 
  9 C       -1.7470    -3.4280     1.6220 C.3   1 <1>   0.4870 
 10 F        3.8460    -5.5280     0.0090 F     1 <1>  -0.3400 
 11 F        2.0370    -6.6400    -0.1020 F     1 <1>  -0.3400 
 12 F        2.9020    -6.2130     1.7890 F     1 <1>  -0.3400 
 13 N       -2.6160    -3.2250     0.4320 N.4   1 <1>  -0.9590 
 14 C       -4.0450    -3.0030     0.8430 C.3   1 <1>   0.3430 
 15 C       -2.4990    -4.3570    -0.5370 C.3   1 <1>   0.3430 
 16 C       -4.9520    -2.6890    -0.3590 C.3   1 <1>   0.1440 
 17 C       -3.3380    -4.0650    -1.7840 C.3   1 <1>  -0.1600 
 18 C       -6.3780    -2.6200     0.1310 C.ar  1 <1>   0.1670 
 19 C       -4.8120    -3.7850    -1.4370 C.3   1 <1>  -0.1600 
 20 C       -4.7320    -1.2670    -0.9430 C.3   1 <1>  -0.1600 
 21 N       -6.9310    -3.5010     0.9320 N.ar  1 <1>  -0.6200 
 22 C       -7.0260    -1.5210    -0.3430 C.ar  1 <1>  -0.1430 
 23 C       -6.1320    -0.6850    -1.2240 C.3   1 <1>  -0.0170 
 24 C       -8.1980    -3.2370     1.2310 C.ar  1 <1>   0.4770 
 25 C       -8.3340    -1.3430     0.0350 C.ar  1 <1>   0.1600 
 26 N       -8.9300    -2.2070     0.8310 N.ar  1 <1>  -0.6200 
 27 C       -8.8930    -4.2220     2.1400 C.3   1 <1>  -0.0970 
 28 H        3.3860    -3.0580     0.0260 H     1 <1>   0.1500 
 29 H       -0.3070    -1.1840     0.9260 H     1 <1>   0.1500 
 30 H        0.0800    -5.4360     1.3520 H     1 <1>   0.1500 
 31 H       -1.9420    -2.6650     2.3580 H     1 <1>   0.0800 
 32 H       -1.9410    -4.3900     2.0690 H     1 <1>   0.0800 
 33 H       -2.2780    -2.3820    -0.0470 H     1 <1>   0.4500 
 34 H       -4.1110    -2.1920     1.5490 H     1 <1>   0.0800 
 35 H       -4.4230    -3.8900     1.3260 H     1 <1>   0.0800 
 36 H       -2.8470    -5.2680    -0.0780 H     1 <1>   0.0800 
 37 H       -1.4680    -4.4950    -0.8250 H     1 <1>   0.0800 
 38 H       -3.2900    -4.9170    -2.4400 H     1 <1>   0.0800 
 39 H       -2.9100    -3.2340    -2.3160 H     1 <1>   0.0800 
 40 H       -5.3550    -3.5040    -2.3240 H     1 <1>   0.0800 
 41 H       -5.2590    -4.6930    -1.0680 H     1 <1>   0.0800 
 42 H       -4.1290    -1.2620    -1.8330 H     1 <1>   0.0800 
 43 H       -4.2590    -0.6410    -0.2060 H     1 <1>   0.0800 
 44 H       -6.4080    -0.8270    -2.2550 H     1 <1>   0.0800 
 45 H       -6.1900     0.3610    -0.9730 H     1 <1>   0.0800 
 46 H       -8.8970    -0.4930    -0.3110 H     1 <1>   0.1500 
 47 H       -8.3620    -5.1550     2.1640 H     1 <1>   0.0800 
 48 H       -9.8910    -4.3990     1.7850 H     1 <1>   0.0800 
 49 H       -8.9410    -3.8160     3.1330 H     1 <1>   0.0800 
@<TRIPOS>BOND
  1   1   2  1   
  2   2   3  ar  
  3   2   4  ar  
  4   3   5  ar  
  5   3  28  1   
  6   4   6  ar  
  7   4  29  1   
  8   5   7  ar  
  9   5   8  1   
 10   6   7  ar  
 11   6   9  1   
 12   7  30  1   
 13   8  10  1   
 14   8  11  1   
 15   8  12  1   
 16   9  13  1   
 17   9  31  1   
 18   9  32  1   
 19  13  14  1   
 20  13  15  1   
 21  13  33  1   
 22  14  16  1   
 23  14  34  1   
 24  14  35  1   
 25  15  17  1   
 26  15  36  1   
 27  15  37  1   
 28  16  18  1   
 29  16  19  1   
 30  16  20  1   
 31  17  19  1   
 32  17  38  1   
 33  17  39  1   
 34  18  21  ar  
 35  18  22  ar  
 36  19  40  1   
 37  19  41  1   
 38  20  23  1   
 39  20  42  1   
 40  20  43  1   
 41  21  24  ar  
 42  22  23  1   
 43  22  25  ar  
 44  23  44  1   
 45  23  45  1   
 46  24  26  ar  
 47  24  27  1   
 48  25  26  ar  
 49  25  46  1   
 50  27  47  1   
 51  27  48  1   
 52  27  49  1   
@<TRIPOS>SUBSTRUCTURE
  1 ****  13 GROUP 4 **** **** 0

# MOE 2024.06 (io_trps.svl 2023.06)
