@<TRIPOS>MOLECULE
NONAME
43 44 1 0 0 
SMALL
USER_CHARGES


@<TRIPOS>ATOM
  1 O        1.2760    -0.9610     1.9980 O.2   1 <1>  -0.5700 
  2 C        0.8590    -1.4910     0.9910 C.2   1 <1>   0.5440 
  3 N        0.5450    -0.6560    -0.0270 N.am  1 <1>  -0.8000 
  4 C        0.7230    -2.9320     0.8820 C.ar  1 <1>   0.0860 
  5 C       -0.1470    -3.5320    -0.0330 C.ar  1 <1>  -0.1500 
  6 C        1.4640    -3.7880     1.6980 C.ar  1 <1>  -0.1500 
  7 C       -0.2560    -4.9060    -0.1330 C.ar  1 <1>  -0.1500 
  8 C        1.3560    -5.1620     1.6000 C.ar  1 <1>  -0.1500 
  9 C        0.4960    -5.7480     0.6770 C.ar  1 <1>   0.1170 
 10 N        0.3460    -7.1290     0.5290 N.am  1 <1>  -0.5470 
 11 C        1.0010    -8.2090     1.0530 C.2   1 <1>   0.5690 
 12 O        1.9380    -8.1420     1.8110 O.2   1 <1>  -0.5700 
 13 C        0.4830    -9.5850     0.6280 C.3   1 <1>   0.1710 
 14 N       -0.3210    -9.5660    -0.6390 N.3   1 <1>  -0.8100 
 15 C       -1.1320   -10.8000    -0.7830 C.3   1 <1>   0.1100 
 16 C        0.5710    -9.4270    -1.8030 C.3   1 <1>   0.0300 
 17 C       -2.3770   -10.8110     0.1190 C.3   1 <1>   0.2000 
 18 O       -3.0880   -11.9870    -0.1580 O.3   1 <1>  -0.5600 
 19 C       -3.2780    -9.5830    -0.1260 C.3   1 <1>   0.1200 
 20 C       -4.2840   -12.1000     0.5600 C.3   1 <1>   0.1200 
 21 O       -4.4780    -9.7010     0.5870 O.3   1 <1>  -0.5600 
 22 C       -5.1780   -10.8760     0.3000 C.3   1 <1>   0.1200 
 23 H        0.7040     0.3440     0.1030 H     1 <1>   0.3700 
 24 H        0.3390    -0.9690    -0.9740 H     1 <1>   0.3700 
 25 H       -0.7540    -2.9130    -0.6690 H     1 <1>   0.1500 
 26 H        2.1370    -3.3600     2.4220 H     1 <1>   0.1500 
 27 H       -0.9360    -5.3320    -0.8480 H     1 <1>   0.1500 
 28 H        1.9480    -5.7770     2.2520 H     1 <1>   0.1500 
 29 H       -0.3610    -7.4400    -0.1450 H     1 <1>   0.3700 
 30 H       -0.1210    -9.9460     1.4400 H     1 <1>   0.0800 
 31 H        1.3190   -10.2530     0.5250 H     1 <1>   0.0800 
 32 H       -0.5260   -11.6640    -0.5680 H     1 <1>   0.0800 
 33 H       -1.4760   -10.8770    -1.8010 H     1 <1>   0.0800 
 34 H        1.1660    -8.5340    -1.7200 H     1 <1>   0.0800 
 35 H       -0.0100    -9.3600    -2.7070 H     1 <1>   0.0800 
 36 H        1.2310   -10.2760    -1.8770 H     1 <1>   0.0800 
 37 H       -2.0800   -10.8460     1.1510 H     1 <1>   0.0800 
 38 H       -3.5060    -9.4840    -1.1720 H     1 <1>   0.0800 
 39 H       -2.7840    -8.6880     0.2060 H     1 <1>   0.0800 
 40 H       -4.0530   -12.1820     1.6080 H     1 <1>   0.0800 
 41 H       -4.7780   -13.0000     0.2400 H     1 <1>   0.0800 
 42 H       -6.0480   -10.9050     0.9300 H     1 <1>   0.0800 
 43 H       -5.4930   -10.8480    -0.7290 H     1 <1>   0.0800 
@<TRIPOS>BOND
  1   1   2  2   
  2   2   3  am  
  3   2   4  1   
  4   3  23  1   
  5   3  24  1   
  6   4   5  ar  
  7   4   6  ar  
  8   5   7  ar  
  9   5  25  1   
 10   6   8  ar  
 11   6  26  1   
 12   7   9  ar  
 13   7  27  1   
 14   8   9  ar  
 15   8  28  1   
 16   9  10  1   
 17  10  11  am  
 18  10  29  1   
 19  11  12  2   
 20  11  13  1   
 21  13  14  1   
 22  13  30  1   
 23  13  31  1   
 24  14  15  1   
 25  14  16  1   
 26  15  17  1   
 27  15  32  1   
 28  15  33  1   
 29  16  34  1   
 30  16  35  1   
 31  16  36  1   
 32  17  18  1   
 33  17  19  1   
 34  17  37  1   
 35  18  20  1   
 36  19  21  1   
 37  19  38  1   
 38  19  39  1   
 39  20  22  1   
 40  20  40  1   
 41  20  41  1   
 42  21  22  1   
 43  22  42  1   
 44  22  43  1   
@<TRIPOS>SUBSTRUCTURE
  1 ****  10 GROUP 4 **** **** 0

# MOE 2024.06 (io_trps.svl 2023.06)
