@<TRIPOS>MOLECULE
NONAME
55 57 1 0 0 
SMALL
USER_CHARGES


@<TRIPOS>ATOM
  1 O       -2.6020     4.6390     1.3250 O.2   1 <1>  -0.5700 
  2 C       -2.2550     3.7720     0.5420 C.2   1 <1>   0.5440 
  3 N       -3.0760     2.6830     0.3390 N.am  1 <1>  -0.6600 
  4 C       -1.0140     3.9290    -0.1880 C.ar  1 <1>   0.0860 
  5 C       -2.8980     1.7580    -0.8230 C.3   1 <1>   0.1400 
  6 C       -3.9140     2.1410     1.4470 C.3   1 <1>   0.1400 
  7 C        0.0430     3.0190    -0.0580 C.ar  1 <1>   0.0820 
  8 C       -0.8490     4.9950    -1.0720 C.ar  1 <1>  -0.1500 
  9 C       -4.2550     1.2600    -1.3320 C.3   1 <1>   0.2000 
 10 C       -5.2430     1.5760     0.9210 C.3   1 <1>  -0.1600 
 11 O       -0.0760     2.0060     0.8270 O.3   1 <1>  -0.3630 
 12 C        1.2020     3.1650    -0.8110 C.ar  1 <1>  -0.1500 
 13 C        0.3050     5.1420    -1.8190 C.ar  1 <1>  -0.1500 
 14 O       -4.0420     0.4090    -2.4040 O.3   1 <1>  -0.6800 
 15 C       -5.0530     0.5360    -0.2210 C.3   1 <1>  -0.1060 
 16 C        0.2810     0.6920     0.4590 C.3   1 <1>   0.1200 
 17 C        1.3320     4.2220    -1.6920 C.ar  1 <1>  -0.1500 
 18 C       -4.2590    -0.7030     0.2430 C.2   1 <1>   0.9060 
 19 C       -6.4270     0.0900    -0.7920 C.3   1 <1>  -0.0170 
 20 C       -0.3980    -0.2730     1.4320 C.3   1 <1>  -0.1600 
 21 O       -3.7290    -1.4250    -0.6190 O.co2 1 <1>  -0.9000 
 22 O       -4.1370    -0.9690     1.4430 O.co2 1 <1>  -0.9000 
 23 C       -7.4990    -0.2300     0.2480 C.ar  1 <1>  -0.1440 
 24 C       -0.2100    -1.7300     1.0000 C.3   1 <1>  -0.2400 
 25 C       -8.6000     0.6010     0.3980 C.ar  1 <1>  -0.1500 
 26 C       -7.3900    -1.3550     1.0500 C.ar  1 <1>  -0.1500 
 27 C       -9.5780     0.3110     1.3340 C.ar  1 <1>  -0.1500 
 28 C       -8.3650    -1.6480     1.9870 C.ar  1 <1>  -0.1500 
 29 C       -9.4620    -0.8150     2.1300 C.ar  1 <1>  -0.1500 
 30 H       -2.3950     2.2640    -1.6260 H     1 <1>   0.0800 
 31 H       -2.3050     0.9180    -0.5130 H     1 <1>   0.0800 
 32 H       -3.3630     1.3620     1.9470 H     1 <1>   0.0800 
 33 H       -4.1160     2.9110     2.1700 H     1 <1>   0.0800 
 34 H       -1.6480     5.7100    -1.1660 H     1 <1>   0.1500 
 35 H       -4.8090     2.1030    -1.7060 H     1 <1>   0.0800 
 36 H       -5.7510     1.1130     1.7490 H     1 <1>   0.0800 
 37 H       -5.8530     2.3930     0.5810 H     1 <1>   0.0800 
 38 H        2.0080     2.4640    -0.7020 H     1 <1>   0.1500 
 39 H        0.4060     5.9720    -2.4970 H     1 <1>   0.1500 
 40 H       -3.8160    -0.4800    -1.9880 H     1 <1>   0.4000 
 41 H       -0.0600     0.5150    -0.5460 H     1 <1>   0.0800 
 42 H        1.3510     0.5980     0.5090 H     1 <1>   0.0800 
 43 H        2.2300     4.3350    -2.2740 H     1 <1>   0.1500 
 44 H       -6.8030     0.8640    -1.4360 H     1 <1>   0.0800 
 45 H       -6.2840    -0.7790    -1.4120 H     1 <1>   0.0800 
 46 H        0.0060    -0.1330     2.4190 H     1 <1>   0.0800 
 47 H       -1.4550    -0.0660     1.4650 H     1 <1>   0.0800 
 48 H        0.8310    -1.9900     0.9520 H     1 <1>   0.0800 
 49 H       -0.6660    -1.8900     0.0370 H     1 <1>   0.0800 
 50 H       -0.7020    -2.3790     1.7050 H     1 <1>   0.0800 
 51 H       -8.6970     1.4790    -0.2140 H     1 <1>   0.1500 
 52 H       -6.5360    -2.0060     0.9530 H     1 <1>   0.1500 
 53 H      -10.4270     0.9610     1.4430 H     1 <1>   0.1500 
 54 H       -8.2600    -2.5220     2.6050 H     1 <1>   0.1500 
 55 H      -10.2180    -1.0430     2.8590 H     1 <1>   0.1500 
@<TRIPOS>BOND
  1   1   2  2   
  2   2   3  am  
  3   2   4  1   
  4   3   5  1   
  5   3   6  1   
  6   4   7  ar  
  7   4   8  ar  
  8   5   9  1   
  9   5  30  1   
 10   5  31  1   
 11   6  10  1   
 12   6  32  1   
 13   6  33  1   
 14   7  11  1   
 15   7  12  ar  
 16   8  13  ar  
 17   8  34  1   
 18   9  14  1   
 19   9  15  1   
 20   9  35  1   
 21  10  15  1   
 22  10  36  1   
 23  10  37  1   
 24  11  16  1   
 25  12  17  ar  
 26  12  38  1   
 27  13  17  ar  
 28  13  39  1   
 29  14  40  1   
 30  15  18  1   
 31  15  19  1   
 32  16  20  1   
 33  16  41  1   
 34  16  42  1   
 35  17  43  1   
 36  18  21  ar  
 37  18  22  ar  
 38  19  23  1   
 39  19  44  1   
 40  19  45  1   
 41  20  24  1   
 42  20  46  1   
 43  20  47  1   
 44  23  25  ar  
 45  23  26  ar  
 46  24  48  1   
 47  24  49  1   
 48  24  50  1   
 49  25  27  ar  
 50  25  51  1   
 51  26  28  ar  
 52  26  52  1   
 53  27  29  ar  
 54  27  53  1   
 55  28  29  ar  
 56  28  54  1   
 57  29  55  1   
@<TRIPOS>SUBSTRUCTURE
  1 ****   5 GROUP 4 **** **** 0

# MOE 2024.06 (io_trps.svl 2023.06)
