@<TRIPOS>MOLECULE
NONAME
42 44 1 0 0 
SMALL
USER_CHARGES


@<TRIPOS>ATOM
  1 O        1.3420    -0.1850     1.5700 O.3   1 <1>  -0.6800 
  2 C        2.2300     0.7210     1.0060 C.3   1 <1>   0.2000 
  3 C        3.2620     0.0130     0.0720 C.3   1 <1>   0.0000 
  4 C        1.4130     1.7940     0.2810 C.3   1 <1>  -0.1600 
  5 C        3.7280     1.0030    -1.0280 C.3   1 <1>   0.2090 
  6 C        2.5950    -1.2010    -0.6320 C.3   1 <1>   0.1200 
  7 C        4.4670    -0.5070     0.9120 C.3   1 <1>  -0.1600 
  8 C        2.3320     2.9300    -0.1860 C.3   1 <1>   0.2090 
  9 N        3.6780     2.4210    -0.5660 N.pl3 1 <1>  -0.8380 
 10 O        3.4280    -1.7790    -1.5890 O.3   1 <1>  -0.6800 
 11 C        5.3930     0.5680     1.5160 C.3   1 <1>  -0.1600 
 12 C        4.6230     3.3110    -1.0190 C.ar  1 <1>   0.4100 
 13 C        6.5040    -0.0760     2.3490 C.3   1 <1>  -0.2400 
 14 N        5.0280     3.2110    -2.2630 N.ar  1 <1>  -0.6200 
 15 C        5.1400     4.3060    -0.1800 C.ar  1 <1>   0.0000 
 16 C        5.9280     4.1190    -2.6720 C.ar  1 <1>   0.4700 
 17 C        6.0460     5.1690    -0.7190 C.ar  1 <1>   0.1050 
 18 C        5.0200     4.7200     1.1550 C.2   1 <1>   0.1390 
 19 N        6.4670     5.1000    -1.9900 N.ar  1 <1>  -0.5670 
 20 N        6.3940     6.0300     0.2680 N.pl3 1 <1>   0.3000 
 21 N        5.7530     5.7500     1.4340 N.2   1 <1>  -0.7070 
 22 H        0.8010     0.2520     2.2550 H     1 <1>   0.4000 
 23 H        2.7450     1.1950     1.8210 H     1 <1>   0.0800 
 24 H        0.9220     1.3640    -0.5740 H     1 <1>   0.0800 
 25 H        0.6620     2.2040     0.9300 H     1 <1>   0.0800 
 26 H        3.0870     0.9240    -1.8890 H     1 <1>   0.0800 
 27 H        4.7250     0.7510    -1.3480 H     1 <1>   0.0800 
 28 H        1.6820    -0.9080    -1.1200 H     1 <1>   0.0800 
 29 H        2.3610    -1.9660     0.0900 H     1 <1>   0.0800 
 30 H        4.0830    -1.1240     1.7070 H     1 <1>   0.0800 
 31 H        5.0750    -1.1440     0.2930 H     1 <1>   0.0800 
 32 H        2.4460     3.6410     0.6140 H     1 <1>   0.0800 
 33 H        1.8900     3.4400    -1.0250 H     1 <1>   0.0800 
 34 H        3.5590    -1.1840    -2.3510 H     1 <1>   0.4000 
 35 H        5.8470     1.1470     0.7310 H     1 <1>   0.0800 
 36 H        4.8410     1.2430     2.1440 H     1 <1>   0.0800 
 37 H        7.0980    -0.7330     1.7380 H     1 <1>   0.0800 
 38 H        6.0860    -0.6420     3.1620 H     1 <1>   0.0800 
 39 H        7.1460     0.6850     2.7560 H     1 <1>   0.0800 
 40 H        6.2410     4.0190    -3.6980 H     1 <1>   0.1500 
 41 H        4.3840     4.2230     1.8680 H     1 <1>   0.1500 
 42 H        7.0650     6.7970     0.1580 H     1 <1>   0.2700 
@<TRIPOS>BOND
  1   1   2  1   
  2   1  22  1   
  3   2   3  1   
  4   2   4  1   
  5   2  23  1   
  6   3   5  1   
  7   3   6  1   
  8   3   7  1   
  9   4   8  1   
 10   4  24  1   
 11   4  25  1   
 12   5   9  1   
 13   5  26  1   
 14   5  27  1   
 15   6  10  1   
 16   6  28  1   
 17   6  29  1   
 18   7  11  1   
 19   7  30  1   
 20   7  31  1   
 21   8   9  1   
 22   8  32  1   
 23   8  33  1   
 24   9  12  1   
 25  10  34  1   
 26  11  13  1   
 27  11  35  1   
 28  11  36  1   
 29  12  14  ar  
 30  12  15  ar  
 31  13  37  1   
 32  13  38  1   
 33  13  39  1   
 34  14  16  ar  
 35  15  17  ar  
 36  15  18  1   
 37  16  19  ar  
 38  16  40  1   
 39  17  19  ar  
 40  17  20  1   
 41  18  21  2   
 42  18  41  1   
 43  20  21  1   
 44  20  42  1   
@<TRIPOS>SUBSTRUCTURE
  1 ****   9 GROUP 4 **** **** 0

# MOE 2024.06 (io_trps.svl 2023.06)
