@<TRIPOS>MOLECULE
NONAME
43 45 1 0 0 
SMALL
USER_CHARGES


@<TRIPOS>ATOM
  1 CL      -1.3220     0.0360    -2.0900 Cl    1 <1>  -0.1770 
  2 C       -2.1300    -0.8400    -0.8100 C.ar  1 <1>   0.1770 
  3 C       -2.7400    -0.1520     0.2280 C.ar  1 <1>  -0.1440 
  4 C       -2.1410    -2.2190    -0.8690 C.ar  1 <1>  -0.1500 
  5 C       -3.3640    -0.8870     1.2240 C.ar  1 <1>  -0.1500 
  6 C       -2.7240     1.3680     0.2860 C.3   1 <1>  -0.0960 
  7 C       -2.7760    -2.9680     0.1180 C.ar  1 <1>   0.0860 
  8 C       -3.3760    -2.2700     1.1680 C.ar  1 <1>  -0.1500 
  9 C       -2.7980    -4.4180     0.0480 C.2   1 <1>   0.5440 
 10 O       -1.7730    -5.0230    -0.2010 O.2   1 <1>  -0.5700 
 11 N       -3.9570    -5.1350     0.2390 N.am  1 <1>  -0.6600 
 12 C       -5.3280    -4.5860     0.0770 C.3   1 <1>   0.1400 
 13 C       -3.9830    -6.6190     0.1840 C.3   1 <1>   0.1400 
 14 C       -6.1720    -5.7770    -0.3710 C.3   1 <1>   0.2000 
 15 C       -5.4640    -7.0020     0.1980 C.3   1 <1>  -0.0800 
 16 O       -7.4670    -5.6970     0.1150 O.3   1 <1>  -0.6800 
 17 C       -5.7710    -8.2940    -0.5720 C.3   1 <1>   0.0210 
 18 C       -4.9760    -9.4580    -0.0150 C.2   1 <1>   0.1080 
 19 N       -5.1350    -9.9030     1.1920 N.2   1 <1>  -0.7070 
 20 C       -3.9960   -10.1590    -0.7100 C.2   1 <1>  -0.1500 
 21 N       -4.2530   -10.9150     1.3000 N.pl3 1 <1>   0.3000 
 22 C       -3.5500   -11.0880     0.1610 C.2   1 <1>  -0.3320 
 23 C       -2.4770   -12.1450    -0.0270 C.3   1 <1>  -0.0600 
 24 H       -1.6520    -2.7230    -1.6840 H     1 <1>   0.1500 
 25 H       -3.8400    -0.3860     2.0490 H     1 <1>   0.1500 
 26 H       -3.2430     1.7290     1.1550 H     1 <1>   0.0800 
 27 H       -3.2010     1.7740    -0.5890 H     1 <1>   0.0800 
 28 H       -1.7100     1.7240     0.3220 H     1 <1>   0.0800 
 29 H       -3.8530    -2.8270     1.9550 H     1 <1>   0.1500 
 30 H       -5.6730    -4.2130     1.0250 H     1 <1>   0.0800 
 31 H       -5.3450    -3.8040    -0.6630 H     1 <1>   0.0800 
 32 H       -3.5080    -6.9450    -0.7260 H     1 <1>   0.0800 
 33 H       -3.4600    -7.0410     1.0250 H     1 <1>   0.0800 
 34 H       -6.2130    -5.8070    -1.4470 H     1 <1>   0.0800 
 35 H       -5.7430    -7.1350     1.2300 H     1 <1>   0.0800 
 36 H       -7.4790    -5.8760     1.0760 H     1 <1>   0.4000 
 37 H       -5.5390    -8.1690    -1.6140 H     1 <1>   0.0800 
 38 H       -6.8190    -8.5220    -0.4870 H     1 <1>   0.0800 
 39 H       -3.6810    -9.9780    -1.7220 H     1 <1>   0.1500 
 40 H       -4.1550   -11.4650     2.1620 H     1 <1>   0.2700 
 41 H       -2.0650   -12.0800    -1.0180 H     1 <1>   0.0800 
 42 H       -2.8950   -13.1270     0.1070 H     1 <1>   0.0800 
 43 H       -1.6830   -12.0000     0.6840 H     1 <1>   0.0800 
@<TRIPOS>BOND
  1   1   2  1   
  2   2   3  ar  
  3   2   4  ar  
  4   3   5  ar  
  5   3   6  1   
  6   4   7  ar  
  7   4  24  1   
  8   5   8  ar  
  9   5  25  1   
 10   6  26  1   
 11   6  27  1   
 12   6  28  1   
 13   7   8  ar  
 14   7   9  1   
 15   8  29  1   
 16   9  10  2   
 17   9  11  am  
 18  11  12  1   
 19  11  13  1   
 20  12  14  1   
 21  12  30  1   
 22  12  31  1   
 23  13  15  1   
 24  13  32  1   
 25  13  33  1   
 26  14  15  1   
 27  14  16  1   
 28  14  34  1   
 29  15  17  1   
 30  15  35  1   
 31  16  36  1   
 32  17  18  1   
 33  17  37  1   
 34  17  38  1   
 35  18  19  2   
 36  18  20  1   
 37  19  21  1   
 38  20  22  2   
 39  20  39  1   
 40  21  22  1   
 41  21  40  1   
 42  22  23  1   
 43  23  41  1   
 44  23  42  1   
 45  23  43  1   
@<TRIPOS>SUBSTRUCTURE
  1 ****  11 GROUP 4 **** **** 0

# MOE 2024.06 (io_trps.svl 2023.06)
