@<TRIPOS>MOLECULE
NONAME
40 41 1 0 0 
SMALL
USER_CHARGES


@<TRIPOS>ATOM
  1 S        0.1760     0.1610    -1.3600 S.o2  1 <1>   1.3330 
  2 O        1.4230    -0.4690    -1.7340 O.2   1 <1>  -0.6500 
  3 O       -0.8030     0.4630    -2.3790 O.2   1 <1>  -0.6500 
  4 N       -0.5930    -0.8390    -0.2210 N.am  1 <1>  -0.8490 
  5 C        0.5250     1.6590    -0.4260 C.3   1 <1>  -0.0550 
  6 C       -0.3840    -2.2630    -0.5020 C.3   1 <1>   0.1160 
  7 C       -2.0290    -0.5690    -0.0810 C.3   1 <1>   0.1160 
  8 C        1.7600     1.6550     0.5030 C.3   1 <1>  -0.0800 
  9 C        3.0890     1.5800    -0.2540 C.3   1 <1>   0.2200 
 10 C        1.8590     0.5240     1.5340 C.3   1 <1>   0.1200 
 11 N        3.8710     2.8060     0.0250 N.am  1 <1>  -0.7300 
 12 C        3.7700     0.3600     0.3610 C.3   1 <1>   0.1200 
 13 O        3.2180     0.2490     1.6330 O.3   1 <1>  -0.5600 
 14 C        3.7270     3.9800    -0.6550 C.2   1 <1>   0.5440 
 15 O        2.9310     4.0220    -1.5710 O.2   1 <1>  -0.5700 
 16 C        4.4920     5.1550    -0.2960 C.ar  1 <1>   0.0860 
 17 C        4.8600     5.4020     1.0300 C.ar  1 <1>   0.1600 
 18 C        4.8820     6.0860    -1.2510 C.ar  1 <1>  -0.1500 
 19 N        5.5660     6.4370     1.4680 N.ar  1 <1>  -0.6200 
 20 C        5.6110     7.1620    -0.8030 C.ar  1 <1>   0.1900 
 21 C        5.9320     7.3070     0.5350 C.ar  1 <1>   0.1600 
 22 F        6.0060     8.0640    -1.6610 F     1 <1>  -0.1900 
 23 H        0.6630     2.4600    -1.1280 H     1 <1>   0.0800 
 24 H       -0.3390     1.9100     0.1560 H     1 <1>   0.0800 
 25 H       -0.8760    -2.8680     0.2400 H     1 <1>   0.0800 
 26 H        0.6680    -2.4950    -0.4780 H     1 <1>   0.0800 
 27 H       -0.7710    -2.5120    -1.4770 H     1 <1>   0.0800 
 28 H       -2.4400    -1.1620     0.7190 H     1 <1>   0.0800 
 29 H       -2.5480    -0.8070    -0.9950 H     1 <1>   0.0800 
 30 H       -2.1930     0.4690     0.1480 H     1 <1>   0.0800 
 31 H        1.7250     2.5750     1.0600 H     1 <1>   0.0800 
 32 H        2.9740     1.4590    -1.3190 H     1 <1>   0.0800 
 33 H        1.3770    -0.3810     1.2150 H     1 <1>   0.0800 
 34 H        1.4880     0.8120     2.5010 H     1 <1>   0.0800 
 35 H        4.5090     2.7190     0.8190 H     1 <1>   0.3700 
 36 H        4.8380     0.4600     0.4320 H     1 <1>   0.0800 
 37 H        3.5200    -0.5330    -0.1880 H     1 <1>   0.0800 
 38 H        4.5440     4.6990     1.7810 H     1 <1>   0.1500 
 39 H        4.6250     5.9700    -2.2890 H     1 <1>   0.1500 
 40 H        6.5060     8.1640     0.8420 H     1 <1>   0.1500 
@<TRIPOS>BOND
  1   1   2  2   
  2   1   3  2   
  3   1   4  am  
  4   1   5  1   
  5   4   6  1   
  6   4   7  1   
  7   5   8  1   
  8   5  23  1   
  9   5  24  1   
 10   6  25  1   
 11   6  26  1   
 12   6  27  1   
 13   7  28  1   
 14   7  29  1   
 15   7  30  1   
 16   8   9  1   
 17   8  10  1   
 18   8  31  1   
 19   9  11  1   
 20   9  12  1   
 21   9  32  1   
 22  10  13  1   
 23  10  33  1   
 24  10  34  1   
 25  11  14  am  
 26  11  35  1   
 27  12  13  1   
 28  12  36  1   
 29  12  37  1   
 30  14  15  2   
 31  14  16  1   
 32  16  17  ar  
 33  16  18  ar  
 34  17  19  ar  
 35  17  38  1   
 36  18  20  ar  
 37  18  39  1   
 38  19  21  ar  
 39  20  21  ar  
 40  20  22  1   
 41  21  40  1   
@<TRIPOS>SUBSTRUCTURE
  1 ****   9 GROUP 4 **** **** 0

# MOE 2024.06 (io_trps.svl 2023.06)
