@<TRIPOS>MOLECULE
NONAME
51 54 1 0 0 
SMALL
USER_CHARGES


@<TRIPOS>ATOM
  1 O       -0.7750     0.3450     1.6870 O.2   1 <1>  -0.5700 
  2 C       -1.6780     0.9780     1.1720 C.2   1 <1>   0.7150 
  3 N       -2.7320     0.2870     0.6220 N.am  1 <1>  -0.6600 
  4 C       -1.6270     2.4100     1.1250 C.2   1 <1>  -0.2370 
  5 C       -3.6480     0.8400    -0.4090 C.3   1 <1>   0.1400 
  6 C       -2.8190    -1.1960     0.6420 C.3   1 <1>   0.1400 
  7 N       -0.5160     3.1270     0.8090 N.pl3 1 <1>   0.3140 
  8 C       -2.5940     3.3380     1.3660 C.2   1 <1>  -0.1500 
  9 C       -4.5990    -0.3100    -0.7310 C.3   1 <1>   0.2000 
 10 C       -3.7380    -1.5630    -0.5320 C.3   1 <1>  -0.0800 
 11 N       -0.7510     4.4500     0.8180 N.2   1 <1>  -0.7070 
 12 C        0.8310     2.6150     0.4620 C.3   1 <1>   0.0960 
 13 C       -1.9950     4.5650     1.1580 C.2   1 <1>   0.1080 
 14 O       -5.6230    -0.2910     0.2050 O.3   1 <1>  -0.6800 
 15 C       -4.5400    -2.8650    -0.3210 C.3   1 <1>  -0.0170 
 16 C        0.8610     2.0260    -0.9550 C.3   1 <1>  -0.2400 
 17 C       -2.6650     5.9110     1.3010 C.3   1 <1>  -0.0590 
 18 C       -3.7370    -4.1700    -0.2570 C.ar  1 <1>  -0.1440 
 19 C       -4.3810    -5.3700     0.1390 C.ar  1 <1>   0.0000 
 20 C       -2.4100    -4.2590    -0.5750 C.ar  1 <1>  -0.1500 
 21 C       -3.6050    -6.5540     0.2020 C.ar  1 <1>   0.3100 
 22 C       -5.7550    -5.4670     0.4690 C.ar  1 <1>  -0.1500 
 23 C       -1.7370    -5.4830    -0.4830 C.ar  1 <1>   0.1600 
 24 N       -2.2870    -6.5930    -0.1100 N.ar  1 <1>  -0.6200 
 25 C       -4.2180    -7.7520     0.6020 C.ar  1 <1>  -0.1500 
 26 C       -6.3220    -6.6520     0.8520 C.ar  1 <1>  -0.1500 
 27 C       -5.5470    -7.8110     0.9230 C.ar  1 <1>  -0.1500 
 28 H       -4.1840     1.7040    -0.0580 H     1 <1>   0.0800 
 29 H       -3.0750     1.1030    -1.2810 H     1 <1>   0.0800 
 30 H       -1.8430    -1.6400     0.5390 H     1 <1>   0.0800 
 31 H       -3.2480    -1.5080     1.5790 H     1 <1>   0.0800 
 32 H       -3.6130     3.1740     1.6640 H     1 <1>   0.1500 
 33 H       -5.0330    -0.2380    -1.7140 H     1 <1>   0.0800 
 34 H       -3.1320    -1.6660    -1.4140 H     1 <1>   0.0800 
 35 H        1.5230     3.4350     0.5260 H     1 <1>   0.0800 
 36 H        1.1220     1.8770     1.1860 H     1 <1>   0.0800 
 37 H       -5.2320    -0.1970     1.0970 H     1 <1>   0.4000 
 38 H       -5.2570    -2.9550    -1.1190 H     1 <1>   0.0800 
 39 H       -5.0920    -2.7690     0.5970 H     1 <1>   0.0800 
 40 H        0.5620     2.7720    -1.6700 H     1 <1>   0.0800 
 41 H        0.2070     1.1760    -1.0250 H     1 <1>   0.0800 
 42 H        1.8600     1.7070    -1.1910 H     1 <1>   0.0800 
 43 H       -3.6930     5.7930     1.5880 H     1 <1>   0.0800 
 44 H       -2.6170     6.4360     0.3650 H     1 <1>   0.0800 
 45 H       -2.1530     6.4880     2.0490 H     1 <1>   0.0800 
 46 H       -1.8310    -3.4190    -0.9040 H     1 <1>   0.1500 
 47 H       -6.3780    -4.5940     0.4170 H     1 <1>   0.1500 
 48 H       -0.6910    -5.5020    -0.7400 H     1 <1>   0.1500 
 49 H       -3.6010    -8.6310     0.6450 H     1 <1>   0.1500 
 50 H       -7.3680    -6.7070     1.1020 H     1 <1>   0.1500 
 51 H       -6.0040    -8.7370     1.2270 H     1 <1>   0.1500 
@<TRIPOS>BOND
  1   1   2  2   
  2   2   3  am  
  3   2   4  1   
  4   3   5  1   
  5   3   6  1   
  6   4   7  1   
  7   4   8  2   
  8   5   9  1   
  9   5  28  1   
 10   5  29  1   
 11   6  10  1   
 12   6  30  1   
 13   6  31  1   
 14   7  11  1   
 15   7  12  1   
 16   8  13  1   
 17   8  32  1   
 18   9  10  1   
 19   9  14  1   
 20   9  33  1   
 21  10  15  1   
 22  10  34  1   
 23  11  13  2   
 24  12  16  1   
 25  12  35  1   
 26  12  36  1   
 27  13  17  1   
 28  14  37  1   
 29  15  18  1   
 30  15  38  1   
 31  15  39  1   
 32  16  40  1   
 33  16  41  1   
 34  16  42  1   
 35  17  43  1   
 36  17  44  1   
 37  17  45  1   
 38  18  19  ar  
 39  18  20  ar  
 40  19  21  ar  
 41  19  22  ar  
 42  20  23  ar  
 43  20  46  1   
 44  21  24  ar  
 45  21  25  ar  
 46  22  26  ar  
 47  22  47  1   
 48  23  24  ar  
 49  23  48  1   
 50  25  27  ar  
 51  25  49  1   
 52  26  27  ar  
 53  26  50  1   
 54  27  51  1   
@<TRIPOS>SUBSTRUCTURE
  1 ****   6 GROUP 4 **** **** 0

# MOE 2024.06 (io_trps.svl 2023.06)
