@<TRIPOS>MOLECULE
NONAME
45 47 1 0 0 
SMALL
USER_CHARGES


@<TRIPOS>ATOM
  1 O       -0.7870     0.4860     1.2170 O.2   1 <1>  -0.5700 
  2 C       -1.6970     1.0600     0.6360 C.2   1 <1>   0.7160 
  3 N       -2.8000     0.2970     0.2990 N.am  1 <1>  -0.6600 
  4 C       -1.5700     2.4860     0.3270 C.2   1 <1>   0.2030 
  5 C       -4.0110     0.7770    -0.4100 C.3   1 <1>   0.1400 
  6 C       -2.9140    -1.1520     0.5680 C.3   1 <1>   0.1400 
  7 N       -2.3860     3.2460    -0.3890 N.2   1 <1>  -0.7070 
  8 C       -0.4940     3.2600     0.7800 C.2   1 <1>  -0.1500 
  9 C       -4.9420    -0.4400    -0.5200 C.3   1 <1>   0.2000 
 10 C       -3.9940    -1.6380    -0.4000 C.3   1 <1>  -0.0800 
 11 N       -1.8450     4.4690    -0.3900 N.pl3 1 <1>   0.3140 
 12 C       -0.6950     4.5060     0.3130 C.2   1 <1>  -0.3320 
 13 O       -5.8380    -0.4670     0.5560 O.3   1 <1>  -0.5600 
 14 C       -4.6680    -2.9500     0.0400 C.3   1 <1>   0.0200 
 15 C       -2.4820     5.5890    -1.0940 C.3   1 <1>   0.0160 
 16 C        0.1710     5.7400     0.5090 C.3   1 <1>  -0.0600 
 17 C       -6.9700     0.3310     0.4090 C.3   1 <1>   0.0400 
 18 C       -3.7360    -4.1500    -0.0220 C.2   1 <1>  -0.0400 
 19 O       -4.1680    -5.3030     0.4150 O.3   1 <1>  -0.0190 
 20 C       -2.4780    -4.3250    -0.4570 C.2   1 <1>  -0.1500 
 21 N       -3.2690    -6.2370     0.2990 N.2   1 <1>  -0.4100 
 22 C       -2.2390    -5.6760    -0.2230 C.2   1 <1>   0.1080 
 23 C       -0.9460    -6.3950    -0.5350 C.3   1 <1>  -0.0590 
 24 H       -4.4690     1.5890     0.1260 H     1 <1>   0.0800 
 25 H       -3.7260     1.1100    -1.3920 H     1 <1>   0.0800 
 26 H       -1.9720    -1.6490     0.4110 H     1 <1>   0.0800 
 27 H       -3.2280    -1.2890     1.5890 H     1 <1>   0.0800 
 28 H        0.3160     2.8870     1.3830 H     1 <1>   0.1500 
 29 H       -5.4970    -0.4550    -1.4430 H     1 <1>   0.0800 
 30 H       -3.5340    -1.7870    -1.3600 H     1 <1>   0.0800 
 31 H       -5.5140    -3.1460    -0.5940 H     1 <1>   0.0800 
 32 H       -5.0330    -2.8520     1.0480 H     1 <1>   0.0800 
 33 H       -1.8090     5.9630    -1.8410 H     1 <1>   0.0800 
 34 H       -2.7150     6.3620    -0.3870 H     1 <1>   0.0800 
 35 H       -3.3850     5.2440    -1.5620 H     1 <1>   0.0800 
 36 H        1.0300     5.4950     1.1090 H     1 <1>   0.0800 
 37 H       -0.3870     6.5100     1.0110 H     1 <1>   0.0800 
 38 H        0.5120     6.1110    -0.4400 H     1 <1>   0.0800 
 39 H       -7.5710     0.2210     1.2940 H     1 <1>   0.0800 
 40 H       -7.5290     0.0030    -0.4500 H     1 <1>   0.0800 
 41 H       -6.6770     1.3610     0.3010 H     1 <1>   0.0800 
 42 H       -1.7850    -3.6280    -0.8880 H     1 <1>   0.1500 
 43 H       -0.7270    -6.3150    -1.5840 H     1 <1>   0.0800 
 44 H       -1.0330    -7.4350    -0.2760 H     1 <1>   0.0800 
 45 H       -0.1420    -5.9620     0.0310 H     1 <1>   0.0800 
@<TRIPOS>BOND
  1   1   2  2   
  2   2   3  am  
  3   2   4  1   
  4   3   5  1   
  5   3   6  1   
  6   4   7  2   
  7   4   8  1   
  8   5   9  1   
  9   5  24  1   
 10   5  25  1   
 11   6  10  1   
 12   6  26  1   
 13   6  27  1   
 14   7  11  1   
 15   8  12  2   
 16   8  28  1   
 17   9  10  1   
 18   9  13  1   
 19   9  29  1   
 20  10  14  1   
 21  10  30  1   
 22  11  12  1   
 23  11  15  1   
 24  12  16  1   
 25  13  17  1   
 26  14  18  1   
 27  14  31  1   
 28  14  32  1   
 29  15  33  1   
 30  15  34  1   
 31  15  35  1   
 32  16  36  1   
 33  16  37  1   
 34  16  38  1   
 35  17  39  1   
 36  17  40  1   
 37  17  41  1   
 38  18  19  1   
 39  18  20  2   
 40  19  21  1   
 41  20  22  1   
 42  20  42  1   
 43  21  22  2   
 44  22  23  1   
 45  23  43  1   
 46  23  44  1   
 47  23  45  1   
@<TRIPOS>SUBSTRUCTURE
  1 ****   3 GROUP 4 **** **** 0

# MOE 2024.06 (io_trps.svl 2023.06)
