@<TRIPOS>MOLECULE
NONAME
42 44 1 0 0 
SMALL
USER_CHARGES


@<TRIPOS>ATOM
  1 S        1.1150     0.0680    -0.8230 S.3   1 <1>  -0.0800 
  2 C        0.5420    -1.0020     0.4490 C.2   1 <1>  -0.1400 
  3 C        0.8310     1.4810     0.1760 C.2   1 <1>  -0.1100 
  4 C        0.1810    -0.2910     1.5350 C.2   1 <1>  -0.1500 
  5 C        0.5550    -2.4890     0.1650 C.3   1 <1>   0.5230 
  6 C        0.3430     1.1230     1.3760 C.2   1 <1>  -0.1500 
  7 N       -0.7680    -2.8990    -0.3790 N.4   1 <1>  -0.9590 
  8 C       -0.8900    -4.3990    -0.3700 C.3   1 <1>   0.3430 
  9 C       -1.0280    -2.3240    -1.7330 C.3   1 <1>   0.3430 
 10 C       -2.2510    -4.9010    -0.9000 C.3   1 <1>   0.2890 
 11 C       -2.4120    -2.7550    -2.2280 C.3   1 <1>  -0.1600 
 12 N       -2.2110    -6.3660    -1.0480 N.pl3 1 <1>  -0.8690 
 13 C       -2.5680    -4.2840    -2.2650 C.3   1 <1>  -0.1600 
 14 C       -2.4040    -7.2030     0.0460 C.ar  1 <1>   0.4100 
 15 N       -1.9940    -6.7320     1.2160 N.ar  1 <1>  -0.6200 
 16 C       -3.0070    -8.4820    -0.1090 C.ar  1 <1>   0.3930 
 17 C       -2.2050    -7.5970     2.2010 C.ar  1 <1>   0.1600 
 18 O       -3.4020    -8.8430    -1.3620 O.3   1 <1>  -0.3620 
 19 N       -3.2120    -9.3300     0.8860 N.ar  1 <1>  -0.6200 
 20 C       -2.7890    -8.8440     2.0450 C.ar  1 <1>   0.1600 
 21 C       -3.9860   -10.1110    -1.5960 C.3   1 <1>   0.0400 
 22 H        1.0650     2.4450    -0.2450 H     1 <1>   0.1500 
 23 H       -0.1940    -0.6860     2.4650 H     1 <1>   0.1500 
 24 H        0.7430    -3.0140     1.0870 H     1 <1>   0.0800 
 25 H        1.3450    -2.7270    -0.5290 H     1 <1>   0.0800 
 26 H        0.0880     1.8020     2.1720 H     1 <1>   0.1500 
 27 H       -1.4730    -2.5100     0.2600 H     1 <1>   0.4500 
 28 H       -0.7570    -4.7690     0.6330 H     1 <1>   0.0800 
 29 H       -0.1190    -4.8240    -0.9890 H     1 <1>   0.0800 
 30 H       -0.2750    -2.6660    -2.4260 H     1 <1>   0.0800 
 31 H       -0.9870    -1.2470    -1.6930 H     1 <1>   0.0800 
 32 H       -3.0230    -4.6410    -0.1930 H     1 <1>   0.0800 
 33 H       -2.5620    -2.3620    -3.2200 H     1 <1>   0.0800 
 34 H       -3.1680    -2.3200    -1.5970 H     1 <1>   0.0800 
 35 H       -2.7000    -6.7210    -1.8790 H     1 <1>   0.4000 
 36 H       -3.5760    -4.5360    -2.5480 H     1 <1>   0.0800 
 37 H       -1.8970    -4.6880    -3.0040 H     1 <1>   0.0800 
 38 H       -1.8980    -7.2990     3.1880 H     1 <1>   0.1500 
 39 H       -2.9150    -9.4720     2.9100 H     1 <1>   0.1500 
 40 H       -4.2130   -10.1920    -2.6430 H     1 <1>   0.0800 
 41 H       -4.8880   -10.1930    -1.0140 H     1 <1>   0.0800 
 42 H       -3.2850   -10.8750    -1.3090 H     1 <1>   0.0800 
@<TRIPOS>BOND
  1   1   2  1   
  2   1   3  1   
  3   2   4  2   
  4   2   5  1   
  5   3   6  2   
  6   3  22  1   
  7   4   6  1   
  8   4  23  1   
  9   5   7  1   
 10   5  24  1   
 11   5  25  1   
 12   6  26  1   
 13   7   8  1   
 14   7   9  1   
 15   7  27  1   
 16   8  10  1   
 17   8  28  1   
 18   8  29  1   
 19   9  11  1   
 20   9  30  1   
 21   9  31  1   
 22  10  12  1   
 23  10  13  1   
 24  10  32  1   
 25  11  13  1   
 26  11  33  1   
 27  11  34  1   
 28  12  14  1   
 29  12  35  1   
 30  13  36  1   
 31  13  37  1   
 32  14  15  ar  
 33  14  16  ar  
 34  15  17  ar  
 35  16  18  1   
 36  16  19  ar  
 37  17  20  ar  
 38  17  38  1   
 39  18  21  1   
 40  19  20  ar  
 41  20  39  1   
 42  21  40  1   
 43  21  41  1   
 44  21  42  1   
@<TRIPOS>SUBSTRUCTURE
  1 ****   8 GROUP 4 **** **** 0

# MOE 2024.06 (io_trps.svl 2023.06)
