@<TRIPOS>MOLECULE
NONAME
69 72 1 0 0 
SMALL
USER_CHARGES


@<TRIPOS>ATOM
  1 O       -0.2090     0.2740    -0.7700 O.3   1 <1>  -0.6800 
  2 C        0.9710    -0.3530    -1.1560 C.3   1 <1>   0.2000 
  3 C        1.3030    -1.4200    -0.1150 C.3   1 <1>  -0.0800 
  4 C        2.1170     0.6620    -1.0080 C.3   1 <1>   0.3430 
  5 C        1.8260    -0.5500     1.0290 C.3   1 <1>   0.3430 
  6 C        2.3530    -2.4220    -0.6720 C.3   1 <1>  -0.0170 
  7 N        2.6970     0.4440     0.3580 N.4   1 <1>  -0.9590 
  8 C        3.4360    -2.8120     0.3240 C.ar  1 <1>   0.1670 
  9 C        2.9110     1.6810     1.1480 C.3   1 <1>   0.4860 
 10 N        4.4280    -1.9410     0.4830 N.ar  1 <1>  -0.6200 
 11 C        3.3450    -4.0220     0.9940 C.ar  1 <1>  -0.1500 
 12 C        3.6710     2.7060     0.3150 C.ar  1 <1>  -0.1440 
 13 C        5.3780    -2.3150     1.3310 C.ar  1 <1>   0.1600 
 14 C        4.3330    -4.3840     1.8840 C.ar  1 <1>  -0.1500 
 15 C        5.0090     2.5340    -0.0200 C.ar  1 <1>  -0.1440 
 16 C        3.0000     3.8380    -0.1280 C.ar  1 <1>  -0.1500 
 17 C        5.3760    -3.4990     2.0460 C.ar  1 <1>  -0.1500 
 18 C        5.6340     3.4790    -0.8150 C.ar  1 <1>  -0.1500 
 19 C        5.8350     1.3380     0.4410 C.3   1 <1>  -0.0970 
 20 C        3.6360     4.7940    -0.9100 C.ar  1 <1>  -0.1440 
 21 C        4.9640     4.6020    -1.2710 C.ar  1 <1>  -0.1440 
 22 C        2.8700     6.0330    -1.3530 C.3   1 <1>   0.4860 
 23 C        5.7210     5.5790    -2.1660 C.3   1 <1>  -0.0970 
 24 N        2.6700     6.9390    -0.1870 N.4   1 <1>  -0.9590 
 25 C        1.8100     8.1040    -0.5430 C.3   1 <1>   0.3430 
 26 C        3.9690     7.3730     0.4090 C.3   1 <1>   0.3430 
 27 C        1.5090     8.9250     0.7110 C.3   1 <1>  -0.1600 
 28 C        3.7080     8.1770     1.6820 C.3   1 <1>  -0.1600 
 29 C        2.7960     9.3820     1.4130 C.3   1 <1>  -0.0800 
 30 C        2.4680    10.1120     2.7200 C.3   1 <1>  -0.2400 
 31 H       -0.9940    -0.2630    -1.0120 H     1 <1>   0.4000 
 32 H        0.8580    -0.7180    -2.1630 H     1 <1>   0.0800 
 33 H        0.4300    -1.9640     0.2010 H     1 <1>   0.0800 
 34 H        1.7380     1.6620    -1.1290 H     1 <1>   0.0800 
 35 H        2.8750     0.4780    -1.7510 H     1 <1>   0.0800 
 36 H        2.3660    -1.1220     1.7680 H     1 <1>   0.0800 
 37 H        0.9940    -0.0500     1.4990 H     1 <1>   0.0800 
 38 H        2.8520    -2.0140    -1.5330 H     1 <1>   0.0800 
 39 H        1.8440    -3.3060    -1.0130 H     1 <1>   0.0800 
 40 H        3.6100    -0.0370     0.2390 H     1 <1>   0.4500 
 41 H        1.9580     2.0910     1.4380 H     1 <1>   0.0800 
 42 H        3.4670     1.4540     2.0430 H     1 <1>   0.0800 
 43 H        2.5160    -4.6860     0.8250 H     1 <1>   0.1500 
 44 H        6.2110    -1.6460     1.4670 H     1 <1>   0.1500 
 45 H        4.2960    -5.3160     2.4220 H     1 <1>   0.1500 
 46 H        1.9640     3.9720     0.1370 H     1 <1>   0.1500 
 47 H        6.1840    -3.7290     2.7180 H     1 <1>   0.1500 
 48 H        6.6670     3.3320    -1.0870 H     1 <1>   0.1500 
 49 H        6.8800     1.5940     0.4720 H     1 <1>   0.0800 
 50 H        5.7150     0.5200    -0.2460 H     1 <1>   0.0800 
 51 H        5.5540     1.0190     1.4280 H     1 <1>   0.0800 
 52 H        1.9160     5.7340    -1.7540 H     1 <1>   0.0800 
 53 H        3.4120     6.5470    -2.1290 H     1 <1>   0.0800 
 54 H        6.7200     5.2290    -2.3570 H     1 <1>   0.0800 
 55 H        5.7960     6.5450    -1.7030 H     1 <1>   0.0800 
 56 H        5.2260     5.6760    -3.1160 H     1 <1>   0.0800 
 57 H        2.1880     6.4010     0.5400 H     1 <1>   0.4500 
 58 H        2.3160     8.7250    -1.2650 H     1 <1>   0.0800 
 59 H        0.8830     7.7640    -0.9780 H     1 <1>   0.0800 
 60 H        4.5750     6.5130     0.6490 H     1 <1>   0.0800 
 61 H        4.5110     7.9820    -0.2960 H     1 <1>   0.0800 
 62 H        0.9310     9.7890     0.4300 H     1 <1>   0.0800 
 63 H        0.9050     8.3400     1.3830 H     1 <1>   0.0800 
 64 H        3.2690     7.5340     2.4250 H     1 <1>   0.0800 
 65 H        4.6500     8.5220     2.0730 H     1 <1>   0.0800 
 66 H        3.3160    10.0720     0.7670 H     1 <1>   0.0800 
 67 H        1.9460     9.4660     3.4050 H     1 <1>   0.0800 
 68 H        1.8490    10.9710     2.5250 H     1 <1>   0.0800 
 69 H        3.3710    10.4530     3.1960 H     1 <1>   0.0800 
@<TRIPOS>BOND
  1   1   2  1   
  2   1  31  1   
  3   2   3  1   
  4   2   4  1   
  5   2  32  1   
  6   3   5  1   
  7   3   6  1   
  8   3  33  1   
  9   4   7  1   
 10   4  34  1   
 11   4  35  1   
 12   5   7  1   
 13   5  36  1   
 14   5  37  1   
 15   6   8  1   
 16   6  38  1   
 17   6  39  1   
 18   7   9  1   
 19   7  40  1   
 20   8  10  ar  
 21   8  11  ar  
 22   9  12  1   
 23   9  41  1   
 24   9  42  1   
 25  10  13  ar  
 26  11  14  ar  
 27  11  43  1   
 28  12  15  ar  
 29  12  16  ar  
 30  13  17  ar  
 31  13  44  1   
 32  14  17  ar  
 33  14  45  1   
 34  15  18  ar  
 35  15  19  1   
 36  16  20  ar  
 37  16  46  1   
 38  17  47  1   
 39  18  21  ar  
 40  18  48  1   
 41  19  49  1   
 42  19  50  1   
 43  19  51  1   
 44  20  21  ar  
 45  20  22  1   
 46  21  23  1   
 47  22  24  1   
 48  22  52  1   
 49  22  53  1   
 50  23  54  1   
 51  23  55  1   
 52  23  56  1   
 53  24  25  1   
 54  24  26  1   
 55  24  57  1   
 56  25  27  1   
 57  25  58  1   
 58  25  59  1   
 59  26  28  1   
 60  26  60  1   
 61  26  61  1   
 62  27  29  1   
 63  27  62  1   
 64  27  63  1   
 65  28  29  1   
 66  28  64  1   
 67  28  65  1   
 68  29  30  1   
 69  29  66  1   
 70  30  67  1   
 71  30  68  1   
 72  30  69  1   
@<TRIPOS>SUBSTRUCTURE
  1 ****  12 GROUP 4 **** **** 0

# MOE 2024.06 (io_trps.svl 2023.06)
