@<TRIPOS>MOLECULE
NONAME
53 55 1 0 0 
SMALL
USER_CHARGES


@<TRIPOS>ATOM
  1 O       -0.6980     0.2600     0.6760 O.2   1 <1>  -0.5700 
  2 C       -1.7360     0.8290     0.4070 C.2   1 <1>   0.5440 
  3 N       -2.9230     0.1340     0.4690 N.am  1 <1>  -0.6600 
  4 C       -1.7070     2.2160     0.0130 C.ar  1 <1>   0.0860 
  5 C       -2.9870    -1.3190     0.8250 C.3   1 <1>   0.1400 
  6 C       -4.2390     0.6660     0.0020 C.3   1 <1>   0.1400 
  7 C       -1.5530     2.6070    -1.3100 C.ar  1 <1>   0.1660 
  8 C       -1.8770     3.2380     0.9350 C.ar  1 <1>   0.1660 
  9 C       -3.6490    -2.1310    -0.3040 C.3   1 <1>   0.3440 
 10 C       -4.8120    -0.2320    -1.1190 C.3   1 <1>   0.2000 
 11 N       -1.6020     3.8680    -1.6810 N.ar  1 <1>  -0.6200 
 12 C       -1.3330     1.6060    -2.4320 C.3   1 <1>  -0.0970 
 13 N       -1.9270     4.5040     0.5830 N.ar  1 <1>  -0.6200 
 14 C       -2.0330     2.9490     2.4180 C.3   1 <1>  -0.0970 
 15 O       -4.8820    -1.5580    -0.6580 O.3   1 <1>  -0.5600 
 16 C       -3.8640    -3.5780     0.1310 C.ar  1 <1>  -0.1430 
 17 C       -6.2100     0.2040    -1.6520 C.3   1 <1>   0.0000 
 18 C       -1.7830     4.7450    -0.7090 C.ar  1 <1>   0.4700 
 19 C       -5.0230    -3.9710     0.7870 C.ar  1 <1>  -0.1500 
 20 C       -2.8780    -4.5220    -0.1180 C.ar  1 <1>  -0.1500 
 21 C       -6.6340    -0.7300    -2.8010 C.3   1 <1>  -0.2400 
 22 C       -6.1590     1.6370    -2.2140 C.3   1 <1>  -0.2400 
 23 C       -7.2930     0.1470    -0.5590 C.3   1 <1>  -0.2400 
 24 C       -5.1940    -5.2850     1.1870 C.ar  1 <1>  -0.1500 
 25 C       -3.0470    -5.8370     0.2820 C.ar  1 <1>  -0.1500 
 26 C       -4.2050    -6.2190     0.9360 C.ar  1 <1>  -0.1500 
 27 H       -2.0040    -1.7140     1.0100 H     1 <1>   0.0800 
 28 H       -3.5620    -1.4390     1.7260 H     1 <1>   0.0800 
 29 H       -4.9210     0.6850     0.8330 H     1 <1>   0.0800 
 30 H       -4.1340     1.6710    -0.3610 H     1 <1>   0.0800 
 31 H       -3.0170    -2.1150    -1.1750 H     1 <1>   0.0800 
 32 H       -4.1250    -0.2160    -1.9470 H     1 <1>   0.0800 
 33 H       -0.9020     0.6900    -2.0730 H     1 <1>   0.0800 
 34 H       -0.6610     2.0220    -3.1620 H     1 <1>   0.0800 
 35 H       -2.2690     1.3910    -2.9140 H     1 <1>   0.0800 
 36 H       -1.3390     2.1900     2.7320 H     1 <1>   0.0800 
 37 H       -3.0340     2.6180     2.6230 H     1 <1>   0.0800 
 38 H       -1.8390     3.8370     2.9930 H     1 <1>   0.0800 
 39 H       -1.8170     5.7810    -1.0040 H     1 <1>   0.1500 
 40 H       -5.8000    -3.2520     0.9840 H     1 <1>   0.1500 
 41 H       -1.9710    -4.2410    -0.6240 H     1 <1>   0.1500 
 42 H       -7.5830    -0.4310    -3.2080 H     1 <1>   0.0800 
 43 H       -6.7280    -1.7430    -2.4490 H     1 <1>   0.0800 
 44 H       -5.9050    -0.7160    -3.5910 H     1 <1>   0.0800 
 45 H       -7.0980     1.8920    -2.6750 H     1 <1>   0.0800 
 46 H       -5.3870     1.7260    -2.9580 H     1 <1>   0.0800 
 47 H       -5.9740     2.3580    -1.4390 H     1 <1>   0.0800 
 48 H       -8.2570     0.3890    -0.9710 H     1 <1>   0.0800 
 49 H       -7.0870     0.8420     0.2340 H     1 <1>   0.0800 
 50 H       -7.3490    -0.8430    -0.1380 H     1 <1>   0.0800 
 51 H       -6.0970    -5.5780     1.6930 H     1 <1>   0.1500 
 52 H       -2.2780    -6.5620     0.0850 H     1 <1>   0.1500 
 53 H       -4.3370    -7.2400     1.2470 H     1 <1>   0.1500 
@<TRIPOS>BOND
  1   1   2  2   
  2   2   3  am  
  3   2   4  1   
  4   3   5  1   
  5   3   6  1   
  6   4   7  ar  
  7   4   8  ar  
  8   5   9  1   
  9   5  27  1   
 10   5  28  1   
 11   6  10  1   
 12   6  29  1   
 13   6  30  1   
 14   7  11  ar  
 15   7  12  1   
 16   8  13  ar  
 17   8  14  1   
 18   9  15  1   
 19   9  16  1   
 20   9  31  1   
 21  10  15  1   
 22  10  17  1   
 23  10  32  1   
 24  11  18  ar  
 25  12  33  1   
 26  12  34  1   
 27  12  35  1   
 28  13  18  ar  
 29  14  36  1   
 30  14  37  1   
 31  14  38  1   
 32  16  19  ar  
 33  16  20  ar  
 34  17  21  1   
 35  17  22  1   
 36  17  23  1   
 37  18  39  1   
 38  19  24  ar  
 39  19  40  1   
 40  20  25  ar  
 41  20  41  1   
 42  21  42  1   
 43  21  43  1   
 44  21  44  1   
 45  22  45  1   
 46  22  46  1   
 47  22  47  1   
 48  23  48  1   
 49  23  49  1   
 50  23  50  1   
 51  24  26  ar  
 52  24  51  1   
 53  25  26  ar  
 54  25  52  1   
 55  26  53  1   
@<TRIPOS>SUBSTRUCTURE
  1 ****   3 GROUP 4 **** **** 0

# MOE 2024.06 (io_trps.svl 2023.06)
