@<TRIPOS>MOLECULE
NONAME
40 42 1 0 0 
SMALL
USER_CHARGES


@<TRIPOS>ATOM
  1 N       -0.1710     1.5120     2.2610 N.ar  1 <1>  -0.6200 
  2 C       -0.9310     2.2270     1.4540 C.ar  1 <1>   0.1600 
  3 C        1.0450     1.2440     1.8150 C.ar  1 <1>   0.1600 
  4 C       -0.5380     2.7130     0.2140 C.ar  1 <1>  -0.1440 
  5 C        1.5390     1.6670     0.5940 C.ar  1 <1>  -0.1500 
  6 C        0.7370     2.4230    -0.2350 C.ar  1 <1>  -0.1500 
  7 C       -1.4630     3.5670    -0.6320 C.3   1 <1>   0.5660 
  8 N       -1.5610     4.8940     0.0200 N.4   1 <1>  -0.9590 
  9 C       -2.8980     3.0460    -0.7470 C.3   1 <1>  -0.1600 
 10 C       -2.9570     5.3700    -0.1340 C.3   1 <1>   0.3430 
 11 C       -0.5240     5.8300    -0.5110 C.3   1 <1>   0.3430 
 12 C       -3.7840     4.0990    -0.0810 C.3   1 <1>  -0.1600 
 13 C       -0.3760     7.1020     0.3310 C.3   1 <1>   0.0200 
 14 C        0.6710     7.9910    -0.3110 C.2   1 <1>   0.0060 
 15 N        1.1900     7.7290    -1.4670 N.2   1 <1>  -0.5650 
 16 N        1.1510     9.1270     0.2570 N.pl3 1 <1>   0.0480 
 17 C        2.0550     8.7400    -1.6700 C.2   1 <1>   0.0770 
 18 C        2.0440     9.5980    -0.6300 C.2   1 <1>  -0.3020 
 19 C        0.8120     9.7460     1.5520 C.3   1 <1>   0.0160 
 20 H       -1.9230     2.4330     1.8180 H     1 <1>   0.1500 
 21 H        1.6810     0.6550     2.4560 H     1 <1>   0.1500 
 22 H        2.5410     1.4060     0.3010 H     1 <1>   0.1500 
 23 H        1.1100     2.7620    -1.1880 H     1 <1>   0.1500 
 24 H       -1.0520     3.6730    -1.6230 H     1 <1>   0.0800 
 25 H       -1.3680     4.7160     1.0130 H     1 <1>   0.4500 
 26 H       -3.0260     2.0710    -0.3100 H     1 <1>   0.0800 
 27 H       -3.1440     2.9690    -1.7920 H     1 <1>   0.0800 
 28 H       -3.0800     5.8410    -1.0970 H     1 <1>   0.0800 
 29 H       -3.2360     6.0630     0.6440 H     1 <1>   0.0800 
 30 H       -0.7640     6.1100    -1.5240 H     1 <1>   0.0800 
 31 H        0.4350     5.3360    -0.5330 H     1 <1>   0.0800 
 32 H       -3.9720     3.8370     0.9460 H     1 <1>   0.0800 
 33 H       -4.7270     4.2180    -0.5860 H     1 <1>   0.0800 
 34 H       -0.0600     6.8460     1.3250 H     1 <1>   0.0800 
 35 H       -1.3050     7.6400     0.3680 H     1 <1>   0.0800 
 36 H        2.6510     8.8000    -2.5670 H     1 <1>   0.1500 
 37 H        2.6120    10.4990    -0.4820 H     1 <1>   0.1500 
 38 H       -0.2560     9.8220     1.6470 H     1 <1>   0.0800 
 39 H        1.2420    10.7300     1.6030 H     1 <1>   0.0800 
 40 H        1.2080     9.1440     2.3500 H     1 <1>   0.0800 
@<TRIPOS>BOND
  1   1   2  ar  
  2   1   3  ar  
  3   2   4  ar  
  4   2  20  1   
  5   3   5  ar  
  6   3  21  1   
  7   4   6  ar  
  8   4   7  1   
  9   5   6  ar  
 10   5  22  1   
 11   6  23  1   
 12   7   8  1   
 13   7   9  1   
 14   7  24  1   
 15   8  10  1   
 16   8  11  1   
 17   8  25  1   
 18   9  12  1   
 19   9  26  1   
 20   9  27  1   
 21  10  12  1   
 22  10  28  1   
 23  10  29  1   
 24  11  13  1   
 25  11  30  1   
 26  11  31  1   
 27  12  32  1   
 28  12  33  1   
 29  13  14  1   
 30  13  34  1   
 31  13  35  1   
 32  14  15  2   
 33  14  16  1   
 34  15  17  1   
 35  16  18  1   
 36  16  19  1   
 37  17  18  2   
 38  17  36  1   
 39  18  37  1   
 40  19  38  1   
 41  19  39  1   
 42  19  40  1   
@<TRIPOS>SUBSTRUCTURE
  1 ****  11 GROUP 4 **** **** 0

# MOE 2024.06 (io_trps.svl 2023.06)
