@<TRIPOS>MOLECULE
NONAME
48 50 1 0 0 
SMALL
USER_CHARGES


@<TRIPOS>ATOM
  1 S        0.2190    -1.2470    -0.7280 S.o2  1 <1>   1.0900 
  2 O        1.5130    -0.6340    -0.5440 O.2   1 <1>  -0.6500 
  3 O       -0.0390    -2.0260    -1.9170 O.2   1 <1>  -0.6500 
  4 C       -0.1110    -2.2700     0.7110 C.3   1 <1>   0.0890 
  5 C       -1.0090     0.0440    -0.6400 C.3   1 <1>  -0.1350 
  6 C       -1.5730    -2.6730     0.8610 C.ar  1 <1>  -0.1440 
  7 C       -2.2050    -3.4470    -0.1030 C.ar  1 <1>   0.1600 
  8 C       -2.2990    -2.2690     1.9670 C.ar  1 <1>  -0.1500 
  9 N       -3.4680    -3.8330    -0.0570 N.ar  1 <1>  -0.6200 
 10 C       -3.6130    -2.6690     2.0280 C.ar  1 <1>  -0.1500 
 11 C       -4.1560    -3.4420     1.0100 C.ar  1 <1>   0.4100 
 12 N       -5.4730    -3.8350     1.0910 N.pl3 1 <1>  -0.8380 
 13 C       -6.4120    -3.2140     0.1110 C.3   1 <1>   0.2090 
 14 C       -5.7180    -5.2990     1.0710 C.3   1 <1>   0.2090 
 15 C       -7.2150    -4.3550    -0.5370 C.3   1 <1>   0.2000 
 16 C       -6.3450    -5.5830    -0.2920 C.3   1 <1>  -0.0800 
 17 O       -8.4450    -4.5340     0.1160 O.3   1 <1>  -0.5600 
 18 C       -7.0760    -6.9350    -0.3630 C.3   1 <1>   0.0200 
 19 C       -9.4690    -3.6910    -0.3080 C.3   1 <1>   0.0400 
 20 C       -6.1220    -8.1160    -0.3010 C.2   1 <1>  -0.0400 
 21 O       -6.6100    -9.3240    -0.2020 O.3   1 <1>  -0.0190 
 22 C       -4.7830    -8.2180    -0.3320 C.2   1 <1>  -0.1500 
 23 N       -5.6730   -10.2270    -0.1610 N.2   1 <1>  -0.4100 
 24 C       -4.5610    -9.5890    -0.2380 C.2   1 <1>   0.1080 
 25 C       -3.1990   -10.2450    -0.2270 C.3   1 <1>  -0.0590 
 26 H        0.4870    -3.1590     0.6540 H     1 <1>   0.0800 
 27 H        0.1960    -1.7420     1.5920 H     1 <1>   0.0800 
 28 H       -0.9190     0.5910     0.2780 H     1 <1>   0.0800 
 29 H       -1.9980    -0.3690    -0.7030 H     1 <1>   0.0800 
 30 H       -0.8780     0.7280    -1.4560 H     1 <1>   0.0800 
 31 H       -1.6440    -3.7680    -0.9670 H     1 <1>   0.1500 
 32 H       -1.8690    -1.6730     2.7540 H     1 <1>   0.1500 
 33 H       -4.2430    -2.4010     2.8550 H     1 <1>   0.1500 
 34 H       -7.0570    -2.5120     0.6090 H     1 <1>   0.0800 
 35 H       -5.8480    -2.6990    -0.6480 H     1 <1>   0.0800 
 36 H       -4.8050    -5.8520     1.2150 H     1 <1>   0.0800 
 37 H       -6.4080    -5.5450     1.8610 H     1 <1>   0.0800 
 38 H       -7.3910    -4.1920    -1.5860 H     1 <1>   0.0800 
 39 H       -5.5570    -5.5730    -1.0240 H     1 <1>   0.0800 
 40 H       -7.6300    -6.9930    -1.2830 H     1 <1>   0.0800 
 41 H       -7.7790    -7.0120     0.4480 H     1 <1>   0.0800 
 42 H      -10.3490    -3.9230     0.2660 H     1 <1>   0.0800 
 43 H       -9.6630    -3.8660    -1.3520 H     1 <1>   0.0800 
 44 H       -9.1890    -2.6660    -0.1400 H     1 <1>   0.0800 
 45 H       -4.0290    -7.4570    -0.4120 H     1 <1>   0.1500 
 46 H       -2.6660    -9.9910    -1.1240 H     1 <1>   0.0800 
 47 H       -3.3060   -11.3130    -0.1740 H     1 <1>   0.0800 
 48 H       -2.6400    -9.9070     0.6260 H     1 <1>   0.0800 
@<TRIPOS>BOND
  1   1   2  2   
  2   1   3  2   
  3   1   4  1   
  4   1   5  1   
  5   4   6  1   
  6   4  26  1   
  7   4  27  1   
  8   5  28  1   
  9   5  29  1   
 10   5  30  1   
 11   6   7  ar  
 12   6   8  ar  
 13   7   9  ar  
 14   7  31  1   
 15   8  10  ar  
 16   8  32  1   
 17   9  11  ar  
 18  10  11  ar  
 19  10  33  1   
 20  11  12  1   
 21  12  13  1   
 22  12  14  1   
 23  13  15  1   
 24  13  34  1   
 25  13  35  1   
 26  14  16  1   
 27  14  36  1   
 28  14  37  1   
 29  15  16  1   
 30  15  17  1   
 31  15  38  1   
 32  16  18  1   
 33  16  39  1   
 34  17  19  1   
 35  18  20  1   
 36  18  40  1   
 37  18  41  1   
 38  19  42  1   
 39  19  43  1   
 40  19  44  1   
 41  20  21  1   
 42  20  22  2   
 43  21  23  1   
 44  22  24  1   
 45  22  45  1   
 46  23  24  2   
 47  24  25  1   
 48  25  46  1   
 49  25  47  1   
 50  25  48  1   
@<TRIPOS>SUBSTRUCTURE
  1 ****   9 GROUP 4 **** **** 0

# MOE 2024.06 (io_trps.svl 2023.06)
