@<TRIPOS>MOLECULE
NONAME
53 55 1 0 0 
SMALL
USER_CHARGES


@<TRIPOS>ATOM
  1 CL       0.9720    -0.0540     1.7710 Cl    1 <1>  -0.1770 
  2 C        2.4800    -0.0130     0.8810 C.ar  1 <1>   0.1770 
  3 C        2.9630    -1.1630     0.2670 C.ar  1 <1>   0.0830 
  4 C        3.1610     1.1860     0.8130 C.ar  1 <1>  -0.1500 
  5 O        2.2370    -2.3120     0.3760 O.3   1 <1>  -0.3630 
  6 C        4.1660    -1.0810    -0.4280 C.ar  1 <1>  -0.1500 
  7 C        4.3610     1.2740     0.1160 C.ar  1 <1>   0.1170 
  8 C        2.7010    -3.5250    -0.1720 C.3   1 <1>   0.0400 
  9 C        4.8480     0.1220    -0.4980 C.ar  1 <1>  -0.1500 
 10 N        5.0600     2.4970     0.0290 N.am  1 <1>  -0.4770 
 11 C        6.4090     2.7020    -0.0060 C.2   1 <1>   0.5690 
 12 C        4.3410     3.7860    -0.0590 C.3   1 <1>   0.1400 
 13 O        7.2760     1.8670     0.0490 O.2   1 <1>  -0.5700 
 14 C        6.7390     4.1620    -0.1360 C.3   1 <1>  -0.0990 
 15 C        5.3980     4.7860    -0.5550 C.3   1 <1>  -0.0190 
 16 C        5.1850     6.2070    -0.0530 C.2   1 <1>   0.5690 
 17 O        4.1390     6.4830     0.4820 O.2   1 <1>  -0.5700 
 18 N        6.1960     7.1090    -0.2400 N.am  1 <1>  -0.4940 
 19 C        6.2410     8.4840     0.1010 C.2   1 <1>  -0.0880 
 20 N        7.3140     9.0970     0.6720 N.pl3 1 <1>   0.3140 
 21 C        5.3010     9.4470    -0.0600 C.2   1 <1>  -0.1810 
 22 N        7.0900    10.4130     0.8720 N.2   1 <1>  -0.7070 
 23 C        8.5730     8.4640     1.1120 C.3   1 <1>   0.0960 
 24 C        5.8850    10.6080     0.4360 C.2   1 <1>   0.1390 
 25 C        3.9070     9.3510    -0.6490 C.3   1 <1>  -0.0590 
 26 C        9.5450     8.2900    -0.0650 C.3   1 <1>  -0.1600 
 27 C       10.8260     7.5710     0.3770 C.3   1 <1>  -0.1600 
 28 C       11.7910     7.3980    -0.7990 C.3   1 <1>  -0.2400 
 29 H        2.7490     2.0420     1.3130 H     1 <1>   0.1500 
 30 H        4.5890    -1.9370    -0.9200 H     1 <1>   0.1500 
 31 H        1.9810    -4.2900     0.0570 H     1 <1>   0.0800 
 32 H        3.6490    -3.7710     0.2730 H     1 <1>   0.0800 
 33 H        2.7900    -3.4160    -1.2380 H     1 <1>   0.0800 
 34 H        5.7760     0.1650    -1.0400 H     1 <1>   0.1500 
 35 H        3.9870     4.0520     0.9240 H     1 <1>   0.0800 
 36 H        3.5100     3.7220    -0.7400 H     1 <1>   0.0800 
 37 H        7.5080     4.3140    -0.8710 H     1 <1>   0.0800 
 38 H        7.0610     4.5210     0.8250 H     1 <1>   0.0800 
 39 H        5.3430     4.8030    -1.6290 H     1 <1>   0.0800 
 40 H        7.0440     6.7450    -0.6710 H     1 <1>   0.3700 
 41 H        8.3390     7.5150     1.5560 H     1 <1>   0.0800 
 42 H        9.0170     9.0910     1.8650 H     1 <1>   0.0800 
 43 H        5.4000    11.5690     0.4600 H     1 <1>   0.1500 
 44 H        3.8480     8.5290    -1.3380 H     1 <1>   0.0800 
 45 H        3.6590    10.2570    -1.1720 H     1 <1>   0.0800 
 46 H        3.1930     9.1920     0.1390 H     1 <1>   0.0800 
 47 H        9.7970     9.2630    -0.4520 H     1 <1>   0.0800 
 48 H        9.0720     7.7240    -0.8480 H     1 <1>   0.0800 
 49 H       10.5840     6.6020     0.7800 H     1 <1>   0.0800 
 50 H       11.3130     8.1420     1.1500 H     1 <1>   0.0800 
 51 H       11.3380     6.8110    -1.5790 H     1 <1>   0.0800 
 52 H       12.6840     6.8970    -0.4710 H     1 <1>   0.0800 
 53 H       12.0680     8.3560    -1.2030 H     1 <1>   0.0800 
@<TRIPOS>BOND
  1   1   2  1   
  2   2   3  ar  
  3   2   4  ar  
  4   3   5  1   
  5   3   6  ar  
  6   4   7  ar  
  7   4  29  1   
  8   5   8  1   
  9   6   9  ar  
 10   6  30  1   
 11   7   9  ar  
 12   7  10  1   
 13   8  31  1   
 14   8  32  1   
 15   8  33  1   
 16   9  34  1   
 17  10  11  am  
 18  10  12  1   
 19  11  13  2   
 20  11  14  1   
 21  12  15  1   
 22  12  35  1   
 23  12  36  1   
 24  14  15  1   
 25  14  37  1   
 26  14  38  1   
 27  15  16  1   
 28  15  39  1   
 29  16  17  2   
 30  16  18  am  
 31  18  19  1   
 32  18  40  1   
 33  19  20  1   
 34  19  21  2   
 35  20  22  1   
 36  20  23  1   
 37  21  24  1   
 38  21  25  1   
 39  22  24  2   
 40  23  26  1   
 41  23  41  1   
 42  23  42  1   
 43  24  43  1   
 44  25  44  1   
 45  25  45  1   
 46  25  46  1   
 47  26  27  1   
 48  26  47  1   
 49  26  48  1   
 50  27  28  1   
 51  27  49  1   
 52  27  50  1   
 53  28  51  1   
 54  28  52  1   
 55  28  53  1   
@<TRIPOS>SUBSTRUCTURE
  1 ****  15 GROUP 4 **** **** 0

# MOE 2024.06 (io_trps.svl 2023.06)
