@<TRIPOS>MOLECULE
NONAME
55 59 1 0 0 
SMALL
USER_CHARGES


@<TRIPOS>ATOM
  1 O        0.8740    -0.8290    -1.4800 O.3   1 <1>  -0.5600 
  2 C        1.8160    -1.0820    -0.4590 C.3   1 <1>   0.4600 
  3 C       -0.4870    -1.0630    -1.2030 C.3   1 <1>   0.1200 
  4 C        1.4230    -2.3510     0.2880 C.2   1 <1>  -0.3320 
  5 C        1.8660     0.1250     0.4860 C.3   1 <1>  -0.1600 
  6 C        3.1640    -1.2730    -1.1560 C.3   1 <1>  -0.1600 
  7 C       -0.7490    -2.5500    -0.9140 C.3   1 <1>   0.0210 
  8 N        2.1570    -2.9890     1.2490 N.pl3 1 <1>   0.0330 
  9 C        0.2730    -3.0230     0.0890 C.2   1 <1>  -0.1810 
 10 C        2.3250     1.3870    -0.2430 C.3   1 <1>   0.2090 
 11 C        3.6050     0.0040    -1.8650 C.3   1 <1>   0.2090 
 12 C        1.4500    -4.0940     1.6590 C.ar  1 <1>  -0.1520 
 13 C        0.2570    -4.1450     0.9430 C.ar  1 <1>   0.0000 
 14 N        3.6490     1.1230    -0.8750 N.pl3 1 <1>  -0.8380 
 15 C        1.7570    -5.0710     2.6100 C.ar  1 <1>  -0.1500 
 16 C       -0.6460    -5.1870     1.1760 C.ar  1 <1>  -0.1500 
 17 C        4.8050     1.7650    -0.5400 C.ar  1 <1>   0.4100 
 18 C        0.8590    -6.0900     2.8300 C.ar  1 <1>  -0.1500 
 19 C       -0.3430    -6.1480     2.1120 C.ar  1 <1>  -0.1500 
 20 N        5.9310     1.0530    -0.6050 N.ar  1 <1>  -0.6200 
 21 C        4.8150     3.0990    -0.1530 C.ar  1 <1>  -0.1500 
 22 C        7.0370     1.6550    -0.2780 C.ar  1 <1>   0.7710 
 23 C        5.9980     3.7070     0.1860 C.ar  1 <1>   0.4610 
 24 N        7.0960     2.9410     0.1120 N.ar  1 <1>  -0.1790 
 25 N        8.1570     0.9280    -0.3380 N.pl3 1 <1>  -0.9000 
 26 N        6.1340     5.0070     0.5980 N.pl3 1 <1>  -0.8380 
 27 C        5.0150     5.7420     1.2680 C.3   1 <1>   0.1290 
 28 C        7.2980     5.8890     0.2690 C.3   1 <1>   0.1290 
 29 H       -1.0560    -0.7470    -2.0600 H     1 <1>   0.0800 
 30 H       -0.7730    -0.4630    -0.3580 H     1 <1>   0.0800 
 31 H        2.5560    -0.0780     1.2820 H     1 <1>   0.0800 
 32 H        0.9030     0.2830     0.9320 H     1 <1>   0.0800 
 33 H        3.0840    -2.0780    -1.8640 H     1 <1>   0.0800 
 34 H        3.9160    -1.5400    -0.4380 H     1 <1>   0.0800 
 35 H       -0.6620    -3.1220    -1.8200 H     1 <1>   0.0800 
 36 H       -1.7410    -2.6740    -0.5200 H     1 <1>   0.0800 
 37 H        3.0780    -2.7150     1.6030 H     1 <1>   0.2700 
 38 H        2.3870     2.1950     0.4630 H     1 <1>   0.0800 
 39 H        1.6120     1.6530    -1.0060 H     1 <1>   0.0800 
 40 H        2.9040     0.2490    -2.6450 H     1 <1>   0.0800 
 41 H        4.5660    -0.1450    -2.3250 H     1 <1>   0.0800 
 42 H        2.6810    -5.0190     3.1560 H     1 <1>   0.1500 
 43 H       -1.5630    -5.2190     0.6170 H     1 <1>   0.1500 
 44 H        1.0710    -6.8540     3.5560 H     1 <1>   0.1500 
 45 H       -1.0270    -6.9560     2.3030 H     1 <1>   0.1500 
 46 H        3.9010     3.6550    -0.1450 H     1 <1>   0.1500 
 47 H        7.9710     3.3310     0.4180 H     1 <1>   0.4570 
 48 H        9.1170     1.2160    -0.1450 H     1 <1>   0.4000 
 49 H        8.0640    -0.0470    -0.6430 H     1 <1>   0.4000 
 50 H        4.3020     5.0560     1.6900 H     1 <1>   0.0800 
 51 H        4.5130     6.3760     0.5560 H     1 <1>   0.0800 
 52 H        5.4020     6.3550     2.0650 H     1 <1>   0.0800 
 53 H        7.9470     5.4290    -0.4560 H     1 <1>   0.0800 
 54 H        7.8590     6.1080     1.1630 H     1 <1>   0.0800 
 55 H        6.9450     6.8180    -0.1470 H     1 <1>   0.0800 
@<TRIPOS>BOND
  1   1   2  1   
  2   1   3  1   
  3   2   4  1   
  4   2   5  1   
  5   2   6  1   
  6   3   7  1   
  7   3  29  1   
  8   3  30  1   
  9   4   8  1   
 10   4   9  2   
 11   5  10  1   
 12   5  31  1   
 13   5  32  1   
 14   6  11  1   
 15   6  33  1   
 16   6  34  1   
 17   7   9  1   
 18   7  35  1   
 19   7  36  1   
 20   8  12  1   
 21   8  37  1   
 22   9  13  1   
 23  10  14  1   
 24  10  38  1   
 25  10  39  1   
 26  11  14  1   
 27  11  40  1   
 28  11  41  1   
 29  12  13  ar  
 30  12  15  ar  
 31  13  16  ar  
 32  14  17  1   
 33  15  18  ar  
 34  15  42  1   
 35  16  19  ar  
 36  16  43  1   
 37  17  20  ar  
 38  17  21  ar  
 39  18  19  ar  
 40  18  44  1   
 41  19  45  1   
 42  20  22  ar  
 43  21  23  ar  
 44  21  46  1   
 45  22  24  ar  
 46  22  25  1   
 47  23  24  ar  
 48  23  26  1   
 49  24  47  1   
 50  25  48  1   
 51  25  49  1   
 52  26  27  1   
 53  26  28  1   
 54  27  50  1   
 55  27  51  1   
 56  27  52  1   
 57  28  53  1   
 58  28  54  1   
 59  28  55  1   
@<TRIPOS>SUBSTRUCTURE
  1 ****   5 GROUP 4 **** **** 0

# MOE 2024.06 (io_trps.svl 2023.06)
