@<TRIPOS>MOLECULE
NONAME
16 16 1 0 0 
SMALL
USER_CHARGES


@<TRIPOS>ATOM
  1 CL      -0.0770     0.1940     0.4180 Cl    1 <1>  -0.1770 
  2 C       -1.7910     0.0310     0.1210 C.ar  1 <1>   0.4870 
  3 N       -2.4460     1.1790    -0.0300 N.ar  1 <1>  -0.3100 
  4 C       -2.3740    -1.2250     0.0580 C.ar  1 <1>  -0.1440 
  5 N       -3.7360     1.1550    -0.2560 N.ar  1 <1>  -0.3100 
  6 C       -3.7390    -1.2410    -0.1820 C.ar  1 <1>  -0.1440 
  7 C       -1.5960    -2.5290     0.2360 C.3   1 <1>  -0.0960 
  8 C       -4.3590    -0.0170    -0.3290 C.ar  1 <1>   0.1600 
  9 C       -4.5400    -2.5330    -0.2820 C.3   1 <1>  -0.0960 
 10 H       -0.5500    -2.3630     0.4150 H     1 <1>   0.0800 
 11 H       -1.6850    -3.1330    -0.6490 H     1 <1>   0.0800 
 12 H       -1.9880    -3.0800     1.0720 H     1 <1>   0.0800 
 13 H       -5.4170     0.0230    -0.5170 H     1 <1>   0.1500 
 14 H       -4.1650    -3.1410    -1.0870 H     1 <1>   0.0800 
 15 H       -5.5790    -2.3290    -0.4720 H     1 <1>   0.0800 
 16 H       -4.4680    -3.0870     0.6370 H     1 <1>   0.0800 
@<TRIPOS>BOND
  1   1   2  1   
  2   2   3  ar  
  3   2   4  ar  
  4   3   5  ar  
  5   4   6  ar  
  6   4   7  1   
  7   5   8  ar  
  8   6   8  ar  
  9   6   9  1   
 10   7  10  1   
 11   7  11  1   
 12   7  12  1   
 13   8  13  1   
 14   9  14  1   
 15   9  15  1   
 16   9  16  1   
@<TRIPOS>SUBSTRUCTURE
  1 ****   4 GROUP 4 **** **** 0

# MOE 2024.06 (io_trps.svl 2023.06)
