@<TRIPOS>MOLECULE
NONAME
40 42 1 0 0 
SMALL
USER_CHARGES


@<TRIPOS>ATOM
  1 S       -1.3660     1.8760     2.5270 S.3   1 <1>  -0.0800 
  2 C       -1.3390     1.9580     0.7840 C.2   1 <1>  -0.1400 
  3 C       -1.6750     0.1600     2.4170 C.2   1 <1>   0.2280 
  4 C       -1.5760     0.7250     0.2990 C.2   1 <1>   0.0460 
  5 C       -1.1090     3.3140     0.1320 C.3   1 <1>   0.2900 
  6 N       -1.7550    -0.2840     1.2280 N.2   1 <1>  -0.5650 
  7 C       -1.6800     0.3040    -1.1510 C.3   1 <1>  -0.0590 
  8 N        0.3240     3.6630    -0.0360 N.3   1 <1>  -0.8100 
  9 C        1.0170     3.8220     1.2690 C.3   1 <1>   0.1100 
 10 C        1.0170     2.6910    -0.9040 C.3   1 <1>   0.1100 
 11 C        2.4380     4.4580     1.2190 C.3   1 <1>   0.4230 
 12 C        2.3780     3.2200    -1.4000 C.3   1 <1>  -0.0800 
 13 N        2.7050     5.3560     0.0260 N.4   1 <1>  -0.9590 
 14 C        3.5560     3.4090     1.4080 C.3   1 <1>   0.1200 
 15 C        3.5910     2.5010    -0.7870 C.3   1 <1>   0.1200 
 16 C        2.4660     4.7510    -1.3320 C.3   1 <1>   0.3430 
 17 C        1.8770     6.5940     0.1380 C.3   1 <1>   0.2630 
 18 O        3.4220     2.3000     0.5770 O.3   1 <1>  -0.5600 
 19 H       -1.7730    -0.3830     3.3400 H     1 <1>   0.1500 
 20 H       -1.6000     4.0740     0.7160 H     1 <1>   0.0800 
 21 H       -1.5770     3.3150    -0.8370 H     1 <1>   0.0800 
 22 H       -1.5780     1.1440    -1.8100 H     1 <1>   0.0800 
 23 H       -2.6370    -0.1550    -1.3220 H     1 <1>   0.0800 
 24 H       -0.9100    -0.4140    -1.3720 H     1 <1>   0.0800 
 25 H        0.4090     4.4450     1.9010 H     1 <1>   0.0800 
 26 H        1.0910     2.8640     1.7550 H     1 <1>   0.0800 
 27 H        1.1360     1.7480    -0.3940 H     1 <1>   0.0800 
 28 H        0.4010     2.5110    -1.7690 H     1 <1>   0.0800 
 29 H        2.5070     5.0790     2.0950 H     1 <1>   0.0800 
 30 H        2.4170     2.9810    -2.4480 H     1 <1>   0.0800 
 31 H        3.6960     5.6200     0.0710 H     1 <1>   0.4500 
 32 H        3.5060     3.0320     2.4150 H     1 <1>   0.0800 
 33 H        4.5310     3.8400     1.2650 H     1 <1>   0.0800 
 34 H        4.5120     3.0300    -0.9610 H     1 <1>   0.0800 
 35 H        3.6790     1.5210    -1.2260 H     1 <1>   0.0800 
 36 H        1.5350     5.1310    -1.7210 H     1 <1>   0.0800 
 37 H        3.2450     5.0810    -1.9990 H     1 <1>   0.0800 
 38 H        0.8300     6.3390     0.0830 H     1 <1>   0.0800 
 39 H        2.1080     7.2740    -0.6660 H     1 <1>   0.0800 
 40 H        2.0640     7.0910     1.0750 H     1 <1>   0.0800 
@<TRIPOS>BOND
  1   1   2  1   
  2   1   3  1   
  3   2   4  2   
  4   2   5  1   
  5   3   6  2   
  6   3  19  1   
  7   4   6  1   
  8   4   7  1   
  9   5   8  1   
 10   5  20  1   
 11   5  21  1   
 12   7  22  1   
 13   7  23  1   
 14   7  24  1   
 15   8   9  1   
 16   8  10  1   
 17   9  11  1   
 18   9  25  1   
 19   9  26  1   
 20  10  12  1   
 21  10  27  1   
 22  10  28  1   
 23  11  13  1   
 24  11  14  1   
 25  11  29  1   
 26  12  15  1   
 27  12  16  1   
 28  12  30  1   
 29  13  16  1   
 30  13  17  1   
 31  13  31  1   
 32  14  18  1   
 33  14  32  1   
 34  14  33  1   
 35  15  18  1   
 36  15  34  1   
 37  15  35  1   
 38  16  36  1   
 39  16  37  1   
 40  17  38  1   
 41  17  39  1   
 42  17  40  1   
@<TRIPOS>SUBSTRUCTURE
  1 ****   8 GROUP 4 **** **** 0

# MOE 2024.06 (io_trps.svl 2023.06)
