@<TRIPOS>MOLECULE
NONAME
47 48 1 0 0 
SMALL
USER_CHARGES


@<TRIPOS>ATOM
  1 CL      -2.2000    -2.0210    -3.0680 Cl    1 <1>  -0.1770 
  2 C       -2.3670    -2.0740    -1.3300 C.ar  1 <1>   0.1770 
  3 C       -2.5990    -3.2820    -0.6860 C.ar  1 <1>  -0.1440 
  4 C       -2.2680    -0.8820    -0.6380 C.ar  1 <1>  -0.1500 
  5 C       -2.7590    -3.2870     0.7060 C.ar  1 <1>   0.0860 
  6 C       -2.6560    -4.5710    -1.5100 C.3   1 <1>  -0.0970 
  7 C       -2.4020    -0.8860     0.7370 C.ar  1 <1>  -0.1500 
  8 C       -3.0660    -4.4940     1.4460 C.2   1 <1>   0.5440 
  9 C       -2.6420    -2.0780     1.3950 C.ar  1 <1>  -0.1500 
 10 O       -2.1680    -5.2350     1.7890 O.2   1 <1>  -0.5700 
 11 N       -4.3710    -4.8320     1.7290 N.am  1 <1>  -0.6600 
 12 C       -4.7070    -6.1830     2.2800 C.3   1 <1>   0.3210 
 13 C       -5.5410    -3.9680     1.4060 C.3   1 <1>   0.1400 
 14 C       -5.3080    -7.0740     1.1930 C.2   1 <1>   0.0460 
 15 C       -5.8930    -4.0620    -0.0910 C.3   1 <1>   0.3430 
 16 N       -6.6110    -6.9880     0.8360 N.2   1 <1>  -0.5650 
 17 C       -4.6780    -8.0370     0.4800 C.2   1 <1>  -0.3320 
 18 N       -7.2610    -3.5280    -0.4050 N.4   1 <1>  -0.9590 
 19 C       -6.7460    -7.9180    -0.0560 C.2   1 <1>   0.0360 
 20 N       -5.6070    -8.5890    -0.3200 N.pl3 1 <1>   0.0330 
 21 C       -3.2290    -8.5000     0.4990 C.3   1 <1>  -0.0600 
 22 C       -8.3150    -4.4790     0.0780 C.3   1 <1>   0.2630 
 23 C       -7.4000    -3.3150    -1.8770 C.3   1 <1>   0.2630 
 24 H       -2.0800     0.0330    -1.1720 H     1 <1>   0.1500 
 25 H       -3.3590    -4.4720    -2.3170 H     1 <1>   0.0800 
 26 H       -2.9370    -5.4290    -0.9270 H     1 <1>   0.0800 
 27 H       -1.6850    -4.7670    -1.9300 H     1 <1>   0.0800 
 28 H       -2.3130     0.0340     1.2920 H     1 <1>   0.1500 
 29 H       -2.7370    -2.0810     2.4680 H     1 <1>   0.1500 
 30 H       -5.4110    -6.0830     3.0870 H     1 <1>   0.0800 
 31 H       -3.8310    -6.6570     2.6830 H     1 <1>   0.0800 
 32 H       -5.3160    -2.9490     1.6640 H     1 <1>   0.0800 
 33 H       -6.3760    -4.2900     2.0030 H     1 <1>   0.0800 
 34 H       -5.8340    -5.0920    -0.4000 H     1 <1>   0.0800 
 35 H       -5.1560    -3.5060    -0.6450 H     1 <1>   0.0800 
 36 H       -7.3820    -2.6220     0.0710 H     1 <1>   0.4500 
 37 H       -7.6700    -8.1610    -0.5520 H     1 <1>   0.1500 
 38 H       -5.4810    -9.3680    -0.9740 H     1 <1>   0.2700 
 39 H       -2.6390    -7.8930     1.1620 H     1 <1>   0.0800 
 40 H       -2.8020    -8.4300    -0.4860 H     1 <1>   0.0800 
 41 H       -3.1700    -9.5210     0.8310 H     1 <1>   0.0800 
 42 H       -8.2030    -5.4360    -0.4060 H     1 <1>   0.0800 
 43 H       -9.2980    -4.0950    -0.1380 H     1 <1>   0.0800 
 44 H       -8.2310    -4.6330     1.1420 H     1 <1>   0.0800 
 45 H       -7.2750    -4.2470    -2.4030 H     1 <1>   0.0800 
 46 H       -6.6540    -2.6190    -2.2270 H     1 <1>   0.0800 
 47 H       -8.3750    -2.9170    -2.1070 H     1 <1>   0.0800 
@<TRIPOS>BOND
  1   1   2  1   
  2   2   3  ar  
  3   2   4  ar  
  4   3   5  ar  
  5   3   6  1   
  6   4   7  ar  
  7   4  24  1   
  8   5   8  1   
  9   5   9  ar  
 10   6  25  1   
 11   6  26  1   
 12   6  27  1   
 13   7   9  ar  
 14   7  28  1   
 15   8  10  2   
 16   8  11  am  
 17   9  29  1   
 18  11  12  1   
 19  11  13  1   
 20  12  14  1   
 21  12  30  1   
 22  12  31  1   
 23  13  15  1   
 24  13  32  1   
 25  13  33  1   
 26  14  16  1   
 27  14  17  2   
 28  15  18  1   
 29  15  34  1   
 30  15  35  1   
 31  16  19  2   
 32  17  20  1   
 33  17  21  1   
 34  18  22  1   
 35  18  23  1   
 36  18  36  1   
 37  19  20  1   
 38  19  37  1   
 39  20  38  1   
 40  21  39  1   
 41  21  40  1   
 42  21  41  1   
 43  22  42  1   
 44  22  43  1   
 45  22  44  1   
 46  23  45  1   
 47  23  46  1   
 48  23  47  1   
@<TRIPOS>SUBSTRUCTURE
  1 ****  11 GROUP 4 **** **** 0

# MOE 2024.06 (io_trps.svl 2023.06)
