@<TRIPOS>MOLECULE
NONAME
46 48 1 0 0 
SMALL
USER_CHARGES


@<TRIPOS>ATOM
  1 F       -2.2030    -0.6730     0.2640 F     1 <1>  -0.3400 
  2 C       -2.6070     0.4870    -0.2340 C.3   1 <1>   1.1640 
  3 F       -1.5580     0.9740    -0.8870 F     1 <1>  -0.3400 
  4 F       -3.5060     0.2090    -1.1690 F     1 <1>  -0.3400 
  5 C       -3.1480     1.4690     0.8180 C.ar  1 <1>  -0.1440 
  6 C       -3.9800     1.0280     1.8600 C.ar  1 <1>   0.0860 
  7 C       -2.8060     2.8180     0.7420 C.ar  1 <1>  -0.1500 
  8 C       -4.4350    -0.3430     2.0130 C.2   1 <1>   0.5440 
  9 C       -4.3920     1.9600     2.8130 C.ar  1 <1>  -0.1500 
 10 C       -3.2500     3.7240     1.6870 C.ar  1 <1>  -0.1500 
 11 O       -4.0570    -0.9640     2.9880 O.2   1 <1>  -0.5700 
 12 N       -5.2550    -0.9840     1.1030 N.am  1 <1>  -0.6600 
 13 C       -4.0410     3.2920     2.7310 C.ar  1 <1>  -0.1500 
 14 C       -6.2690    -0.3550     0.1940 C.3   1 <1>   0.2200 
 15 C       -5.0990    -2.4620     0.9400 C.3   1 <1>   0.0600 
 16 C       -7.5980    -1.1120     0.2260 C.3   1 <1>  -0.1600 
 17 C       -6.6930     1.0680     0.5580 C.3   1 <1>  -0.1600 
 18 C       -8.6370    -0.1370    -0.3420 C.3   1 <1>  -0.0800 
 19 C       -8.0450     1.2720    -0.1320 C.3   1 <1>  -0.0800 
 20 C      -10.0420    -0.3460     0.2520 C.3   1 <1>   0.1400 
 21 C       -8.9750     2.2330     0.6310 C.3   1 <1>  -0.0990 
 22 N      -10.8930     0.8350    -0.0390 N.am  1 <1>  -0.6600 
 23 C      -10.4000     2.1000     0.1330 C.2   1 <1>   0.5690 
 24 C      -12.2860     0.5690    -0.4860 C.3   1 <1>   0.0600 
 25 O      -11.0410     3.0990    -0.0860 O.2   1 <1>  -0.5700 
 26 H       -2.1800     3.1860    -0.0560 H     1 <1>   0.1500 
 27 H       -5.0030     1.6230     3.6340 H     1 <1>   0.1500 
 28 H       -2.9740     4.7630     1.6130 H     1 <1>   0.1500 
 29 H       -4.3800     3.9900     3.4780 H     1 <1>   0.1500 
 30 H       -5.8970    -0.3640    -0.8170 H     1 <1>   0.0800 
 31 H       -5.1440    -2.7270    -0.1010 H     1 <1>   0.0800 
 32 H       -5.8800    -2.9710     1.4770 H     1 <1>   0.0800 
 33 H       -4.1490    -2.7850     1.3300 H     1 <1>   0.0800 
 34 H       -7.5600    -2.0160    -0.3550 H     1 <1>   0.0800 
 35 H       -7.8380    -1.3480     1.2490 H     1 <1>   0.0800 
 36 H       -6.8230     1.1350     1.6240 H     1 <1>   0.0800 
 37 H       -5.9850     1.8030     0.2210 H     1 <1>   0.0800 
 38 H       -8.7070    -0.3060    -1.4040 H     1 <1>   0.0800 
 39 H       -7.8690     1.6920    -1.1090 H     1 <1>   0.0800 
 40 H       -9.9820    -0.4630     1.3210 H     1 <1>   0.0800 
 41 H      -10.4840    -1.2360    -0.1620 H     1 <1>   0.0800 
 42 H       -8.6430     3.2470     0.5050 H     1 <1>   0.0800 
 43 H       -8.9780     2.0060     1.6800 H     1 <1>   0.0800 
 44 H      -12.8050    -0.0060     0.2610 H     1 <1>   0.0800 
 45 H      -12.2730     0.0240    -1.4130 H     1 <1>   0.0800 
 46 H      -12.8160     1.4940    -0.6380 H     1 <1>   0.0800 
@<TRIPOS>BOND
  1   1   2  1   
  2   2   3  1   
  3   2   4  1   
  4   2   5  1   
  5   5   6  ar  
  6   5   7  ar  
  7   6   8  1   
  8   6   9  ar  
  9   7  10  ar  
 10   7  26  1   
 11   8  11  2   
 12   8  12  am  
 13   9  13  ar  
 14   9  27  1   
 15  10  13  ar  
 16  10  28  1   
 17  12  14  1   
 18  12  15  1   
 19  13  29  1   
 20  14  16  1   
 21  14  17  1   
 22  14  30  1   
 23  15  31  1   
 24  15  32  1   
 25  15  33  1   
 26  16  18  1   
 27  16  34  1   
 28  16  35  1   
 29  17  19  1   
 30  17  36  1   
 31  17  37  1   
 32  18  19  1   
 33  18  20  1   
 34  18  38  1   
 35  19  21  1   
 36  19  39  1   
 37  20  22  1   
 38  20  40  1   
 39  20  41  1   
 40  21  23  1   
 41  21  42  1   
 42  21  43  1   
 43  22  23  am  
 44  22  24  1   
 45  23  25  2   
 46  24  44  1   
 47  24  45  1   
 48  24  46  1   
@<TRIPOS>SUBSTRUCTURE
  1 ****  17 GROUP 4 **** **** 0

# MOE 2024.06 (io_trps.svl 2023.06)
