@<TRIPOS>MOLECULE
NONAME
42 43 1 0 0 
SMALL
USER_CHARGES


@<TRIPOS>ATOM
  1 O       -2.2700     0.6220    -2.0140 O.2   1 <1>  -0.5700 
  2 C       -2.0460     0.7070    -0.8260 C.2   1 <1>   0.5690 
  3 N       -2.1250    -0.3890    -0.0250 N.am  1 <1>  -0.7300 
  4 C       -1.6650     2.0770    -0.1900 C.3   1 <1>   0.3410 
  5 C       -2.4920    -1.7580    -0.4460 C.3   1 <1>   0.2200 
  6 O       -1.5270     1.8940     1.2130 O.3   1 <1>  -0.5600 
  7 C       -2.7820     3.1030    -0.4520 C.3   1 <1>  -0.2400 
  8 C       -0.3260     2.5630    -0.7710 C.3   1 <1>  -0.2400 
  9 C       -3.8660    -2.0960     0.1050 C.3   1 <1>  -0.0800 
 10 C       -1.5960    -2.7790     0.2560 C.3   1 <1>   0.1200 
 11 C       -1.1700     2.9710     2.0330 C.3   1 <1>   0.0400 
 12 C       -3.5180    -2.5780     1.5140 C.3   1 <1>   0.1200 
 13 C       -4.5560    -3.1890    -0.7320 C.3   1 <1>  -0.0170 
 14 O       -2.2540    -3.1640     1.4300 O.3   1 <1>  -0.5600 
 15 C       -5.9380    -3.5170    -0.1860 C.ar  1 <1>  -0.1430 
 16 C       -6.1880    -4.6680     0.5330 C.ar  1 <1>  -0.1500 
 17 C       -7.0140    -2.6750    -0.3820 C.ar  1 <1>  -0.1500 
 18 C       -7.4650    -4.9130     1.0100 C.ar  1 <1>   0.1600 
 19 C       -8.2520    -3.0130     0.1380 C.ar  1 <1>   0.1600 
 20 N       -8.5030    -4.1120     0.8310 N.ar  1 <1>  -0.6200 
 21 H       -1.9320    -0.2440     0.9720 H     1 <1>   0.3700 
 22 H       -2.4340    -1.8410    -1.5190 H     1 <1>   0.0800 
 23 H       -2.9800     3.1550    -1.5080 H     1 <1>   0.0800 
 24 H       -2.5020     4.0870    -0.1270 H     1 <1>   0.0800 
 25 H       -3.6850     2.7970     0.0430 H     1 <1>   0.0800 
 26 H       -0.3860     2.5770    -1.8440 H     1 <1>   0.0800 
 27 H        0.4630     1.8900    -0.4880 H     1 <1>   0.0800 
 28 H       -0.0900     3.5590    -0.4470 H     1 <1>   0.0800 
 29 H       -4.4990    -1.2270     0.1370 H     1 <1>   0.0800 
 30 H       -0.6290    -2.3770     0.5010 H     1 <1>   0.0800 
 31 H       -1.4810    -3.6590    -0.3520 H     1 <1>   0.0800 
 32 H       -1.1280     2.6110     3.0460 H     1 <1>   0.0800 
 33 H       -1.9120     3.7460     1.9690 H     1 <1>   0.0800 
 34 H       -0.2000     3.3420     1.7550 H     1 <1>   0.0800 
 35 H       -4.2170    -3.2940     1.9070 H     1 <1>   0.0800 
 36 H       -3.4440    -1.7430     2.1900 H     1 <1>   0.0800 
 37 H       -3.9540    -4.0810    -0.7490 H     1 <1>   0.0800 
 38 H       -4.6600    -2.8480    -1.7470 H     1 <1>   0.0800 
 39 H       -5.4030    -5.3760     0.7280 H     1 <1>   0.1500 
 40 H       -6.9010    -1.7600    -0.9340 H     1 <1>   0.1500 
 41 H       -7.6410    -5.8160     1.5690 H     1 <1>   0.1500 
 42 H       -9.0790    -2.3440    -0.0240 H     1 <1>   0.1500 
@<TRIPOS>BOND
  1   1   2  2   
  2   2   3  am  
  3   2   4  1   
  4   3   5  1   
  5   3  21  1   
  6   4   6  1   
  7   4   7  1   
  8   4   8  1   
  9   5   9  1   
 10   5  10  1   
 11   5  22  1   
 12   6  11  1   
 13   7  23  1   
 14   7  24  1   
 15   7  25  1   
 16   8  26  1   
 17   8  27  1   
 18   8  28  1   
 19   9  12  1   
 20   9  13  1   
 21   9  29  1   
 22  10  14  1   
 23  10  30  1   
 24  10  31  1   
 25  11  32  1   
 26  11  33  1   
 27  11  34  1   
 28  12  14  1   
 29  12  35  1   
 30  12  36  1   
 31  13  15  1   
 32  13  37  1   
 33  13  38  1   
 34  15  16  ar  
 35  15  17  ar  
 36  16  18  ar  
 37  16  39  1   
 38  17  19  ar  
 39  17  40  1   
 40  18  20  ar  
 41  18  41  1   
 42  19  20  ar  
 43  19  42  1   
@<TRIPOS>SUBSTRUCTURE
  1 ****   9 GROUP 4 **** **** 0

# MOE 2024.06 (io_trps.svl 2023.06)
