@<TRIPOS>MOLECULE
NONAME
54 57 1 0 0 
SMALL
USER_CHARGES


@<TRIPOS>ATOM
  1 S        0.4040     0.7860     1.6550 S.o2  1 <1>   1.5010 
  2 O       -0.0210     0.5120     3.0110 O.2   1 <1>  -0.6500 
  3 O        0.6870     2.1560     1.2780 O.2   1 <1>  -0.6500 
  4 N       -0.8280     0.2430     0.6260 N.am  1 <1>  -0.8490 
  5 C        1.8110    -0.2830     1.2460 C.2   1 <1>  -0.0630 
  6 C       -2.1660     0.5670     1.1590 C.3   1 <1>   0.1960 
  7 C       -0.6180     0.5820    -0.7930 C.3   1 <1>   0.1960 
  8 C        3.1210     0.0030     1.4200 C.2   1 <1>  -0.1400 
  9 C        1.6200    -1.5950     0.6990 C.2   1 <1>  -0.1500 
 10 C       -3.2980     0.3940     0.1190 C.3   1 <1>   0.0000 
 11 C       -1.5440     1.7060    -1.2610 C.3   1 <1>  -0.1600 
 12 S        4.1360    -1.3260     0.8910 S.3   1 <1>  -0.0800 
 13 C        3.8450     1.2180     1.9710 C.3   1 <1>  -0.0600 
 14 C        2.7440    -2.3020     0.4340 C.2   1 <1>   0.0410 
 15 C       -4.6560     0.6640     0.8020 C.3   1 <1>   0.2000 
 16 C       -3.0310     1.3430    -1.0820 C.3   1 <1>  -0.1600 
 17 C       -3.4350    -1.0870    -0.2930 C.3   1 <1>  -0.1600 
 18 C        2.9340    -3.6170    -0.1190 C.2   1 <1>   0.2880 
 19 O       -5.6330     0.8850    -0.1750 O.3   1 <1>  -0.5600 
 20 C       -5.0000    -0.6340     1.5420 C.3   1 <1>  -0.1600 
 21 C       -4.2600    -1.7610     0.8080 C.3   1 <1>  -0.1600 
 22 N        1.9440    -4.3710    -0.5330 N.2   1 <1>  -0.7070 
 23 C        4.1580    -4.2720    -0.2990 C.2   1 <1>  -0.1500 
 24 C       -6.7350     1.6260     0.2460 C.3   1 <1>   0.0400 
 25 N        2.5200    -5.5010    -0.9720 N.pl3 1 <1>   0.3000 
 26 C        3.8620    -5.4680    -0.8420 C.2   1 <1>  -0.3320 
 27 C        4.7870    -6.5990    -1.2520 C.3   1 <1>  -0.0600 
 28 H       -2.3490    -0.0560     2.0180 H     1 <1>   0.0800 
 29 H       -2.1690     1.5910     1.4960 H     1 <1>   0.0800 
 30 H        0.4090     0.8580    -0.9710 H     1 <1>   0.0800 
 31 H       -0.8160    -0.2950    -1.3860 H     1 <1>   0.0800 
 32 H        0.6320    -1.9810     0.5180 H     1 <1>   0.1500 
 33 H       -1.3130     2.5930    -0.6960 H     1 <1>   0.0800 
 34 H       -1.3510     1.9260    -2.2950 H     1 <1>   0.0800 
 35 H        3.1470     1.9690     2.2940 H     1 <1>   0.0800 
 36 H        4.4780     1.6410     1.2130 H     1 <1>   0.0800 
 37 H        4.4520     0.9310     2.8110 H     1 <1>   0.0800 
 38 H       -4.6080     1.5190     1.4560 H     1 <1>   0.0800 
 39 H       -3.4060     0.8950    -1.9850 H     1 <1>   0.0800 
 40 H       -3.5740     2.2620    -0.9460 H     1 <1>   0.0800 
 41 H       -3.9910    -1.1520    -1.2130 H     1 <1>   0.0800 
 42 H       -2.4900    -1.5810    -0.4320 H     1 <1>   0.0800 
 43 H       -4.6350    -0.5750     2.5520 H     1 <1>   0.0800 
 44 H       -6.0600    -0.8130     1.5720 H     1 <1>   0.0800 
 45 H       -3.6110    -2.2810     1.4920 H     1 <1>   0.0800 
 46 H       -4.9530    -2.4650     0.3800 H     1 <1>   0.0800 
 47 H        5.1220    -3.8730    -0.0420 H     1 <1>   0.1500 
 48 H       -7.4210     1.7000    -0.5780 H     1 <1>   0.0800 
 49 H       -6.4100     2.6100     0.5360 H     1 <1>   0.0800 
 50 H       -7.2120     1.1260     1.0710 H     1 <1>   0.0800 
 51 H        1.9720    -6.2810    -1.3550 H     1 <1>   0.2700 
 52 H        5.8090    -6.3330    -1.0490 H     1 <1>   0.0800 
 53 H        4.6890    -6.7990    -2.3050 H     1 <1>   0.0800 
 54 H        4.5510    -7.4930    -0.7020 H     1 <1>   0.0800 
@<TRIPOS>BOND
  1   1   2  2   
  2   1   3  2   
  3   1   4  am  
  4   1   5  1   
  5   4   6  1   
  6   4   7  1   
  7   5   8  2   
  8   5   9  1   
  9   6  10  1   
 10   6  28  1   
 11   6  29  1   
 12   7  11  1   
 13   7  30  1   
 14   7  31  1   
 15   8  12  1   
 16   8  13  1   
 17   9  14  2   
 18   9  32  1   
 19  10  15  1   
 20  10  16  1   
 21  10  17  1   
 22  11  16  1   
 23  11  33  1   
 24  11  34  1   
 25  12  14  1   
 26  13  35  1   
 27  13  36  1   
 28  13  37  1   
 29  14  18  1   
 30  15  19  1   
 31  15  20  1   
 32  15  38  1   
 33  16  39  1   
 34  16  40  1   
 35  17  21  1   
 36  17  41  1   
 37  17  42  1   
 38  18  22  2   
 39  18  23  1   
 40  19  24  1   
 41  20  21  1   
 42  20  43  1   
 43  20  44  1   
 44  21  45  1   
 45  21  46  1   
 46  22  25  1   
 47  23  26  2   
 48  23  47  1   
 49  24  48  1   
 50  24  49  1   
 51  24  50  1   
 52  25  26  1   
 53  25  51  1   
 54  26  27  1   
 55  27  52  1   
 56  27  53  1   
 57  27  54  1   
@<TRIPOS>SUBSTRUCTURE
  1 ****   4 GROUP 4 **** **** 0

# MOE 2024.06 (io_trps.svl 2023.06)
