@<TRIPOS>MOLECULE
NONAME
54 56 1 0 0 
SMALL
USER_CHARGES


@<TRIPOS>ATOM
  1 O       -0.9140     0.3850     2.4150 O.2   1 <1>  -0.5700 
  2 C       -1.5780     1.0280     1.6350 C.2   1 <1>   0.5690 
  3 N       -2.4940     0.4240     0.8140 N.am  1 <1>  -0.6600 
  4 C       -1.3900     2.5410     1.6220 C.3   1 <1>   0.1810 
  5 C       -3.2900     1.0770    -0.2570 C.3   1 <1>   0.1400 
  6 C       -2.7500    -1.0310     0.8210 C.3   1 <1>   0.1400 
  7 O       -1.0380     3.0130     0.3290 O.3   1 <1>  -0.3620 
  8 C       -4.1630    -0.0320    -0.8580 C.3   1 <1>   0.2000 
  9 C       -3.3940    -1.3190    -0.5370 C.3   1 <1>  -0.0800 
 10 C       -0.8860     4.3280     0.0680 C.ar  1 <1>   0.0820 
 11 O       -5.4010    -0.0710    -0.2050 O.3   1 <1>  -0.5600 
 12 C       -4.2490    -2.5990    -0.5550 C.3   1 <1>   0.0200 
 13 C       -1.0030     5.3310     1.0250 C.ar  1 <1>  -0.1500 
 14 C       -0.6020     4.6790    -1.2410 C.ar  1 <1>  -0.1500 
 15 C       -6.3710     0.7870    -0.7180 C.3   1 <1>   0.0400 
 16 C       -3.4270    -3.8690    -0.4080 C.2   1 <1>  -0.0400 
 17 C       -0.8380     6.6560     0.6660 C.ar  1 <1>  -0.1500 
 18 C       -0.4390     6.0050    -1.5900 C.ar  1 <1>  -0.1500 
 19 O       -4.0510    -5.0140    -0.3270 O.3   1 <1>  -0.0190 
 20 C       -2.1090    -4.1180    -0.3420 C.2   1 <1>  -0.1500 
 21 C       -0.5460     7.0330    -0.6510 C.ar  1 <1>   0.0860 
 22 N       -3.2250    -6.0130    -0.2080 N.2   1 <1>  -0.4100 
 23 C       -2.0470    -5.5020    -0.2120 C.2   1 <1>   0.1080 
 24 C       -0.3640     8.4100    -1.0600 C.2   1 <1>   0.4230 
 25 C       -0.7710    -6.3050    -0.0920 C.3   1 <1>  -0.0590 
 26 O       -0.4460     8.7540    -2.2130 O.2   1 <1>  -0.5700 
 27 C       -0.0570     9.4820    -0.0110 C.3   1 <1>  -0.0990 
 28 C        0.6710    10.7190    -0.5650 C.3   1 <1>  -0.2400 
 29 H       -0.6010     2.8080     2.3020 H     1 <1>   0.0800 
 30 H       -2.3070     3.0130     1.9200 H     1 <1>   0.0800 
 31 H       -3.8810     1.8840     0.1370 H     1 <1>   0.0800 
 32 H       -2.6170     1.4520    -1.0080 H     1 <1>   0.0800 
 33 H       -1.8370    -1.5830     0.9660 H     1 <1>   0.0800 
 34 H       -3.4360    -1.2570     1.6210 H     1 <1>   0.0800 
 35 H       -4.3220     0.0880    -1.9160 H     1 <1>   0.0800 
 36 H       -2.6050    -1.4170    -1.2610 H     1 <1>   0.0800 
 37 H       -4.7900    -2.6520    -1.4820 H     1 <1>   0.0800 
 38 H       -4.9720    -2.5650     0.2420 H     1 <1>   0.0800 
 39 H       -1.2200     5.0990     2.0510 H     1 <1>   0.1500 
 40 H       -0.5090     3.9060    -1.9830 H     1 <1>   0.1500 
 41 H       -7.2610     0.6760    -0.1240 H     1 <1>   0.0800 
 42 H       -6.5820     0.5150    -1.7380 H     1 <1>   0.0800 
 43 H       -6.0240     1.8040    -0.6600 H     1 <1>   0.0800 
 44 H       -0.9460     7.4060     1.4280 H     1 <1>   0.1500 
 45 H       -0.2220     6.2570    -2.6150 H     1 <1>   0.1500 
 46 H       -1.2690    -3.4500    -0.3770 H     1 <1>   0.1500 
 47 H       -0.1640    -6.1590    -0.9670 H     1 <1>   0.0800 
 48 H       -1.0020    -7.3500     0.0020 H     1 <1>   0.0800 
 49 H       -0.2230    -5.9900     0.7770 H     1 <1>   0.0800 
 50 H       -0.9850     9.7950     0.4330 H     1 <1>   0.0800 
 51 H        0.5590     9.0540     0.7580 H     1 <1>   0.0800 
 52 H        0.0620    11.2090    -1.3050 H     1 <1>   0.0800 
 53 H        1.5990    10.4280    -1.0260 H     1 <1>   0.0800 
 54 H        0.8790    11.4160     0.2260 H     1 <1>   0.0800 
@<TRIPOS>BOND
  1   1   2  2   
  2   2   3  am  
  3   2   4  1   
  4   3   5  1   
  5   3   6  1   
  6   4   7  1   
  7   4  29  1   
  8   4  30  1   
  9   5   8  1   
 10   5  31  1   
 11   5  32  1   
 12   6   9  1   
 13   6  33  1   
 14   6  34  1   
 15   7  10  1   
 16   8   9  1   
 17   8  11  1   
 18   8  35  1   
 19   9  12  1   
 20   9  36  1   
 21  10  13  ar  
 22  10  14  ar  
 23  11  15  1   
 24  12  16  1   
 25  12  37  1   
 26  12  38  1   
 27  13  17  ar  
 28  13  39  1   
 29  14  18  ar  
 30  14  40  1   
 31  15  41  1   
 32  15  42  1   
 33  15  43  1   
 34  16  19  1   
 35  16  20  2   
 36  17  21  ar  
 37  17  44  1   
 38  18  21  ar  
 39  18  45  1   
 40  19  22  1   
 41  20  23  1   
 42  20  46  1   
 43  21  24  1   
 44  22  23  2   
 45  23  25  1   
 46  24  26  2   
 47  24  27  1   
 48  25  47  1   
 49  25  48  1   
 50  25  49  1   
 51  27  28  1   
 52  27  50  1   
 53  27  51  1   
 54  28  52  1   
 55  28  53  1   
 56  28  54  1   
@<TRIPOS>SUBSTRUCTURE
  1 ****   5 GROUP 4 **** **** 0

# MOE 2024.06 (io_trps.svl 2023.06)
