@<TRIPOS>MOLECULE
NONAME
47 50 1 0 0 
SMALL
USER_CHARGES


@<TRIPOS>ATOM
  1 F       -3.3980    -0.2240    -1.6440 F     1 <1>  -0.1900 
  2 C       -3.0210     0.5460    -0.6550 C.ar  1 <1>   0.1900 
  3 C       -2.9240     1.9120    -0.8610 C.ar  1 <1>   0.1900 
  4 C       -2.7320    -0.0250     0.5810 C.ar  1 <1>   0.0860 
  5 F       -3.2170     2.4070    -2.0380 F     1 <1>  -0.1900 
  6 C       -2.5270     2.7710     0.1530 C.ar  1 <1>  -0.1440 
  7 C       -2.8320    -1.4470     0.8180 C.2   1 <1>   0.5440 
  8 C       -2.3240     0.8460     1.5940 C.ar  1 <1>  -0.1500 
  9 C       -2.2250     2.2140     1.3880 C.ar  1 <1>  -0.1500 
 10 C       -2.4190     4.2720    -0.0730 C.3   1 <1>  -0.0960 
 11 O       -1.8170    -2.0690     1.0610 O.2   1 <1>  -0.5700 
 12 N       -4.0370    -2.1170     0.8050 N.am  1 <1>  -0.6600 
 13 C       -4.1180    -3.6110     0.8740 C.3   1 <1>   0.1400 
 14 C       -5.3750    -1.4880     0.5830 C.3   1 <1>   0.1400 
 15 C       -4.9160    -4.1730    -0.3180 C.3   1 <1>   0.3440 
 16 C       -6.0970    -2.1500    -0.6130 C.3   1 <1>   0.2950 
 17 O       -6.1640    -3.5340    -0.4150 O.3   1 <1>  -0.5600 
 18 C       -5.1220    -5.6770    -0.1650 C.ar  1 <1>  -0.1440 
 19 C       -7.5380    -1.6630    -0.8450 C.3   1 <1>  -0.1950 
 20 C       -6.2180    -6.1940     0.5130 C.ar  1 <1>  -0.1500 
 21 C       -4.1890    -6.5540    -0.7000 C.ar  1 <1>  -0.1500 
 22 C       -8.0000    -0.2650    -0.5610 C.3   1 <1>  -0.2000 
 23 C       -8.5250    -1.4150     0.2540 C.3   1 <1>  -0.2000 
 24 C       -6.3780    -7.5620     0.6540 C.ar  1 <1>  -0.1500 
 25 C       -4.3470    -7.9220    -0.5610 C.ar  1 <1>  -0.1500 
 26 C       -5.4420    -8.4270     0.1170 C.ar  1 <1>  -0.1500 
 27 H       -2.0770     0.4320     2.5570 H     1 <1>   0.1500 
 28 H       -1.9060     2.8470     2.2010 H     1 <1>   0.1500 
 29 H       -2.1010     4.7770     0.8210 H     1 <1>   0.0800 
 30 H       -3.3740     4.6690    -0.3690 H     1 <1>   0.0800 
 31 H       -1.7060     4.4750    -0.8530 H     1 <1>   0.0800 
 32 H       -3.1360    -4.0490     0.8710 H     1 <1>   0.0800 
 33 H       -4.6010    -3.9000     1.7900 H     1 <1>   0.0800 
 34 H       -5.9670    -1.6180     1.4710 H     1 <1>   0.0800 
 35 H       -5.2800    -0.4350     0.4040 H     1 <1>   0.0800 
 36 H       -4.3780    -3.9830    -1.2300 H     1 <1>   0.0800 
 37 H       -5.5290    -1.9680    -1.5090 H     1 <1>   0.0800 
 38 H       -7.9330    -2.1090    -1.7420 H     1 <1>   0.1000 
 39 H       -6.9550    -5.5290     0.9320 H     1 <1>   0.1500 
 40 H       -3.3310    -6.1760    -1.2290 H     1 <1>   0.1500 
 41 H       -7.3550     0.4450    -0.0740 H     1 <1>   0.1000 
 42 H       -8.6620     0.2090    -1.2660 H     1 <1>   0.1000 
 43 H       -9.5400    -1.7410     0.1030 H     1 <1>   0.1000 
 44 H       -8.2180    -1.5150     1.2790 H     1 <1>   0.1000 
 45 H       -7.2330    -7.9500     1.1800 H     1 <1>   0.1500 
 46 H       -3.6180    -8.5930    -0.9790 H     1 <1>   0.1500 
 47 H       -5.5660    -9.4900     0.2260 H     1 <1>   0.1500 
@<TRIPOS>BOND
  1   1   2  1   
  2   2   3  ar  
  3   2   4  ar  
  4   3   5  1   
  5   3   6  ar  
  6   4   7  1   
  7   4   8  ar  
  8   6   9  ar  
  9   6  10  1   
 10   7  11  2   
 11   7  12  am  
 12   8   9  ar  
 13   8  27  1   
 14   9  28  1   
 15  10  29  1   
 16  10  30  1   
 17  10  31  1   
 18  12  13  1   
 19  12  14  1   
 20  13  15  1   
 21  13  32  1   
 22  13  33  1   
 23  14  16  1   
 24  14  34  1   
 25  14  35  1   
 26  15  17  1   
 27  15  18  1   
 28  15  36  1   
 29  16  17  1   
 30  16  19  1   
 31  16  37  1   
 32  18  20  ar  
 33  18  21  ar  
 34  19  22  1   
 35  19  23  1   
 36  19  38  1   
 37  20  24  ar  
 38  20  39  1   
 39  21  25  ar  
 40  21  40  1   
 41  22  23  1   
 42  22  41  1   
 43  22  42  1   
 44  23  43  1   
 45  23  44  1   
 46  24  26  ar  
 47  24  45  1   
 48  25  26  ar  
 49  25  46  1   
 50  26  47  1   
@<TRIPOS>SUBSTRUCTURE
  1 ****  12 GROUP 4 **** **** 0

# MOE 2024.06 (io_trps.svl 2023.06)
