@<TRIPOS>MOLECULE
NONAME
47 49 1 0 0 
SMALL
USER_CHARGES


@<TRIPOS>ATOM
  1 O        3.6020    -1.5770    -2.0990 O.2   1 <1>  -0.5700 
  2 C        2.7410    -1.4650    -1.2420 C.2   1 <1>   0.5440 
  3 N        2.7440    -0.2620    -0.5860 N.am  1 <1>  -0.6600 
  4 C        1.8870    -2.5890    -0.8780 C.ar  1 <1>   0.0860 
  5 C        3.2750    -0.2460     0.8180 C.3   1 <1>   0.2200 
  6 C        2.7320     1.0030    -1.3800 C.3   1 <1>   0.1400 
  7 C        0.6770    -2.4680    -0.1690 C.ar  1 <1>   0.0830 
  8 C        2.2820    -3.8790    -1.2490 C.ar  1 <1>  -0.1500 
  9 C        2.7720     0.9510     1.6390 C.3   1 <1>   0.1200 
 10 C        4.8240    -0.2990     0.8010 C.3   1 <1>   0.3430 
 11 C        3.7930     2.0360    -0.9550 C.3   1 <1>  -0.0800 
 12 O        0.2440    -1.2330     0.1890 O.3   1 <1>  -0.3630 
 13 C       -0.0660    -3.6020     0.1550 C.ar  1 <1>  -0.1500 
 14 C        1.5390    -4.9970    -0.9290 C.ar  1 <1>  -0.1500 
 15 O        3.6060     2.0580     1.4580 O.3   1 <1>  -0.5600 
 16 N        5.3990     0.0730    -0.5420 N.4   1 <1>  -0.9590 
 17 C        3.3760     2.8030     0.3100 C.3   1 <1>   0.1200 
 18 C        5.2490     1.5230    -0.8830 C.3   1 <1>   0.3430 
 19 C       -1.0900    -0.9730     0.5660 C.3   1 <1>   0.1200 
 20 C        0.3610    -4.8590    -0.2210 C.ar  1 <1>  -0.1500 
 21 C        6.8010    -0.3980    -0.7010 C.3   1 <1>   0.2630 
 22 C       -1.2630     0.5380     0.6780 C.3   1 <1>  -0.2400 
 23 H        2.9140    -1.1290     1.3170 H     1 <1>   0.0800 
 24 H        2.8770     0.7670    -2.4210 H     1 <1>   0.0800 
 25 H        1.7520     1.4420    -1.2970 H     1 <1>   0.0800 
 26 H        3.1930    -4.0110    -1.8070 H     1 <1>   0.1500 
 27 H        2.8160     0.7040     2.6850 H     1 <1>   0.0800 
 28 H        1.7540     1.2020     1.3940 H     1 <1>   0.0800 
 29 H        5.1190    -1.3070     1.0400 H     1 <1>   0.0800 
 30 H        5.2190     0.3460     1.5690 H     1 <1>   0.0800 
 31 H        3.7870     2.7830    -1.7280 H     1 <1>   0.0800 
 32 H       -0.9850    -3.5310     0.7060 H     1 <1>   0.1500 
 33 H        1.8730    -5.9760    -1.2310 H     1 <1>   0.1500 
 34 H        4.7950    -0.4440    -1.2240 H     1 <1>   0.4500 
 35 H        2.3370     3.0880     0.2800 H     1 <1>   0.0800 
 36 H        3.9630     3.7010     0.4020 H     1 <1>   0.0800 
 37 H        5.7930     2.1180    -0.1680 H     1 <1>   0.0800 
 38 H        5.6990     1.6850    -1.8480 H     1 <1>   0.0800 
 39 H       -1.7430    -1.3740    -0.1910 H     1 <1>   0.0800 
 40 H       -1.2800    -1.4480     1.5130 H     1 <1>   0.0800 
 41 H       -0.2200    -5.7300     0.0320 H     1 <1>   0.1500 
 42 H        7.4470     0.1030     0.0010 H     1 <1>   0.0800 
 43 H        7.1500    -0.1960    -1.7010 H     1 <1>   0.0800 
 44 H        6.8580    -1.4610    -0.5310 H     1 <1>   0.0800 
 45 H       -1.0290     1.0080    -0.2600 H     1 <1>   0.0800 
 46 H       -0.6270     0.9300     1.4510 H     1 <1>   0.0800 
 47 H       -2.2830     0.7670     0.9290 H     1 <1>   0.0800 
@<TRIPOS>BOND
  1   1   2  2   
  2   2   3  am  
  3   2   4  1   
  4   3   5  1   
  5   3   6  1   
  6   4   7  ar  
  7   4   8  ar  
  8   5   9  1   
  9   5  10  1   
 10   5  23  1   
 11   6  11  1   
 12   6  24  1   
 13   6  25  1   
 14   7  12  1   
 15   7  13  ar  
 16   8  14  ar  
 17   8  26  1   
 18   9  15  1   
 19   9  27  1   
 20   9  28  1   
 21  10  16  1   
 22  10  29  1   
 23  10  30  1   
 24  11  17  1   
 25  11  18  1   
 26  11  31  1   
 27  12  19  1   
 28  13  20  ar  
 29  13  32  1   
 30  14  20  ar  
 31  14  33  1   
 32  15  17  1   
 33  16  18  1   
 34  16  21  1   
 35  16  34  1   
 36  17  35  1   
 37  17  36  1   
 38  18  37  1   
 39  18  38  1   
 40  19  22  1   
 41  19  39  1   
 42  19  40  1   
 43  20  41  1   
 44  21  42  1   
 45  21  43  1   
 46  21  44  1   
 47  22  45  1   
 48  22  46  1   
 49  22  47  1   
@<TRIPOS>SUBSTRUCTURE
  1 ****   3 GROUP 4 **** **** 0

# MOE 2024.06 (io_trps.svl 2023.06)
