@<TRIPOS>MOLECULE
NONAME
66 70 1 0 0 
SMALL
USER_CHARGES


@<TRIPOS>ATOM
  1 O       -1.0200    -0.6540    -0.4450 O.2   1 <1>  -0.5700 
  2 C        0.0730    -1.1730    -0.3090 C.2   1 <1>   0.7150 
  3 N        1.1140    -0.3720     0.0010 N.am  1 <1>  -0.8000 
  4 C        0.2150    -2.6020    -0.4380 C.2   1 <1>   0.0550 
  5 O        1.2450    -3.2580     0.0780 O.3   1 <1>  -0.2800 
  6 C       -0.6090    -3.5060    -1.0240 C.2   1 <1>  -0.1500 
  7 C        1.1040    -4.5530    -0.1300 C.2   1 <1>  -0.0400 
  8 C       -0.0640    -4.7700    -0.7880 C.2   1 <1>  -0.1810 
  9 C        2.2200    -5.4680     0.4000 C.3   1 <1>   0.1800 
 10 C       -0.7920    -6.0240    -1.2210 C.3   1 <1>   0.5240 
 11 C        2.2020    -5.4410     1.9340 C.3   1 <1>  -0.2400 
 12 C        3.5780    -4.9500    -0.0970 C.3   1 <1>  -0.2400 
 13 C        2.0710    -6.9210    -0.0720 C.3   1 <1>  -0.2400 
 14 N       -1.4660    -6.6770    -0.0470 N.4   1 <1>  -0.9590 
 15 C       -2.5930    -7.5220    -0.5480 C.3   1 <1>   0.3430 
 16 C       -2.0670    -5.7250     0.9610 C.3   1 <1>   0.3430 
 17 C       -3.8320    -6.6420    -0.3820 C.3   1 <1>   0.2800 
 18 C       -3.6050    -5.8290     0.8830 C.3   1 <1>  -0.0800 
 19 O       -3.8890    -5.6160    -1.3090 O.3   1 <1>  -0.5600 
 20 C       -5.2380    -7.2350    -0.4690 C.3   1 <1>  -0.1600 
 21 C       -4.4610    -4.5640     0.5870 C.3   1 <1>  -0.0800 
 22 C       -4.9620    -4.9000    -0.8280 C.3   1 <1>   0.2000 
 23 C       -6.0520    -5.9790    -0.7890 C.3   1 <1>  -0.1600 
 24 C       -3.7120    -3.2180     0.6240 C.3   1 <1>   0.3430 
 25 N       -4.6150    -2.0590     0.3590 N.4   1 <1>  -0.9590 
 26 C       -3.8590    -0.7910     0.1750 C.3   1 <1>   0.3430 
 27 C       -5.6010    -1.7700     1.4340 C.3   1 <1>   0.3430 
 28 C       -4.8910     0.3070     0.3830 C.3   1 <1>  -0.1600 
 29 C       -6.0340    -0.3350     1.1730 C.3   1 <1>  -0.1600 
 30 H        0.9980     0.6410     0.0470 H     1 <1>   0.3700 
 31 H        2.0590    -0.7370     0.1220 H     1 <1>   0.3700 
 32 H       -1.5100    -3.2940    -1.5730 H     1 <1>   0.1500 
 33 H       -0.1010    -6.7100    -1.6820 H     1 <1>   0.0800 
 34 H       -1.5300    -5.7510    -1.9590 H     1 <1>   0.0800 
 35 H        2.9850    -6.0620     2.3330 H     1 <1>   0.0800 
 36 H        1.2600    -5.7930     2.3100 H     1 <1>   0.0800 
 37 H        2.3560    -4.4380     2.2910 H     1 <1>   0.0800 
 38 H        4.3790    -5.5780     0.2500 H     1 <1>   0.0800 
 39 H        3.7580    -3.9520     0.2620 H     1 <1>   0.0800 
 40 H        3.5990    -4.9290    -1.1720 H     1 <1>   0.0800 
 41 H        2.9150    -7.5030     0.2560 H     1 <1>   0.0800 
 42 H        2.0410    -6.9650    -1.1470 H     1 <1>   0.0800 
 43 H        1.1910    -7.3750     0.3350 H     1 <1>   0.0800 
 44 H       -0.7570    -7.2570     0.4180 H     1 <1>   0.4500 
 45 H       -2.4660    -7.8250    -1.5750 H     1 <1>   0.0800 
 46 H       -2.6990    -8.3970     0.0720 H     1 <1>   0.0800 
 47 H       -1.7430    -5.9980     1.9530 H     1 <1>   0.0800 
 48 H       -1.7440    -4.7170     0.7800 H     1 <1>   0.0800 
 49 H       -3.9690    -6.3570     1.7480 H     1 <1>   0.0800 
 50 H       -5.3020    -7.9470    -1.2740 H     1 <1>   0.0800 
 51 H       -5.5430    -7.7050     0.4500 H     1 <1>   0.0800 
 52 H       -5.2870    -4.5240     1.2750 H     1 <1>   0.0800 
 53 H       -5.1920    -4.0640    -1.4670 H     1 <1>   0.0800 
 54 H       -6.8100    -5.7740    -0.0520 H     1 <1>   0.0800 
 55 H       -6.5200    -6.0650    -1.7560 H     1 <1>   0.0800 
 56 H       -2.9370    -3.2320    -0.1220 H     1 <1>   0.0800 
 57 H       -3.2450    -3.0880     1.5870 H     1 <1>   0.0800 
 58 H       -5.1390    -2.2000    -0.5140 H     1 <1>   0.4500 
 59 H       -3.0890    -0.7050     0.9260 H     1 <1>   0.0800 
 60 H       -3.4030    -0.7290    -0.8010 H     1 <1>   0.0800 
 61 H       -6.4390    -2.4480     1.4080 H     1 <1>   0.0800 
 62 H       -5.1200    -1.8280     2.3970 H     1 <1>   0.0800 
 63 H       -4.4500     1.1330     0.9150 H     1 <1>   0.0800 
 64 H       -5.2420     0.6650    -0.5700 H     1 <1>   0.0800 
 65 H       -6.9410    -0.3270     0.5940 H     1 <1>   0.0800 
 66 H       -6.2180     0.1790     2.1010 H     1 <1>   0.0800 
@<TRIPOS>BOND
  1   1   2  2   
  2   2   3  am  
  3   2   4  1   
  4   3  30  1   
  5   3  31  1   
  6   4   5  1   
  7   4   6  2   
  8   5   7  1   
  9   6   8  1   
 10   6  32  1   
 11   7   8  2   
 12   7   9  1   
 13   8  10  1   
 14   9  11  1   
 15   9  12  1   
 16   9  13  1   
 17  10  14  1   
 18  10  33  1   
 19  10  34  1   
 20  11  35  1   
 21  11  36  1   
 22  11  37  1   
 23  12  38  1   
 24  12  39  1   
 25  12  40  1   
 26  13  41  1   
 27  13  42  1   
 28  13  43  1   
 29  14  15  1   
 30  14  16  1   
 31  14  44  1   
 32  15  17  1   
 33  15  45  1   
 34  15  46  1   
 35  16  18  1   
 36  16  47  1   
 37  16  48  1   
 38  17  18  1   
 39  17  19  1   
 40  17  20  1   
 41  18  21  1   
 42  18  49  1   
 43  19  22  1   
 44  20  23  1   
 45  20  50  1   
 46  20  51  1   
 47  21  22  1   
 48  21  24  1   
 49  21  52  1   
 50  22  23  1   
 51  22  53  1   
 52  23  54  1   
 53  23  55  1   
 54  24  25  1   
 55  24  56  1   
 56  24  57  1   
 57  25  26  1   
 58  25  27  1   
 59  25  58  1   
 60  26  28  1   
 61  26  59  1   
 62  26  60  1   
 63  27  29  1   
 64  27  61  1   
 65  27  62  1   
 66  28  29  1   
 67  28  63  1   
 68  28  64  1   
 69  29  65  1   
 70  29  66  1   
@<TRIPOS>SUBSTRUCTURE
  1 ****   6 GROUP 4 **** **** 0

# MOE 2024.06 (io_trps.svl 2023.06)
