@<TRIPOS>MOLECULE
NONAME
45 47 1 0 0 
SMALL
USER_CHARGES


@<TRIPOS>ATOM
  1 S       -0.4840     0.9130    -0.8830 S.o2  1 <1>   1.5010 
  2 O       -1.0060     2.1440    -0.3260 O.2   1 <1>  -0.6500 
  3 O       -0.5730     0.7360    -2.3170 O.2   1 <1>  -0.6500 
  4 N       -1.3580    -0.3530    -0.1720 N.am  1 <1>  -0.8490 
  5 C        1.2170     0.6810    -0.3420 C.2   1 <1>  -0.0630 
  6 C       -0.8980    -1.6720    -0.6610 C.3   1 <1>   0.1960 
  7 C       -2.7960    -0.1690    -0.3880 C.3   1 <1>   0.1960 
  8 C        2.2030    -0.1070    -0.8080 C.2   1 <1>  -0.0400 
  9 C        1.8320     1.2890     0.7360 C.2   1 <1>   0.1080 
 10 C       -1.6330    -2.8800    -0.0520 C.3   1 <1>  -0.1060 
 11 C       -3.6090    -1.2760     0.2830 C.3   1 <1>  -0.1600 
 12 O        3.3040     0.0080    -0.0960 O.3   1 <1>  -0.0190 
 13 C        2.2340    -1.0740    -1.9800 C.3   1 <1>  -0.0600 
 14 N        3.0410     0.8800     0.8490 N.2   1 <1>  -0.4100 
 15 C        1.2170     2.2990     1.6840 C.3   1 <1>  -0.0590 
 16 C       -1.2860    -4.0990    -0.9060 C.2   1 <1>   0.9060 
 17 C       -3.1450    -2.6310    -0.2320 C.3   1 <1>   0.2000 
 18 C       -1.1610    -3.2160     1.4010 C.3   1 <1>  -0.0650 
 19 O       -0.2880    -4.0670    -1.6370 O.co2 1 <1>  -0.9000 
 20 O       -2.0100    -5.1020    -0.8370 O.co2 1 <1>  -0.9000 
 21 O       -3.8840    -3.6230     0.3770 O.3   1 <1>  -0.6800 
 22 C       -0.8400    -2.0580     2.3600 C.3   1 <1>  -0.1950 
 23 C        0.5500    -1.5170     2.4820 C.3   1 <1>  -0.2000 
 24 C       -0.0390    -2.3370     3.5920 C.3   1 <1>  -0.2000 
 25 H       -1.0140    -1.7040    -1.7340 H     1 <1>   0.0800 
 26 H        0.1470    -1.7970    -0.4440 H     1 <1>   0.0800 
 27 H       -3.1030     0.7800     0.0210 H     1 <1>   0.0800 
 28 H       -3.0030    -0.1610    -1.4460 H     1 <1>   0.0800 
 29 H       -4.6470    -1.1440     0.0390 H     1 <1>   0.0800 
 30 H       -3.5060    -1.2180     1.3480 H     1 <1>   0.0800 
 31 H        1.3210    -1.0410    -2.5440 H     1 <1>   0.0800 
 32 H        2.3730    -2.0800    -1.6220 H     1 <1>   0.0800 
 33 H        3.0480    -0.8260    -2.6370 H     1 <1>   0.0800 
 34 H        0.2850     1.9270     2.0700 H     1 <1>   0.0800 
 35 H        1.0380     3.2240     1.1670 H     1 <1>   0.0800 
 36 H        1.8820     2.4850     2.5080 H     1 <1>   0.0800 
 37 H       -3.3730    -2.6880    -1.2840 H     1 <1>   0.0800 
 38 H       -1.8890    -3.8510     1.8720 H     1 <1>   0.0800 
 39 H       -0.2670    -3.8110     1.3210 H     1 <1>   0.0800 
 40 H       -3.4660    -4.4780     0.0710 H     1 <1>   0.4000 
 41 H       -1.6500    -1.3630     2.4720 H     1 <1>   0.1000 
 42 H        1.3310    -1.9420     1.8740 H     1 <1>   0.1000 
 43 H        0.6840    -0.4650     2.6450 H     1 <1>   0.1000 
 44 H       -0.3200    -1.8480     4.5080 H     1 <1>   0.1000 
 45 H        0.3420    -3.3310     3.7540 H     1 <1>   0.1000 
@<TRIPOS>BOND
  1   1   2  2   
  2   1   3  2   
  3   1   4  am  
  4   1   5  1   
  5   4   6  1   
  6   4   7  1   
  7   5   8  2   
  8   5   9  1   
  9   6  10  1   
 10   6  25  1   
 11   6  26  1   
 12   7  11  1   
 13   7  27  1   
 14   7  28  1   
 15   8  12  1   
 16   8  13  1   
 17   9  14  2   
 18   9  15  1   
 19  10  16  1   
 20  10  17  1   
 21  10  18  1   
 22  11  17  1   
 23  11  29  1   
 24  11  30  1   
 25  12  14  1   
 26  13  31  1   
 27  13  32  1   
 28  13  33  1   
 29  15  34  1   
 30  15  35  1   
 31  15  36  1   
 32  16  19  ar  
 33  16  20  ar  
 34  17  21  1   
 35  17  37  1   
 36  18  22  1   
 37  18  38  1   
 38  18  39  1   
 39  21  40  1   
 40  22  23  1   
 41  22  24  1   
 42  22  41  1   
 43  23  24  1   
 44  23  42  1   
 45  23  43  1   
 46  24  44  1   
 47  24  45  1   
@<TRIPOS>SUBSTRUCTURE
  1 ****   6 GROUP 4 **** **** 0

# MOE 2024.06 (io_trps.svl 2023.06)
