@<TRIPOS>MOLECULE
NONAME
44 45 1 0 0 
SMALL
USER_CHARGES


@<TRIPOS>ATOM
  1 O        0.1490     0.5690     0.5560 O.3   1 <1>  -0.3630 
  2 C        0.0720     1.8340     0.1510 C.ar  1 <1>   0.3920 
  3 C       -0.6340    -0.4740     0.0060 C.3   1 <1>   0.0400 
  4 N       -0.7770     2.1530    -0.8230 N.ar  1 <1>  -0.6200 
  5 C        0.8880     2.7560     0.7700 C.ar  1 <1>  -0.1500 
  6 C       -0.8100     3.4140    -1.1690 C.ar  1 <1>   0.7710 
  7 C        0.8410     4.0740     0.3760 C.ar  1 <1>   0.4610 
  8 N       -0.0380     4.3640    -0.6020 N.ar  1 <1>  -0.1790 
  9 N       -1.6660     3.7420    -2.1360 N.pl3 1 <1>  -0.9000 
 10 N        1.6280     5.0270     0.9510 N.pl3 1 <1>  -0.8690 
 11 C        1.9080     6.4620     0.5880 C.3   1 <1>   0.2090 
 12 C        3.4330     6.8060     0.5800 C.3   1 <1>   0.4230 
 13 N        3.7350     8.2600     0.2880 N.4   1 <1>  -0.9590 
 14 C        4.1630     5.9260    -0.4530 C.3   1 <1>  -0.1600 
 15 C        5.2120     8.5260     0.3380 C.3   1 <1>   0.3430 
 16 C        3.0380     9.2250     1.1910 C.3   1 <1>   0.3430 
 17 C        5.6710     6.1900    -0.4970 C.3   1 <1>  -0.1600 
 18 C        5.9390     7.6810    -0.7060 C.3   1 <1>  -0.1600 
 19 C        3.0010    10.6040     0.5420 C.3   1 <1>  -0.2400 
 20 H       -0.3790    -1.3900     0.5080 H     1 <1>   0.0800 
 21 H       -0.4170    -0.5580    -1.0450 H     1 <1>   0.0800 
 22 H       -1.6750    -0.2480     0.1580 H     1 <1>   0.0800 
 23 H        1.5510     2.4290     1.5500 H     1 <1>   0.1500 
 24 H       -0.1800     5.3120    -0.9070 H     1 <1>   0.4570 
 25 H       -1.8620     4.6530    -2.5530 H     1 <1>   0.4000 
 26 H       -2.2300     2.9840    -2.5360 H     1 <1>   0.4000 
 27 H        2.1250     4.7280     1.8070 H     1 <1>   0.4000 
 28 H        1.4060     7.0770     1.3130 H     1 <1>   0.0800 
 29 H        1.4990     6.6770    -0.3840 H     1 <1>   0.0800 
 30 H        3.8260     6.5760     1.5570 H     1 <1>   0.0800 
 31 H        3.4470     8.4610    -0.6780 H     1 <1>   0.4500 
 32 H        3.7440     6.0890    -1.4310 H     1 <1>   0.0800 
 33 H        4.0170     4.8860    -0.2140 H     1 <1>   0.0800 
 34 H        5.5950     8.2910     1.3180 H     1 <1>   0.0800 
 35 H        5.4140     9.5660     0.1420 H     1 <1>   0.0800 
 36 H        3.5410     9.2770     2.1450 H     1 <1>   0.0800 
 37 H        2.0220     8.9140     1.3660 H     1 <1>   0.0800 
 38 H        6.1220     5.6230    -1.2950 H     1 <1>   0.0800 
 39 H        6.1240     5.8680     0.4270 H     1 <1>   0.0800 
 40 H        6.9980     7.8650    -0.6290 H     1 <1>   0.0800 
 41 H        5.6340     7.9820    -1.6930 H     1 <1>   0.0800 
 42 H        3.9840    11.0260     0.4400 H     1 <1>   0.0800 
 43 H        2.4310    11.2700     1.1680 H     1 <1>   0.0800 
 44 H        2.5200    10.5670    -0.4200 H     1 <1>   0.0800 
@<TRIPOS>BOND
  1   1   2  1   
  2   1   3  1   
  3   2   4  ar  
  4   2   5  ar  
  5   3  20  1   
  6   3  21  1   
  7   3  22  1   
  8   4   6  ar  
  9   5   7  ar  
 10   5  23  1   
 11   6   8  ar  
 12   6   9  1   
 13   7   8  ar  
 14   7  10  1   
 15   8  24  1   
 16   9  25  1   
 17   9  26  1   
 18  10  11  1   
 19  10  27  1   
 20  11  12  1   
 21  11  28  1   
 22  11  29  1   
 23  12  13  1   
 24  12  14  1   
 25  12  30  1   
 26  13  15  1   
 27  13  16  1   
 28  13  31  1   
 29  14  17  1   
 30  14  32  1   
 31  14  33  1   
 32  15  18  1   
 33  15  34  1   
 34  15  35  1   
 35  16  19  1   
 36  16  36  1   
 37  16  37  1   
 38  17  18  1   
 39  17  38  1   
 40  17  39  1   
 41  18  40  1   
 42  18  41  1   
 43  19  42  1   
 44  19  43  1   
 45  19  44  1   
@<TRIPOS>SUBSTRUCTURE
  1 ****  10 GROUP 4 **** **** 0

# MOE 2024.06 (io_trps.svl 2023.06)
