@<TRIPOS>MOLECULE
NONAME
40 42 1 0 0 
SMALL
USER_CHARGES


@<TRIPOS>ATOM
  1 O        0.3980    -0.5730     1.9070 O.2   1 <1>  -0.5700 
  2 C        1.3830    -1.0110     1.3390 C.2   1 <1>   0.7160 
  3 N        1.5080    -2.3480     1.1450 N.am  1 <1>  -0.4900 
  4 C        2.4480    -0.2230     0.8350 C.2   1 <1>  -0.0860 
  5 C        2.5800    -2.9000     0.4880 C.2   1 <1>   0.4490 
  6 C        3.4820    -0.8380     0.1990 C.2   1 <1>  -0.0260 
  7 C        2.7710     1.1320     0.7980 C.2   1 <1>   0.1390 
  8 N        3.5550    -2.2050     0.0130 N.2   1 <1>  -0.5760 
  9 C        2.5540    -4.4230     0.3470 C.3   1 <1>   0.1710 
 10 N        4.3440     0.1350    -0.1760 N.pl3 1 <1>   0.3140 
 11 N        3.8990     1.3580     0.1970 N.2   1 <1>  -0.7070 
 12 N        1.1750    -4.9860     0.3450 N.3   1 <1>  -0.8100 
 13 C        5.6100    -0.0380    -0.8970 C.3   1 <1>   0.0160 
 14 C        1.1930    -6.4370     0.6700 C.3   1 <1>   0.1100 
 15 C        0.4740    -4.7170    -0.9190 C.3   1 <1>   0.1100 
 16 C       -0.1300    -7.1710     0.3460 C.3   1 <1>   0.2000 
 17 C       -1.0170    -5.0690    -0.7820 C.3   1 <1>  -0.1600 
 18 O        0.0030    -7.8280    -0.8680 O.3   1 <1>  -0.6800 
 19 C       -1.3110    -6.1880     0.2490 C.3   1 <1>  -0.0800 
 20 C       -2.6330    -6.9200    -0.0330 C.3   1 <1>   0.1200 
 21 O       -3.6760    -6.0070    -0.0630 O.3   1 <1>  -0.6800 
 22 H        0.7480    -2.9650     1.4260 H     1 <1>   0.3700 
 23 H        2.1510     1.9060     1.2210 H     1 <1>   0.1500 
 24 H        3.0980    -4.8260     1.1830 H     1 <1>   0.0800 
 25 H        3.0730    -4.7090    -0.5520 H     1 <1>   0.0800 
 26 H        5.9110    -1.0680    -0.8500 H     1 <1>   0.0800 
 27 H        6.3590     0.5820    -0.4400 H     1 <1>   0.0800 
 28 H        5.4710     0.2570    -1.9190 H     1 <1>   0.0800 
 29 H        2.0030    -6.9290     0.1570 H     1 <1>   0.0800 
 30 H        1.3750    -6.5300     1.7270 H     1 <1>   0.0800 
 31 H        0.5650    -3.6770    -1.1900 H     1 <1>   0.0800 
 32 H        0.9220    -5.3010    -1.7050 H     1 <1>   0.0800 
 33 H       -0.3160    -7.9260     1.0900 H     1 <1>   0.0800 
 34 H       -1.5590    -4.1850    -0.4950 H     1 <1>   0.0800 
 35 H       -1.3850    -5.3540    -1.7520 H     1 <1>   0.0800 
 36 H        0.0730    -7.1670    -1.5820 H     1 <1>   0.4000 
 37 H       -1.3940    -5.7290     1.2190 H     1 <1>   0.0800 
 38 H       -2.8430    -7.6490     0.7310 H     1 <1>   0.0800 
 39 H       -2.6030    -7.4160    -0.9890 H     1 <1>   0.0800 
 40 H       -3.7500    -5.5390     0.7910 H     1 <1>   0.4000 
@<TRIPOS>BOND
  1   1   2  2   
  2   2   3  am  
  3   2   4  1   
  4   3   5  1   
  5   3  22  1   
  6   4   6  2   
  7   4   7  1   
  8   5   8  2   
  9   5   9  1   
 10   6   8  1   
 11   6  10  1   
 12   7  11  2   
 13   7  23  1   
 14   9  12  1   
 15   9  24  1   
 16   9  25  1   
 17  10  11  1   
 18  10  13  1   
 19  12  14  1   
 20  12  15  1   
 21  13  26  1   
 22  13  27  1   
 23  13  28  1   
 24  14  16  1   
 25  14  29  1   
 26  14  30  1   
 27  15  17  1   
 28  15  31  1   
 29  15  32  1   
 30  16  18  1   
 31  16  19  1   
 32  16  33  1   
 33  17  19  1   
 34  17  34  1   
 35  17  35  1   
 36  18  36  1   
 37  19  20  1   
 38  19  37  1   
 39  20  21  1   
 40  20  38  1   
 41  20  39  1   
 42  21  40  1   
@<TRIPOS>SUBSTRUCTURE
  1 ****   3 GROUP 4 **** **** 0

# MOE 2024.06 (io_trps.svl 2023.06)
