@<TRIPOS>MOLECULE
NONAME
39 40 1 0 0 
SMALL
USER_CHARGES


@<TRIPOS>ATOM
  1 O        2.9850    -0.5270    -2.1470 O.2   1 <1>  -0.5700 
  2 C        2.1850    -0.8340    -1.2950 C.2   1 <1>   0.5690 
  3 N        1.7470     0.0130    -0.3180 N.am  1 <1>  -0.4940 
  4 C        1.6130    -2.2490    -1.3030 C.3   1 <1>   0.1810 
  5 C        1.9700     1.3910    -0.0850 C.2   1 <1>  -0.0880 
  6 O        0.6420    -2.4150    -0.2950 O.3   1 <1>  -0.5600 
  7 N        3.1520     2.0790    -0.1490 N.pl3 1 <1>   0.3140 
  8 C        1.0200     2.2870     0.2760 C.2   1 <1>  -0.1810 
  9 C        0.0840    -3.6850    -0.2560 C.3   1 <1>   0.1200 
 10 N        2.9560     3.3920     0.1550 N.2   1 <1>  -0.7070 
 11 C        4.5170     1.5270    -0.4340 C.3   1 <1>   0.1760 
 12 C        1.6900     3.4960     0.4030 C.2   1 <1>   0.1390 
 13 C       -0.4660     2.0750     0.4970 C.3   1 <1>  -0.0590 
 14 C       -0.9370    -3.7010     0.8750 C.3   1 <1>  -0.2400 
 15 C        4.9230     0.3990     0.5300 C.3   1 <1>  -0.1600 
 16 C        5.6570     2.5470    -0.3200 C.3   1 <1>  -0.1600 
 17 C        6.4320     0.5430     0.7770 C.3   1 <1>  -0.1600 
 18 C        6.9030     1.6920    -0.1130 C.3   1 <1>  -0.1600 
 19 H        1.0140    -0.4220     0.2530 H     1 <1>   0.3700 
 20 H        2.4100    -2.9510    -1.1360 H     1 <1>   0.0800 
 21 H        1.1570    -2.4370    -2.2580 H     1 <1>   0.0800 
 22 H        0.8650    -4.4050    -0.0720 H     1 <1>   0.0800 
 23 H       -0.3920    -3.8890    -1.2000 H     1 <1>   0.0800 
 24 H        4.5230     1.1530    -1.4390 H     1 <1>   0.0800 
 25 H        1.2200     4.4250     0.6770 H     1 <1>   0.1500 
 26 H       -0.7530     1.0750     0.2300 H     1 <1>   0.0800 
 27 H       -1.0250     2.7650    -0.1090 H     1 <1>   0.0800 
 28 H       -0.7080     2.2420     1.5310 H     1 <1>   0.0800 
 29 H       -0.4560    -3.4850     1.8120 H     1 <1>   0.0800 
 30 H       -1.3930    -4.6720     0.9390 H     1 <1>   0.0800 
 31 H       -1.7060    -2.9730     0.6890 H     1 <1>   0.0800 
 32 H        4.7030    -0.5580     0.0930 H     1 <1>   0.0800 
 33 H        4.3960     0.4950     1.4640 H     1 <1>   0.0800 
 34 H        5.5170     3.1690     0.5480 H     1 <1>   0.0800 
 35 H        5.7280     3.1630    -1.2000 H     1 <1>   0.0800 
 36 H        6.9610    -0.3670     0.5490 H     1 <1>   0.0800 
 37 H        6.6020     0.7950     1.8100 H     1 <1>   0.0800 
 38 H        7.7050     2.2510     0.3370 H     1 <1>   0.0800 
 39 H        7.2310     1.3030    -1.0620 H     1 <1>   0.0800 
@<TRIPOS>BOND
  1   1   2  2   
  2   2   3  am  
  3   2   4  1   
  4   3   5  1   
  5   3  19  1   
  6   4   6  1   
  7   4  20  1   
  8   4  21  1   
  9   5   7  1   
 10   5   8  2   
 11   6   9  1   
 12   7  10  1   
 13   7  11  1   
 14   8  12  1   
 15   8  13  1   
 16   9  14  1   
 17   9  22  1   
 18   9  23  1   
 19  10  12  2   
 20  11  15  1   
 21  11  16  1   
 22  11  24  1   
 23  12  25  1   
 24  13  26  1   
 25  13  27  1   
 26  13  28  1   
 27  14  29  1   
 28  14  30  1   
 29  14  31  1   
 30  15  17  1   
 31  15  32  1   
 32  15  33  1   
 33  16  18  1   
 34  16  34  1   
 35  16  35  1   
 36  17  18  1   
 37  17  36  1   
 38  17  37  1   
 39  18  38  1   
 40  18  39  1   
@<TRIPOS>SUBSTRUCTURE
  1 ****   3 GROUP 4 **** **** 0

# MOE 2024.06 (io_trps.svl 2023.06)
