@<TRIPOS>MOLECULE
NONAME
49 50 1 0 0 
SMALL
USER_CHARGES


@<TRIPOS>ATOM
  1 O       -0.2020     1.1410     1.2050 O.2   1 <1>  -0.5700 
  2 C       -0.1250     2.2650     0.7650 C.2   1 <1>   0.5690 
  3 N       -1.2060     3.1110     0.7550 N.am  1 <1>  -0.6600 
  4 C        1.2150     2.7320     0.2130 C.3   1 <1>  -0.0990 
  5 C       -2.5470     2.6560     1.2350 C.3   1 <1>   0.1400 
  6 C       -1.2030     4.5100     0.2440 C.3   1 <1>   0.1400 
  7 C        2.3280     1.6660     0.2710 C.3   1 <1>  -0.0990 
  8 C       -3.6120     2.7470     0.1140 C.3   1 <1>   0.0000 
  9 C       -2.2180     4.6420    -0.8950 C.3   1 <1>  -0.1600 
 10 C        3.6720     2.1440    -0.2650 C.2   1 <1>   0.5690 
 11 C       -4.9750     2.3090     0.6900 C.3   1 <1>   0.2000 
 12 C       -3.6210     4.1840    -0.4620 C.3   1 <1>  -0.1600 
 13 C       -3.3480     1.6850    -0.9690 C.3   1 <1>  -0.1600 
 14 O        3.7230     3.2320    -0.7920 O.2   1 <1>  -0.5700 
 15 N        4.7870     1.3480    -0.1400 N.am  1 <1>  -0.6600 
 16 O       -6.0060     2.7600    -0.1420 O.3   1 <1>  -0.5600 
 17 C       -4.9520     0.7760     0.6500 C.3   1 <1>  -0.1600 
 18 C       -3.9430     0.3790    -0.4360 C.3   1 <1>  -0.1600 
 19 C        6.1250     1.8160    -0.5990 C.3   1 <1>   0.0600 
 20 C        4.7990    -0.0190     0.4550 C.3   1 <1>   0.0600 
 21 C       -7.2500     2.8880     0.4710 C.3   1 <1>   0.0400 
 22 H        1.0730     3.0270    -0.8110 H     1 <1>   0.0800 
 23 H        1.5320     3.5920     0.7740 H     1 <1>   0.0800 
 24 H       -2.4880     1.6480     1.6050 H     1 <1>   0.0800 
 25 H       -2.8410     3.2830     2.0580 H     1 <1>   0.0800 
 26 H       -1.4740     5.1740     1.0470 H     1 <1>   0.0800 
 27 H       -0.2310     4.8020    -0.1100 H     1 <1>   0.0800 
 28 H        2.0200     0.8110    -0.3030 H     1 <1>   0.0800 
 29 H        2.4580     1.3610     1.2930 H     1 <1>   0.0800 
 30 H       -2.2600     5.6680    -1.2150 H     1 <1>   0.0800 
 31 H       -1.8830     4.0550    -1.7320 H     1 <1>   0.0800 
 32 H       -5.1300     2.6980     1.6830 H     1 <1>   0.0800 
 33 H       -4.2870     4.2400    -1.3060 H     1 <1>   0.0800 
 34 H       -3.9950     4.8580     0.2880 H     1 <1>   0.0800 
 35 H       -3.8770     1.9580    -1.8670 H     1 <1>   0.0800 
 36 H       -2.3040     1.5800    -1.2060 H     1 <1>   0.0800 
 37 H       -4.6090     0.4030     1.5990 H     1 <1>   0.0800 
 38 H       -5.9250     0.3620     0.4520 H     1 <1>   0.0800 
 39 H       -3.1650    -0.2310    -0.0080 H     1 <1>   0.0800 
 40 H       -4.4200    -0.1690    -1.2290 H     1 <1>   0.0800 
 41 H        6.4730     1.1900    -1.4020 H     1 <1>   0.0800 
 42 H        6.8260     1.7710     0.2170 H     1 <1>   0.0800 
 43 H        6.0800     2.8310    -0.9530 H     1 <1>   0.0800 
 44 H        5.3770    -0.6800    -0.1680 H     1 <1>   0.0800 
 45 H        3.8070    -0.4230     0.5400 H     1 <1>   0.0800 
 46 H        5.2450     0.0190     1.4330 H     1 <1>   0.0800 
 47 H       -7.9570     3.2070    -0.2740 H     1 <1>   0.0800 
 48 H       -7.1850     3.6280     1.2500 H     1 <1>   0.0800 
 49 H       -7.5530     1.9380     0.8750 H     1 <1>   0.0800 
@<TRIPOS>BOND
  1   1   2  2   
  2   2   3  am  
  3   2   4  1   
  4   3   5  1   
  5   3   6  1   
  6   4   7  1   
  7   4  22  1   
  8   4  23  1   
  9   5   8  1   
 10   5  24  1   
 11   5  25  1   
 12   6   9  1   
 13   6  26  1   
 14   6  27  1   
 15   7  10  1   
 16   7  28  1   
 17   7  29  1   
 18   8  11  1   
 19   8  12  1   
 20   8  13  1   
 21   9  12  1   
 22   9  30  1   
 23   9  31  1   
 24  10  14  2   
 25  10  15  am  
 26  11  16  1   
 27  11  17  1   
 28  11  32  1   
 29  12  33  1   
 30  12  34  1   
 31  13  18  1   
 32  13  35  1   
 33  13  36  1   
 34  15  19  1   
 35  15  20  1   
 36  16  21  1   
 37  17  18  1   
 38  17  37  1   
 39  17  38  1   
 40  18  39  1   
 41  18  40  1   
 42  19  41  1   
 43  19  42  1   
 44  19  43  1   
 45  20  44  1   
 46  20  45  1   
 47  20  46  1   
 48  21  47  1   
 49  21  48  1   
 50  21  49  1   
@<TRIPOS>SUBSTRUCTURE
  1 ****   2 GROUP 4 **** **** 0

# MOE 2024.06 (io_trps.svl 2023.06)
