@<TRIPOS>MOLECULE
NONAME
50 52 1 0 0 
SMALL
USER_CHARGES


@<TRIPOS>ATOM
  1 S        0.8720     0.2170     0.1830 S.o2  1 <1>   1.3330 
  2 O        0.5780    -0.7240    -0.8740 O.2   1 <1>  -0.6500 
  3 O        1.1850    -0.2700     1.5080 O.2   1 <1>  -0.6500 
  4 N       -0.4260     1.3030     0.3170 N.am  1 <1>  -0.8490 
  5 C        2.2080     1.2680    -0.3800 C.3   1 <1>  -0.0550 
  6 C       -1.7180     0.6670     0.0430 C.3   1 <1>   0.1160 
  7 C       -0.4740     2.0010     1.6060 C.3   1 <1>   0.1160 
  8 C        3.5070     0.4910    -0.6720 C.3   1 <1>  -0.0800 
  9 C        4.6320     1.3200    -1.2760 C.3   1 <1>   0.2200 
 10 C        4.1670    -0.1420     0.5620 C.3   1 <1>   0.1200 
 11 N        4.7320     2.6420    -0.6130 N.am  1 <1>  -0.7300 
 12 C        5.8370     0.4850    -0.8690 C.3   1 <1>   0.1200 
 13 O        5.5450     0.0660     0.4280 O.3   1 <1>  -0.5600 
 14 C        4.3000     3.8110    -1.1370 C.2   1 <1>   0.5690 
 15 O        3.7260     3.8600    -2.1960 O.2   1 <1>  -0.5700 
 16 C        4.5300     5.0870    -0.3650 C.3   1 <1>  -0.0990 
 17 C        5.0610     6.1880    -1.2890 C.3   1 <1>   0.0960 
 18 N        5.3460     7.4040    -0.5090 N.pl3 1 <1>   0.0480 
 19 C        6.4440     7.6460     0.2550 C.ar  1 <1>  -0.1520 
 20 C        4.5280     8.4700    -0.3120 C.2   1 <1>   0.0360 
 21 C        6.2040     8.8610     0.8710 C.ar  1 <1>   0.2270 
 22 C        7.6300     6.9420     0.4880 C.ar  1 <1>  -0.1500 
 23 N        4.9930     9.3570     0.4960 N.2   1 <1>  -0.5650 
 24 C        7.1500     9.4010     1.7410 C.ar  1 <1>  -0.1500 
 25 C        8.5590     7.4830     1.3490 C.ar  1 <1>  -0.1500 
 26 C        8.3190     8.7120     1.9770 C.ar  1 <1>  -0.1500 
 27 H        1.8990     1.7650    -1.2790 H     1 <1>   0.0800 
 28 H        2.3950     2.0200     0.3600 H     1 <1>   0.0800 
 29 H       -2.5140     1.3880     0.1210 H     1 <1>   0.0800 
 30 H       -1.8960    -0.1360     0.7390 H     1 <1>   0.0800 
 31 H       -1.7270     0.2660    -0.9570 H     1 <1>   0.0800 
 32 H       -1.2570     2.7400     1.5980 H     1 <1>   0.0800 
 33 H        0.4610     2.4980     1.7940 H     1 <1>   0.0800 
 34 H       -0.6600     1.3010     2.4060 H     1 <1>   0.0800 
 35 H        3.2760    -0.3050    -1.3600 H     1 <1>   0.0800 
 36 H        4.5460     1.4300    -2.3450 H     1 <1>   0.0800 
 37 H        3.9780    -1.2020     0.6160 H     1 <1>   0.0800 
 38 H        3.8530     0.3270     1.4780 H     1 <1>   0.0800 
 39 H        5.1800     2.5980     0.3070 H     1 <1>   0.3700 
 40 H        6.7570     1.0420    -0.8750 H     1 <1>   0.0800 
 41 H        5.9290    -0.3890    -1.4900 H     1 <1>   0.0800 
 42 H        3.5940     5.3960     0.0640 H     1 <1>   0.0800 
 43 H        5.2340     4.9060     0.4260 H     1 <1>   0.0800 
 44 H        4.3350     6.4200    -2.0480 H     1 <1>   0.0800 
 45 H        5.9670     5.8650    -1.7720 H     1 <1>   0.0800 
 46 H        3.5720     8.5430    -0.8000 H     1 <1>   0.1500 
 47 H        7.8110     6.0010     0.0000 H     1 <1>   0.1500 
 48 H        6.9380    10.3450     2.2070 H     1 <1>   0.1500 
 49 H        9.4810     6.9660     1.5480 H     1 <1>   0.1500 
 50 H        9.0600     9.1140     2.6460 H     1 <1>   0.1500 
@<TRIPOS>BOND
  1   1   2  2   
  2   1   3  2   
  3   1   4  am  
  4   1   5  1   
  5   4   6  1   
  6   4   7  1   
  7   5   8  1   
  8   5  27  1   
  9   5  28  1   
 10   6  29  1   
 11   6  30  1   
 12   6  31  1   
 13   7  32  1   
 14   7  33  1   
 15   7  34  1   
 16   8   9  1   
 17   8  10  1   
 18   8  35  1   
 19   9  11  1   
 20   9  12  1   
 21   9  36  1   
 22  10  13  1   
 23  10  37  1   
 24  10  38  1   
 25  11  14  am  
 26  11  39  1   
 27  12  13  1   
 28  12  40  1   
 29  12  41  1   
 30  14  15  2   
 31  14  16  1   
 32  16  17  1   
 33  16  42  1   
 34  16  43  1   
 35  17  18  1   
 36  17  44  1   
 37  17  45  1   
 38  18  19  1   
 39  18  20  1   
 40  19  21  ar  
 41  19  22  ar  
 42  20  23  2   
 43  20  46  1   
 44  21  23  1   
 45  21  24  ar  
 46  22  25  ar  
 47  22  47  1   
 48  24  26  ar  
 49  24  48  1   
 50  25  26  ar  
 51  25  49  1   
 52  26  50  1   
@<TRIPOS>SUBSTRUCTURE
  1 ****  14 GROUP 4 **** **** 0

# MOE 2024.06 (io_trps.svl 2023.06)
