@<TRIPOS>MOLECULE
NONAME
54 56 1 0 0 
SMALL
USER_CHARGES


@<TRIPOS>ATOM
  1 O       -0.5300    -2.8380     1.5180 O.2   1 <1>  -0.5700 
  2 C        0.4550    -2.4250     0.9280 C.2   1 <1>   0.6900 
  3 N        0.7060    -2.8570    -0.3510 N.am  1 <1>  -0.6600 
  4 N        1.3050    -1.5420     1.5540 N.am  1 <1>  -0.6600 
  5 C        2.0590    -3.3130    -0.7570 C.3   1 <1>   0.1400 
  6 C       -0.3980    -3.3710    -1.1980 C.3   1 <1>   0.1400 
  7 C        2.0130    -0.4600     0.8200 C.3   1 <1>   0.0600 
  8 C        1.2640    -1.3690     3.0300 C.3   1 <1>   0.0600 
  9 C        2.1060    -4.8430    -0.7210 C.3   1 <1>  -0.1600 
 10 C       -0.3920    -4.9000    -1.1660 C.3   1 <1>  -0.1600 
 11 C        0.9820    -5.4720    -1.5690 C.3   1 <1>  -0.0190 
 12 C        0.9850    -6.9940    -1.4810 C.2   1 <1>   0.5690 
 13 O        1.0620    -7.6440    -2.4950 O.2   1 <1>  -0.5700 
 14 N        0.8730    -7.5840    -0.2660 N.am  1 <1>  -0.7300 
 15 C        0.8040    -9.0420    -0.0240 C.3   1 <1>   0.2200 
 16 C       -0.5990    -9.4590     0.3950 C.3   1 <1>  -0.0800 
 17 C        1.5840    -9.3710     1.2410 C.3   1 <1>   0.1200 
 18 C       -0.6050    -9.1770     1.9020 C.3   1 <1>   0.1200 
 19 C       -1.7560    -8.7980    -0.3770 C.3   1 <1>  -0.0170 
 20 O        0.7310    -9.0440     2.2950 O.3   1 <1>  -0.5600 
 21 C       -3.0990    -9.3450     0.0810 C.ar  1 <1>  -0.1440 
 22 C       -3.5880   -10.5500    -0.3800 C.ar  1 <1>  -0.1500 
 23 C       -3.8960    -8.6670     0.9810 C.ar  1 <1>  -0.1500 
 24 C       -4.8140   -11.0090     0.0720 C.ar  1 <1>   0.1600 
 25 C       -5.1070    -9.2150     1.3690 C.ar  1 <1>   0.1600 
 26 N       -5.5850   -10.3710     0.9380 N.ar  1 <1>  -0.6200 
 27 H        2.2690    -2.9550    -1.7500 H     1 <1>   0.0800 
 28 H        2.8050    -2.9190    -0.0880 H     1 <1>   0.0800 
 29 H       -1.3430    -3.0000    -0.8380 H     1 <1>   0.0800 
 30 H       -0.2620    -3.0190    -2.2060 H     1 <1>   0.0800 
 31 H        3.0750    -0.5840     0.9280 H     1 <1>   0.0800 
 32 H        1.7250     0.4980     1.2170 H     1 <1>   0.0800 
 33 H        1.7590    -0.4830    -0.2260 H     1 <1>   0.0800 
 34 H        2.2560    -1.1950     3.4070 H     1 <1>   0.0800 
 35 H        0.8680    -2.2550     3.4980 H     1 <1>   0.0800 
 36 H        0.6330    -0.5340     3.2800 H     1 <1>   0.0800 
 37 H        3.0620    -5.1770    -1.0860 H     1 <1>   0.0800 
 38 H        2.0200    -5.1560     0.3040 H     1 <1>   0.0800 
 39 H       -0.6500    -5.2160    -0.1700 H     1 <1>   0.0800 
 40 H       -1.1480    -5.2720    -1.8350 H     1 <1>   0.0800 
 41 H        1.1590    -5.2110    -2.5980 H     1 <1>   0.0800 
 42 H        0.7920    -7.0130     0.5800 H     1 <1>   0.3700 
 43 H        1.1630    -9.5880    -0.8810 H     1 <1>   0.0800 
 44 H       -0.6760   -10.5250     0.2690 H     1 <1>   0.0800 
 45 H        2.4990    -8.8110     1.3250 H     1 <1>   0.0800 
 46 H        1.7910   -10.4250     1.2980 H     1 <1>   0.0800 
 47 H       -1.0580    -9.9800     2.4580 H     1 <1>   0.0800 
 48 H       -1.1030    -8.2510     2.1310 H     1 <1>   0.0800 
 49 H       -1.6340    -8.9840    -1.4310 H     1 <1>   0.0800 
 50 H       -1.7440    -7.7320    -0.2350 H     1 <1>   0.0800 
 51 H       -3.0290   -11.1350    -1.0870 H     1 <1>   0.1500 
 52 H       -3.5890    -7.7190     1.3850 H     1 <1>   0.1500 
 53 H       -5.1810   -11.9510    -0.2990 H     1 <1>   0.1500 
 54 H       -5.7160    -8.6720     2.0730 H     1 <1>   0.1500 
@<TRIPOS>BOND
  1   1   2  2   
  2   2   3  am  
  3   2   4  am  
  4   3   5  1   
  5   3   6  1   
  6   4   7  1   
  7   4   8  1   
  8   5   9  1   
  9   5  27  1   
 10   5  28  1   
 11   6  10  1   
 12   6  29  1   
 13   6  30  1   
 14   7  31  1   
 15   7  32  1   
 16   7  33  1   
 17   8  34  1   
 18   8  35  1   
 19   8  36  1   
 20   9  11  1   
 21   9  37  1   
 22   9  38  1   
 23  10  11  1   
 24  10  39  1   
 25  10  40  1   
 26  11  12  1   
 27  11  41  1   
 28  12  13  2   
 29  12  14  am  
 30  14  15  1   
 31  14  42  1   
 32  15  16  1   
 33  15  17  1   
 34  15  43  1   
 35  16  18  1   
 36  16  19  1   
 37  16  44  1   
 38  17  20  1   
 39  17  45  1   
 40  17  46  1   
 41  18  20  1   
 42  18  47  1   
 43  18  48  1   
 44  19  21  1   
 45  19  49  1   
 46  19  50  1   
 47  21  22  ar  
 48  21  23  ar  
 49  22  24  ar  
 50  22  51  1   
 51  23  25  ar  
 52  23  52  1   
 53  24  26  ar  
 54  24  53  1   
 55  25  26  ar  
 56  25  54  1   
@<TRIPOS>SUBSTRUCTURE
  1 ****  14 GROUP 4 **** **** 0

# MOE 2024.06 (io_trps.svl 2023.06)
