@<TRIPOS>MOLECULE
NONAME
48 49 1 0 0 
SMALL
USER_CHARGES


@<TRIPOS>ATOM
  1 O        0.2940     0.7550    -0.9060 O.co2 1 <1>  -0.9000 
  2 C       -0.7360     1.1060    -0.3360 C.2   1 <1>   0.9060 
  3 O       -1.3290     0.4180     0.5000 O.co2 1 <1>  -0.9000 
  4 C       -1.1870     2.5090    -0.6010 C.3   1 <1>  -0.1860 
  5 C       -2.5340     2.8710     0.0260 C.3   1 <1>   0.2000 
  6 C       -0.0720     3.3630    -0.0380 C.3   1 <1>   0.3430 
  7 O       -2.4690     2.6170     1.3770 O.3   1 <1>  -0.6800 
  8 C       -2.8120     4.3620    -0.1390 C.3   1 <1>  -0.1600 
  9 N       -0.3760     4.8150    -0.2460 N.4   1 <1>  -0.9590 
 10 C       -1.6570     5.1760     0.4420 C.3   1 <1>   0.3430 
 11 C        0.7870     5.6210     0.2400 C.3   1 <1>   0.3430 
 12 C        0.6970     7.0940    -0.1690 C.3   1 <1>   0.1200 
 13 O        1.8500     7.7380     0.3180 O.3   1 <1>  -0.3630 
 14 C        2.0540     9.0650     0.1070 C.ar  1 <1>   0.0820 
 15 C        1.1840     9.8820    -0.6120 C.ar  1 <1>  -0.1500 
 16 C        3.2060     9.6100     0.6520 C.ar  1 <1>  -0.1500 
 17 C        1.4770    11.2250    -0.7730 C.ar  1 <1>  -0.1500 
 18 C        3.4970    10.9530     0.4900 C.ar  1 <1>  -0.1500 
 19 C        2.6280    11.7700    -0.2280 C.ar  1 <1>   0.0820 
 20 O        2.8310    13.0960    -0.4370 O.3   1 <1>  -0.3620 
 21 C        3.9720    13.7470     0.0750 C.3   1 <1>   0.1200 
 22 C        3.9040    15.2200    -0.3320 C.3   1 <1>  -0.1600 
 23 C        5.1150    16.0010     0.1890 C.3   1 <1>  -0.2400 
 24 H       -1.2330     2.6250    -1.6660 H     1 <1>   0.0800 
 25 H       -3.3260     2.2670    -0.3880 H     1 <1>   0.0800 
 26 H        0.8530     3.0920    -0.5240 H     1 <1>   0.0800 
 27 H        0.0280     3.1520     1.0150 H     1 <1>   0.0800 
 28 H       -2.1860     1.6570     1.4520 H     1 <1>   0.4000 
 29 H       -2.9450     4.5990    -1.1790 H     1 <1>   0.0800 
 30 H       -3.7260     4.6080     0.3720 H     1 <1>   0.0800 
 31 H       -0.4890     4.9400    -1.2590 H     1 <1>   0.4500 
 32 H       -1.5750     4.9580     1.4960 H     1 <1>   0.0800 
 33 H       -1.8650     6.2260     0.3240 H     1 <1>   0.0800 
 34 H        0.8430     5.5560     1.3140 H     1 <1>   0.0800 
 35 H        1.6960     5.2130    -0.1710 H     1 <1>   0.0800 
 36 H       -0.1590     7.5710     0.2740 H     1 <1>   0.0800 
 37 H        0.6870     7.1930    -1.2400 H     1 <1>   0.0800 
 38 H        0.2830     9.5040    -1.0530 H     1 <1>   0.1500 
 39 H        3.8760     8.9770     1.2060 H     1 <1>   0.1500 
 40 H        0.8140    11.8660    -1.3260 H     1 <1>   0.1500 
 41 H        4.3980    11.3410     0.9260 H     1 <1>   0.1500 
 42 H        3.9670    13.6490     1.1460 H     1 <1>   0.0800 
 43 H        4.8460    13.2780    -0.3420 H     1 <1>   0.0800 
 44 H        3.8730    15.2880    -1.4060 H     1 <1>   0.0800 
 45 H        3.0030    15.6540     0.0660 H     1 <1>   0.0800 
 46 H        6.0270    15.5930    -0.2100 H     1 <1>   0.0800 
 47 H        5.1560    15.9590     1.2640 H     1 <1>   0.0800 
 48 H        5.0430    17.0320    -0.1100 H     1 <1>   0.0800 
@<TRIPOS>BOND
  1   1   2  ar  
  2   2   3  ar  
  3   2   4  1   
  4   4   5  1   
  5   4   6  1   
  6   4  24  1   
  7   5   7  1   
  8   5   8  1   
  9   5  25  1   
 10   6   9  1   
 11   6  26  1   
 12   6  27  1   
 13   7  28  1   
 14   8  10  1   
 15   8  29  1   
 16   8  30  1   
 17   9  10  1   
 18   9  11  1   
 19   9  31  1   
 20  10  32  1   
 21  10  33  1   
 22  11  12  1   
 23  11  34  1   
 24  11  35  1   
 25  12  13  1   
 26  12  36  1   
 27  12  37  1   
 28  13  14  1   
 29  14  15  ar  
 30  14  16  ar  
 31  15  17  ar  
 32  15  38  1   
 33  16  18  ar  
 34  16  39  1   
 35  17  19  ar  
 36  17  40  1   
 37  18  19  ar  
 38  18  41  1   
 39  19  20  1   
 40  20  21  1   
 41  21  22  1   
 42  21  42  1   
 43  21  43  1   
 44  22  23  1   
 45  22  44  1   
 46  22  45  1   
 47  23  46  1   
 48  23  47  1   
 49  23  48  1   
@<TRIPOS>SUBSTRUCTURE
  1 ****  12 GROUP 4 **** **** 0

# MOE 2024.06 (io_trps.svl 2023.06)
