@<TRIPOS>MOLECULE
NONAME
52 54 1 0 0 
SMALL
USER_CHARGES


@<TRIPOS>ATOM
  1 O        0.5670    -0.1650    -0.5690 O.2   1 <1>  -0.5700 
  2 C        1.2610    -1.0980    -0.2600 C.2   1 <1>   0.5690 
  3 N        0.8260    -2.0590     0.5810 N.am  1 <1>  -0.7300 
  4 C        2.6650    -1.2410    -0.8070 C.3   1 <1>  -0.0990 
  5 C        1.6720    -3.1870     1.0170 C.3   1 <1>   0.1400 
  6 C        2.9230    -2.7010    -1.2320 C.3   1 <1>  -0.0800 
  7 C        2.4480    -3.7510    -0.1950 C.3   1 <1>  -0.0800 
  8 C        4.4050    -2.9870    -1.5170 C.3   1 <1>  -0.1600 
  9 C        3.6980    -4.5420     0.2120 C.3   1 <1>  -0.1600 
 10 C        4.6440    -4.3940    -0.9790 C.3   1 <1>   0.4230 
 11 N        6.0910    -4.6920    -0.7130 N.4   1 <1>  -0.9590 
 12 C        6.6640    -4.2130     0.6220 C.3   1 <1>   0.4040 
 13 C        6.3240    -6.1620    -0.8580 C.3   1 <1>   0.2630 
 14 C        6.6810    -2.6960     0.8560 C.2   1 <1>   0.5690 
 15 O        5.7850    -2.2350     1.5170 O.2   1 <1>  -0.5700 
 16 N        7.6760    -1.9430     0.2830 N.am  1 <1>  -0.5470 
 17 C        7.8190    -0.5470     0.1830 C.ar  1 <1>   0.1170 
 18 C        9.0860    -0.0030    -0.0420 C.ar  1 <1>  -0.1440 
 19 C        6.7300     0.3160     0.2710 C.ar  1 <1>  -0.1500 
 20 C        9.2340     1.3680    -0.1750 C.ar  1 <1>  -0.1500 
 21 C       10.3310    -0.8780    -0.1390 C.3   1 <1>  -0.0970 
 22 C        6.8890     1.6810     0.1380 C.ar  1 <1>  -0.1500 
 23 C        8.1440     2.2170    -0.0890 C.ar  1 <1>  -0.1440 
 24 C        8.3270     3.7170    -0.2350 C.3   1 <1>  -0.0970 
 25 H       -0.1010    -1.9390     0.9970 H     1 <1>   0.3700 
 26 H        2.7920    -0.5770    -1.6430 H     1 <1>   0.0800 
 27 H        3.3460    -0.9430    -0.0300 H     1 <1>   0.0800 
 28 H        2.3550    -2.8210     1.7670 H     1 <1>   0.0800 
 29 H        1.0590    -3.9550     1.4580 H     1 <1>   0.0800 
 30 H        2.3600    -2.8700    -2.1370 H     1 <1>   0.0800 
 31 H        1.7820    -4.4250    -0.7080 H     1 <1>   0.0800 
 32 H        5.0100    -2.2570    -1.0180 H     1 <1>   0.0800 
 33 H        4.6010    -2.9360    -2.5730 H     1 <1>   0.0800 
 34 H        3.4550    -5.5730     0.4030 H     1 <1>   0.0800 
 35 H        4.1020    -4.0990     1.1000 H     1 <1>   0.0800 
 36 H        4.2900    -5.0670    -1.7450 H     1 <1>   0.0800 
 37 H        6.6070    -4.2110    -1.4630 H     1 <1>   0.4500 
 38 H        6.1030    -4.6540     1.4270 H     1 <1>   0.0800 
 39 H        7.6770    -4.5640     0.7160 H     1 <1>   0.0800 
 40 H        5.7800    -6.7050    -0.1010 H     1 <1>   0.0800 
 41 H        7.3730    -6.3910    -0.7600 H     1 <1>   0.0800 
 42 H        5.9920    -6.5010    -1.8270 H     1 <1>   0.0800 
 43 H        8.4940    -2.4310    -0.0730 H     1 <1>   0.3700 
 44 H        5.7420    -0.0640     0.4440 H     1 <1>   0.1500 
 45 H       10.2080     1.7920    -0.3470 H     1 <1>   0.1500 
 46 H       11.2180    -0.2730    -0.2160 H     1 <1>   0.0800 
 47 H       10.2800    -1.5040    -1.0110 H     1 <1>   0.0800 
 48 H       10.4270    -1.4880     0.7410 H     1 <1>   0.0800 
 49 H        6.0310     2.3270     0.2150 H     1 <1>   0.1500 
 50 H        7.4070     4.1840    -0.5360 H     1 <1>   0.0800 
 51 H        9.0750     3.9310    -0.9760 H     1 <1>   0.0800 
 52 H        8.6380     4.1380     0.7050 H     1 <1>   0.0800 
@<TRIPOS>BOND
  1   1   2  2   
  2   2   3  am  
  3   2   4  1   
  4   3   5  1   
  5   3  25  1   
  6   4   6  1   
  7   4  26  1   
  8   4  27  1   
  9   5   7  1   
 10   5  28  1   
 11   5  29  1   
 12   6   7  1   
 13   6   8  1   
 14   6  30  1   
 15   7   9  1   
 16   7  31  1   
 17   8  10  1   
 18   8  32  1   
 19   8  33  1   
 20   9  10  1   
 21   9  34  1   
 22   9  35  1   
 23  10  11  1   
 24  10  36  1   
 25  11  12  1   
 26  11  13  1   
 27  11  37  1   
 28  12  14  1   
 29  12  38  1   
 30  12  39  1   
 31  13  40  1   
 32  13  41  1   
 33  13  42  1   
 34  14  15  2   
 35  14  16  am  
 36  16  17  1   
 37  16  43  1   
 38  17  18  ar  
 39  17  19  ar  
 40  18  20  ar  
 41  18  21  1   
 42  19  22  ar  
 43  19  44  1   
 44  20  23  ar  
 45  20  45  1   
 46  21  46  1   
 47  21  47  1   
 48  21  48  1   
 49  22  23  ar  
 50  22  49  1   
 51  23  24  1   
 52  24  50  1   
 53  24  51  1   
 54  24  52  1   
@<TRIPOS>SUBSTRUCTURE
  1 ****  15 GROUP 4 **** **** 0

# MOE 2024.06 (io_trps.svl 2023.06)
