@<TRIPOS>MOLECULE
NONAME
45 47 1 0 0 
SMALL
USER_CHARGES


@<TRIPOS>ATOM
  1 O        0.1680    -1.2000    -0.3560 O.2   1 <1>  -0.5700 
  2 C       -0.4940    -1.9750     0.2940 C.2   1 <1>   0.5690 
  3 N       -1.8370    -1.8010     0.4730 N.am  1 <1>  -0.6600 
  4 C        0.1960    -3.2090     0.8540 C.3   1 <1>  -0.0990 
  5 C       -2.6650    -1.2670    -0.6360 C.3   1 <1>   0.1400 
  6 C       -2.6140    -2.2780     1.6480 C.3   1 <1>   0.1400 
  7 C        1.0210    -3.9270    -0.2350 C.3   1 <1>  -0.1600 
  8 C       -3.6110    -2.3770    -1.1130 C.3   1 <1>  -0.1600 
  9 C       -3.5810    -3.3790     1.2090 C.3   1 <1>  -0.1600 
 10 C        1.0530    -5.4530    -0.0700 C.3   1 <1>   0.0960 
 11 C       -4.4750    -2.9030     0.0480 C.3   1 <1>  -0.0800 
 12 N       -0.2750    -6.0600    -0.3210 N.pl3 1 <1>   0.3140 
 13 C       -5.4790    -3.9770    -0.4030 C.3   1 <1>   0.1400 
 14 N       -0.8750    -6.0320    -1.5160 N.2   1 <1>  -0.4180 
 15 C       -1.0180    -6.7740     0.5270 C.2   1 <1>  -0.3020 
 16 N       -4.8390    -5.2920    -0.6530 N.am  1 <1>  -0.7300 
 17 N       -1.9630    -6.7130    -1.4440 N.2   1 <1>  -0.2270 
 18 C       -2.0690    -7.1860    -0.1970 C.2   1 <1>   0.0460 
 19 C       -5.1080    -6.4160     0.0570 C.2   1 <1>   0.5690 
 20 C       -3.2120    -8.0860     0.2420 C.3   1 <1>   0.0210 
 21 O       -5.7970    -6.4060     1.0470 O.2   1 <1>  -0.5700 
 22 C       -4.5540    -7.7400    -0.4150 C.3   1 <1>  -0.0990 
 23 H       -0.5450    -3.8810     1.2390 H     1 <1>   0.0800 
 24 H        0.8340    -2.9130     1.6670 H     1 <1>   0.0800 
 25 H       -2.0370    -0.9470    -1.4510 H     1 <1>   0.0800 
 26 H       -3.2230    -0.4160    -0.2860 H     1 <1>   0.0800 
 27 H       -3.1690    -1.4490     2.0540 H     1 <1>   0.0800 
 28 H       -1.9570    -2.6390     2.4200 H     1 <1>   0.0800 
 29 H        2.0240    -3.5390    -0.2190 H     1 <1>   0.0800 
 30 H        0.6170    -3.7040    -1.2100 H     1 <1>   0.0800 
 31 H       -3.0240    -3.1780    -1.5310 H     1 <1>   0.0800 
 32 H       -4.2410    -1.9870    -1.8930 H     1 <1>   0.0800 
 33 H       -4.1940    -3.6730     2.0430 H     1 <1>   0.0800 
 34 H       -3.0060    -4.2380     0.9100 H     1 <1>   0.0800 
 35 H        1.3790    -5.7170     0.9190 H     1 <1>   0.0800 
 36 H        1.7410    -5.8740    -0.7800 H     1 <1>   0.0800 
 37 H       -5.0600    -2.0730     0.4060 H     1 <1>   0.0800 
 38 H       -5.9820    -3.6560    -1.2980 H     1 <1>   0.0800 
 39 H       -6.2280    -4.0910     0.3630 H     1 <1>   0.0800 
 40 H       -0.7570    -6.9560     1.5520 H     1 <1>   0.1500 
 41 H       -4.0920    -5.3160    -1.3560 H     1 <1>   0.3700 
 42 H       -3.3110    -8.0430     1.3120 H     1 <1>   0.0800 
 43 H       -2.9540    -9.0950    -0.0240 H     1 <1>   0.0800 
 44 H       -4.4570    -7.7310    -1.4850 H     1 <1>   0.0800 
 45 H       -5.2690    -8.5030    -0.1640 H     1 <1>   0.0800 
@<TRIPOS>BOND
  1   1   2  2   
  2   2   3  am  
  3   2   4  1   
  4   3   5  1   
  5   3   6  1   
  6   4   7  1   
  7   4  23  1   
  8   4  24  1   
  9   5   8  1   
 10   5  25  1   
 11   5  26  1   
 12   6   9  1   
 13   6  27  1   
 14   6  28  1   
 15   7  10  1   
 16   7  29  1   
 17   7  30  1   
 18   8  11  1   
 19   8  31  1   
 20   8  32  1   
 21   9  11  1   
 22   9  33  1   
 23   9  34  1   
 24  10  12  1   
 25  10  35  1   
 26  10  36  1   
 27  11  13  1   
 28  11  37  1   
 29  12  14  1   
 30  12  15  1   
 31  13  16  1   
 32  13  38  1   
 33  13  39  1   
 34  14  17  2   
 35  15  18  2   
 36  15  40  1   
 37  16  19  am  
 38  16  41  1   
 39  17  18  1   
 40  18  20  1   
 41  19  21  2   
 42  19  22  1   
 43  20  22  1   
 44  20  42  1   
 45  20  43  1   
 46  22  44  1   
 47  22  45  1   
@<TRIPOS>SUBSTRUCTURE
  1 ****   9 GROUP 4 **** **** 0

# MOE 2024.06 (io_trps.svl 2023.06)
