@<TRIPOS>MOLECULE
NONAME
41 43 1 0 0 
SMALL
USER_CHARGES


@<TRIPOS>ATOM
  1 O        0.5990     2.9090     0.1330 O.co2 1 <1>  -0.9000 
  2 C        1.2950     2.4240     1.0350 C.2   1 <1>   0.9470 
  3 O        1.0170     2.6130     2.2270 O.co2 1 <1>  -0.9000 
  4 C        2.6440     1.7930     0.6850 C.3   1 <1>  -0.2420 
  5 C        3.1060     0.3680     0.4950 C.3   1 <1>  -0.2420 
  6 C        3.7570     2.5400     1.3890 C.3   1 <1>   0.2350 
  7 C        2.8330     1.2380    -0.7060 C.3   1 <1>  -0.2000 
  8 C        2.3510    -0.9540     0.6530 C.2   1 <1>   0.9470 
  9 C        4.5180     0.2600     1.0530 C.3   1 <1>   0.2350 
 10 N        4.9600     1.6690     1.2530 N.am  1 <1>  -0.6600 
 11 O        2.3570    -1.5180     1.7560 O.co2 1 <1>  -0.9000 
 12 O        1.8820    -1.5130    -0.3490 O.co2 1 <1>  -0.9000 
 13 C        6.2460     2.0800     1.0640 C.2   1 <1>   0.5690 
 14 O        7.1580     1.3050     0.8910 O.2   1 <1>  -0.5700 
 15 C        6.5780     3.5590     1.0460 C.3   1 <1>  -0.0990 
 16 C        6.3970     4.1370    -0.3620 C.3   1 <1>  -0.0160 
 17 C        6.5440     5.6490    -0.3410 C.ar  1 <1>  -0.1430 
 18 C        7.7930     6.2370    -0.4650 C.ar  1 <1>  -0.1500 
 19 C        5.4260     6.4550    -0.1940 C.ar  1 <1>  -0.1500 
 20 C        7.9340     7.6150    -0.4440 C.ar  1 <1>   0.0830 
 21 C        5.5570     7.8330    -0.1710 C.ar  1 <1>  -0.1500 
 22 O        9.1940     8.1020    -0.5720 O.3   1 <1>  -0.3630 
 23 C        6.8060     8.4170    -0.2960 C.ar  1 <1>  -0.1500 
 24 C        9.4470     9.4900    -0.5780 C.3   1 <1>   0.0400 
 25 H        3.5170     2.6530     2.4330 H     1 <1>   0.0800 
 26 H        3.8900     3.5060     0.9410 H     1 <1>   0.0800 
 27 H        3.6510     1.5820    -1.3100 H     1 <1>   0.1000 
 28 H        1.9510     1.0240    -1.2860 H     1 <1>   0.1000 
 29 H        5.1630    -0.2630     0.3690 H     1 <1>   0.0800 
 30 H        4.5070    -0.2470     2.0030 H     1 <1>   0.0800 
 31 H        5.9560     4.0800     1.7500 H     1 <1>   0.0800 
 32 H        7.5970     3.6900     1.3580 H     1 <1>   0.0800 
 33 H        5.4260     3.8750    -0.7460 H     1 <1>   0.0800 
 34 H        7.1290     3.7040    -1.0220 H     1 <1>   0.0800 
 35 H        8.6720     5.6290    -0.5780 H     1 <1>   0.1500 
 36 H        4.4490     6.0120    -0.0960 H     1 <1>   0.1500 
 37 H        4.6820     8.4490    -0.0560 H     1 <1>   0.1500 
 38 H        6.8790     9.4860    -0.2750 H     1 <1>   0.1500 
 39 H       10.5050     9.6360    -0.6950 H     1 <1>   0.0800 
 40 H        9.1220     9.9070     0.3590 H     1 <1>   0.0800 
 41 H        8.9220     9.9360    -1.4030 H     1 <1>   0.0800 
@<TRIPOS>BOND
  1   1   2  ar  
  2   2   3  ar  
  3   2   4  1   
  4   4   5  1   
  5   4   6  1   
  6   4   7  1   
  7   5   7  1   
  8   5   8  1   
  9   5   9  1   
 10   6  10  1   
 11   6  25  1   
 12   6  26  1   
 13   7  27  1   
 14   7  28  1   
 15   8  11  ar  
 16   8  12  ar  
 17   9  10  1   
 18   9  29  1   
 19   9  30  1   
 20  10  13  am  
 21  13  14  2   
 22  13  15  1   
 23  15  16  1   
 24  15  31  1   
 25  15  32  1   
 26  16  17  1   
 27  16  33  1   
 28  16  34  1   
 29  17  18  ar  
 30  17  19  ar  
 31  18  20  ar  
 32  18  35  1   
 33  19  21  ar  
 34  19  36  1   
 35  20  22  1   
 36  20  23  ar  
 37  21  23  ar  
 38  21  37  1   
 39  22  24  1   
 40  23  38  1   
 41  24  39  1   
 42  24  40  1   
 43  24  41  1   
@<TRIPOS>SUBSTRUCTURE
  1 ****   6 GROUP 4 **** **** 0

# MOE 2024.06 (io_trps.svl 2023.06)
