@<TRIPOS>MOLECULE
NONAME
43 45 1 0 0 
SMALL
USER_CHARGES


@<TRIPOS>ATOM
  1 O        2.2290    -1.2780    -2.5010 O.2   1 <1>  -0.5700 
  2 C        1.6440    -2.0150    -1.7240 C.2   1 <1>   0.5440 
  3 N        0.8670    -1.4180    -0.7480 N.am  1 <1>  -0.6600 
  4 C        1.7620    -3.4640    -1.8900 C.ar  1 <1>   0.3960 
  5 C       -0.0490    -2.1200     0.1800 C.3   1 <1>   0.1400 
  6 C        0.7680     0.0470    -0.5800 C.3   1 <1>   0.1400 
  7 N        1.7360    -4.2880    -0.8270 N.ar  1 <1>  -0.6200 
  8 C        1.8940    -3.9630    -3.1910 C.ar  1 <1>   0.1600 
  9 C       -0.9510    -1.0270     0.7370 C.3   1 <1>  -0.1600 
 10 C       -0.1090     0.2430     0.6530 C.3   1 <1>  -0.1600 
 11 C        1.7990    -5.5590    -1.1450 C.ar  1 <1>   0.4100 
 12 N        1.9790    -5.2460    -3.5250 N.ar  1 <1>  -0.6200 
 13 N        1.7130    -6.3860    -0.0630 N.pl3 1 <1>  -0.8690 
 14 C        1.9280    -6.0220    -2.4620 C.ar  1 <1>   0.1600 
 15 C        0.4060    -7.0540     0.1610 C.3   1 <1>   0.4690 
 16 C       -0.6710    -6.0590     0.6120 C.2   1 <1>   0.2980 
 17 C        0.6270    -8.1820     1.1810 C.3   1 <1>  -0.1600 
 18 O       -0.4700    -5.3710     1.7100 O.3   1 <1>  -0.0190 
 19 N       -1.7750    -5.8220     0.0160 N.2   1 <1>  -0.5650 
 20 C       -0.6320    -9.0270     1.4340 C.3   1 <1>  -0.2400 
 21 N       -1.5360    -4.6390     1.8230 N.2   1 <1>  -0.4100 
 22 C       -2.2830    -4.9130     0.8310 C.2   1 <1>   0.3350 
 23 C       -3.6290    -4.2870     0.5550 C.3   1 <1>  -0.0590 
 24 H        0.5270    -2.5690     0.9720 H     1 <1>   0.0800 
 25 H       -0.6150    -2.8790    -0.3310 H     1 <1>   0.0800 
 26 H        0.2980     0.4680    -1.4530 H     1 <1>   0.0800 
 27 H        1.7440     0.4830    -0.4510 H     1 <1>   0.0800 
 28 H        1.9270    -3.2520    -3.9990 H     1 <1>   0.1500 
 29 H       -1.2680    -1.2480     1.7410 H     1 <1>   0.0800 
 30 H       -1.8180    -0.9350     0.1060 H     1 <1>   0.0800 
 31 H       -0.7090     1.1320     0.5790 H     1 <1>   0.0800 
 32 H        0.5240     0.3180     1.5200 H     1 <1>   0.0800 
 33 H        1.9510    -5.8470     0.7740 H     1 <1>   0.4000 
 34 H        1.9910    -7.0840    -2.6140 H     1 <1>   0.1500 
 35 H        0.0800    -7.4940    -0.7660 H     1 <1>   0.0800 
 36 H        0.9560    -7.7590     2.1140 H     1 <1>   0.0800 
 37 H        1.4050    -8.8280     0.8130 H     1 <1>   0.0800 
 38 H       -1.4190    -8.4280     1.8610 H     1 <1>   0.0800 
 39 H       -0.4070    -9.8240     2.1210 H     1 <1>   0.0800 
 40 H       -0.9890    -9.4610     0.5160 H     1 <1>   0.0800 
 41 H       -3.6060    -3.7880    -0.3950 H     1 <1>   0.0800 
 42 H       -3.8690    -3.5750     1.3230 H     1 <1>   0.0800 
 43 H       -4.3830    -5.0510     0.5340 H     1 <1>   0.0800 
@<TRIPOS>BOND
  1   1   2  2   
  2   2   3  am  
  3   2   4  1   
  4   3   5  1   
  5   3   6  1   
  6   4   7  ar  
  7   4   8  ar  
  8   5   9  1   
  9   5  24  1   
 10   5  25  1   
 11   6  10  1   
 12   6  26  1   
 13   6  27  1   
 14   7  11  ar  
 15   8  12  ar  
 16   8  28  1   
 17   9  10  1   
 18   9  29  1   
 19   9  30  1   
 20  10  31  1   
 21  10  32  1   
 22  11  13  1   
 23  11  14  ar  
 24  12  14  ar  
 25  13  15  1   
 26  13  33  1   
 27  14  34  1   
 28  15  16  1   
 29  15  17  1   
 30  15  35  1   
 31  16  18  1   
 32  16  19  2   
 33  17  20  1   
 34  17  36  1   
 35  17  37  1   
 36  18  21  1   
 37  19  22  1   
 38  20  38  1   
 39  20  39  1   
 40  20  40  1   
 41  21  22  2   
 42  22  23  1   
 43  23  41  1   
 44  23  42  1   
 45  23  43  1   
@<TRIPOS>SUBSTRUCTURE
  1 ****   7 GROUP 4 **** **** 0

# MOE 2024.06 (io_trps.svl 2023.06)
