@<TRIPOS>MOLECULE
NONAME
52 54 1 0 0 
SMALL
USER_CHARGES


@<TRIPOS>ATOM
  1 O       -0.0430     1.2180     0.6190 O.2   1 <1>  -0.5700 
  2 C       -0.3070     2.3160     0.1890 C.2   1 <1>   0.5690 
  3 N       -1.2060     3.1710     0.7750 N.am  1 <1>  -0.6600 
  4 C        0.4020     2.7650    -1.0840 C.3   1 <1>   0.1810 
  5 C       -1.4930     4.5120     0.1610 C.3   1 <1>   0.3640 
  6 C       -1.9110     2.9130     2.0620 C.3   1 <1>   0.2200 
  7 O        0.6380     4.1490    -1.0800 O.3   1 <1>  -0.5600 
  8 C       -2.9430     4.5430    -0.3300 C.ar  1 <1>  -0.1440 
  9 C       -0.5430     4.9360    -0.9970 C.3   1 <1>   0.2610 
 10 C       -0.9010     2.8400     3.2060 C.3   1 <1>  -0.2400 
 11 C       -2.7790     1.6560     1.9830 C.3   1 <1>  -0.2400 
 12 C       -3.7410     5.6440    -0.0530 C.ar  1 <1>  -0.1500 
 13 C       -3.4810     3.4920    -1.0630 C.ar  1 <1>  -0.1500 
 14 C       -0.1800     6.4180    -0.8410 C.2   1 <1>   0.5690 
 15 C       -5.0520     5.6930    -0.4930 C.ar  1 <1>  -0.1500 
 16 C       -4.7920     3.5390    -1.5040 C.ar  1 <1>  -0.1500 
 17 O       -1.0570     7.2410    -0.7170 O.2   1 <1>  -0.5700 
 18 N        1.1300     6.7830    -0.8200 N.am  1 <1>  -0.7300 
 19 C       -5.5790     4.6400    -1.2190 C.ar  1 <1>  -0.1500 
 20 C        1.6360     8.1680    -0.6910 C.3   1 <1>   0.1400 
 21 C        1.8290     8.5140     0.7860 C.3   1 <1>  -0.0170 
 22 C        2.3120     9.9470     0.9360 C.ar  1 <1>  -0.1440 
 23 C        3.6560    10.2340     1.1330 C.ar  1 <1>   0.1600 
 24 C        1.4130    10.9930     0.8760 C.ar  1 <1>  -0.1500 
 25 N        4.1610    11.4500     1.2680 N.ar  1 <1>  -0.6200 
 26 C        1.9210    12.2660     1.0160 C.ar  1 <1>  -0.1500 
 27 C        3.2820    12.4370     1.2070 C.ar  1 <1>   0.1600 
 28 H       -0.1900     2.5130    -1.9450 H     1 <1>   0.0800 
 29 H        1.3530     2.2700    -1.1550 H     1 <1>   0.0800 
 30 H       -1.3910     5.2420     0.9460 H     1 <1>   0.0800 
 31 H       -2.5710     3.7400     2.2640 H     1 <1>   0.0800 
 32 H       -1.0590     4.8290    -1.9340 H     1 <1>   0.0800 
 33 H       -0.2560     1.9870     3.0930 H     1 <1>   0.0800 
 34 H       -1.4190     2.7460     4.1430 H     1 <1>   0.0800 
 35 H       -0.3050     3.7330     3.2340 H     1 <1>   0.0800 
 36 H       -2.1780     0.7730     1.8680 H     1 <1>   0.0800 
 37 H       -3.4660     1.7300     1.1600 H     1 <1>   0.0800 
 38 H       -3.3490     1.5540     2.8880 H     1 <1>   0.0800 
 39 H       -3.3470     6.4780     0.5030 H     1 <1>   0.1500 
 40 H       -2.8860     2.6250    -1.2890 H     1 <1>   0.1500 
 41 H       -5.6610     6.5520    -0.2740 H     1 <1>   0.1500 
 42 H       -5.2000     2.7180    -2.0680 H     1 <1>   0.1500 
 43 H        1.8220     6.0300    -0.9120 H     1 <1>   0.3700 
 44 H       -6.5980     4.6780    -1.5620 H     1 <1>   0.1500 
 45 H        2.5670     8.2640    -1.2220 H     1 <1>   0.0800 
 46 H        0.9260     8.8500    -1.1300 H     1 <1>   0.0800 
 47 H        0.8910     8.4020     1.3020 H     1 <1>   0.0800 
 48 H        2.5400     7.8380     1.2260 H     1 <1>   0.0800 
 49 H        4.3580     9.4200     1.1820 H     1 <1>   0.1500 
 50 H        0.3590    10.8270     0.7250 H     1 <1>   0.1500 
 51 H        1.2710    13.1220     0.9780 H     1 <1>   0.1500 
 52 H        3.6660    13.4360     1.3150 H     1 <1>   0.1500 
@<TRIPOS>BOND
  1   1   2  2   
  2   2   3  am  
  3   2   4  1   
  4   3   5  1   
  5   3   6  1   
  6   4   7  1   
  7   4  28  1   
  8   4  29  1   
  9   5   8  1   
 10   5   9  1   
 11   5  30  1   
 12   6  10  1   
 13   6  11  1   
 14   6  31  1   
 15   7   9  1   
 16   8  12  ar  
 17   8  13  ar  
 18   9  14  1   
 19   9  32  1   
 20  10  33  1   
 21  10  34  1   
 22  10  35  1   
 23  11  36  1   
 24  11  37  1   
 25  11  38  1   
 26  12  15  ar  
 27  12  39  1   
 28  13  16  ar  
 29  13  40  1   
 30  14  17  2   
 31  14  18  am  
 32  15  19  ar  
 33  15  41  1   
 34  16  19  ar  
 35  16  42  1   
 36  18  20  1   
 37  18  43  1   
 38  19  44  1   
 39  20  21  1   
 40  20  45  1   
 41  20  46  1   
 42  21  22  1   
 43  21  47  1   
 44  21  48  1   
 45  22  23  ar  
 46  22  24  ar  
 47  23  25  ar  
 48  23  49  1   
 49  24  26  ar  
 50  24  50  1   
 51  25  27  ar  
 52  26  27  ar  
 53  26  51  1   
 54  27  52  1   
@<TRIPOS>SUBSTRUCTURE
  1 ****  14 GROUP 4 **** **** 0

# MOE 2024.06 (io_trps.svl 2023.06)
