@<TRIPOS>MOLECULE
NONAME
61 66 1 0 0 
SMALL
USER_CHARGES


@<TRIPOS>ATOM
  1 O       -1.1880     2.5180     1.8530 O.2   1 <1>  -0.5700 
  2 C       -1.7610     1.9960     0.9160 C.2   1 <1>   0.5440 
  3 N       -1.5130     2.3060    -0.3890 N.am  1 <1>  -0.6600 
  4 C       -2.7670     0.9770     0.9830 C.ar  1 <1>   0.0860 
  5 C       -2.3630     1.4940    -1.2960 C.3   1 <1>   0.2840 
  6 C       -0.5580     3.3270    -0.8780 C.3   1 <1>   0.1400 
  7 C       -3.1510     0.6500    -0.3050 C.ar  1 <1>  -0.1440 
  8 C       -3.3550     0.3290     2.0620 C.ar  1 <1>  -0.1500 
  9 C        0.7070     2.6840    -1.4740 C.3   1 <1>  -0.0800 
 10 C       -4.1130    -0.3130    -0.5450 C.ar  1 <1>  -0.1500 
 11 C       -4.3210    -0.6370     1.8320 C.ar  1 <1>  -0.1500 
 12 C        1.4320     1.7880    -0.4470 C.3   1 <1>  -0.1600 
 13 C        1.6460     3.7910    -1.9900 C.3   1 <1>  -0.1600 
 14 C       -4.6980    -0.9570     0.5350 C.ar  1 <1>  -0.1500 
 15 C        2.7560     1.2350    -0.9970 C.3   1 <1>  -0.1600 
 16 C        2.9640     3.2200    -2.5300 C.3   1 <1>  -0.1600 
 17 C        3.6630     2.3730    -1.4650 C.3   1 <1>   0.2200 
 18 N        4.8970     1.8080    -2.0300 N.am  1 <1>  -0.7300 
 19 C        6.1840     2.2260    -1.8350 C.2   1 <1>   0.7160 
 20 O        7.0280     1.4600    -2.2640 O.2   1 <1>  -0.5700 
 21 C        6.5570     3.4760    -1.1630 C.2   1 <1>   0.2030 
 22 N        5.7930     4.5550    -1.0370 N.2   1 <1>  -0.7070 
 23 C        7.7940     3.7160    -0.5450 C.2   1 <1>  -0.1810 
 24 N        6.5270     5.4390    -0.3490 N.pl3 1 <1>   0.3000 
 25 C        7.7450     4.9610    -0.0280 C.2   1 <1>  -0.2050 
 26 C        9.0360     2.8550    -0.3700 C.3   1 <1>   0.0210 
 27 C        8.8130     5.5810     0.7090 C.ar  1 <1>   0.0530 
 28 C       10.2890     3.7410    -0.2210 C.3   1 <1>  -0.0170 
 29 C       10.0720     4.9800     0.6560 C.ar  1 <1>  -0.1430 
 30 C        8.6480     6.7270     1.4830 C.ar  1 <1>  -0.1500 
 31 C       11.1300     5.5180     1.3700 C.ar  1 <1>  -0.1500 
 32 C        9.7080     7.2610     2.1920 C.ar  1 <1>  -0.1500 
 33 C       10.9500     6.6560     2.1370 C.ar  1 <1>  -0.1500 
 34 H       -1.7530     0.8800    -1.9350 H     1 <1>   0.0800 
 35 H       -3.0120     2.1280    -1.8740 H     1 <1>   0.0800 
 36 H       -0.2790     3.9640    -0.0550 H     1 <1>   0.0800 
 37 H       -1.0460     3.9380    -1.6170 H     1 <1>   0.0800 
 38 H       -3.0510     0.5900     3.0610 H     1 <1>   0.1500 
 39 H        0.4170     2.0790    -2.3160 H     1 <1>   0.0800 
 40 H       -4.4080    -0.5620    -1.5500 H     1 <1>   0.1500 
 41 H       -4.7810    -1.1420     2.6640 H     1 <1>   0.1500 
 42 H        0.8000     0.9620    -0.1690 H     1 <1>   0.0800 
 43 H        1.6280     2.3570     0.4460 H     1 <1>   0.0800 
 44 H        1.8700     4.4730    -1.1860 H     1 <1>   0.0800 
 45 H        1.1580     4.3510    -2.7690 H     1 <1>   0.0800 
 46 H       -5.4500    -1.7090     0.3670 H     1 <1>   0.1500 
 47 H        2.5470     0.5740    -1.8200 H     1 <1>   0.0800 
 48 H        3.2520     0.6760    -0.2230 H     1 <1>   0.0800 
 49 H        3.6100     4.0320    -2.8160 H     1 <1>   0.0800 
 50 H        2.7650     2.6190    -3.4000 H     1 <1>   0.0800 
 51 H        3.8980     2.9890    -0.6140 H     1 <1>   0.0800 
 52 H        4.7980     0.9440    -2.5570 H     1 <1>   0.3700 
 53 H        6.1830     6.3750    -0.1070 H     1 <1>   0.2700 
 54 H        9.1710     2.1970    -1.2090 H     1 <1>   0.0800 
 55 H        8.9130     2.2560     0.5140 H     1 <1>   0.0800 
 56 H       10.5760     4.0840    -1.1990 H     1 <1>   0.0800 
 57 H       11.0960     3.1470     0.1680 H     1 <1>   0.0800 
 58 H        7.6870     7.2020     1.5410 H     1 <1>   0.1500 
 59 H       12.1010     5.0580     1.3290 H     1 <1>   0.1500 
 60 H        9.5690     8.1460     2.7880 H     1 <1>   0.1500 
 61 H       11.7760     7.0690     2.6900 H     1 <1>   0.1500 
@<TRIPOS>BOND
  1   1   2  2   
  2   2   3  am  
  3   2   4  1   
  4   3   5  1   
  5   3   6  1   
  6   4   7  ar  
  7   4   8  ar  
  8   5   7  1   
  9   5  34  1   
 10   5  35  1   
 11   6   9  1   
 12   6  36  1   
 13   6  37  1   
 14   7  10  ar  
 15   8  11  ar  
 16   8  38  1   
 17   9  12  1   
 18   9  13  1   
 19   9  39  1   
 20  10  14  ar  
 21  10  40  1   
 22  11  14  ar  
 23  11  41  1   
 24  12  15  1   
 25  12  42  1   
 26  12  43  1   
 27  13  16  1   
 28  13  44  1   
 29  13  45  1   
 30  14  46  1   
 31  15  17  1   
 32  15  47  1   
 33  15  48  1   
 34  16  17  1   
 35  16  49  1   
 36  16  50  1   
 37  17  18  1   
 38  17  51  1   
 39  18  19  am  
 40  18  52  1   
 41  19  20  2   
 42  19  21  1   
 43  21  22  2   
 44  21  23  1   
 45  22  24  1   
 46  23  25  2   
 47  23  26  1   
 48  24  25  1   
 49  24  53  1   
 50  25  27  1   
 51  26  28  1   
 52  26  54  1   
 53  26  55  1   
 54  27  29  ar  
 55  27  30  ar  
 56  28  29  1   
 57  28  56  1   
 58  28  57  1   
 59  29  31  ar  
 60  30  32  ar  
 61  30  58  1   
 62  31  33  ar  
 63  31  59  1   
 64  32  33  ar  
 65  32  60  1   
 66  33  61  1   
@<TRIPOS>SUBSTRUCTURE
  1 ****  17 GROUP 4 **** **** 0

# MOE 2024.06 (io_trps.svl 2023.06)
