@<TRIPOS>MOLECULE
NONAME
45 47 1 0 0 
SMALL
USER_CHARGES


@<TRIPOS>ATOM
  1 CL      -0.1410    -2.5060     1.7630 Cl    1 <1>  -0.1770 
  2 C        1.0650    -1.6390     0.8390 C.ar  1 <1>   0.1770 
  3 C        1.0220    -1.6360    -0.5490 C.ar  1 <1>  -0.1440 
  4 C        2.0510    -0.9600     1.5320 C.ar  1 <1>  -0.1500 
  5 C        2.0030    -0.9370    -1.2390 C.ar  1 <1>  -0.1500 
  6 C       -0.0720    -2.3830    -1.3110 C.3   1 <1>   0.0450 
  7 C        3.0190    -0.2620     0.8320 C.ar  1 <1>  -0.1500 
  8 C        2.9930    -0.2530    -0.5520 C.ar  1 <1>  -0.1500 
  9 C        0.1710    -3.8890    -1.3910 C.2   1 <1>   0.5690 
 10 O        1.3080    -4.2590    -1.5750 O.2   1 <1>  -0.5700 
 11 N       -0.8630    -4.7870    -1.2810 N.am  1 <1>  -0.6600 
 12 C       -0.5900    -6.2610    -1.1630 C.3   1 <1>   0.1400 
 13 C       -2.3140    -4.4700    -1.2310 C.3   1 <1>   0.1400 
 14 C       -1.5790    -7.0040    -0.2170 C.3   1 <1>  -0.1060 
 15 C       -2.8480    -4.7970     0.1690 C.3   1 <1>  -0.1600 
 16 C       -2.7740    -7.5870    -0.9870 C.2   1 <1>   0.9060 
 17 C       -2.1000    -5.9760     0.8180 C.3   1 <1>   0.2000 
 18 C       -0.8330    -8.1570     0.5090 C.3   1 <1>  -0.0650 
 19 O       -3.7520    -7.9960    -0.3390 O.co2 1 <1>  -0.9000 
 20 O       -2.7750    -7.6290    -2.2230 O.co2 1 <1>  -0.9000 
 21 O       -2.9620    -6.5840     1.7090 O.3   1 <1>  -0.6800 
 22 C       -0.1630    -9.1630    -0.4400 C.3   1 <1>  -0.1950 
 23 C        0.8660   -10.1150     0.0790 C.3   1 <1>  -0.2000 
 24 C        1.2650    -9.0170    -0.8650 C.3   1 <1>  -0.2000 
 25 H        2.0570    -0.9810     2.6070 H     1 <1>   0.1500 
 26 H        2.0050    -0.9280    -2.3150 H     1 <1>   0.1500 
 27 H       -0.1370    -2.0100    -2.3150 H     1 <1>   0.0800 
 28 H       -1.0040    -2.1740    -0.8280 H     1 <1>   0.0800 
 29 H        3.7910     0.2690     1.3610 H     1 <1>   0.1500 
 30 H        3.7490     0.2840    -1.0990 H     1 <1>   0.1500 
 31 H       -0.5900    -6.7050    -2.1440 H     1 <1>   0.0800 
 32 H        0.4040    -6.3760    -0.7700 H     1 <1>   0.0800 
 33 H       -2.5230    -3.4500    -1.4910 H     1 <1>   0.0800 
 34 H       -2.8190    -5.0860    -1.9580 H     1 <1>   0.0800 
 35 H       -3.8950    -5.0270     0.0780 H     1 <1>   0.0800 
 36 H       -2.7460    -3.9350     0.8010 H     1 <1>   0.0800 
 37 H       -1.2690    -5.5920     1.3860 H     1 <1>   0.0800 
 38 H       -0.0940    -7.7440     1.1730 H     1 <1>   0.0800 
 39 H       -1.5390    -8.6990     1.1150 H     1 <1>   0.0800 
 40 H       -3.5170    -7.2090     1.1510 H     1 <1>   0.4000 
 41 H       -0.8550    -9.5590    -1.1680 H     1 <1>   0.1000 
 42 H        1.1630   -10.0460     1.1110 H     1 <1>   0.1000 
 43 H        0.8470   -11.1300    -0.2790 H     1 <1>   0.1000 
 44 H        1.5120    -9.2570    -1.8840 H     1 <1>   0.1000 
 45 H        1.8490    -8.1990    -0.4810 H     1 <1>   0.1000 
@<TRIPOS>BOND
  1   1   2  1   
  2   2   3  ar  
  3   2   4  ar  
  4   3   5  ar  
  5   3   6  1   
  6   4   7  ar  
  7   4  25  1   
  8   5   8  ar  
  9   5  26  1   
 10   6   9  1   
 11   6  27  1   
 12   6  28  1   
 13   7   8  ar  
 14   7  29  1   
 15   8  30  1   
 16   9  10  2   
 17   9  11  am  
 18  11  12  1   
 19  11  13  1   
 20  12  14  1   
 21  12  31  1   
 22  12  32  1   
 23  13  15  1   
 24  13  33  1   
 25  13  34  1   
 26  14  16  1   
 27  14  17  1   
 28  14  18  1   
 29  15  17  1   
 30  15  35  1   
 31  15  36  1   
 32  16  19  ar  
 33  16  20  ar  
 34  17  21  1   
 35  17  37  1   
 36  18  22  1   
 37  18  38  1   
 38  18  39  1   
 39  21  40  1   
 40  22  23  1   
 41  22  24  1   
 42  22  41  1   
 43  23  24  1   
 44  23  42  1   
 45  23  43  1   
 46  24  44  1   
 47  24  45  1   
@<TRIPOS>SUBSTRUCTURE
  1 ****  11 GROUP 4 **** **** 0

# MOE 2024.06 (io_trps.svl 2023.06)
