@<TRIPOS>MOLECULE
NONAME
60 64 1 0 0 
SMALL
USER_CHARGES


@<TRIPOS>ATOM
  1 O       -4.2660     0.6090    -3.2710 O.3   1 <1>  -0.3630 
  2 C       -4.7350     0.8980    -2.0320 C.ar  1 <1>   0.0830 
  3 C       -3.0750    -0.1260    -3.4520 C.3   1 <1>   0.0400 
  4 C       -4.1750     0.4100    -0.8560 C.ar  1 <1>  -0.1500 
  5 C       -5.8380     1.7330    -1.9660 C.ar  1 <1>  -0.1500 
  6 C       -4.7260     0.7510     0.3670 C.ar  1 <1>  -0.1500 
  7 C       -6.3910     2.0700    -0.7450 C.ar  1 <1>  -0.1500 
  8 C       -5.8450     1.5750     0.4330 C.ar  1 <1>  -0.0230 
  9 N       -6.4370     1.8850     1.6790 N.pl3 1 <1>   0.3260 
 10 C       -7.2330     1.0870     2.4380 C.2   1 <1>   0.0060 
 11 C       -6.4230     3.0530     2.3530 C.2   1 <1>  -0.3020 
 12 N       -7.7030     1.6520     3.5080 N.2   1 <1>  -0.5650 
 13 C       -7.5380    -0.3410     2.0260 C.3   1 <1>   0.5230 
 14 C       -7.1870     2.8960     3.4550 C.2   1 <1>   0.0770 
 15 N       -8.8860    -0.6770     2.5490 N.4   1 <1>  -0.9590 
 16 C       -9.9410    -0.1080     1.6660 C.3   1 <1>   0.3430 
 17 C       -9.0940    -2.1450     2.6810 C.3   1 <1>   0.3430 
 18 C      -10.6530    -1.2900     1.0220 C.3   1 <1>  -0.0800 
 19 C      -10.4140    -2.4670     1.9810 C.3   1 <1>  -0.0800 
 20 C      -10.1720    -1.5530    -0.4230 C.3   1 <1>   0.4240 
 21 C      -10.3940    -3.8460     1.2850 C.3   1 <1>  -0.1600 
 22 O       -8.8160    -1.8450    -0.3780 O.3   1 <1>  -0.6800 
 23 C      -10.3750    -0.3080    -1.3090 C.ar  1 <1>  -0.1430 
 24 C      -10.8740    -2.8030    -1.0050 C.3   1 <1>  -0.1600 
 25 C      -11.2940    -3.8590     0.0430 C.3   1 <1>  -0.1600 
 26 C      -11.6620     0.1890    -1.4940 C.ar  1 <1>  -0.1500 
 27 C       -9.3220     0.3630    -1.9310 C.ar  1 <1>  -0.1500 
 28 C      -11.8920     1.3150    -2.2640 C.ar  1 <1>  -0.1500 
 29 C       -9.5520     1.4870    -2.7050 C.ar  1 <1>  -0.1500 
 30 C      -10.8360     1.9670    -2.8710 C.ar  1 <1>  -0.1500 
 31 H       -2.8760    -0.1850    -4.5070 H     1 <1>   0.0800 
 32 H       -3.2090    -1.1150    -3.0500 H     1 <1>   0.0800 
 33 H       -2.2690     0.3870    -2.9570 H     1 <1>   0.0800 
 34 H       -3.3120    -0.2300    -0.8770 H     1 <1>   0.1500 
 35 H       -6.2530     2.1160    -2.8810 H     1 <1>   0.1500 
 36 H       -4.2750     0.3770     1.2700 H     1 <1>   0.1500 
 37 H       -7.2490     2.7220    -0.7130 H     1 <1>   0.1500 
 38 H       -5.8750     3.9120     2.0100 H     1 <1>   0.1500 
 39 H       -6.7980    -0.9930     2.4580 H     1 <1>   0.0800 
 40 H       -7.5120    -0.4420     0.9540 H     1 <1>   0.0800 
 41 H       -7.3960     3.6250     4.2230 H     1 <1>   0.1500 
 42 H       -8.9250    -0.1840     3.4580 H     1 <1>   0.4500 
 43 H      -10.6430     0.4490     2.2650 H     1 <1>   0.0800 
 44 H       -9.5260     0.5530     0.9210 H     1 <1>   0.0800 
 45 H       -8.2960    -2.6690     2.1800 H     1 <1>   0.0800 
 46 H       -9.1200    -2.4470     3.7160 H     1 <1>   0.0800 
 47 H      -11.7050    -1.0750     0.9850 H     1 <1>   0.0800 
 48 H      -11.1960    -2.4630     2.7220 H     1 <1>   0.0800 
 49 H       -9.3940    -4.0980     0.9740 H     1 <1>   0.0800 
 50 H      -10.7160    -4.6070     1.9760 H     1 <1>   0.0800 
 51 H       -8.5380    -2.0750    -1.2870 H     1 <1>   0.4000 
 52 H      -11.7650    -2.5060    -1.5270 H     1 <1>   0.0800 
 53 H      -10.2360    -3.2590    -1.7430 H     1 <1>   0.0800 
 54 H      -12.3080    -3.6640     0.3530 H     1 <1>   0.0800 
 55 H      -11.2820    -4.8370    -0.4080 H     1 <1>   0.0800 
 56 H      -12.5110    -0.2950    -1.0460 H     1 <1>   0.1500 
 57 H       -8.3030     0.0330    -1.8350 H     1 <1>   0.1500 
 58 H      -12.8950     1.6840    -2.3970 H     1 <1>   0.1500 
 59 H       -8.7310     1.9900    -3.1850 H     1 <1>   0.1500 
 60 H      -11.0150     2.8410    -3.4740 H     1 <1>   0.1500 
@<TRIPOS>BOND
  1   1   2  1   
  2   1   3  1   
  3   2   4  ar  
  4   2   5  ar  
  5   3  31  1   
  6   3  32  1   
  7   3  33  1   
  8   4   6  ar  
  9   4  34  1   
 10   5   7  ar  
 11   5  35  1   
 12   6   8  ar  
 13   6  36  1   
 14   7   8  ar  
 15   7  37  1   
 16   8   9  1   
 17   9  10  1   
 18   9  11  1   
 19  10  12  2   
 20  10  13  1   
 21  11  14  2   
 22  11  38  1   
 23  12  14  1   
 24  13  15  1   
 25  13  39  1   
 26  13  40  1   
 27  14  41  1   
 28  15  16  1   
 29  15  17  1   
 30  15  42  1   
 31  16  18  1   
 32  16  43  1   
 33  16  44  1   
 34  17  19  1   
 35  17  45  1   
 36  17  46  1   
 37  18  19  1   
 38  18  20  1   
 39  18  47  1   
 40  19  21  1   
 41  19  48  1   
 42  20  22  1   
 43  20  23  1   
 44  20  24  1   
 45  21  25  1   
 46  21  49  1   
 47  21  50  1   
 48  22  51  1   
 49  23  26  ar  
 50  23  27  ar  
 51  24  25  1   
 52  24  52  1   
 53  24  53  1   
 54  25  54  1   
 55  25  55  1   
 56  26  28  ar  
 57  26  56  1   
 58  27  29  ar  
 59  27  57  1   
 60  28  30  ar  
 61  28  58  1   
 62  29  30  ar  
 63  29  59  1   
 64  30  60  1   
@<TRIPOS>SUBSTRUCTURE
  1 ****  22 GROUP 4 **** **** 0

# MOE 2024.06 (io_trps.svl 2023.06)
