@<TRIPOS>MOLECULE
NONAME
30 30 1 0 0 
SMALL
USER_CHARGES


@<TRIPOS>ATOM
  1 BR       1.0880     0.2460     0.7100 Br    1 <1>  -0.1110 
  2 C        0.4650     2.0600     0.5290 C.ar  1 <1>   0.1110 
  3 C       -0.8750     2.3290     0.7090 C.ar  1 <1>  -0.1500 
  4 C        1.3760     3.0500     0.2240 C.ar  1 <1>  -0.1500 
  5 C       -1.3170     3.6330     0.5780 C.ar  1 <1>   0.0830 
  6 C        0.9210     4.3520     0.0960 C.ar  1 <1>  -0.1500 
  7 O       -2.6340     3.8320     0.7650 O.3   1 <1>  -0.5330 
  8 C       -0.4230     4.6780     0.2670 C.ar  1 <1>   0.1170 
  9 N       -0.7470     6.0470     0.1060 N.am  1 <1>  -0.5470 
 10 C       -1.8770     6.7970     0.1820 C.2   1 <1>   0.7800 
 11 O       -2.9720     6.3450     0.4410 O.2   1 <1>  -0.5700 
 12 O       -1.6900     8.0930    -0.0550 O.3   1 <1>  -0.4300 
 13 C       -2.6670     9.1130    -0.0490 C.3   1 <1>   0.2800 
 14 C       -3.2900     9.2420     1.3470 C.3   1 <1>  -0.2400 
 15 C       -3.7160     8.8490    -1.1350 C.3   1 <1>  -0.2400 
 16 C       -1.9070    10.3970    -0.3820 C.3   1 <1>  -0.2400 
 17 H       -1.5670     1.5410     0.9460 H     1 <1>   0.1500 
 18 H        2.4150     2.8050     0.0900 H     1 <1>   0.1500 
 19 H        1.6310     5.1230    -0.1420 H     1 <1>   0.1500 
 20 H       -2.8850     4.7920     0.6620 H     1 <1>   0.4500 
 21 H        0.0470     6.6380    -0.1230 H     1 <1>   0.3700 
 22 H       -3.8920     8.3850     1.5860 H     1 <1>   0.0800 
 23 H       -3.9290    10.1050     1.3840 H     1 <1>   0.0800 
 24 H       -2.5230     9.3550     2.0910 H     1 <1>   0.0800 
 25 H       -4.3190     7.9920    -0.8970 H     1 <1>   0.0800 
 26 H       -3.2410     8.6950    -2.0870 H     1 <1>   0.0800 
 27 H       -4.3760     9.6940    -1.2190 H     1 <1>   0.0800 
 28 H       -1.1500    10.5870     0.3570 H     1 <1>   0.0800 
 29 H       -2.5800    11.2350    -0.3990 H     1 <1>   0.0800 
 30 H       -1.4430    10.3170    -1.3490 H     1 <1>   0.0800 
@<TRIPOS>BOND
  1   1   2  1   
  2   2   3  ar  
  3   2   4  ar  
  4   3   5  ar  
  5   3  17  1   
  6   4   6  ar  
  7   4  18  1   
  8   5   7  1   
  9   5   8  ar  
 10   6   8  ar  
 11   6  19  1   
 12   7  20  1   
 13   8   9  1   
 14   9  10  am  
 15   9  21  1   
 16  10  11  2   
 17  10  12  1   
 18  12  13  1   
 19  13  14  1   
 20  13  15  1   
 21  13  16  1   
 22  14  22  1   
 23  14  23  1   
 24  14  24  1   
 25  15  25  1   
 26  15  26  1   
 27  15  27  1   
 28  16  28  1   
 29  16  29  1   
 30  16  30  1   
@<TRIPOS>SUBSTRUCTURE
  1 ****   9 GROUP 4 **** **** 0

# MOE 2024.06 (io_trps.svl 2023.06)
