@<TRIPOS>MOLECULE
NONAME
47 50 1 0 0 
SMALL
USER_CHARGES


@<TRIPOS>ATOM
  1 S       -3.0050     2.1490     0.3460 S.3   1 <1>  -0.0800 
  2 C       -3.0050     0.4080     0.5840 C.2   1 <1>  -0.1400 
  3 C       -3.1030     1.9570    -1.3950 C.2   1 <1>  -0.1100 
  4 C       -3.0680    -0.2270    -0.6020 C.2   1 <1>  -0.1500 
  5 C       -2.9480    -0.0870     2.0210 C.3   1 <1>   0.0810 
  6 C       -3.1270     0.6540    -1.7280 C.2   1 <1>  -0.1500 
  7 C       -3.1800    -1.5860     2.1620 C.2   1 <1>   0.5690 
  8 O       -2.2300    -2.2860     2.4250 O.2   1 <1>  -0.5700 
  9 N       -4.4370    -2.1180     2.0240 N.am  1 <1>  -0.6600 
 10 C       -5.6510    -1.4030     1.5690 C.3   1 <1>   0.1400 
 11 C       -4.7220    -3.5560     2.1910 C.3   1 <1>   0.1400 
 12 C       -6.5760    -2.4860     0.9990 C.3   1 <1>  -0.0800 
 13 C       -5.8840    -3.8500     1.2400 C.3   1 <1>  -0.0800 
 14 C       -7.0370    -2.2200    -0.4550 C.3   1 <1>   0.4240 
 15 C       -5.3960    -4.5360    -0.0500 C.3   1 <1>  -0.1600 
 16 O       -5.9450    -1.8710    -1.2290 O.3   1 <1>  -0.6800 
 17 C       -8.0660    -1.0700    -0.4880 C.ar  1 <1>  -0.1430 
 18 C       -7.5590    -3.5310    -1.0660 C.3   1 <1>  -0.1600 
 19 C       -6.5060    -4.6630    -1.1130 C.3   1 <1>  -0.1600 
 20 C       -9.3820    -1.2880    -0.0880 C.ar  1 <1>  -0.1500 
 21 C       -7.7130     0.2170    -0.8880 C.ar  1 <1>  -0.1500 
 22 C      -10.3120    -0.2630    -0.0980 C.ar  1 <1>  -0.1500 
 23 C       -8.6400     1.2440    -0.8980 C.ar  1 <1>  -0.1500 
 24 C       -9.9430     1.0050    -0.5040 C.ar  1 <1>  -0.1500 
 25 H       -3.1340     2.8510    -1.9910 H     1 <1>   0.1500 
 26 H       -3.0810    -1.2940    -0.7390 H     1 <1>   0.1500 
 27 H       -1.9850     0.1530     2.4320 H     1 <1>   0.0800 
 28 H       -3.6880     0.4270     2.6040 H     1 <1>   0.0800 
 29 H       -3.1890     0.2630    -2.7280 H     1 <1>   0.1500 
 30 H       -6.1190    -0.9210     2.4100 H     1 <1>   0.0800 
 31 H       -5.4070    -0.6540     0.8360 H     1 <1>   0.0800 
 32 H       -3.8540    -4.1540     1.9680 H     1 <1>   0.0800 
 33 H       -5.0190    -3.7330     3.2100 H     1 <1>   0.0800 
 34 H       -7.4610    -2.4810     1.6090 H     1 <1>   0.0800 
 35 H       -6.5700    -4.5220     1.7270 H     1 <1>   0.0800 
 36 H       -4.5710    -3.9750    -0.4540 H     1 <1>   0.0800 
 37 H       -5.0160    -5.5160     0.1830 H     1 <1>   0.0800 
 38 H       -5.3220    -2.6180    -1.2030 H     1 <1>   0.4000 
 39 H       -8.3830    -3.8800    -0.4720 H     1 <1>   0.0800 
 40 H       -7.9430    -3.3390    -2.0530 H     1 <1>   0.0800 
 41 H       -7.0140    -5.6050    -0.9860 H     1 <1>   0.0800 
 42 H       -6.0470    -4.6830    -2.0870 H     1 <1>   0.0800 
 43 H       -9.7040    -2.2580     0.2410 H     1 <1>   0.1500 
 44 H       -6.7060     0.4370    -1.1990 H     1 <1>   0.1500 
 45 H      -11.3260    -0.4520     0.2110 H     1 <1>   0.1500 
 46 H       -8.3440     2.2290    -1.2140 H     1 <1>   0.1500 
 47 H      -10.6650     1.8030    -0.5130 H     1 <1>   0.1500 
@<TRIPOS>BOND
  1   1   2  1   
  2   1   3  1   
  3   2   4  2   
  4   2   5  1   
  5   3   6  2   
  6   3  25  1   
  7   4   6  1   
  8   4  26  1   
  9   5   7  1   
 10   5  27  1   
 11   5  28  1   
 12   6  29  1   
 13   7   8  2   
 14   7   9  am  
 15   9  10  1   
 16   9  11  1   
 17  10  12  1   
 18  10  30  1   
 19  10  31  1   
 20  11  13  1   
 21  11  32  1   
 22  11  33  1   
 23  12  13  1   
 24  12  14  1   
 25  12  34  1   
 26  13  15  1   
 27  13  35  1   
 28  14  16  1   
 29  14  17  1   
 30  14  18  1   
 31  15  19  1   
 32  15  36  1   
 33  15  37  1   
 34  16  38  1   
 35  17  20  ar  
 36  17  21  ar  
 37  18  19  1   
 38  18  39  1   
 39  18  40  1   
 40  19  41  1   
 41  19  42  1   
 42  20  22  ar  
 43  20  43  1   
 44  21  23  ar  
 45  21  44  1   
 46  22  24  ar  
 47  22  45  1   
 48  23  24  ar  
 49  23  46  1   
 50  24  47  1   
@<TRIPOS>SUBSTRUCTURE
  1 ****  10 GROUP 4 **** **** 0

# MOE 2024.06 (io_trps.svl 2023.06)
