@<TRIPOS>MOLECULE
NONAME
43 45 1 0 0 
SMALL
USER_CHARGES


@<TRIPOS>ATOM
  1 CL       0.4110    -0.5920    -1.1460 Cl    1 <1>  -0.1770 
  2 C       -0.0310    -2.2110    -0.6580 C.ar  1 <1>   0.1770 
  3 C       -0.2120    -3.2000    -1.6080 C.ar  1 <1>   0.1600 
  4 C       -0.1980    -2.4990     0.6780 C.ar  1 <1>  -0.1500 
  5 N       -0.5470    -4.4530    -1.3280 N.ar  1 <1>  -0.6200 
  6 C       -0.5470    -3.7970     0.9790 C.ar  1 <1>  -0.1500 
  7 C       -0.7130    -4.7360    -0.0420 C.ar  1 <1>   0.4270 
  8 N       -1.0610    -6.0490     0.1770 N.am  1 <1>  -0.5470 
  9 C       -1.5070    -6.7360     1.2640 C.2   1 <1>   0.5690 
 10 O       -1.6590    -6.2510     2.3580 O.2   1 <1>  -0.5700 
 11 C       -1.8450    -8.2130     1.0570 C.3   1 <1>   0.1710 
 12 N       -2.1970    -8.5660    -0.3530 N.3   1 <1>  -0.8100 
 13 C       -3.4960    -8.0080    -0.7750 C.3   1 <1>   0.1100 
 14 C       -2.3460   -10.0130    -0.5240 C.3   1 <1>   0.1100 
 15 C       -4.5660    -9.0540    -0.4450 C.3   1 <1>   0.2000 
 16 C       -3.7960   -10.3450    -0.1520 C.3   1 <1>  -0.0800 
 17 O       -5.2770    -8.6790     0.6830 O.3   1 <1>  -0.6800 
 18 C       -4.3530   -11.5450    -0.9330 C.3   1 <1>   0.0200 
 19 C       -3.6020   -12.8340    -0.6510 C.2   1 <1>  -0.0400 
 20 O       -3.7480   -13.8400    -1.4710 O.3   1 <1>  -0.0190 
 21 C       -2.7560   -13.2190     0.3190 C.2   1 <1>  -0.1500 
 22 N       -3.0430   -14.8710    -1.1080 N.2   1 <1>  -0.4100 
 23 C       -2.4360   -14.5270    -0.0310 C.2   1 <1>   0.1080 
 24 C       -1.5030   -15.4310     0.7440 C.3   1 <1>  -0.0590 
 25 H       -0.0720    -2.9440    -2.6440 H     1 <1>   0.1500 
 26 H       -0.0620    -1.7470     1.4350 H     1 <1>   0.1500 
 27 H       -0.6880    -4.0830     2.0040 H     1 <1>   0.1500 
 28 H       -1.0750    -6.6040    -0.6810 H     1 <1>   0.3700 
 29 H       -2.6470    -8.4780     1.7220 H     1 <1>   0.0800 
 30 H       -0.9770    -8.7760     1.3510 H     1 <1>   0.0800 
 31 H       -3.7080    -7.0520    -0.3250 H     1 <1>   0.0800 
 32 H       -3.4680    -7.8770    -1.8430 H     1 <1>   0.0800 
 33 H       -2.1720   -10.2500    -1.5610 H     1 <1>   0.0800 
 34 H       -1.6360   -10.5630     0.0710 H     1 <1>   0.0800 
 35 H       -5.2660    -9.1550    -1.2580 H     1 <1>   0.0800 
 36 H       -3.8360   -10.5660     0.9000 H     1 <1>   0.0800 
 37 H       -4.6650    -8.4350     1.4030 H     1 <1>   0.4000 
 38 H       -4.2990   -11.3400    -1.9880 H     1 <1>   0.0800 
 39 H       -5.3890   -11.6910    -0.6800 H     1 <1>   0.0800 
 40 H       -2.3900   -12.6860     1.1760 H     1 <1>   0.1500 
 41 H       -0.5570   -14.9440     0.8910 H     1 <1>   0.0800 
 42 H       -1.3430   -16.3440     0.1990 H     1 <1>   0.0800 
 43 H       -1.9350   -15.6680     1.6990 H     1 <1>   0.0800 
@<TRIPOS>BOND
  1   1   2  1   
  2   2   3  ar  
  3   2   4  ar  
  4   3   5  ar  
  5   3  25  1   
  6   4   6  ar  
  7   4  26  1   
  8   5   7  ar  
  9   6   7  ar  
 10   6  27  1   
 11   7   8  1   
 12   8   9  am  
 13   8  28  1   
 14   9  10  2   
 15   9  11  1   
 16  11  12  1   
 17  11  29  1   
 18  11  30  1   
 19  12  13  1   
 20  12  14  1   
 21  13  15  1   
 22  13  31  1   
 23  13  32  1   
 24  14  16  1   
 25  14  33  1   
 26  14  34  1   
 27  15  16  1   
 28  15  17  1   
 29  15  35  1   
 30  16  18  1   
 31  16  36  1   
 32  17  37  1   
 33  18  19  1   
 34  18  38  1   
 35  18  39  1   
 36  19  20  1   
 37  19  21  2   
 38  20  22  1   
 39  21  23  1   
 40  21  40  1   
 41  22  23  2   
 42  23  24  1   
 43  24  41  1   
 44  24  42  1   
 45  24  43  1   
@<TRIPOS>SUBSTRUCTURE
  1 ****  12 GROUP 4 **** **** 0

# MOE 2024.06 (io_trps.svl 2023.06)
