@<TRIPOS>MOLECULE
NONAME
41 44 1 0 0 
SMALL
USER_CHARGES


@<TRIPOS>ATOM
  1 S       -0.1190     0.5650    -0.8850 S.3   1 <1>  -0.0800 
  2 C        0.9670    -0.7670    -0.4620 C.2   1 <1>  -0.0450 
  3 C        0.7280     1.6850     0.1560 C.2   1 <1>  -0.1100 
  4 C        1.8990    -0.3050     0.4160 C.2   1 <1>  -0.1810 
  5 C        0.7530    -2.0540    -1.0830 C.2   1 <1>   0.7150 
  6 C        1.7590     1.0710     0.7640 C.2   1 <1>  -0.1500 
  7 C        3.0290    -1.1230     1.0170 C.3   1 <1>  -0.0590 
  8 O        1.7000    -2.6410    -1.5770 O.2   1 <1>  -0.5700 
  9 N       -0.4890    -2.6590    -1.1180 N.am  1 <1>  -0.6600 
 10 C       -1.5900    -2.3340    -0.1710 C.3   1 <1>   0.1400 
 11 C       -0.7890    -3.7880    -2.0430 C.3   1 <1>   0.1400 
 12 C       -1.9350    -3.5780     0.6510 C.3   1 <1>  -0.1600 
 13 C       -1.1260    -5.0380    -1.2310 C.3   1 <1>  -0.1600 
 14 C       -2.2690    -4.7780    -0.2450 C.3   1 <1>   0.4600 
 15 O       -3.4060    -4.4660    -1.0280 O.3   1 <1>  -0.5600 
 16 C       -2.5750    -6.0240     0.5780 C.2   1 <1>  -0.1400 
 17 C       -4.6790    -4.6220    -0.4430 C.3   1 <1>   0.1200 
 18 S       -1.3630    -6.8440     1.5510 S.3   1 <1>  -0.0800 
 19 C       -3.7590    -6.6440     0.6750 C.2   1 <1>  -0.1810 
 20 C       -4.9520    -6.0930    -0.0720 C.3   1 <1>   0.0210 
 21 C       -2.5400    -8.0490     2.0580 C.2   1 <1>  -0.1100 
 22 C       -3.7470    -7.8040     1.5120 C.2   1 <1>  -0.1500 
 23 H        0.3650     2.6960     0.2040 H     1 <1>   0.1500 
 24 H        2.4380     1.5430     1.4530 H     1 <1>   0.1500 
 25 H        2.9820    -2.1460     0.6900 H     1 <1>   0.0800 
 26 H        2.9670    -1.1040     2.0900 H     1 <1>   0.0800 
 27 H        3.9760    -0.7140     0.7140 H     1 <1>   0.0800 
 28 H       -2.4510    -2.0090    -0.7310 H     1 <1>   0.0800 
 29 H       -1.3030    -1.5440     0.4980 H     1 <1>   0.0800 
 30 H        0.0500    -3.9880    -2.6880 H     1 <1>   0.0800 
 31 H       -1.6260    -3.5180    -2.6640 H     1 <1>   0.0800 
 32 H       -2.7530    -3.3690     1.3120 H     1 <1>   0.0800 
 33 H       -1.0880    -3.8240     1.2650 H     1 <1>   0.0800 
 34 H       -0.2450    -5.3430    -0.6960 H     1 <1>   0.0800 
 35 H       -1.4010    -5.8410    -1.8890 H     1 <1>   0.0800 
 36 H       -5.4090    -4.2770    -1.1530 H     1 <1>   0.0800 
 37 H       -4.7300    -4.0000     0.4330 H     1 <1>   0.0800 
 38 H       -5.1210    -6.6700    -0.9640 H     1 <1>   0.0800 
 39 H       -5.8320    -6.1480     0.5430 H     1 <1>   0.0800 
 40 H       -2.1970    -8.8240     2.7200 H     1 <1>   0.1500 
 41 H       -4.6340    -8.3930     1.6640 H     1 <1>   0.1500 
@<TRIPOS>BOND
  1   1   2  1   
  2   1   3  1   
  3   2   4  2   
  4   2   5  1   
  5   3   6  2   
  6   3  23  1   
  7   4   6  1   
  8   4   7  1   
  9   5   8  2   
 10   5   9  am  
 11   6  24  1   
 12   7  25  1   
 13   7  26  1   
 14   7  27  1   
 15   9  10  1   
 16   9  11  1   
 17  10  12  1   
 18  10  28  1   
 19  10  29  1   
 20  11  13  1   
 21  11  30  1   
 22  11  31  1   
 23  12  14  1   
 24  12  32  1   
 25  12  33  1   
 26  13  14  1   
 27  13  34  1   
 28  13  35  1   
 29  14  15  1   
 30  14  16  1   
 31  15  17  1   
 32  16  18  1   
 33  16  19  2   
 34  17  20  1   
 35  17  36  1   
 36  17  37  1   
 37  18  21  1   
 38  19  20  1   
 39  19  22  1   
 40  20  38  1   
 41  20  39  1   
 42  21  22  2   
 43  21  40  1   
 44  22  41  1   
@<TRIPOS>SUBSTRUCTURE
  1 ****  12 GROUP 4 **** **** 0

# MOE 2024.06 (io_trps.svl 2023.06)
