@<TRIPOS>MOLECULE
NONAME
55 60 1 0 0 
SMALL
USER_CHARGES


@<TRIPOS>ATOM
  1 O        0.0240     0.8260     0.4370 O.2   1 <1>  -0.5700 
  2 C       -0.5660     1.8660     0.1810 C.2   1 <1>   0.7160 
  3 N       -1.9490     1.8430     0.3100 N.am  1 <1>  -0.6600 
  4 C        0.2230     3.0250    -0.2450 C.2   1 <1>   0.2030 
  5 C       -2.8770     2.8970    -0.2010 C.3   1 <1>   0.1400 
  6 C       -2.6280     0.6630     0.9300 C.3   1 <1>   0.1400 
  7 N       -0.0950     4.3120    -0.2010 N.2   1 <1>  -0.7070 
  8 C        1.5180     2.8840    -0.7680 C.2   1 <1>  -0.1500 
  9 C       -3.7450     3.4740     0.9400 C.3   1 <1>   0.1430 
 10 C       -4.0860     0.9640     1.3250 C.3   1 <1>  -0.1600 
 11 N        0.9730     4.9640    -0.6870 N.pl3 1 <1>   0.3000 
 12 C        1.9620     4.1250    -1.0380 C.2   1 <1>  -0.2370 
 13 C       -4.8970     4.2210     0.2890 C.ar  1 <1>   0.1670 
 14 C       -4.2170     2.3720     1.9270 C.3   1 <1>  -0.1600 
 15 C       -3.0150     4.6160     1.6920 C.3   1 <1>  -0.1600 
 16 C        3.2850     4.5880    -1.6120 C.3   1 <1>  -0.0150 
 17 N       -5.9580     3.6700    -0.2500 N.ar  1 <1>  -0.6200 
 18 C       -4.6920     5.5670     0.3090 C.ar  1 <1>  -0.1440 
 19 C       -3.3860     5.9230     0.9750 C.3   1 <1>  -0.0170 
 20 C        4.5340     3.8180    -1.3320 C.3   1 <1>  -0.2000 
 21 C        4.3200     5.1630    -0.7010 C.3   1 <1>  -0.2000 
 22 C       -6.8540     4.5170    -0.7760 C.ar  1 <1>   0.6200 
 23 C       -5.6520     6.3670    -0.2530 C.ar  1 <1>   0.1600 
 24 N       -6.7340     5.8530    -0.7950 N.ar  1 <1>  -0.6200 
 25 C       -8.0500     3.9390    -1.3750 C.ar  1 <1>   0.0000 
 26 C       -8.0510     2.6510    -1.9190 C.ar  1 <1>  -0.1500 
 27 C       -9.2560     4.6450    -1.4320 C.ar  1 <1>  -0.1500 
 28 C       -9.1850     2.0990    -2.4860 C.ar  1 <1>  -0.1500 
 29 C      -10.3940     4.1000    -1.9980 C.ar  1 <1>  -0.1500 
 30 C      -10.3610     2.8230    -2.5270 C.ar  1 <1>  -0.1500 
 31 H       -3.5240     2.4380    -0.9290 H     1 <1>   0.0800 
 32 H       -2.3590     3.6840    -0.7130 H     1 <1>   0.0800 
 33 H       -2.0800     0.3810     1.8140 H     1 <1>   0.0800 
 34 H       -2.5970    -0.1670     0.2440 H     1 <1>   0.0800 
 35 H        2.0240     1.9450    -0.9070 H     1 <1>   0.1500 
 36 H       -4.4190     0.2280     2.0350 H     1 <1>   0.0800 
 37 H       -4.7190     0.8810     0.4580 H     1 <1>   0.0800 
 38 H        1.0160     5.9870    -0.7650 H     1 <1>   0.2700 
 39 H       -5.2360     2.5530     2.2240 H     1 <1>   0.0800 
 40 H       -3.6100     2.3990     2.8150 H     1 <1>   0.0800 
 41 H       -1.9510     4.4630     1.7380 H     1 <1>   0.0800 
 42 H       -3.3900     4.6790     2.6990 H     1 <1>   0.0800 
 43 H        3.1870     5.0160    -2.5960 H     1 <1>   0.1000 
 44 H       -2.6500     6.1660     0.2280 H     1 <1>   0.0800 
 45 H       -3.4940     6.7400     1.6680 H     1 <1>   0.0800 
 46 H        5.2650     3.7200    -2.1160 H     1 <1>   0.1000 
 47 H        4.4780     2.9440    -0.7070 H     1 <1>   0.1000 
 48 H        4.1210     5.2020     0.3560 H     1 <1>   0.1000 
 49 H        4.9110     5.9940    -1.0440 H     1 <1>   0.1000 
 50 H       -5.5340     7.4360    -0.2610 H     1 <1>   0.1500 
 51 H       -7.1440     2.0710    -1.8970 H     1 <1>   0.1500 
 52 H       -9.3020     5.6400    -1.0250 H     1 <1>   0.1500 
 53 H       -9.1520     1.1040    -2.8970 H     1 <1>   0.1500 
 54 H      -11.3060     4.6700    -2.0260 H     1 <1>   0.1500 
 55 H      -11.2450     2.3970    -2.9680 H     1 <1>   0.1500 
@<TRIPOS>BOND
  1   1   2  2   
  2   2   3  am  
  3   2   4  1   
  4   3   5  1   
  5   3   6  1   
  6   4   7  2   
  7   4   8  1   
  8   5   9  1   
  9   5  31  1   
 10   5  32  1   
 11   6  10  1   
 12   6  33  1   
 13   6  34  1   
 14   7  11  1   
 15   8  12  2   
 16   8  35  1   
 17   9  13  1   
 18   9  14  1   
 19   9  15  1   
 20  10  14  1   
 21  10  36  1   
 22  10  37  1   
 23  11  12  1   
 24  11  38  1   
 25  12  16  1   
 26  13  17  ar  
 27  13  18  ar  
 28  14  39  1   
 29  14  40  1   
 30  15  19  1   
 31  15  41  1   
 32  15  42  1   
 33  16  20  1   
 34  16  21  1   
 35  16  43  1   
 36  17  22  ar  
 37  18  19  1   
 38  18  23  ar  
 39  19  44  1   
 40  19  45  1   
 41  20  21  1   
 42  20  46  1   
 43  20  47  1   
 44  21  48  1   
 45  21  49  1   
 46  22  24  ar  
 47  22  25  1   
 48  23  24  ar  
 49  23  50  1   
 50  25  26  ar  
 51  25  27  ar  
 52  26  28  ar  
 53  26  51  1   
 54  27  29  ar  
 55  27  52  1   
 56  28  30  ar  
 57  28  53  1   
 58  29  30  ar  
 59  29  54  1   
 60  30  55  1   
@<TRIPOS>SUBSTRUCTURE
  1 ****   5 GROUP 4 **** **** 0

# MOE 2024.06 (io_trps.svl 2023.06)
