@<TRIPOS>MOLECULE
NONAME
54 58 1 0 0 
SMALL
USER_CHARGES


@<TRIPOS>ATOM
  1 O       -2.9400     0.8530    -2.6870 O.2   1 <1>  -0.5700 
  2 C       -2.3300     1.3510    -1.7600 C.2   1 <1>   0.5440 
  3 N       -2.0830     0.5420    -0.6730 N.am  1 <1>  -0.6600 
  4 C       -1.9640     2.7580    -1.7730 C.ar  1 <1>   0.0860 
  5 C       -2.5160     0.9560     0.6940 C.3   1 <1>   0.1400 
  6 C       -2.0360    -0.9370    -0.8560 C.3   1 <1>   0.1400 
  7 C       -0.9070     3.2440    -1.0060 C.ar  1 <1>  -0.1500 
  8 C       -2.6700     3.6790    -2.5460 C.ar  1 <1>  -0.1500 
  9 C       -3.8870     0.3320     1.0560 C.3   1 <1>   0.4230 
 10 C       -3.4170    -1.5410    -0.5540 C.3   1 <1>   0.3430 
 11 C       -0.5650     4.5920    -0.9550 C.ar  1 <1>   0.0530 
 12 C       -2.3470     5.0230    -2.5290 C.ar  1 <1>  -0.1500 
 13 N       -3.9110    -1.1730     0.8300 N.4   1 <1>  -0.9590 
 14 C       -5.0290     1.0270     0.2760 C.3   1 <1>   0.1200 
 15 C        0.5160     5.0540    -0.1150 C.2   1 <1>   0.0870 
 16 C       -1.3080     5.4730    -1.7360 C.ar  1 <1>  -0.1500 
 17 C       -5.2890    -1.7030     1.1140 C.3   1 <1>   0.5180 
 18 O       -6.2610     0.4620     0.6210 O.3   1 <1>  -0.5600 
 19 O        1.0060     4.2640     0.8340 O.3   1 <1>  -0.2800 
 20 C        1.1910     6.2350    -0.0860 C.2   1 <1>  -0.1500 
 21 C       -5.3150    -3.2250     0.8660 C.3   1 <1>  -0.1950 
 22 C       -6.3710    -0.9060     0.3430 C.3   1 <1>   0.1200 
 23 C        1.9690     4.9020     1.4620 C.2   1 <1>  -0.0400 
 24 C        2.1340     6.1340     0.9380 C.2   1 <1>  -0.1500 
 25 C       -5.6140    -3.8730    -0.4550 C.3   1 <1>  -0.2000 
 26 C       -6.5870    -3.9980     0.6820 C.3   1 <1>  -0.2000 
 27 C        2.6930     4.2050     2.5920 C.3   1 <1>  -0.0600 
 28 H       -1.7750     0.6430     1.4090 H     1 <1>   0.0800 
 29 H       -2.5870     2.0290     0.7570 H     1 <1>   0.0800 
 30 H       -1.7570    -1.1720    -1.8700 H     1 <1>   0.0800 
 31 H       -1.2900    -1.3600    -0.2070 H     1 <1>   0.0800 
 32 H       -0.3220     2.5510    -0.4300 H     1 <1>   0.1500 
 33 H       -3.4800     3.3360    -3.1680 H     1 <1>   0.1500 
 34 H       -4.0640     0.5300     2.1000 H     1 <1>   0.0800 
 35 H       -3.3550    -2.6120    -0.6520 H     1 <1>   0.0800 
 36 H       -4.1080    -1.1810    -1.2990 H     1 <1>   0.0800 
 37 H       -2.9050     5.7190    -3.1330 H     1 <1>   0.1500 
 38 H       -3.2770    -1.6050     1.5080 H     1 <1>   0.4500 
 39 H       -4.8960     0.9410    -0.7890 H     1 <1>   0.0800 
 40 H       -5.0700     2.0720     0.5290 H     1 <1>   0.0800 
 41 H       -1.0720     6.5220    -1.7240 H     1 <1>   0.1500 
 42 H       -5.4990    -1.5540     2.1610 H     1 <1>   0.0800 
 43 H        1.0550     7.0950    -0.7150 H     1 <1>   0.1500 
 44 H       -4.5960    -3.7180     1.4980 H     1 <1>   0.1000 
 45 H       -7.3530    -1.2160     0.6550 H     1 <1>   0.0800 
 46 H       -6.2900    -1.0500    -0.7200 H     1 <1>   0.0800 
 47 H        2.8340     6.8980     1.2250 H     1 <1>   0.1500 
 48 H       -5.9320    -3.3000    -1.3100 H     1 <1>   0.1000 
 49 H       -5.0710    -4.7580    -0.7450 H     1 <1>   0.1000 
 50 H       -6.6860    -4.9580     1.1620 H     1 <1>   0.1000 
 51 H       -7.5400    -3.5060     0.5800 H     1 <1>   0.1000 
 52 H        3.4500     4.8480     3.0020 H     1 <1>   0.0800 
 53 H        3.1570     3.3070     2.2270 H     1 <1>   0.0800 
 54 H        1.9940     3.9480     3.3670 H     1 <1>   0.0800 
@<TRIPOS>BOND
  1   1   2  2   
  2   2   3  am  
  3   2   4  1   
  4   3   5  1   
  5   3   6  1   
  6   4   7  ar  
  7   4   8  ar  
  8   5   9  1   
  9   5  28  1   
 10   5  29  1   
 11   6  10  1   
 12   6  30  1   
 13   6  31  1   
 14   7  11  ar  
 15   7  32  1   
 16   8  12  ar  
 17   8  33  1   
 18   9  13  1   
 19   9  14  1   
 20   9  34  1   
 21  10  13  1   
 22  10  35  1   
 23  10  36  1   
 24  11  15  1   
 25  11  16  ar  
 26  12  16  ar  
 27  12  37  1   
 28  13  17  1   
 29  13  38  1   
 30  14  18  1   
 31  14  39  1   
 32  14  40  1   
 33  15  19  1   
 34  15  20  2   
 35  16  41  1   
 36  17  21  1   
 37  17  22  1   
 38  17  42  1   
 39  18  22  1   
 40  19  23  1   
 41  20  24  1   
 42  20  43  1   
 43  21  25  1   
 44  21  26  1   
 45  21  44  1   
 46  22  45  1   
 47  22  46  1   
 48  23  24  2   
 49  23  27  1   
 50  24  47  1   
 51  25  26  1   
 52  25  48  1   
 53  25  49  1   
 54  26  50  1   
 55  26  51  1   
 56  27  52  1   
 57  27  53  1   
 58  27  54  1   
@<TRIPOS>SUBSTRUCTURE
  1 ****   5 GROUP 4 **** **** 0

# MOE 2024.06 (io_trps.svl 2023.06)
