@<TRIPOS>MOLECULE
NONAME
57 58 1 0 0 
SMALL
USER_CHARGES


@<TRIPOS>ATOM
  1 S        0.1440     0.1570    -0.2450 S.o2  1 <1>   1.2040 
  2 O        0.3630     0.8590    -1.4910 O.2   1 <1>  -0.6500 
  3 O        0.3860     0.8290     1.0120 O.2   1 <1>  -0.6500 
  4 C       -1.5060    -0.5830    -0.2390 C.ar  1 <1>  -0.0090 
  5 C        1.1850    -1.2890    -0.2720 C.3   1 <1>  -0.1350 
  6 C       -2.1320    -0.9250     0.9530 C.ar  1 <1>  -0.1500 
  7 C       -2.1700    -0.8670    -1.4250 C.ar  1 <1>  -0.1500 
  8 C       -3.3720    -1.5390     0.9620 C.ar  1 <1>  -0.1500 
  9 C       -3.4110    -1.4800    -1.4250 C.ar  1 <1>  -0.1500 
 10 C       -4.0200    -1.8220    -0.2290 C.ar  1 <1>  -0.1430 
 11 C       -5.3860    -2.5040    -0.2240 C.3   1 <1>   0.0440 
 12 C       -5.3340    -4.0310    -0.2630 C.2   1 <1>   0.5690 
 13 O       -4.2880    -4.5850    -0.0170 O.2   1 <1>  -0.5700 
 14 N       -6.4640    -4.7540    -0.5630 N.am  1 <1>  -0.6600 
 15 C       -7.8450    -4.2050    -0.7330 C.3   1 <1>   0.1400 
 16 C       -6.4210    -6.2450    -0.7040 C.3   1 <1>   0.1400 
 17 C       -8.8510    -4.9810     0.1440 C.3   1 <1>   0.2000 
 18 C       -7.5180    -6.9230     0.1450 C.3   1 <1>   0.2000 
 19 O       -8.7640    -6.3520    -0.1360 O.3   1 <1>  -0.5600 
 20 C      -10.3140    -4.5120    -0.0380 C.3   1 <1>  -0.0800 
 21 C       -7.6510    -8.4260    -0.1290 C.3   1 <1>  -0.1600 
 22 C      -11.2350    -5.1940     0.9850 C.3   1 <1>  -0.2400 
 23 C      -10.8650    -4.7500    -1.4560 C.3   1 <1>  -0.2400 
 24 C       -6.4000    -9.2250     0.2720 C.3   1 <1>  -0.1600 
 25 C       -6.6190   -10.7290     0.0670 C.3   1 <1>  -0.1600 
 26 C       -5.3740   -11.5260     0.4640 C.3   1 <1>  -0.2400 
 27 H        0.9900    -1.8740    -1.1500 H     1 <1>   0.0800 
 28 H        1.0050    -1.8950     0.5940 H     1 <1>   0.0800 
 29 H        2.2170    -0.9980    -0.2780 H     1 <1>   0.0800 
 30 H       -1.6430    -0.7120     1.8890 H     1 <1>   0.1500 
 31 H       -1.7100    -0.6070    -2.3640 H     1 <1>   0.1500 
 32 H       -3.8270    -1.8020     1.9010 H     1 <1>   0.1500 
 33 H       -3.8950    -1.6940    -2.3620 H     1 <1>   0.1500 
 34 H       -5.9380    -2.1570    -1.0760 H     1 <1>   0.0800 
 35 H       -5.9230    -2.2110     0.6590 H     1 <1>   0.0800 
 36 H       -7.8860    -3.1670    -0.4630 H     1 <1>   0.0800 
 37 H       -8.1240    -4.2950    -1.7670 H     1 <1>   0.0800 
 38 H       -6.5640    -6.5030    -1.7380 H     1 <1>   0.0800 
 39 H       -5.4600    -6.6220    -0.4030 H     1 <1>   0.0800 
 40 H       -8.5800    -4.8420     1.1770 H     1 <1>   0.0800 
 41 H       -7.3100    -6.7710     1.1900 H     1 <1>   0.0800 
 42 H      -10.3460    -3.4540     0.1560 H     1 <1>   0.0800 
 43 H       -8.4920    -8.7940     0.4330 H     1 <1>   0.0800 
 44 H       -7.8550    -8.5780    -1.1750 H     1 <1>   0.0800 
 45 H      -11.2570    -6.2570     0.8210 H     1 <1>   0.0800 
 46 H      -12.2380    -4.8150     0.9010 H     1 <1>   0.0800 
 47 H      -10.8870    -5.0110     1.9860 H     1 <1>   0.0800 
 48 H      -10.8160    -5.7960    -1.7050 H     1 <1>   0.0800 
 49 H      -10.3080    -4.1970    -2.1890 H     1 <1>   0.0800 
 50 H      -11.8920    -4.4360    -1.5140 H     1 <1>   0.0800 
 51 H       -5.5570    -8.9120    -0.3190 H     1 <1>   0.0800 
 52 H       -6.1720    -9.0380     1.3080 H     1 <1>   0.0800 
 53 H       -7.4540   -11.0580     0.6620 H     1 <1>   0.0800 
 54 H       -6.8500   -10.9230    -0.9670 H     1 <1>   0.0800 
 55 H       -5.1380   -11.3630     1.5010 H     1 <1>   0.0800 
 56 H       -4.5300   -11.2300    -0.1350 H     1 <1>   0.0800 
 57 H       -5.5470   -12.5770     0.3130 H     1 <1>   0.0800 
@<TRIPOS>BOND
  1   1   2  2   
  2   1   3  2   
  3   1   4  1   
  4   1   5  1   
  5   4   6  ar  
  6   4   7  ar  
  7   5  27  1   
  8   5  28  1   
  9   5  29  1   
 10   6   8  ar  
 11   6  30  1   
 12   7   9  ar  
 13   7  31  1   
 14   8  10  ar  
 15   8  32  1   
 16   9  10  ar  
 17   9  33  1   
 18  10  11  1   
 19  11  12  1   
 20  11  34  1   
 21  11  35  1   
 22  12  13  2   
 23  12  14  am  
 24  14  15  1   
 25  14  16  1   
 26  15  17  1   
 27  15  36  1   
 28  15  37  1   
 29  16  18  1   
 30  16  38  1   
 31  16  39  1   
 32  17  19  1   
 33  17  20  1   
 34  17  40  1   
 35  18  19  1   
 36  18  21  1   
 37  18  41  1   
 38  20  22  1   
 39  20  23  1   
 40  20  42  1   
 41  21  24  1   
 42  21  43  1   
 43  21  44  1   
 44  22  45  1   
 45  22  46  1   
 46  22  47  1   
 47  23  48  1   
 48  23  49  1   
 49  23  50  1   
 50  24  25  1   
 51  24  51  1   
 52  24  52  1   
 53  25  26  1   
 54  25  53  1   
 55  25  54  1   
 56  26  55  1   
 57  26  56  1   
 58  26  57  1   
@<TRIPOS>SUBSTRUCTURE
  1 ****  12 GROUP 4 **** **** 0

# MOE 2024.06 (io_trps.svl 2023.06)
