@<TRIPOS>MOLECULE
NONAME
38 39 1 0 0 
SMALL
USER_CHARGES


@<TRIPOS>ATOM
  1 S        1.2520     0.8030    -1.9490 S.3   1 <1>  -0.0800 
  2 C        1.7900     0.0650    -0.4460 C.2   1 <1>  -0.1400 
  3 C       -0.3760     0.1900    -1.7190 C.2   1 <1>  -0.1100 
  4 C        0.7730    -0.5880     0.1470 C.2   1 <1>  -0.1500 
  5 C        3.2420     0.2490    -0.0500 C.3   1 <1>   0.0200 
  6 C       -0.4600    -0.5160    -0.5770 C.2   1 <1>  -0.1500 
  7 C        3.5140     1.7000     0.3670 C.3   1 <1>  -0.1600 
  8 C        4.9880     1.9160     0.7480 C.3   1 <1>  -0.0990 
  9 C        5.2600     3.3350     1.2100 C.2   1 <1>   0.5690 
 10 O        5.5210     3.5190     2.3730 O.2   1 <1>  -0.5700 
 11 N        5.1990     4.3310     0.2830 N.am  1 <1>  -0.4930 
 12 C        5.4120     5.7220     0.4590 C.2   1 <1>   0.0630 
 13 C        5.7430     6.4290     1.6150 C.2   1 <1>   0.1390 
 14 C        5.3290     6.6650    -0.5010 C.2   1 <1>  -0.3020 
 15 N        5.8590     7.7060     1.3970 N.2   1 <1>  -0.7070 
 16 N        5.6020     7.8550     0.0800 N.pl3 1 <1>   0.3140 
 17 C        5.6250     9.1770    -0.6110 C.3   1 <1>   0.1760 
 18 C        7.0240     9.8050    -0.5340 C.3   1 <1>  -0.2400 
 19 C        4.5700    10.1200    -0.0150 C.3   1 <1>  -0.2400 
 20 H       -1.1050     0.4270    -2.4730 H     1 <1>   0.1500 
 21 H        0.8330    -1.1270     1.0760 H     1 <1>   0.1500 
 22 H        3.8680    -0.0250    -0.8810 H     1 <1>   0.0800 
 23 H        3.4670    -0.4090     0.7710 H     1 <1>   0.0800 
 24 H       -1.3470    -0.9980    -0.2040 H     1 <1>   0.1500 
 25 H        2.8890     1.9450     1.2100 H     1 <1>   0.0800 
 26 H        3.2470     2.3590    -0.4410 H     1 <1>   0.0800 
 27 H        5.6240     1.6970    -0.0900 H     1 <1>   0.0800 
 28 H        5.2540     1.2450     1.5460 H     1 <1>   0.0800 
 29 H        4.9500     4.0570    -0.6640 H     1 <1>   0.3700 
 30 H        5.8880     5.9750     2.5810 H     1 <1>   0.1500 
 31 H        5.0970     6.5620    -1.5430 H     1 <1>   0.1500 
 32 H        5.3840     9.0060    -1.6450 H     1 <1>   0.0800 
 33 H        7.2910     9.9940     0.4910 H     1 <1>   0.0800 
 34 H        7.0440    10.7360    -1.0710 H     1 <1>   0.0800 
 35 H        7.7510     9.1430    -0.9680 H     1 <1>   0.0800 
 36 H        4.7880    10.3150     1.0210 H     1 <1>   0.0800 
 37 H        3.5930     9.6760    -0.0880 H     1 <1>   0.0800 
 38 H        4.5620    11.0540    -0.5460 H     1 <1>   0.0800 
@<TRIPOS>BOND
  1   1   2  1   
  2   1   3  1   
  3   2   4  2   
  4   2   5  1   
  5   3   6  2   
  6   3  20  1   
  7   4   6  1   
  8   4  21  1   
  9   5   7  1   
 10   5  22  1   
 11   5  23  1   
 12   6  24  1   
 13   7   8  1   
 14   7  25  1   
 15   7  26  1   
 16   8   9  1   
 17   8  27  1   
 18   8  28  1   
 19   9  10  2   
 20   9  11  am  
 21  11  12  1   
 22  11  29  1   
 23  12  13  1   
 24  12  14  2   
 25  13  15  2   
 26  13  30  1   
 27  14  16  1   
 28  14  31  1   
 29  15  16  1   
 30  16  17  1   
 31  17  18  1   
 32  17  19  1   
 33  17  32  1   
 34  18  33  1   
 35  18  34  1   
 36  18  35  1   
 37  19  36  1   
 38  19  37  1   
 39  19  38  1   
@<TRIPOS>SUBSTRUCTURE
  1 ****  11 GROUP 4 **** **** 0

# MOE 2024.06 (io_trps.svl 2023.06)
