@<TRIPOS>MOLECULE
NONAME
55 58 1 0 0 
SMALL
USER_CHARGES


@<TRIPOS>ATOM
  1 F        0.3280     0.6040    -0.1680 F     1 <1>  -0.1900 
  2 C        1.3790    -0.1180     0.1150 C.ar  1 <1>   0.1900 
  3 C        2.5920     0.4900     0.4540 C.ar  1 <1>  -0.1440 
  4 C        1.2010    -1.4880     0.0560 C.ar  1 <1>  -0.1500 
  5 C        3.6420    -0.3840     0.7510 C.ar  1 <1>  -0.1500 
  6 C        2.7530     2.0380     0.5040 C.3   1 <1>   0.1440 
  7 C        2.2640    -2.3180     0.3490 C.ar  1 <1>  -0.1500 
  8 C        3.4800    -1.7600     0.6970 C.ar  1 <1>  -0.1500 
  9 C        1.7200     2.6720     1.4720 C.3   1 <1>  -0.1600 
 10 C        2.4530     2.6680    -0.8790 C.3   1 <1>  -0.1600 
 11 C        4.1900     2.4450     0.9480 C.3   1 <1>   0.2090 
 12 C        0.8550     3.6380     0.6550 C.3   1 <1>  -0.1600 
 13 C        1.6390     3.9360    -0.6170 C.3   1 <1>  -0.1600 
 14 N        4.4210     3.9230     1.0080 N.pl3 1 <1>  -0.8690 
 15 C        5.1490     4.7720     0.2780 C.ar  1 <1>   0.7710 
 16 N        5.0210     6.0470     0.5790 N.ar  1 <1>  -0.6200 
 17 N        5.9470     4.3270    -0.7070 N.ar  1 <1>  -0.1790 
 18 C        5.7180     6.9250    -0.1180 C.ar  1 <1>   0.4100 
 19 C        6.6640     5.1940    -1.4610 C.ar  1 <1>   0.2110 
 20 N        5.5980     8.2360     0.2160 N.pl3 1 <1>  -0.8380 
 21 C        6.5540     6.5130    -1.1770 C.ar  1 <1>  -0.1500 
 22 C        6.6780     9.2640     0.0460 C.3   1 <1>   0.2090 
 23 C        4.3800     8.7890     0.8880 C.3   1 <1>   0.2090 
 24 C        6.1590    10.4510    -0.7810 C.3   1 <1>   0.2000 
 25 C        3.8350     9.9690     0.0720 C.3   1 <1>  -0.1600 
 26 O        7.1300    11.4340    -0.8470 O.3   1 <1>  -0.6800 
 27 C        4.8940    11.0600    -0.1640 C.3   1 <1>  -0.1600 
 28 H        0.2420    -1.8930    -0.2150 H     1 <1>   0.1500 
 29 H        4.6170    -0.0420     1.0380 H     1 <1>   0.1500 
 30 H        2.1460    -3.3870     0.3090 H     1 <1>   0.1500 
 31 H        4.3090    -2.4080     0.9310 H     1 <1>   0.1500 
 32 H        2.2010     3.2110     2.2670 H     1 <1>   0.0800 
 33 H        1.0970     1.9280     1.9370 H     1 <1>   0.0800 
 34 H        1.8530     2.0070    -1.4770 H     1 <1>   0.0800 
 35 H        3.3400     2.8820    -1.4450 H     1 <1>   0.0800 
 36 H        4.8990     1.9990     0.2750 H     1 <1>   0.0800 
 37 H        4.3710     2.0400     1.9300 H     1 <1>   0.0800 
 38 H        0.6230     4.5350     1.2030 H     1 <1>   0.0800 
 39 H       -0.0690     3.1510     0.3920 H     1 <1>   0.0800 
 40 H        0.9830     4.1660    -1.4400 H     1 <1>   0.0800 
 41 H        2.2890     4.7750    -0.4500 H     1 <1>   0.0800 
 42 H        3.8280     4.3960     1.7010 H     1 <1>   0.4000 
 43 H        5.9670     3.3240    -0.8490 H     1 <1>   0.4570 
 44 H        7.2860     4.8160    -2.2570 H     1 <1>   0.1500 
 45 H        7.0800     7.2510    -1.7510 H     1 <1>   0.1500 
 46 H        7.5470     8.8460    -0.4270 H     1 <1>   0.0800 
 47 H        6.9690     9.6130     1.0220 H     1 <1>   0.0800 
 48 H        4.6400     9.1150     1.8810 H     1 <1>   0.0800 
 49 H        3.6120     8.0400     0.9750 H     1 <1>   0.0800 
 50 H        5.9640    10.1230    -1.7870 H     1 <1>   0.0800 
 51 H        2.9910    10.3930     0.5870 H     1 <1>   0.0800 
 52 H        3.4820     9.5960    -0.8750 H     1 <1>   0.0800 
 53 H        7.1770    11.9270    -0.0050 H     1 <1>   0.4000 
 54 H        4.4960    11.8100    -0.8240 H     1 <1>   0.0800 
 55 H        5.1330    11.5180     0.7800 H     1 <1>   0.0800 
@<TRIPOS>BOND
  1   1   2  1   
  2   2   3  ar  
  3   2   4  ar  
  4   3   5  ar  
  5   3   6  1   
  6   4   7  ar  
  7   4  28  1   
  8   5   8  ar  
  9   5  29  1   
 10   6   9  1   
 11   6  10  1   
 12   6  11  1   
 13   7   8  ar  
 14   7  30  1   
 15   8  31  1   
 16   9  12  1   
 17   9  32  1   
 18   9  33  1   
 19  10  13  1   
 20  10  34  1   
 21  10  35  1   
 22  11  14  1   
 23  11  36  1   
 24  11  37  1   
 25  12  13  1   
 26  12  38  1   
 27  12  39  1   
 28  13  40  1   
 29  13  41  1   
 30  14  15  1   
 31  14  42  1   
 32  15  16  ar  
 33  15  17  ar  
 34  16  18  ar  
 35  17  19  ar  
 36  17  43  1   
 37  18  20  1   
 38  18  21  ar  
 39  19  21  ar  
 40  19  44  1   
 41  20  22  1   
 42  20  23  1   
 43  21  45  1   
 44  22  24  1   
 45  22  46  1   
 46  22  47  1   
 47  23  25  1   
 48  23  48  1   
 49  23  49  1   
 50  24  26  1   
 51  24  27  1   
 52  24  50  1   
 53  25  27  1   
 54  25  51  1   
 55  25  52  1   
 56  26  53  1   
 57  27  54  1   
 58  27  55  1   
@<TRIPOS>SUBSTRUCTURE
  1 ****  14 GROUP 4 **** **** 0

# MOE 2024.06 (io_trps.svl 2023.06)
