@<TRIPOS>MOLECULE
NONAME
45 47 1 0 0 
SMALL
USER_CHARGES


@<TRIPOS>ATOM
  1 O        0.0440     0.6890     0.7360 O.2   1 <1>  -0.5700 
  2 C        0.0960     1.7930     0.2570 C.2   1 <1>   0.5690 
  3 N       -0.1070     2.8890     1.0230 N.am  1 <1>  -0.7300 
  4 C        0.3670     1.9680    -1.2440 C.3   1 <1>   0.1810 
  5 C       -0.0340     4.2710     0.4960 C.3   1 <1>   0.3640 
  6 O        0.7210     3.2920    -1.5960 O.3   1 <1>  -0.5600 
  7 C       -1.1180     5.1190     1.1480 C.ar  1 <1>  -0.1440 
  8 C       -0.1370     4.2820    -1.0470 C.3   1 <1>   0.2610 
  9 C       -0.7830     6.3450     1.7070 C.ar  1 <1>  -0.1500 
 10 C       -2.4420     4.7000     1.1830 C.ar  1 <1>  -0.1500 
 11 C        0.2130     5.6730    -1.5730 C.2   1 <1>   0.5690 
 12 C       -1.7560     7.1450     2.2790 C.ar  1 <1>  -0.1500 
 13 C       -3.4140     5.4980     1.7600 C.ar  1 <1>  -0.1500 
 14 O       -0.6740     6.4650    -1.7970 O.2   1 <1>  -0.5700 
 15 N        1.5160     6.0190    -1.7420 N.am  1 <1>  -0.7300 
 16 C       -3.0720     6.7220     2.3070 C.ar  1 <1>  -0.1500 
 17 C        1.9860     7.3600    -2.1260 C.3   1 <1>   0.3200 
 18 C        1.8790     8.2630    -0.9180 C.2   1 <1>  -0.3320 
 19 N        0.6950     8.5710    -0.3520 N.pl3 1 <1>   0.3000 
 20 C        2.8280     8.9050    -0.2040 C.2   1 <1>  -0.1500 
 21 N        0.8500     9.3830     0.7140 N.2   1 <1>  -0.7070 
 22 C        2.1330     9.5860     0.7920 C.2   1 <1>   0.1080 
 23 C        2.7580    10.4730     1.8630 C.3   1 <1>   0.3010 
 24 O        4.1520    10.5390     1.7190 O.3   1 <1>  -0.5600 
 25 C        4.7770    11.3560     2.6540 C.3   1 <1>   0.0400 
 26 H       -0.3030     2.7760     2.0190 H     1 <1>   0.3700 
 27 H       -0.5120     1.6950    -1.7980 H     1 <1>   0.0800 
 28 H        1.1750     1.3230    -1.5370 H     1 <1>   0.0800 
 29 H        0.9260     4.6750     0.7700 H     1 <1>   0.0800 
 30 H       -1.1440     4.0560    -1.3470 H     1 <1>   0.0800 
 31 H        0.2350     6.6970     1.7020 H     1 <1>   0.1500 
 32 H       -2.7250     3.7510     0.7610 H     1 <1>   0.1500 
 33 H       -1.4820     8.1000     2.6960 H     1 <1>   0.1500 
 34 H       -4.4380     5.1680     1.7830 H     1 <1>   0.1500 
 35 H        2.2390     5.3070    -1.6120 H     1 <1>   0.3700 
 36 H       -3.8270     7.3460     2.7510 H     1 <1>   0.1500 
 37 H        3.0070     7.3050    -2.4620 H     1 <1>   0.0800 
 38 H        1.3780     7.7440    -2.9280 H     1 <1>   0.0800 
 39 H       -0.2200     8.2070    -0.6680 H     1 <1>   0.2700 
 40 H        3.8960     8.9210    -0.3370 H     1 <1>   0.1500 
 41 H        2.5300    10.0730     2.8340 H     1 <1>   0.0800 
 42 H        2.3550    11.4660     1.7770 H     1 <1>   0.0800 
 43 H        5.8360    11.3360     2.4600 H     1 <1>   0.0800 
 44 H        4.5830    10.9800     3.6430 H     1 <1>   0.0800 
 45 H        4.4100    12.3630     2.5500 H     1 <1>   0.0800 
@<TRIPOS>BOND
  1   1   2  2   
  2   2   3  am  
  3   2   4  1   
  4   3   5  1   
  5   3  26  1   
  6   4   6  1   
  7   4  27  1   
  8   4  28  1   
  9   5   7  1   
 10   5   8  1   
 11   5  29  1   
 12   6   8  1   
 13   7   9  ar  
 14   7  10  ar  
 15   8  11  1   
 16   8  30  1   
 17   9  12  ar  
 18   9  31  1   
 19  10  13  ar  
 20  10  32  1   
 21  11  14  2   
 22  11  15  am  
 23  12  16  ar  
 24  12  33  1   
 25  13  16  ar  
 26  13  34  1   
 27  15  17  1   
 28  15  35  1   
 29  16  36  1   
 30  17  18  1   
 31  17  37  1   
 32  17  38  1   
 33  18  19  1   
 34  18  20  2   
 35  19  21  1   
 36  19  39  1   
 37  20  22  1   
 38  20  40  1   
 39  21  22  2   
 40  22  23  1   
 41  23  24  1   
 42  23  41  1   
 43  23  42  1   
 44  24  25  1   
 45  25  43  1   
 46  25  44  1   
 47  25  45  1   
@<TRIPOS>SUBSTRUCTURE
  1 ****   9 GROUP 4 **** **** 0

# MOE 2024.06 (io_trps.svl 2023.06)
