@<TRIPOS>MOLECULE
NONAME
53 55 1 0 0 
SMALL
USER_CHARGES


@<TRIPOS>ATOM
  1 O       -0.4320     1.0410    -1.2440 O.2   1 <1>  -0.5700 
  2 C       -0.6120     2.2330    -1.1610 C.2   1 <1>   0.5690 
  3 N       -1.2730     2.8320    -0.1170 N.am  1 <1>  -0.6600 
  4 C       -0.0650     3.1060    -2.2890 C.3   1 <1>   0.1810 
  5 C       -1.4360     4.3260    -0.0750 C.3   1 <1>   0.3640 
  6 C       -1.7500     2.1210     1.1030 C.3   1 <1>   0.2200 
  7 O        0.3270     4.3700    -1.8240 O.3   1 <1>  -0.5600 
  8 C       -2.9200     4.6940    -0.0600 C.ar  1 <1>  -0.1440 
  9 C       -0.7240     5.1000    -1.2150 C.3   1 <1>   0.2610 
 10 C       -0.5590     1.5660     1.8830 C.3   1 <1>  -0.2400 
 11 C       -2.7660     1.0310     0.7590 C.3   1 <1>  -0.2400 
 12 C       -3.3750     5.6830     0.8010 C.ar  1 <1>  -0.1500 
 13 C       -3.8290     4.0660    -0.9030 C.ar  1 <1>  -0.1500 
 14 C       -0.2440     6.4540    -0.6730 C.2   1 <1>   0.5690 
 15 C       -4.7140     6.0330     0.8260 C.ar  1 <1>  -0.1500 
 16 C       -5.1680     4.4140    -0.8780 C.ar  1 <1>  -0.1500 
 17 O       -0.8800     7.4250    -1.0160 O.2   1 <1>  -0.5700 
 18 N        0.8260     6.5780     0.1920 N.am  1 <1>  -0.6600 
 19 C       -5.6120     5.3980    -0.0130 C.ar  1 <1>  -0.1500 
 20 C        1.7060     5.4640     0.6510 C.3   1 <1>   0.1400 
 21 C        1.3250     7.9200     0.6070 C.3   1 <1>   0.1400 
 22 C        3.1060     5.6500     0.0590 C.3   1 <1>  -0.1600 
 23 C        2.7250     8.1420     0.0270 C.3   1 <1>  -0.1600 
 24 C        3.6950     7.0200     0.4310 C.3   1 <1>  -0.0800 
 25 C        5.0610     7.2190    -0.2350 C.3   1 <1>  -0.2400 
 26 H       -0.8110     3.2320    -3.0520 H     1 <1>   0.0800 
 27 H        0.7990     2.6340    -2.7180 H     1 <1>   0.0800 
 28 H       -1.0110     4.6560     0.8560 H     1 <1>   0.0800 
 29 H       -2.2530     2.8300     1.7400 H     1 <1>   0.0800 
 30 H       -1.4410     5.3050    -1.9900 H     1 <1>   0.0800 
 31 H       -0.0560     0.8010     1.3200 H     1 <1>   0.0800 
 32 H       -0.8990     1.1330     2.8060 H     1 <1>   0.0800 
 33 H        0.1360     2.3530     2.1120 H     1 <1>   0.0800 
 34 H       -2.3120     0.2340     0.2010 H     1 <1>   0.0800 
 35 H       -3.5780     1.4450     0.1910 H     1 <1>   0.0800 
 36 H       -3.1690     0.6150     1.6640 H     1 <1>   0.0800 
 37 H       -2.6900     6.1960     1.4550 H     1 <1>   0.1500 
 38 H       -3.5000     3.2980    -1.5810 H     1 <1>   0.1500 
 39 H       -5.0560     6.8020     1.4960 H     1 <1>   0.1500 
 40 H       -5.8650     3.9200    -1.5330 H     1 <1>   0.1500 
 41 H       -6.6530     5.6700     0.0060 H     1 <1>   0.1500 
 42 H        1.7640     5.4860     1.7260 H     1 <1>   0.0800 
 43 H        1.3200     4.5040     0.3660 H     1 <1>   0.0800 
 44 H        0.6660     8.7000     0.2630 H     1 <1>   0.0800 
 45 H        1.3600     7.9670     1.6820 H     1 <1>   0.0800 
 46 H        3.7470     4.8670     0.4210 H     1 <1>   0.0800 
 47 H        3.0400     5.5520    -1.0110 H     1 <1>   0.0800 
 48 H        2.6450     8.1910    -1.0450 H     1 <1>   0.0800 
 49 H        3.1010     9.0900     0.3700 H     1 <1>   0.0800 
 50 H        3.8310     7.0550     1.5000 H     1 <1>   0.0800 
 51 H        4.9660     7.1910    -1.3070 H     1 <1>   0.0800 
 52 H        5.7420     6.4450     0.0700 H     1 <1>   0.0800 
 53 H        5.4790     8.1690     0.0470 H     1 <1>   0.0800 
@<TRIPOS>BOND
  1   1   2  2   
  2   2   3  am  
  3   2   4  1   
  4   3   5  1   
  5   3   6  1   
  6   4   7  1   
  7   4  26  1   
  8   4  27  1   
  9   5   8  1   
 10   5   9  1   
 11   5  28  1   
 12   6  10  1   
 13   6  11  1   
 14   6  29  1   
 15   7   9  1   
 16   8  12  ar  
 17   8  13  ar  
 18   9  14  1   
 19   9  30  1   
 20  10  31  1   
 21  10  32  1   
 22  10  33  1   
 23  11  34  1   
 24  11  35  1   
 25  11  36  1   
 26  12  15  ar  
 27  12  37  1   
 28  13  16  ar  
 29  13  38  1   
 30  14  17  2   
 31  14  18  am  
 32  15  19  ar  
 33  15  39  1   
 34  16  19  ar  
 35  16  40  1   
 36  18  20  1   
 37  18  21  1   
 38  19  41  1   
 39  20  22  1   
 40  20  42  1   
 41  20  43  1   
 42  21  23  1   
 43  21  44  1   
 44  21  45  1   
 45  22  24  1   
 46  22  46  1   
 47  22  47  1   
 48  23  24  1   
 49  23  48  1   
 50  23  49  1   
 51  24  25  1   
 52  24  50  1   
 53  25  51  1   
 54  25  52  1   
 55  25  53  1   
@<TRIPOS>SUBSTRUCTURE
  1 ****   5 GROUP 4 **** **** 0

# MOE 2024.06 (io_trps.svl 2023.06)
