@<TRIPOS>MOLECULE
NONAME
44 45 1 0 0 
SMALL
USER_CHARGES


@<TRIPOS>ATOM
  1 O        1.8620     1.7240     0.4470 O.2   1 <1>  -0.5700 
  2 C        2.1640     0.8660    -0.3600 C.2   1 <1>   0.5440 
  3 N        1.9860     1.1390    -1.6870 N.am  1 <1>  -0.7300 
  4 C        2.7370    -0.3950     0.0740 C.ar  1 <1>   0.0860 
  5 C        1.5650     2.4500    -2.2370 C.3   1 <1>   0.1400 
  6 C        2.3500    -0.9800     1.2780 C.ar  1 <1>  -0.1500 
  7 C        3.7050    -1.0580    -0.6820 C.ar  1 <1>  -0.1500 
  8 C        2.7230     3.1220    -2.9810 C.3   1 <1>  -0.0990 
  9 C        2.8860    -2.1790     1.7110 C.ar  1 <1>   0.0830 
 10 C        4.2480    -2.2590    -0.2620 C.ar  1 <1>  -0.1500 
 11 C        3.9790     3.3790    -2.1680 C.2   1 <1>   0.5690 
 12 O        2.4330    -2.6560     2.8970 O.3   1 <1>  -0.3630 
 13 C        3.8420    -2.8240     0.9330 C.ar  1 <1>  -0.1500 
 14 O        5.0070     3.5460    -2.7770 O.2   1 <1>  -0.5700 
 15 N        3.9370     3.4290    -0.8110 N.am  1 <1>  -0.7300 
 16 C        2.9170    -3.8650     3.4370 C.3   1 <1>   0.0400 
 17 C        5.1090     3.6440     0.0700 C.3   1 <1>   0.1400 
 18 C        5.1460     2.5740     1.1710 C.3   1 <1>  -0.0800 
 19 C        4.1370     2.8800     2.2710 C.3   1 <1>   0.1200 
 20 C        6.4540     2.6140     1.9480 C.3   1 <1>  -0.1600 
 21 O        4.7870     3.7700     3.1200 O.3   1 <1>  -0.5600 
 22 C        6.1570     3.5220     3.1400 C.3   1 <1>   0.1200 
 23 H        2.1820     0.4070    -2.3720 H     1 <1>   0.3700 
 24 H        1.2210     3.0950    -1.4450 H     1 <1>   0.0800 
 25 H        0.7410     2.2970    -2.9130 H     1 <1>   0.0800 
 26 H        1.6150    -0.4880     1.8900 H     1 <1>   0.1500 
 27 H        4.0460    -0.6260    -1.6060 H     1 <1>   0.1500 
 28 H        2.3850     4.0700    -3.3550 H     1 <1>   0.0800 
 29 H        2.9870     2.5220    -3.8310 H     1 <1>   0.0800 
 30 H        4.9930    -2.7530    -0.8630 H     1 <1>   0.1500 
 31 H        4.2770    -3.7570     1.2390 H     1 <1>   0.1500 
 32 H        3.0780     3.1270    -0.3270 H     1 <1>   0.3700 
 33 H        2.4180    -4.0350     4.3750 H     1 <1>   0.0800 
 34 H        3.9770    -3.7770     3.5990 H     1 <1>   0.0800 
 35 H        2.6950    -4.6670     2.7550 H     1 <1>   0.0800 
 36 H        5.0530     4.6270     0.5070 H     1 <1>   0.0800 
 37 H        6.0090     3.5890    -0.5190 H     1 <1>   0.0800 
 38 H        4.9860     1.6020     0.7390 H     1 <1>   0.0800 
 39 H        3.8990     1.9930     2.8340 H     1 <1>   0.0800 
 40 H        3.2330     3.3350     1.9080 H     1 <1>   0.0800 
 41 H        7.2840     2.9780     1.3670 H     1 <1>   0.0800 
 42 H        6.6960     1.6310     2.3120 H     1 <1>   0.0800 
 43 H        6.6660     4.4660     3.0600 H     1 <1>   0.0800 
 44 H        6.4040     3.0460     4.0740 H     1 <1>   0.0800 
@<TRIPOS>BOND
  1   1   2  2   
  2   2   3  am  
  3   2   4  1   
  4   3   5  1   
  5   3  23  1   
  6   4   6  ar  
  7   4   7  ar  
  8   5   8  1   
  9   5  24  1   
 10   5  25  1   
 11   6   9  ar  
 12   6  26  1   
 13   7  10  ar  
 14   7  27  1   
 15   8  11  1   
 16   8  28  1   
 17   8  29  1   
 18   9  12  1   
 19   9  13  ar  
 20  10  13  ar  
 21  10  30  1   
 22  11  14  2   
 23  11  15  am  
 24  12  16  1   
 25  13  31  1   
 26  15  17  1   
 27  15  32  1   
 28  16  33  1   
 29  16  34  1   
 30  16  35  1   
 31  17  18  1   
 32  17  36  1   
 33  17  37  1   
 34  18  19  1   
 35  18  20  1   
 36  18  38  1   
 37  19  21  1   
 38  19  39  1   
 39  19  40  1   
 40  20  22  1   
 41  20  41  1   
 42  20  42  1   
 43  21  22  1   
 44  22  43  1   
 45  22  44  1   
@<TRIPOS>SUBSTRUCTURE
  1 ****   2 GROUP 4 **** **** 0

# MOE 2024.06 (io_trps.svl 2023.06)
