@<TRIPOS>MOLECULE
NONAME
52 55 1 0 0 
SMALL
USER_CHARGES


@<TRIPOS>ATOM
  1 F        0.6770     0.8730     0.7670 F     1 <1>  -0.1900 
  2 C        1.8180     1.4500     0.5100 C.ar  1 <1>   0.1900 
  3 C        2.8820     0.6790     0.1100 C.ar  1 <1>  -0.1500 
  4 C        1.9130     2.8240     0.6520 C.ar  1 <1>  -0.1500 
  5 C        4.0990     1.2980    -0.1620 C.ar  1 <1>   0.1170 
  6 C        3.1190     3.4360     0.3820 C.ar  1 <1>  -0.1500 
  7 N        5.1920     0.5420    -0.5670 N.am  1 <1>  -0.5470 
  8 C        4.2390     2.6960    -0.0280 C.ar  1 <1>   0.0280 
  9 C        6.4040     1.0830    -0.8470 C.2   1 <1>   0.6160 
 10 C        5.5260     3.2920    -0.3130 C.2   1 <1>  -0.0140 
 11 O        7.3100     0.3450    -1.1840 O.2   1 <1>  -0.5700 
 12 C        6.5490     2.4860    -0.7160 C.2   1 <1>  -0.1360 
 13 C        5.7180     4.7160    -0.1680 C.2   1 <1>   0.6160 
 14 O        5.1340     5.4750    -0.9180 O.2   1 <1>  -0.5700 
 15 N        6.5660     5.2320     0.7930 N.am  1 <1>  -0.6600 
 16 C        6.8780     6.6900     0.8540 C.3   1 <1>   0.1400 
 17 C        7.1760     4.4040     1.8740 C.3   1 <1>   0.0600 
 18 C        8.3010     6.9650     0.3490 C.3   1 <1>  -0.0800 
 19 C        8.6490     8.4620     0.3730 C.3   1 <1>   0.1400 
 20 C        8.5490     6.5170    -1.1040 C.3   1 <1>  -0.0990 
 21 N        9.5060     8.6460    -0.8130 N.am  1 <1>  -0.6600 
 22 C        9.4700     7.5760    -1.6380 C.2   1 <1>   0.5690 
 23 C       10.2810     9.8840    -1.0950 C.3   1 <1>   0.2200 
 24 O       10.0830     7.4520    -2.6710 O.2   1 <1>  -0.5700 
 25 C       11.2620    10.1950     0.0340 C.3   1 <1>  -0.1600 
 26 C        9.3710    11.1080    -1.1600 C.3   1 <1>  -0.1600 
 27 C       10.5730    11.1920     0.9750 C.3   1 <1>  -0.1600 
 28 C        9.3130    11.6850     0.2570 C.3   1 <1>  -0.1600 
 29 H        2.7690    -0.3840     0.0100 H     1 <1>   0.1500 
 30 H        1.0530     3.3900     0.9650 H     1 <1>   0.1500 
 31 H        3.1890     4.5060     0.4870 H     1 <1>   0.1500 
 32 H        5.1290    -0.4690    -0.6840 H     1 <1>   0.3700 
 33 H        7.5190     2.8790    -0.9540 H     1 <1>   0.1500 
 34 H        6.7770     7.0320     1.8700 H     1 <1>   0.0800 
 35 H        6.1760     7.2480     0.2580 H     1 <1>   0.0800 
 36 H        6.6280     3.4880     2.0140 H     1 <1>   0.0800 
 37 H        7.1630     4.9450     2.8040 H     1 <1>   0.0800 
 38 H        8.1940     4.1670     1.6200 H     1 <1>   0.0800 
 39 H        9.0070     6.4680     0.9900 H     1 <1>   0.0800 
 40 H        9.1720     8.7230     1.2760 H     1 <1>   0.0800 
 41 H        7.7670     9.0700     0.2670 H     1 <1>   0.0800 
 42 H        7.6440     6.5290    -1.6840 H     1 <1>   0.0800 
 43 H        9.0060     5.5470    -1.1540 H     1 <1>   0.0800 
 44 H       10.8080     9.7600    -2.0270 H     1 <1>   0.0800 
 45 H       12.1240    10.6730    -0.3970 H     1 <1>   0.0800 
 46 H       11.5890     9.3030     0.5400 H     1 <1>   0.0800 
 47 H        8.3990    10.8710    -1.5570 H     1 <1>   0.0800 
 48 H        9.8350    11.8330    -1.8060 H     1 <1>   0.0800 
 49 H       11.2340    12.0140     1.1910 H     1 <1>   0.0800 
 50 H       10.3080    10.7150     1.9030 H     1 <1>   0.0800 
 51 H        8.4380    11.3180     0.7650 H     1 <1>   0.0800 
 52 H        9.2670    12.7610     0.2340 H     1 <1>   0.0800 
@<TRIPOS>BOND
  1   1   2  1   
  2   2   3  ar  
  3   2   4  ar  
  4   3   5  ar  
  5   3  29  1   
  6   4   6  ar  
  7   4  30  1   
  8   5   7  1   
  9   5   8  ar  
 10   6   8  ar  
 11   6  31  1   
 12   7   9  am  
 13   7  32  1   
 14   8  10  1   
 15   9  11  2   
 16   9  12  1   
 17  10  12  2   
 18  10  13  1   
 19  12  33  1   
 20  13  14  2   
 21  13  15  am  
 22  15  16  1   
 23  15  17  1   
 24  16  18  1   
 25  16  34  1   
 26  16  35  1   
 27  17  36  1   
 28  17  37  1   
 29  17  38  1   
 30  18  19  1   
 31  18  20  1   
 32  18  39  1   
 33  19  21  1   
 34  19  40  1   
 35  19  41  1   
 36  20  22  1   
 37  20  42  1   
 38  20  43  1   
 39  21  22  am  
 40  21  23  1   
 41  22  24  2   
 42  23  25  1   
 43  23  26  1   
 44  23  44  1   
 45  25  27  1   
 46  25  45  1   
 47  25  46  1   
 48  26  28  1   
 49  26  47  1   
 50  26  48  1   
 51  27  28  1   
 52  27  49  1   
 53  27  50  1   
 54  28  51  1   
 55  28  52  1   
@<TRIPOS>SUBSTRUCTURE
  1 ****  15 GROUP 4 **** **** 0

# MOE 2024.06 (io_trps.svl 2023.06)
