@<TRIPOS>MOLECULE
NONAME
62 65 1 0 0 
SMALL
USER_CHARGES


@<TRIPOS>ATOM
  1 O        0.6250    -0.2550     0.5030 O.2   1 <1>  -0.5700 
  2 C        0.0690     0.7460     0.1180 C.2   1 <1>   0.5690 
  3 N       -1.2920     0.8970     0.2130 N.am  1 <1>  -0.6600 
  4 C        0.9440     1.8460    -0.4540 C.3   1 <1>  -0.0990 
  5 C       -2.0300     2.1590    -0.1380 C.3   1 <1>   0.1400 
  6 C       -2.1170    -0.2210     0.7670 C.3   1 <1>   0.1400 
  7 C        1.3570     2.8390     0.6390 C.3   1 <1>  -0.0160 
  8 C       -3.1900     2.4280     0.8380 C.3   1 <1>   0.1440 
  9 C       -3.5910    -0.0850     0.3660 C.3   1 <1>  -0.1600 
 10 C        2.0330     4.0540     0.0260 C.ar  1 <1>  -0.1440 
 11 C       -3.7920     3.7740     0.4740 C.ar  1 <1>   0.1670 
 12 C       -4.2170     1.2660     0.7720 C.3   1 <1>  -0.1600 
 13 C       -2.6680     2.6820     2.2840 C.3   1 <1>  -0.1600 
 14 C        3.4050     4.0730    -0.1590 C.ar  1 <1>  -0.1500 
 15 C        1.2790     5.1510    -0.3560 C.ar  1 <1>  -0.1500 
 16 N       -4.5140     4.0170    -0.5920 N.ar  1 <1>  -0.6200 
 17 C       -3.4630     4.7390     1.3780 C.ar  1 <1>  -0.1430 
 18 C       -2.5930     4.2050     2.4860 C.3   1 <1>  -0.0170 
 19 C        4.0300     5.1840    -0.7230 C.ar  1 <1>   0.0820 
 20 C        1.8930     6.2580    -0.9160 C.ar  1 <1>  -0.1500 
 21 C       -4.9300     5.2780    -0.7280 C.ar  1 <1>   0.7200 
 22 C       -3.9330     6.0080     1.1570 C.ar  1 <1>   0.1600 
 23 O        5.3740     5.2500    -0.9260 O.3   1 <1>  -0.3630 
 24 C        3.2650     6.2830    -1.1020 C.ar  1 <1>  -0.1430 
 25 N       -4.6680     6.2890     0.1070 N.ar  1 <1>  -0.6200 
 26 N       -5.6990     5.5650    -1.8390 N.pl3 1 <1>  -0.8380 
 27 C        6.2300     4.1860    -0.5760 C.3   1 <1>   0.0400 
 28 C        3.9230     7.5090    -1.7190 C.3   1 <1>  -0.0970 
 29 C       -5.9940     6.9630    -2.2570 C.3   1 <1>   0.1290 
 30 C       -6.3430     4.4970    -2.6540 C.3   1 <1>   0.1290 
 31 H        0.4310     2.3480    -1.2520 H     1 <1>   0.0800 
 32 H        1.8260     1.4000    -0.8760 H     1 <1>   0.0800 
 33 H       -2.4260     2.0650    -1.1350 H     1 <1>   0.0800 
 34 H       -1.3710     3.0060    -0.1270 H     1 <1>   0.0800 
 35 H       -2.0290    -0.2180     1.8400 H     1 <1>   0.0800 
 36 H       -1.7330    -1.1610     0.4070 H     1 <1>   0.0800 
 37 H        2.0240     2.3530     1.3300 H     1 <1>   0.0800 
 38 H        0.4960     3.1580     1.1980 H     1 <1>   0.0800 
 39 H       -4.1570    -0.8890     0.8010 H     1 <1>   0.0800 
 40 H       -3.6520    -0.1960    -0.7020 H     1 <1>   0.0800 
 41 H       -4.9750     1.4990     0.0450 H     1 <1>   0.0800 
 42 H       -4.7250     1.1640     1.7140 H     1 <1>   0.0800 
 43 H       -1.7150     2.2200     2.4720 H     1 <1>   0.0800 
 44 H       -3.3680     2.2930     3.0020 H     1 <1>   0.0800 
 45 H        3.9740     3.2140     0.1380 H     1 <1>   0.1500 
 46 H        0.2120     5.1540    -0.2240 H     1 <1>   0.1500 
 47 H       -1.5850     4.5580     2.3580 H     1 <1>   0.0800 
 48 H       -2.9630     4.4950     3.4550 H     1 <1>   0.0800 
 49 H        1.2910     7.1010    -1.2080 H     1 <1>   0.1500 
 50 H       -3.7020     6.8030     1.8450 H     1 <1>   0.1500 
 51 H        7.2350     4.4710    -0.8280 H     1 <1>   0.0800 
 52 H        5.9460     3.3120    -1.1340 H     1 <1>   0.0800 
 53 H        6.1540     4.0120     0.4830 H     1 <1>   0.0800 
 54 H        4.4330     7.2300    -2.6230 H     1 <1>   0.0800 
 55 H        4.6410     7.9200    -1.0320 H     1 <1>   0.0800 
 56 H        3.1970     8.2670    -1.9520 H     1 <1>   0.0800 
 57 H       -5.1880     7.6190    -1.9760 H     1 <1>   0.0800 
 58 H       -6.8980     7.2970    -1.7790 H     1 <1>   0.0800 
 59 H       -6.1140     7.0130    -3.3240 H     1 <1>   0.0800 
 60 H       -6.5260     3.6220    -2.0550 H     1 <1>   0.0800 
 61 H       -5.6970     4.2320    -3.4720 H     1 <1>   0.0800 
 62 H       -7.2850     4.8440    -3.0400 H     1 <1>   0.0800 
@<TRIPOS>BOND
  1   1   2  2   
  2   2   3  am  
  3   2   4  1   
  4   3   5  1   
  5   3   6  1   
  6   4   7  1   
  7   4  31  1   
  8   4  32  1   
  9   5   8  1   
 10   5  33  1   
 11   5  34  1   
 12   6   9  1   
 13   6  35  1   
 14   6  36  1   
 15   7  10  1   
 16   7  37  1   
 17   7  38  1   
 18   8  11  1   
 19   8  12  1   
 20   8  13  1   
 21   9  12  1   
 22   9  39  1   
 23   9  40  1   
 24  10  14  ar  
 25  10  15  ar  
 26  11  16  ar  
 27  11  17  ar  
 28  12  41  1   
 29  12  42  1   
 30  13  18  1   
 31  13  43  1   
 32  13  44  1   
 33  14  19  ar  
 34  14  45  1   
 35  15  20  ar  
 36  15  46  1   
 37  16  21  ar  
 38  17  18  1   
 39  17  22  ar  
 40  18  47  1   
 41  18  48  1   
 42  19  23  1   
 43  19  24  ar  
 44  20  24  ar  
 45  20  49  1   
 46  21  25  ar  
 47  21  26  1   
 48  22  25  ar  
 49  22  50  1   
 50  23  27  1   
 51  24  28  1   
 52  26  29  1   
 53  26  30  1   
 54  27  51  1   
 55  27  52  1   
 56  27  53  1   
 57  28  54  1   
 58  28  55  1   
 59  28  56  1   
 60  29  57  1   
 61  29  58  1   
 62  29  59  1   
 63  30  60  1   
 64  30  61  1   
 65  30  62  1   
@<TRIPOS>SUBSTRUCTURE
  1 ****   5 GROUP 4 **** **** 0

# MOE 2024.06 (io_trps.svl 2023.06)
