@<TRIPOS>MOLECULE
NONAME
47 49 1 0 0 
SMALL
USER_CHARGES


@<TRIPOS>ATOM
  1 S       -1.9510    -1.0880     2.3640 S.3   1 <1>  -0.0800 
  2 C       -2.3030    -2.3380     1.2170 C.2   1 <1>   0.4420 
  3 C       -1.7360    -2.3410     3.5380 C.2   1 <1>   0.2280 
  4 N       -2.2550    -3.5060     1.7370 N.2   1 <1>  -0.3380 
  5 N       -2.6190    -1.9680    -0.0690 N.am  1 <1>  -0.4940 
  6 N       -1.9260    -3.5050     3.0600 N.2   1 <1>  -0.3380 
  7 C       -2.7850    -2.6710    -1.2280 C.2   1 <1>   0.5690 
  8 O       -3.4200    -2.1440    -2.1040 O.2   1 <1>  -0.5700 
  9 C       -2.2240    -4.0890    -1.5630 C.3   1 <1>   0.4840 
 10 N       -3.1790    -5.2530    -1.3960 N.4   1 <1>  -0.9590 
 11 C       -0.8440    -4.4510    -1.0000 C.3   1 <1>  -0.2400 
 12 C       -4.3860    -5.0410    -2.2550 C.3   1 <1>   0.3430 
 13 C       -3.5590    -5.5370     0.0220 C.3   1 <1>   0.3430 
 14 C       -5.2570    -6.2920    -2.2420 C.3   1 <1>  -0.1600 
 15 C       -4.4170    -6.7960     0.0880 C.3   1 <1>  -0.1600 
 16 C       -5.6470    -6.6730    -0.8140 C.3   1 <1>   0.1500 
 17 S       -6.4600    -8.3240    -0.9060 S.3   1 <1>  -0.3320 
 18 C       -7.0600    -8.7200     0.7530 C.ar  1 <1>   0.1020 
 19 C       -7.1600   -10.0560     1.1270 C.ar  1 <1>  -0.1430 
 20 C       -7.4180    -7.7050     1.6280 C.ar  1 <1>  -0.1500 
 21 C       -7.6080   -10.3580     2.4040 C.ar  1 <1>  -0.1500 
 22 C       -6.7900   -11.1850     0.1750 C.3   1 <1>  -0.0970 
 23 C       -7.8620    -8.0230     2.9000 C.ar  1 <1>  -0.1500 
 24 C       -7.9530    -9.3480     3.2870 C.ar  1 <1>  -0.1500 
 25 H       -1.4690    -2.0560     4.5410 H     1 <1>   0.1500 
 26 H       -2.8860    -0.9880    -0.1730 H     1 <1>   0.3700 
 27 H       -2.0520    -4.0150    -2.6250 H     1 <1>   0.0800 
 28 H       -2.6960    -6.0890    -1.7470 H     1 <1>   0.4500 
 29 H       -0.8680    -4.7290     0.0350 H     1 <1>   0.0800 
 30 H       -0.1820    -3.6090    -1.1040 H     1 <1>   0.0800 
 31 H       -0.4230    -5.2650    -1.5600 H     1 <1>   0.0800 
 32 H       -4.0870    -4.8230    -3.2690 H     1 <1>   0.0800 
 33 H       -4.9540    -4.2000    -1.8890 H     1 <1>   0.0800 
 34 H       -4.1090    -4.7040     0.4300 H     1 <1>   0.0800 
 35 H       -2.6760    -5.6830     0.6250 H     1 <1>   0.0800 
 36 H       -4.7270    -7.1020    -2.7100 H     1 <1>   0.0800 
 37 H       -6.1490    -6.1090    -2.8160 H     1 <1>   0.0800 
 38 H       -4.7260    -6.9540     1.1060 H     1 <1>   0.0800 
 39 H       -3.8270    -7.6460    -0.2060 H     1 <1>   0.0800 
 40 H       -6.3630    -5.9730    -0.4210 H     1 <1>   0.0800 
 41 H       -7.3710    -6.6760     1.3370 H     1 <1>   0.1500 
 42 H       -7.6910   -11.3830     2.7210 H     1 <1>   0.1500 
 43 H       -7.4000   -11.1340    -0.7090 H     1 <1>   0.0800 
 44 H       -6.9420   -12.1450     0.6350 H     1 <1>   0.0800 
 45 H       -5.7570   -11.1050    -0.1090 H     1 <1>   0.0800 
 46 H       -8.1410    -7.2440     3.5880 H     1 <1>   0.1500 
 47 H       -8.2980    -9.5960     4.2760 H     1 <1>   0.1500 
@<TRIPOS>BOND
  1   1   2  1   
  2   1   3  1   
  3   2   4  2   
  4   2   5  1   
  5   3   6  2   
  6   3  25  1   
  7   4   6  1   
  8   5   7  am  
  9   5  26  1   
 10   7   8  2   
 11   7   9  1   
 12   9  10  1   
 13   9  11  1   
 14   9  27  1   
 15  10  12  1   
 16  10  13  1   
 17  10  28  1   
 18  11  29  1   
 19  11  30  1   
 20  11  31  1   
 21  12  14  1   
 22  12  32  1   
 23  12  33  1   
 24  13  15  1   
 25  13  34  1   
 26  13  35  1   
 27  14  16  1   
 28  14  36  1   
 29  14  37  1   
 30  15  16  1   
 31  15  38  1   
 32  15  39  1   
 33  16  17  1   
 34  16  40  1   
 35  17  18  1   
 36  18  19  ar  
 37  18  20  ar  
 38  19  21  ar  
 39  19  22  1   
 40  20  23  ar  
 41  20  41  1   
 42  21  24  ar  
 43  21  42  1   
 44  22  43  1   
 45  22  44  1   
 46  22  45  1   
 47  23  24  ar  
 48  23  46  1   
 49  24  47  1   
@<TRIPOS>SUBSTRUCTURE
  1 ****  13 GROUP 4 **** **** 0

# MOE 2024.06 (io_trps.svl 2023.06)
