@<TRIPOS>MOLECULE
NONAME
44 46 1 0 0 
SMALL
USER_CHARGES


@<TRIPOS>ATOM
  1 O       -0.1870    -0.0740    -0.3930 O.2   1 <1>  -0.5700 
  2 C        0.7480    -0.5800     0.1730 C.2   1 <1>   0.5690 
  3 N        1.8840     0.0930     0.5200 N.am  1 <1>  -0.4940 
  4 C        0.6490    -2.0510     0.5280 C.3   1 <1>  -0.0990 
  5 C        2.2500     1.4140     0.2320 C.2   1 <1>   0.2040 
  6 C        0.2920    -2.9040    -0.7010 C.3   1 <1>  -0.0220 
  7 O        1.5580     2.1670    -0.5900 O.3   1 <1>  -0.0190 
  8 C        3.2960     2.1440     0.6700 C.2   1 <1>  -0.1810 
  9 C        0.1940    -4.3880    -0.3320 C.2   1 <1>  -0.1240 
 10 N        2.0880     3.3550    -0.7260 N.2   1 <1>  -0.4100 
 11 C        3.1330     3.3680     0.0210 C.2   1 <1>   0.1080 
 12 C        4.4100     1.7720     1.6350 C.3   1 <1>  -0.0590 
 13 C        1.3440    -5.2410    -0.4860 C.2   1 <1>   0.3750 
 14 C       -0.9710    -4.9270     0.1460 C.2   1 <1>  -0.1690 
 15 C        4.0430     4.5780     0.1500 C.3   1 <1>   0.0210 
 16 N        1.3410    -6.4990    -0.1960 N.2   1 <1>  -0.5760 
 17 C        2.6610    -4.6960    -1.0110 C.3   1 <1>  -0.1790 
 18 N       -0.9610    -6.2840     0.4400 N.pl3 1 <1>   0.6010 
 19 C       -2.2930    -4.1980     0.4010 C.3   1 <1>  -0.1020 
 20 C        5.2220     4.4930    -0.8250 C.3   1 <1>  -0.2400 
 21 C        0.1690    -7.0240     0.2720 C.2   1 <1>   0.3120 
 22 N       -1.9220    -7.0760     0.9110 N.2   1 <1>  -0.7070 
 23 N       -0.0330    -8.2570     0.6150 N.2   1 <1>  -0.5650 
 24 C       -1.3100    -8.2170     0.9880 C.2   1 <1>   0.3660 
 25 H        2.5650    -0.4230     1.0700 H     1 <1>   0.3700 
 26 H       -0.1160    -2.1620     1.2750 H     1 <1>   0.0800 
 27 H        1.5760    -2.3920     0.9490 H     1 <1>   0.0800 
 28 H        1.0150    -2.7380    -1.4790 H     1 <1>   0.0800 
 29 H       -0.6430    -2.5670    -1.1120 H     1 <1>   0.0800 
 30 H        4.2860     0.7670     1.9930 H     1 <1>   0.0800 
 31 H        4.3990     2.4390     2.4790 H     1 <1>   0.0800 
 32 H        5.3630     1.8490     1.1440 H     1 <1>   0.0800 
 33 H        4.4050     4.6520     1.1590 H     1 <1>   0.0800 
 34 H        3.4710     5.4640    -0.0600 H     1 <1>   0.0800 
 35 H        2.9830    -3.8550    -0.4280 H     1 <1>   0.0800 
 36 H        2.5540    -4.4070    -2.0400 H     1 <1>   0.0800 
 37 H        3.4250    -5.4520    -0.9560 H     1 <1>   0.0800 
 38 H       -2.6200    -4.3800     1.4100 H     1 <1>   0.0800 
 39 H       -3.0490    -4.5740    -0.2670 H     1 <1>   0.0800 
 40 H       -2.2250    -3.1350     0.2690 H     1 <1>   0.0800 
 41 H        5.8160     3.6200    -0.6240 H     1 <1>   0.0800 
 42 H        5.8440     5.3660    -0.7310 H     1 <1>   0.0800 
 43 H        4.8570     4.4360    -1.8350 H     1 <1>   0.0800 
 44 H       -1.8000    -9.1120     1.3390 H     1 <1>   0.1500 
@<TRIPOS>BOND
  1   1   2  2   
  2   2   3  am  
  3   2   4  1   
  4   3   5  1   
  5   3  25  1   
  6   4   6  1   
  7   4  26  1   
  8   4  27  1   
  9   5   7  1   
 10   5   8  2   
 11   6   9  1   
 12   6  28  1   
 13   6  29  1   
 14   7  10  1   
 15   8  11  1   
 16   8  12  1   
 17   9  13  1   
 18   9  14  2   
 19  10  11  2   
 20  11  15  1   
 21  12  30  1   
 22  12  31  1   
 23  12  32  1   
 24  13  16  2   
 25  13  17  1   
 26  14  18  1   
 27  14  19  1   
 28  15  20  1   
 29  15  33  1   
 30  15  34  1   
 31  16  21  1   
 32  17  35  1   
 33  17  36  1   
 34  17  37  1   
 35  18  21  1   
 36  18  22  1   
 37  19  38  1   
 38  19  39  1   
 39  19  40  1   
 40  20  41  1   
 41  20  42  1   
 42  20  43  1   
 43  21  23  2   
 44  22  24  2   
 45  23  24  1   
 46  24  44  1   
@<TRIPOS>SUBSTRUCTURE
  1 ****   4 GROUP 4 **** **** 0

# MOE 2024.06 (io_trps.svl 2023.06)
