@<TRIPOS>MOLECULE
NONAME
52 55 1 0 0 
SMALL
USER_CHARGES


@<TRIPOS>ATOM
  1 S        1.1190     0.0650     2.9870 S.3   1 <1>  -0.0800 
  2 C        1.0800     0.8570     1.4090 C.ar  1 <1>   0.0400 
  3 C        2.6520    -0.7160     2.6160 C.2   1 <1>  -0.1100 
  4 C        2.2090     0.5220     0.6730 C.ar  1 <1>   0.0000 
  5 C        0.0880     1.6980     0.9450 C.ar  1 <1>  -0.1500 
  6 C        3.0750    -0.3930     1.3800 C.2   1 <1>  -0.1810 
  7 C        2.3440     1.0940    -0.5930 C.ar  1 <1>  -0.1500 
  8 C        0.2360     2.2400    -0.3170 C.ar  1 <1>  -0.1500 
  9 C        4.3360    -0.9210     0.7370 C.3   1 <1>   0.5240 
 10 C        1.3610     1.9400    -1.0780 C.ar  1 <1>  -0.1500 
 11 N        4.0530    -2.2780     0.1800 N.4   1 <1>  -0.9590 
 12 C        5.2840    -3.0260    -0.2870 C.3   1 <1>   0.4230 
 13 C        3.0330    -2.1810    -0.9150 C.3   1 <1>   0.3430 
 14 C        4.9220    -4.4750    -0.7220 C.3   1 <1>   0.0000 
 15 C        6.4610    -3.0220     0.7250 C.3   1 <1>   0.1400 
 16 C        2.6380    -3.5680    -1.4230 C.3   1 <1>  -0.1600 
 17 C        6.1990    -5.1330    -1.3000 C.3   1 <1>  -0.1600 
 18 C        3.8610    -4.3960    -1.8450 C.3   1 <1>  -0.1600 
 19 C        4.3870    -5.2990     0.4860 C.3   1 <1>   0.1200 
 20 N        7.6390    -3.7380     0.1530 N.am  1 <1>  -0.6600 
 21 C        7.3700    -5.1340    -0.3120 C.3   1 <1>   0.1400 
 22 O        4.1300    -6.6090     0.1270 O.3   1 <1>  -0.6800 
 23 C        8.9070    -3.2140     0.0470 C.2   1 <1>   0.5690 
 24 O        9.7890    -3.7900    -0.5360 O.2   1 <1>  -0.5700 
 25 C        9.2510    -1.8740     0.6550 C.3   1 <1>  -0.1790 
 26 H        3.0560    -1.3440     3.3930 H     1 <1>   0.1500 
 27 H       -0.7700     1.9220     1.5560 H     1 <1>   0.1500 
 28 H        3.2050     0.8970    -1.2030 H     1 <1>   0.1500 
 29 H       -0.5180     2.9010    -0.7110 H     1 <1>   0.1500 
 30 H        5.0970    -0.9820     1.4970 H     1 <1>   0.0800 
 31 H        4.6770    -0.2490    -0.0350 H     1 <1>   0.0800 
 32 H        1.4630     2.3830    -2.0560 H     1 <1>   0.1500 
 33 H        3.6110    -2.8080     0.9400 H     1 <1>   0.4500 
 34 H        5.6510    -2.5220    -1.1660 H     1 <1>   0.0800 
 35 H        2.1470    -1.6790    -0.5600 H     1 <1>   0.0800 
 36 H        3.4350    -1.6070    -1.7350 H     1 <1>   0.0800 
 37 H        6.1790    -3.5050     1.6430 H     1 <1>   0.0800 
 38 H        6.7380    -2.0110     0.9480 H     1 <1>   0.0800 
 39 H        2.0690    -4.0810    -0.6680 H     1 <1>   0.0800 
 40 H        1.9860    -3.4490    -2.2720 H     1 <1>   0.0800 
 41 H        6.5200    -4.6160    -2.1880 H     1 <1>   0.0800 
 42 H        6.0000    -6.1500    -1.5910 H     1 <1>   0.0800 
 43 H        4.2970    -3.9360    -2.7170 H     1 <1>   0.0800 
 44 H        3.5470    -5.3830    -2.1430 H     1 <1>   0.0800 
 45 H        3.4750    -4.8910     0.8850 H     1 <1>   0.0800 
 46 H        5.1070    -5.3420     1.2840 H     1 <1>   0.0800 
 47 H        8.2370    -5.5510    -0.7980 H     1 <1>   0.0800 
 48 H        7.1520    -5.7600     0.5360 H     1 <1>   0.0800 
 49 H        3.4070    -6.6800    -0.5280 H     1 <1>   0.4000 
 50 H        8.9820    -1.8570     1.6940 H     1 <1>   0.0800 
 51 H        8.7500    -1.0870     0.1250 H     1 <1>   0.0800 
 52 H       10.3110    -1.7100     0.5800 H     1 <1>   0.0800 
@<TRIPOS>BOND
  1   1   2  1   
  2   1   3  1   
  3   2   4  ar  
  4   2   5  ar  
  5   3   6  2   
  6   3  26  1   
  7   4   6  1   
  8   4   7  ar  
  9   5   8  ar  
 10   5  27  1   
 11   6   9  1   
 12   7  10  ar  
 13   7  28  1   
 14   8  10  ar  
 15   8  29  1   
 16   9  11  1   
 17   9  30  1   
 18   9  31  1   
 19  10  32  1   
 20  11  12  1   
 21  11  13  1   
 22  11  33  1   
 23  12  14  1   
 24  12  15  1   
 25  12  34  1   
 26  13  16  1   
 27  13  35  1   
 28  13  36  1   
 29  14  17  1   
 30  14  18  1   
 31  14  19  1   
 32  15  20  1   
 33  15  37  1   
 34  15  38  1   
 35  16  18  1   
 36  16  39  1   
 37  16  40  1   
 38  17  21  1   
 39  17  41  1   
 40  17  42  1   
 41  18  43  1   
 42  18  44  1   
 43  19  22  1   
 44  19  45  1   
 45  19  46  1   
 46  20  21  1   
 47  20  23  am  
 48  21  47  1   
 49  21  48  1   
 50  22  49  1   
 51  23  24  2   
 52  23  25  1   
 53  25  50  1   
 54  25  51  1   
 55  25  52  1   
@<TRIPOS>SUBSTRUCTURE
  1 ****  11 GROUP 4 **** **** 0

# MOE 2024.06 (io_trps.svl 2023.06)
