@<TRIPOS>MOLECULE
NONAME
42 43 1 0 0 
SMALL
USER_CHARGES


@<TRIPOS>ATOM
  1 S       -0.0030     0.0370     0.9310 S.o2  1 <1>   1.3330 
  2 O       -1.0070    -0.8680     1.4410 O.2   1 <1>  -0.6500 
  3 O        1.0470     0.5040     1.8090 O.2   1 <1>  -0.6500 
  4 N        0.7330    -0.7190    -0.4010 N.am  1 <1>  -0.8490 
  5 C       -0.8120     1.4650     0.2050 C.3   1 <1>  -0.0550 
  6 C        1.8820    -1.5370     0.0000 C.3   1 <1>   0.1160 
  7 C       -0.1970    -1.5330    -1.1910 C.3   1 <1>   0.1160 
  8 C        0.1530     2.4520    -0.4860 C.3   1 <1>  -0.0800 
  9 C       -0.5370     3.5350    -1.3140 C.3   1 <1>   0.2000 
 10 C        1.0530     3.2310     0.4920 C.3   1 <1>   0.1100 
 11 O       -1.6550     3.9810    -0.6320 O.3   1 <1>  -0.6800 
 12 C        0.4850     4.6610    -1.2850 C.3   1 <1>   0.1100 
 13 N        0.9780     4.6490     0.1010 N.3   1 <1>  -0.8100 
 14 C        2.2800     5.3370     0.2280 C.3   1 <1>   0.2900 
 15 C        2.2010     6.7930    -0.2160 C.2   1 <1>   0.0060 
 16 N        2.9460     7.2920    -1.1530 N.2   1 <1>  -0.5650 
 17 N        1.3430     7.6900     0.3310 N.pl3 1 <1>   0.0480 
 18 C        2.5550     8.5780    -1.2240 C.2   1 <1>   0.0770 
 19 C        1.5800     8.8380    -0.3280 C.2   1 <1>  -0.3020 
 20 C        0.3410     7.4790     1.3910 C.3   1 <1>   0.0160 
 21 H       -1.5280     1.1270    -0.5170 H     1 <1>   0.0800 
 22 H       -1.3560     1.9820     0.9710 H     1 <1>   0.0800 
 23 H        2.3340    -1.9960    -0.8620 H     1 <1>   0.0800 
 24 H        1.5730    -2.3050     0.6900 H     1 <1>   0.0800 
 25 H        2.6250    -0.9210     0.4800 H     1 <1>   0.0800 
 26 H        0.3010    -1.9220    -2.0630 H     1 <1>   0.0800 
 27 H       -1.0310    -0.9360    -1.5170 H     1 <1>   0.0800 
 28 H       -0.5700    -2.3570    -0.6050 H     1 <1>   0.0800 
 29 H        0.7970     1.9010    -1.1490 H     1 <1>   0.0800 
 30 H       -0.8230     3.2230    -2.3040 H     1 <1>   0.0800 
 31 H        2.0630     2.8570     0.4280 H     1 <1>   0.0800 
 32 H        0.7140     3.1290     1.5090 H     1 <1>   0.0800 
 33 H       -1.3130     4.4810     0.1390 H     1 <1>   0.4000 
 34 H        0.0490     5.6110    -1.5470 H     1 <1>   0.0800 
 35 H        1.2880     4.4410    -1.9680 H     1 <1>   0.0800 
 36 H        2.6040     5.3030     1.2530 H     1 <1>   0.0800 
 37 H        3.0200     4.8340    -0.3730 H     1 <1>   0.0800 
 38 H        3.0040     9.2590    -1.9280 H     1 <1>   0.1500 
 39 H        1.0550     9.7540    -0.1330 H     1 <1>   0.1500 
 40 H        0.0410     8.4260     1.7980 H     1 <1>   0.0800 
 41 H        0.7650     6.8700     2.1680 H     1 <1>   0.0800 
 42 H       -0.5110     6.9780     0.9700 H     1 <1>   0.0800 
@<TRIPOS>BOND
  1   1   2  2   
  2   1   3  2   
  3   1   4  am  
  4   1   5  1   
  5   4   6  1   
  6   4   7  1   
  7   5   8  1   
  8   5  21  1   
  9   5  22  1   
 10   6  23  1   
 11   6  24  1   
 12   6  25  1   
 13   7  26  1   
 14   7  27  1   
 15   7  28  1   
 16   8   9  1   
 17   8  10  1   
 18   8  29  1   
 19   9  11  1   
 20   9  12  1   
 21   9  30  1   
 22  10  13  1   
 23  10  31  1   
 24  10  32  1   
 25  11  33  1   
 26  12  13  1   
 27  12  34  1   
 28  12  35  1   
 29  13  14  1   
 30  14  15  1   
 31  14  36  1   
 32  14  37  1   
 33  15  16  2   
 34  15  17  1   
 35  16  18  1   
 36  17  19  1   
 37  17  20  1   
 38  18  19  2   
 39  18  38  1   
 40  19  39  1   
 41  20  40  1   
 42  20  41  1   
 43  20  42  1   
@<TRIPOS>SUBSTRUCTURE
  1 ****  10 GROUP 4 **** **** 0

# MOE 2024.06 (io_trps.svl 2023.06)
