@<TRIPOS>MOLECULE
NONAME
43 45 1 0 0 
SMALL
USER_CHARGES


@<TRIPOS>ATOM
  1 F       -3.7350     1.0720    -0.2550 F     1 <1>  -0.3400 
  2 C       -3.0930     0.6080    -1.3250 C.3   1 <1>   1.2010 
  3 F       -3.6240     1.2430    -2.3680 F     1 <1>  -0.3400 
  4 F       -1.8440     1.0600    -1.2270 F     1 <1>  -0.3400 
  5 C       -3.1610    -0.9460    -1.4450 C.2   1 <1>   0.3350 
  6 N       -3.6880    -1.5920    -2.4210 N.2   1 <1>  -0.4100 
  7 N       -2.6620    -1.7710    -0.5120 N.2   1 <1>  -0.5650 
  8 O       -3.5650    -2.8590    -2.1730 O.3   1 <1>  -0.0190 
  9 C       -2.9550    -2.9050    -1.0160 C.2   1 <1>   0.2980 
 10 C       -2.6370    -4.2710    -0.4090 C.3   1 <1>   0.2900 
 11 N       -3.7780    -4.8970     0.3040 N.3   1 <1>  -0.8100 
 12 C       -3.3260    -6.0880     1.0830 C.3   1 <1>   0.1710 
 13 C       -4.8950    -5.2770    -0.5830 C.3   1 <1>   0.1100 
 14 C       -4.4440    -6.9620     1.6740 C.2   1 <1>   0.5690 
 15 C       -6.1040    -5.7750     0.2290 C.3   1 <1>   0.1400 
 16 O       -4.1370    -7.7860     2.5040 O.2   1 <1>  -0.5700 
 17 N       -5.7320    -6.8150     1.2340 N.am  1 <1>  -0.6600 
 18 C       -6.8470    -7.6270     1.7880 C.3   1 <1>   0.2840 
 19 C       -7.4420    -8.5060     0.6980 C.ar  1 <1>  -0.1430 
 20 C       -8.7220    -8.2740     0.2160 C.ar  1 <1>  -0.1500 
 21 C       -6.6990    -9.5530     0.1740 C.ar  1 <1>  -0.1500 
 22 C       -9.2480    -9.0800    -0.7770 C.ar  1 <1>  -0.1500 
 23 C       -7.2230   -10.3620    -0.8190 C.ar  1 <1>  -0.1500 
 24 C       -8.5080   -10.1270    -1.3010 C.ar  1 <1>   0.0820 
 25 O       -9.0990   -10.8690    -2.2710 O.3   1 <1>  -0.3630 
 26 C       -8.4400   -11.9720    -2.8520 C.3   1 <1>   0.0400 
 27 H       -1.8340    -4.1270     0.2920 H     1 <1>   0.0800 
 28 H       -2.2840    -4.9270    -1.1850 H     1 <1>   0.0800 
 29 H       -2.7050    -5.7570     1.8960 H     1 <1>   0.0800 
 30 H       -2.7320    -6.7250     0.4520 H     1 <1>   0.0800 
 31 H       -4.5820    -6.0480    -1.2660 H     1 <1>   0.0800 
 32 H       -5.2170    -4.4280    -1.1590 H     1 <1>   0.0800 
 33 H       -6.8340    -6.1740    -0.4540 H     1 <1>   0.0800 
 34 H       -6.5480    -4.9400     0.7430 H     1 <1>   0.0800 
 35 H       -7.5960    -6.9680     2.1900 H     1 <1>   0.0800 
 36 H       -6.4960    -8.2510     2.5920 H     1 <1>   0.0800 
 37 H       -9.3150    -7.4670     0.6100 H     1 <1>   0.1500 
 38 H       -5.7040    -9.7350     0.5460 H     1 <1>   0.1500 
 39 H      -10.2400    -8.9050    -1.1530 H     1 <1>   0.1500 
 40 H       -6.6210   -11.1640    -1.2000 H     1 <1>   0.1500 
 41 H       -9.0980   -12.4070    -3.5830 H     1 <1>   0.0800 
 42 H       -8.2210   -12.6920    -2.0830 H     1 <1>   0.0800 
 43 H       -7.5390   -11.6290    -3.3280 H     1 <1>   0.0800 
@<TRIPOS>BOND
  1   1   2  1   
  2   2   3  1   
  3   2   4  1   
  4   2   5  1   
  5   5   6  2   
  6   5   7  1   
  7   6   8  1   
  8   7   9  2   
  9   8   9  1   
 10   9  10  1   
 11  10  11  1   
 12  10  27  1   
 13  10  28  1   
 14  11  12  1   
 15  11  13  1   
 16  12  14  1   
 17  12  29  1   
 18  12  30  1   
 19  13  15  1   
 20  13  31  1   
 21  13  32  1   
 22  14  16  2   
 23  14  17  am  
 24  15  17  1   
 25  15  33  1   
 26  15  34  1   
 27  17  18  1   
 28  18  19  1   
 29  18  35  1   
 30  18  36  1   
 31  19  20  ar  
 32  19  21  ar  
 33  20  22  ar  
 34  20  37  1   
 35  21  23  ar  
 36  21  38  1   
 37  22  24  ar  
 38  22  39  1   
 39  23  24  ar  
 40  23  40  1   
 41  24  25  1   
 42  25  26  1   
 43  26  41  1   
 44  26  42  1   
 45  26  43  1   
@<TRIPOS>SUBSTRUCTURE
  1 ****  13 GROUP 4 **** **** 0

# MOE 2024.06 (io_trps.svl 2023.06)
