@<TRIPOS>MOLECULE
NONAME
46 48 1 0 0 
SMALL
USER_CHARGES


@<TRIPOS>ATOM
  1 O       -2.4410     1.1690    -0.7240 O.3   1 <1>  -0.5600 
  2 C       -2.3760     1.9050    -1.9170 C.3   1 <1>   0.2000 
  3 C       -1.7910    -0.0760    -0.6920 C.3   1 <1>   0.2640 
  4 C       -0.9240     2.3180    -2.2580 C.3   1 <1>   0.3430 
  5 C       -3.2050     3.1790    -1.6860 C.3   1 <1>  -0.1600 
  6 C       -0.5180     0.0420     0.1400 C.ar  1 <1>   0.1660 
  7 N       -0.2560     3.0300    -1.1170 N.4   1 <1>  -0.9590 
  8 C       -2.4080     4.2940    -0.9640 C.3   1 <1>  -0.1600 
  9 N        0.6190     0.2970    -0.5030 N.ar  1 <1>  -0.6200 
 10 C       -0.6130    -0.1020     1.5170 C.ar  1 <1>  -0.1500 
 11 C       -1.1890     3.7610    -0.1980 C.3   1 <1>   0.3430 
 12 C        0.9260     3.8310    -1.5340 C.3   1 <1>   0.5230 
 13 C        1.6990     0.3860     0.2640 C.ar  1 <1>   0.1600 
 14 C        0.5160     0.0110     2.2970 C.ar  1 <1>  -0.1500 
 15 C        1.8320     4.1370    -0.3480 C.2   1 <1>   0.0060 
 16 C        1.7000     0.2610     1.6410 C.ar  1 <1>  -0.1500 
 17 N        1.7560     3.5580     0.8010 N.2   1 <1>  -0.3380 
 18 N        2.8200     5.0370    -0.3660 N.pl3 1 <1>   0.0330 
 19 N        2.7090     4.0800     1.5690 N.2   1 <1>  -0.3380 
 20 C        3.3310     4.9570     0.8620 C.2   1 <1>   0.0060 
 21 C        4.4980     5.7940     1.3540 C.3   1 <1>   0.0200 
 22 C        4.1530     7.2870     1.3740 C.3   1 <1>  -0.2400 
 23 H       -2.8120     1.3130    -2.7040 H     1 <1>   0.0800 
 24 H       -1.5750    -0.4170    -1.6890 H     1 <1>   0.0800 
 25 H       -2.4630    -0.7770    -0.2290 H     1 <1>   0.0800 
 26 H       -0.9600     2.9680    -3.1160 H     1 <1>   0.0800 
 27 H       -0.3550     1.4440    -2.5290 H     1 <1>   0.0800 
 28 H       -4.0850     2.9240    -1.1190 H     1 <1>   0.0800 
 29 H       -3.5410     3.5590    -2.6350 H     1 <1>   0.0800 
 30 H        0.1410     2.2680    -0.5240 H     1 <1>   0.4500 
 31 H       -3.0600     4.7990    -0.2730 H     1 <1>   0.0800 
 32 H       -2.0750     5.0270    -1.6770 H     1 <1>   0.0800 
 33 H       -1.5650    -0.2960     1.9790 H     1 <1>   0.1500 
 34 H       -0.6730     4.5620     0.3080 H     1 <1>   0.0800 
 35 H       -1.5390     3.0730     0.5570 H     1 <1>   0.0800 
 36 H        0.5970     4.7500    -1.9880 H     1 <1>   0.0800 
 37 H        1.4950     3.2740    -2.2600 H     1 <1>   0.0800 
 38 H        2.6390     0.5780    -0.2240 H     1 <1>   0.1500 
 39 H        0.4780    -0.0890     3.3690 H     1 <1>   0.1500 
 40 H        2.6180     0.3650     2.1920 H     1 <1>   0.1500 
 41 H        3.1400     5.6560    -1.1150 H     1 <1>   0.2700 
 42 H        5.3560     5.6220     0.7280 H     1 <1>   0.0800 
 43 H        4.7550     5.4790     2.3520 H     1 <1>   0.0800 
 44 H        3.9420     7.6470     0.3840 H     1 <1>   0.0800 
 45 H        4.9800     7.8480     1.7730 H     1 <1>   0.0800 
 46 H        3.2930     7.4570     1.9990 H     1 <1>   0.0800 
@<TRIPOS>BOND
  1   1   2  1   
  2   1   3  1   
  3   2   4  1   
  4   2   5  1   
  5   2  23  1   
  6   3   6  1   
  7   3  24  1   
  8   3  25  1   
  9   4   7  1   
 10   4  26  1   
 11   4  27  1   
 12   5   8  1   
 13   5  28  1   
 14   5  29  1   
 15   6   9  ar  
 16   6  10  ar  
 17   7  11  1   
 18   7  12  1   
 19   7  30  1   
 20   8  11  1   
 21   8  31  1   
 22   8  32  1   
 23   9  13  ar  
 24  10  14  ar  
 25  10  33  1   
 26  11  34  1   
 27  11  35  1   
 28  12  15  1   
 29  12  36  1   
 30  12  37  1   
 31  13  16  ar  
 32  13  38  1   
 33  14  16  ar  
 34  14  39  1   
 35  15  17  2   
 36  15  18  1   
 37  16  40  1   
 38  17  19  1   
 39  18  20  1   
 40  18  41  1   
 41  19  20  2   
 42  20  21  1   
 43  21  22  1   
 44  21  42  1   
 45  21  43  1   
 46  22  44  1   
 47  22  45  1   
 48  22  46  1   
@<TRIPOS>SUBSTRUCTURE
  1 ****   7 GROUP 4 **** **** 0

# MOE 2024.06 (io_trps.svl 2023.06)
