@<TRIPOS>MOLECULE
NONAME
40 42 1 0 0 
SMALL
USER_CHARGES


@<TRIPOS>ATOM
  1 CL       1.1190     3.4440     0.0570 Cl    1 <1>  -0.1770 
  2 C       -0.5760     3.0230    -0.0370 C.ar  1 <1>   0.1770 
  3 C       -1.4170     3.2360     1.0510 C.ar  1 <1>  -0.1440 
  4 C       -1.0410     2.4890    -1.2240 C.ar  1 <1>  -0.1500 
  5 C       -2.7580     2.8980     0.9270 C.ar  1 <1>  -0.1500 
  6 C       -0.9130     3.8280     2.3660 C.3   1 <1>   0.0450 
  7 C       -2.3780     2.1570    -1.3370 C.ar  1 <1>   0.0830 
  8 C       -3.2380     2.3550    -0.2540 C.ar  1 <1>   0.0830 
  9 C       -0.9560     5.3460     2.3670 C.2   1 <1>   0.5690 
 10 O       -2.8310     1.6480    -2.5100 O.3   1 <1>  -0.3630 
 11 O       -4.5510     2.0190    -0.3310 O.3   1 <1>  -0.3630 
 12 O       -1.5960     5.9160     3.2160 O.2   1 <1>  -0.5700 
 13 N       -0.2660     6.0310     1.4240 N.am  1 <1>  -0.7300 
 14 C       -4.2340     1.6190    -2.6990 C.3   1 <1>   0.1200 
 15 C       -4.9360     1.1820    -1.4060 C.3   1 <1>   0.1200 
 16 C       -0.1800     7.5110     1.3490 C.3   1 <1>   0.3200 
 17 C        1.2510     7.9660     1.1070 C.2   1 <1>   0.2980 
 18 O        2.1350     7.7800     2.0550 O.3   1 <1>  -0.0190 
 19 N        1.6910     8.5170     0.0470 N.2   1 <1>  -0.5650 
 20 N        3.2380     8.2440     1.5510 N.2   1 <1>  -0.4100 
 21 C        2.9700     8.6600     0.3760 C.2   1 <1>   0.3350 
 22 C        3.9810     9.2810    -0.5760 C.3   1 <1>   0.2510 
 23 S        4.4320     8.0980    -1.8900 S.3   1 <1>  -0.4600 
 24 C        5.6170     9.0200    -2.9050 C.3   1 <1>  -0.0100 
 25 H       -0.3750     2.3350    -2.0530 H     1 <1>   0.1500 
 26 H       -3.4450     3.0500     1.7410 H     1 <1>   0.1500 
 27 H        0.0930     3.5100     2.5670 H     1 <1>   0.0800 
 28 H       -1.5210     3.4700     3.1760 H     1 <1>   0.0800 
 29 H        0.2740     5.5240     0.7150 H     1 <1>   0.3700 
 30 H       -4.4470     0.9340    -3.4990 H     1 <1>   0.0800 
 31 H       -4.5540     2.6050    -2.9830 H     1 <1>   0.0800 
 32 H       -6.0040     1.2480    -1.5090 H     1 <1>   0.0800 
 33 H       -4.6660     0.1720    -1.1560 H     1 <1>   0.0800 
 34 H       -0.5410     7.9520     2.2610 H     1 <1>   0.0800 
 35 H       -0.7990     7.8560     0.5390 H     1 <1>   0.0800 
 36 H        4.8840     9.5360    -0.0530 H     1 <1>   0.0800 
 37 H        3.5660    10.1500    -1.0520 H     1 <1>   0.0800 
 38 H        5.9280     8.3750    -3.7080 H     1 <1>   0.0800 
 39 H        6.4520     9.2880    -2.2840 H     1 <1>   0.0800 
 40 H        5.1200     9.8930    -3.2890 H     1 <1>   0.0800 
@<TRIPOS>BOND
  1   1   2  1   
  2   2   3  ar  
  3   2   4  ar  
  4   3   5  ar  
  5   3   6  1   
  6   4   7  ar  
  7   4  25  1   
  8   5   8  ar  
  9   5  26  1   
 10   6   9  1   
 11   6  27  1   
 12   6  28  1   
 13   7   8  ar  
 14   7  10  1   
 15   8  11  1   
 16   9  12  2   
 17   9  13  am  
 18  10  14  1   
 19  11  15  1   
 20  13  16  1   
 21  13  29  1   
 22  14  15  1   
 23  14  30  1   
 24  14  31  1   
 25  15  32  1   
 26  15  33  1   
 27  16  17  1   
 28  16  34  1   
 29  16  35  1   
 30  17  18  1   
 31  17  19  2   
 32  18  20  1   
 33  19  21  1   
 34  20  21  2   
 35  21  22  1   
 36  22  23  1   
 37  22  36  1   
 38  22  37  1   
 39  23  24  1   
 40  24  38  1   
 41  24  39  1   
 42  24  40  1   
@<TRIPOS>SUBSTRUCTURE
  1 ****  13 GROUP 4 **** **** 0

# MOE 2024.06 (io_trps.svl 2023.06)
