@<TRIPOS>MOLECULE
NONAME
50 52 1 0 0 
SMALL
USER_CHARGES


@<TRIPOS>ATOM
  1 O        0.8960     0.1680    -1.3420 O.3   1 <1>  -0.5600 
  2 C        1.5670    -0.6140    -0.3950 C.3   1 <1>   0.2000 
  3 C       -0.4710    -0.0640    -1.2520 C.3   1 <1>   0.1200 
  4 C        0.5930    -0.7500     0.7800 C.3   1 <1>  -0.1600 
  5 C        2.9200     0.0530    -0.0600 C.3   1 <1>   0.3430 
  6 C       -0.7310    -0.2280     0.2370 C.3   1 <1>  -0.1600 
  7 N        2.8430     1.5330    -0.2670 N.4   1 <1>  -0.9590 
  8 C        4.1300     2.1030    -0.7540 C.3   1 <1>   0.3430 
  9 C        2.2730     2.2620     0.9000 C.3   1 <1>   0.3430 
 10 C        3.9360     3.5670    -1.1220 C.3   1 <1>  -0.1600 
 11 C        2.0680     3.7310     0.5460 C.3   1 <1>  -0.1600 
 12 C        3.3770     4.3450     0.0640 C.3   1 <1>   0.2890 
 13 N        3.1270     5.7190    -0.3680 N.pl3 1 <1>  -0.8690 
 14 C        4.0170     6.7270    -0.0200 C.ar  1 <1>   0.4100 
 15 N        5.3020     6.4190    -0.0280 N.ar  1 <1>  -0.6200 
 16 C        3.5090     8.0190     0.3330 C.ar  1 <1>   0.4100 
 17 C        6.0610     7.4540     0.3150 C.ar  1 <1>   0.1600 
 18 N        4.2880     9.0290     0.6780 N.ar  1 <1>  -0.6200 
 19 N        2.1280     8.2690     0.3180 N.pl3 1 <1>  -0.8380 
 20 C        5.5750     8.7040     0.6530 C.ar  1 <1>   0.1600 
 21 C        1.5960     8.6650    -1.0130 C.3   1 <1>   0.1290 
 22 C        1.5870     9.1060     1.4240 C.3   1 <1>   0.1290 
 23 H        1.7340    -1.5860    -0.8310 H     1 <1>   0.0800 
 24 H       -0.6960    -0.9700    -1.7920 H     1 <1>   0.0800 
 25 H       -1.0080     0.7650    -1.6820 H     1 <1>   0.0800 
 26 H        0.9050    -0.1940     1.6460 H     1 <1>   0.0800 
 27 H        0.5080    -1.7870     1.0590 H     1 <1>   0.0800 
 28 H        3.6560    -0.3600    -0.7300 H     1 <1>   0.0800 
 29 H        3.2220    -0.1860     0.9460 H     1 <1>   0.0800 
 30 H       -1.5480    -0.9060     0.4190 H     1 <1>   0.0800 
 31 H       -0.9700     0.7290     0.6670 H     1 <1>   0.0800 
 32 H        2.1420     1.6110    -1.0330 H     1 <1>   0.4500 
 33 H        4.4710     1.5610    -1.6210 H     1 <1>   0.0800 
 34 H        4.8810     2.0230     0.0160 H     1 <1>   0.0800 
 35 H        2.9430     2.1830     1.7420 H     1 <1>   0.0800 
 36 H        1.3240     1.8310     1.1750 H     1 <1>   0.0800 
 37 H        3.2740     3.6460    -1.9650 H     1 <1>   0.0800 
 38 H        4.8850     3.9870    -1.4020 H     1 <1>   0.0800 
 39 H        1.7270     4.2580     1.4190 H     1 <1>   0.0800 
 40 H        1.3140     3.8110    -0.2170 H     1 <1>   0.0800 
 41 H        4.0930     4.3420     0.8720 H     1 <1>   0.0800 
 42 H        2.1790     6.0630    -0.1680 H     1 <1>   0.4000 
 43 H        7.1240     7.2930     0.3250 H     1 <1>   0.1500 
 44 H        6.2730     9.4780     0.9180 H     1 <1>   0.1500 
 45 H        2.0340     8.0540    -1.7840 H     1 <1>   0.0800 
 46 H        1.8390     9.6960    -1.2100 H     1 <1>   0.0800 
 47 H        0.5280     8.5400    -1.0340 H     1 <1>   0.0800 
 48 H        2.0500     8.8260     2.3550 H     1 <1>   0.0800 
 49 H        0.5240     8.9650     1.5080 H     1 <1>   0.0800 
 50 H        1.7950    10.1460     1.2360 H     1 <1>   0.0800 
@<TRIPOS>BOND
  1   1   2  1   
  2   1   3  1   
  3   2   4  1   
  4   2   5  1   
  5   2  23  1   
  6   3   6  1   
  7   3  24  1   
  8   3  25  1   
  9   4   6  1   
 10   4  26  1   
 11   4  27  1   
 12   5   7  1   
 13   5  28  1   
 14   5  29  1   
 15   6  30  1   
 16   6  31  1   
 17   7   8  1   
 18   7   9  1   
 19   7  32  1   
 20   8  10  1   
 21   8  33  1   
 22   8  34  1   
 23   9  11  1   
 24   9  35  1   
 25   9  36  1   
 26  10  12  1   
 27  10  37  1   
 28  10  38  1   
 29  11  12  1   
 30  11  39  1   
 31  11  40  1   
 32  12  13  1   
 33  12  41  1   
 34  13  14  1   
 35  13  42  1   
 36  14  15  ar  
 37  14  16  ar  
 38  15  17  ar  
 39  16  18  ar  
 40  16  19  1   
 41  17  20  ar  
 42  17  43  1   
 43  18  20  ar  
 44  19  21  1   
 45  19  22  1   
 46  20  44  1   
 47  21  45  1   
 48  21  46  1   
 49  21  47  1   
 50  22  48  1   
 51  22  49  1   
 52  22  50  1   
@<TRIPOS>SUBSTRUCTURE
  1 ****  12 GROUP 4 **** **** 0

# MOE 2024.06 (io_trps.svl 2023.06)
