@<TRIPOS>MOLECULE
NONAME
41 43 1 0 0 
SMALL
USER_CHARGES


@<TRIPOS>ATOM
  1 S       -0.9300    -0.1100    -0.6780 S.3   1 <1>  -0.0800 
  2 C       -0.7710    -1.4120     0.4430 C.2   1 <1>   0.4420 
  3 C       -0.0860     0.9080     0.4540 C.2   1 <1>   0.3250 
  4 N       -0.1530    -1.0570     1.5090 N.2   1 <1>  -0.3380 
  5 N       -1.3060    -2.6200     0.0640 N.am  1 <1>  -0.4940 
  6 N        0.2310     0.2490     1.5120 N.2   1 <1>  -0.3380 
  7 C        0.1670     2.2970     0.1380 C.ar  1 <1>   0.0530 
  8 C       -1.4000    -3.8030     0.7420 C.2   1 <1>   0.5690 
  9 C        0.8290     3.1120     1.0590 C.ar  1 <1>  -0.1500 
 10 C       -0.2190     2.8950    -1.0660 C.ar  1 <1>  -0.1500 
 11 O       -1.0090    -3.9470     1.8750 O.2   1 <1>  -0.5700 
 12 C       -2.0470    -4.9840    -0.0130 C.3   1 <1>   0.2810 
 13 C        1.0910     4.4440     0.7990 C.ar  1 <1>  -0.1500 
 14 C        0.0410     4.2270    -1.3310 C.ar  1 <1>  -0.1500 
 15 N       -3.4650    -4.6890    -0.4040 N.am  1 <1>  -0.6600 
 16 C       -1.9620    -6.3310     0.7220 C.3   1 <1>  -0.2400 
 17 C        0.6970     5.0130    -0.3990 C.ar  1 <1>  -0.1430 
 18 C       -3.7970    -3.8420    -1.4000 C.2   1 <1>   0.5690 
 19 C       -4.6220    -5.0330     0.4460 C.3   1 <1>   0.1400 
 20 C        0.9840     6.4750    -0.6890 C.3   1 <1>  -0.0970 
 21 O       -3.0020    -3.2730    -2.1100 O.2   1 <1>  -0.5700 
 22 C       -5.2800    -3.6100    -1.4540 C.3   1 <1>  -0.0990 
 23 C       -5.8350    -4.5100    -0.3370 C.3   1 <1>  -0.1600 
 24 H       -1.7590    -2.6300    -0.8590 H     1 <1>   0.3700 
 25 H        1.1450     2.6920     1.9980 H     1 <1>   0.1500 
 26 H       -0.7310     2.3230    -1.8180 H     1 <1>   0.1500 
 27 H       -1.4860    -5.0960    -0.9250 H     1 <1>   0.0800 
 28 H        1.6050     5.0370     1.5350 H     1 <1>   0.1500 
 29 H       -0.2700     4.6530    -2.2690 H     1 <1>   0.1500 
 30 H       -2.4460    -6.2740     1.6810 H     1 <1>   0.0800 
 31 H       -0.9290    -6.5800     0.8910 H     1 <1>   0.0800 
 32 H       -2.4060    -7.1110     0.1320 H     1 <1>   0.0800 
 33 H       -4.5320    -4.5360     1.3980 H     1 <1>   0.0800 
 34 H       -4.6900    -6.0980     0.5930 H     1 <1>   0.0800 
 35 H        0.9930     7.0440     0.2230 H     1 <1>   0.0800 
 36 H        0.2310     6.8860    -1.3370 H     1 <1>   0.0800 
 37 H        1.9430     6.5700    -1.1670 H     1 <1>   0.0800 
 38 H       -5.6660    -3.8850    -2.4190 H     1 <1>   0.0800 
 39 H       -5.4840    -2.5730    -1.2570 H     1 <1>   0.0800 
 40 H       -6.5090    -3.9760     0.3090 H     1 <1>   0.0800 
 41 H       -6.3620    -5.3440    -0.7680 H     1 <1>   0.0800 
@<TRIPOS>BOND
  1   1   2  1   
  2   1   3  1   
  3   2   4  2   
  4   2   5  1   
  5   3   6  2   
  6   3   7  1   
  7   4   6  1   
  8   5   8  am  
  9   5  24  1   
 10   7   9  ar  
 11   7  10  ar  
 12   8  11  2   
 13   8  12  1   
 14   9  13  ar  
 15   9  25  1   
 16  10  14  ar  
 17  10  26  1   
 18  12  15  1   
 19  12  16  1   
 20  12  27  1   
 21  13  17  ar  
 22  13  28  1   
 23  14  17  ar  
 24  14  29  1   
 25  15  18  am  
 26  15  19  1   
 27  16  30  1   
 28  16  31  1   
 29  16  32  1   
 30  17  20  1   
 31  18  21  2   
 32  18  22  1   
 33  19  23  1   
 34  19  33  1   
 35  19  34  1   
 36  20  35  1   
 37  20  36  1   
 38  20  37  1   
 39  22  23  1   
 40  22  38  1   
 41  22  39  1   
 42  23  40  1   
 43  23  41  1   
@<TRIPOS>SUBSTRUCTURE
  1 ****   2 GROUP 4 **** **** 0

# MOE 2024.06 (io_trps.svl 2023.06)
