@<TRIPOS>MOLECULE
NONAME
18 19 1 0 0 
SMALL
USER_CHARGES


@<TRIPOS>ATOM
  1 BR       0.6210    -0.2720    -1.1700 Br    1 <1>  -0.0570 
  2 C        0.8520     1.5500    -0.5770 C.2   1 <1>   0.0570 
  3 C       -0.1470     2.4370    -0.4550 C.2   1 <1>  -0.1100 
  4 C        2.1580     2.0140    -0.2370 C.2   1 <1>  -0.1500 
  5 S        0.5170     3.9630     0.1140 S.3   1 <1>  -0.0800 
  6 C        2.1550     3.3020     0.1560 C.2   1 <1>  -0.0450 
  7 C        3.2660     4.2300     0.6080 C.3   1 <1>  -0.0150 
  8 C        3.9040     5.1860    -0.3500 C.3   1 <1>  -0.2470 
  9 C        4.6730     3.9930     0.1610 C.3   1 <1>  -0.2000 
 10 C        4.2500     6.6010     0.0840 C.2   1 <1>   0.9470 
 11 O        4.5550     6.8130     1.2640 O.co2 1 <1>  -0.9000 
 12 O        4.2250     7.4960    -0.7660 O.co2 1 <1>  -0.9000 
 13 H       -1.2040     2.3760    -0.6340 H     1 <1>   0.1500 
 14 H        3.0180     1.3740    -0.3040 H     1 <1>   0.1500 
 15 H        3.1210     4.5870     1.6150 H     1 <1>   0.1000 
 16 H        3.5600     5.1700    -1.3660 H     1 <1>   0.1000 
 17 H        5.4730     4.1770     0.8580 H     1 <1>   0.1000 
 18 H        4.8940     3.2060    -0.5350 H     1 <1>   0.1000 
@<TRIPOS>BOND
  1   1   2  1   
  2   2   3  2   
  3   2   4  1   
  4   3   5  1   
  5   3  13  1   
  6   4   6  2   
  7   4  14  1   
  8   5   6  1   
  9   6   7  1   
 10   7   8  1   
 11   7   9  1   
 12   7  15  1   
 13   8   9  1   
 14   8  10  1   
 15   8  16  1   
 16   9  17  1   
 17   9  18  1   
 18  10  11  ar  
 19  10  12  ar  
@<TRIPOS>SUBSTRUCTURE
  1 ****   6 GROUP 4 **** **** 0

# MOE 2024.06 (io_trps.svl 2023.06)
