@<TRIPOS>MOLECULE
NONAME
47 49 1 0 0 
SMALL
USER_CHARGES


@<TRIPOS>ATOM
  1 O       -0.0570     0.8440    -0.2900 O.2   1 <1>  -0.5700 
  2 C       -0.1770     2.0400    -0.4150 C.2   1 <1>   0.5690 
  3 N       -0.9560     2.7910     0.4260 N.am  1 <1>  -0.6600 
  4 C        0.5580     2.7230    -1.5700 C.3   1 <1>   0.1810 
  5 C       -1.1050     4.2710     0.2310 C.3   1 <1>   0.3640 
  6 C       -1.6360     2.2110     1.6200 C.3   1 <1>   0.0600 
  7 O        0.8030     4.0850    -1.3240 O.3   1 <1>  -0.5600 
  8 C       -2.5810     4.6990     0.2310 C.ar  1 <1>  -0.1430 
  9 C       -0.3630     4.8300    -1.0090 C.3   1 <1>   0.2610 
 10 C       -3.5830     4.1150    -0.5510 C.ar  1 <1>  -0.1430 
 11 C       -2.9190     5.7510     1.0750 C.ar  1 <1>  -0.1500 
 12 C       -0.0550     6.3200    -0.7970 C.2   1 <1>   0.5690 
 13 C       -4.8840     4.5890    -0.4570 C.ar  1 <1>  -0.1500 
 14 C       -3.3380     2.9610    -1.5180 C.3   1 <1>  -0.0960 
 15 C       -4.2180     6.2160     1.1570 C.ar  1 <1>  -0.1500 
 16 O       -0.7050     7.0990    -1.4570 O.2   1 <1>  -0.5700 
 17 N        0.8860     6.7740     0.1090 N.am  1 <1>  -0.6600 
 18 C       -5.2040     5.6320     0.3900 C.ar  1 <1>  -0.1500 
 19 C        1.8390     5.9210     0.8770 C.3   1 <1>   0.1400 
 20 C        1.1750     8.2310     0.2430 C.3   1 <1>   0.1400 
 21 C        3.2610     6.1650     0.3640 C.3   1 <1>  -0.1600 
 22 C        2.5910     8.5170    -0.2700 C.3   1 <1>  -0.1600 
 23 C        3.6410     7.6510     0.4430 C.3   1 <1>  -0.1600 
 24 H       -0.0190     2.6350    -2.4720 H     1 <1>   0.0800 
 25 H        1.5080     2.2430    -1.7180 H     1 <1>   0.0800 
 26 H       -0.6480     4.7210     1.0920 H     1 <1>   0.0800 
 27 H       -1.3290     2.7360     2.5070 H     1 <1>   0.0800 
 28 H       -1.3850     1.1700     1.7330 H     1 <1>   0.0800 
 29 H       -2.7030     2.2960     1.5130 H     1 <1>   0.0800 
 30 H       -1.0120     4.7670    -1.8620 H     1 <1>   0.0800 
 31 H       -2.1690     6.2300     1.6800 H     1 <1>   0.1500 
 32 H       -5.6670     4.1480    -1.0490 H     1 <1>   0.1500 
 33 H       -4.1770     2.8280    -2.1770 H     1 <1>   0.0800 
 34 H       -3.1960     2.0460    -0.9730 H     1 <1>   0.0800 
 35 H       -2.4760     3.1430    -2.1280 H     1 <1>   0.0800 
 36 H       -4.4590     7.0340     1.8150 H     1 <1>   0.1500 
 37 H       -6.2170     5.9900     0.4490 H     1 <1>   0.1500 
 38 H        1.7820     6.1860     1.9190 H     1 <1>   0.0800 
 39 H        1.6020     4.8780     0.7910 H     1 <1>   0.0800 
 40 H        0.4650     8.8190    -0.3140 H     1 <1>   0.0800 
 41 H        1.0960     8.5120     1.2790 H     1 <1>   0.0800 
 42 H        3.9550     5.5830     0.9440 H     1 <1>   0.0800 
 43 H        3.3220     5.8260    -0.6570 H     1 <1>   0.0800 
 44 H        2.6170     8.3220    -1.3280 H     1 <1>   0.0800 
 45 H        2.8190     9.5580    -0.1240 H     1 <1>   0.0800 
 46 H        4.6060     7.8050    -0.0080 H     1 <1>   0.0800 
 47 H        3.7050     7.9480     1.4760 H     1 <1>   0.0800 
@<TRIPOS>BOND
  1   1   2  2   
  2   2   3  am  
  3   2   4  1   
  4   3   5  1   
  5   3   6  1   
  6   4   7  1   
  7   4  24  1   
  8   4  25  1   
  9   5   8  1   
 10   5   9  1   
 11   5  26  1   
 12   6  27  1   
 13   6  28  1   
 14   6  29  1   
 15   7   9  1   
 16   8  10  ar  
 17   8  11  ar  
 18   9  12  1   
 19   9  30  1   
 20  10  13  ar  
 21  10  14  1   
 22  11  15  ar  
 23  11  31  1   
 24  12  16  2   
 25  12  17  am  
 26  13  18  ar  
 27  13  32  1   
 28  14  33  1   
 29  14  34  1   
 30  14  35  1   
 31  15  18  ar  
 32  15  36  1   
 33  17  19  1   
 34  17  20  1   
 35  18  37  1   
 36  19  21  1   
 37  19  38  1   
 38  19  39  1   
 39  20  22  1   
 40  20  40  1   
 41  20  41  1   
 42  21  23  1   
 43  21  42  1   
 44  21  43  1   
 45  22  23  1   
 46  22  44  1   
 47  22  45  1   
 48  23  46  1   
 49  23  47  1   
@<TRIPOS>SUBSTRUCTURE
  1 ****   5 GROUP 4 **** **** 0

# MOE 2024.06 (io_trps.svl 2023.06)
