@<TRIPOS>MOLECULE
NONAME
52 54 1 0 0 
SMALL
USER_CHARGES


@<TRIPOS>ATOM
  1 O       -0.1590    -0.6960     0.0280 O.2   1 <1>  -0.5700 
  2 C       -1.0160     0.1260    -0.1890 C.2   1 <1>   0.5690 
  3 N       -2.3470    -0.1640    -0.0830 N.am  1 <1>  -0.6600 
  4 C       -0.5730     1.5250    -0.5480 C.3   1 <1>  -0.0990 
  5 C       -3.4740     0.7840    -0.2450 C.3   1 <1>   0.1400 
  6 C       -2.8400    -1.4840     0.3610 C.3   1 <1>   0.1400 
  7 C       -0.5010     2.3680     0.7290 C.3   1 <1>   0.0960 
  8 C       -4.5970     0.2050     0.6210 C.3   1 <1>  -0.0800 
  9 C       -4.3460    -1.3170     0.6040 C.3   1 <1>  -0.0800 
 10 N       -0.7860     3.7810     0.4300 N.pl3 1 <1>   0.3140 
 11 C       -6.0450     0.6470     0.2470 C.3   1 <1>   0.2800 
 12 C       -5.1940    -2.0060    -0.4760 C.3   1 <1>  -0.1600 
 13 N       -2.0540     4.2310     0.4240 N.2   1 <1>  -0.7070 
 14 C        0.0870     4.7630     0.1080 C.2   1 <1>  -0.3320 
 15 O       -6.1320     0.9130    -1.1070 O.3   1 <1>  -0.6800 
 16 C       -7.0310    -0.5020     0.5310 C.3   1 <1>  -0.1600 
 17 C       -6.4940     1.9250     0.9890 C.3   1 <1>  -0.1600 
 18 C       -6.7010    -1.8050    -0.2300 C.3   1 <1>  -0.1600 
 19 C       -1.9630     5.4820     0.1040 C.2   1 <1>   0.1080 
 20 C       -0.6470     5.8760    -0.1060 C.2   1 <1>  -0.1500 
 21 C        1.5940     4.5960     0.0150 C.3   1 <1>  -0.0600 
 22 C       -5.6420     3.1830     0.7390 C.3   1 <1>  -0.2400 
 23 C       -3.1760     6.3730    -0.0170 C.3   1 <1>  -0.0590 
 24 H        0.3930     1.4840    -1.0140 H     1 <1>   0.0800 
 25 H       -1.2670     1.9480    -1.2510 H     1 <1>   0.0800 
 26 H       -3.2130     1.7780     0.0710 H     1 <1>   0.0800 
 27 H       -3.7460     0.8040    -1.2850 H     1 <1>   0.0800 
 28 H       -2.6350    -2.2250    -0.3920 H     1 <1>   0.0800 
 29 H       -2.3380    -1.7590     1.2720 H     1 <1>   0.0800 
 30 H        0.4650     2.2800     1.1900 H     1 <1>   0.0800 
 31 H       -1.2420     2.0370     1.4340 H     1 <1>   0.0800 
 32 H       -4.4070     0.5260     1.6300 H     1 <1>   0.0800 
 33 H       -4.5980    -1.7470     1.5570 H     1 <1>   0.0800 
 34 H       -4.9380    -1.5850    -1.4340 H     1 <1>   0.0800 
 35 H       -4.9720    -3.0590    -0.5140 H     1 <1>   0.0800 
 36 H       -7.0430     1.1770    -1.3240 H     1 <1>   0.4000 
 37 H       -6.9950    -0.7120     1.5850 H     1 <1>   0.0800 
 38 H       -8.0390    -0.1990     0.3080 H     1 <1>   0.0800 
 39 H       -7.5120     2.1450     0.7170 H     1 <1>   0.0800 
 40 H       -6.4940     1.7280     2.0470 H     1 <1>   0.0800 
 41 H       -7.0890    -2.6380     0.3290 H     1 <1>   0.0800 
 42 H       -7.2000    -1.7970    -1.1850 H     1 <1>   0.0800 
 43 H       -0.3160     6.8610    -0.3800 H     1 <1>   0.1500 
 44 H        2.0510     5.5260    -0.2720 H     1 <1>   0.0800 
 45 H        1.8410     3.8520    -0.7220 H     1 <1>   0.0800 
 46 H        1.9950     4.2970     0.9670 H     1 <1>   0.0800 
 47 H       -5.5370     3.3750    -0.3150 H     1 <1>   0.0800 
 48 H       -4.6620     3.0770     1.1680 H     1 <1>   0.0800 
 49 H       -6.1080     4.0380     1.1940 H     1 <1>   0.0800 
 50 H       -2.8850     7.3680    -0.2960 H     1 <1>   0.0800 
 51 H       -3.6900     6.4050     0.9250 H     1 <1>   0.0800 
 52 H       -3.8380     5.9740    -0.7630 H     1 <1>   0.0800 
@<TRIPOS>BOND
  1   1   2  2   
  2   2   3  am  
  3   2   4  1   
  4   3   5  1   
  5   3   6  1   
  6   4   7  1   
  7   4  24  1   
  8   4  25  1   
  9   5   8  1   
 10   5  26  1   
 11   5  27  1   
 12   6   9  1   
 13   6  28  1   
 14   6  29  1   
 15   7  10  1   
 16   7  30  1   
 17   7  31  1   
 18   8   9  1   
 19   8  11  1   
 20   8  32  1   
 21   9  12  1   
 22   9  33  1   
 23  10  13  1   
 24  10  14  1   
 25  11  15  1   
 26  11  16  1   
 27  11  17  1   
 28  12  18  1   
 29  12  34  1   
 30  12  35  1   
 31  13  19  2   
 32  14  20  2   
 33  14  21  1   
 34  15  36  1   
 35  16  18  1   
 36  16  37  1   
 37  16  38  1   
 38  17  22  1   
 39  17  39  1   
 40  17  40  1   
 41  18  41  1   
 42  18  42  1   
 43  19  20  1   
 44  19  23  1   
 45  20  43  1   
 46  21  44  1   
 47  21  45  1   
 48  21  46  1   
 49  22  47  1   
 50  22  48  1   
 51  22  49  1   
 52  23  50  1   
 53  23  51  1   
 54  23  52  1   
@<TRIPOS>SUBSTRUCTURE
  1 ****   5 GROUP 4 **** **** 0

# MOE 2024.06 (io_trps.svl 2023.06)
