@<TRIPOS>MOLECULE
NONAME
56 58 1 0 0 
SMALL
USER_CHARGES


@<TRIPOS>ATOM
  1 O       -1.1160     0.7460    -0.9460 O.2   1 <1>  -0.5700 
  2 C       -2.1190     1.1220    -0.3870 C.2   1 <1>   0.5690 
  3 N       -3.0920     0.2420    -0.0030 N.am  1 <1>  -0.6600 
  4 C       -2.2500     2.6290    -0.1370 C.3   1 <1>  -0.0190 
  5 C       -4.4120     0.5420     0.6110 C.3   1 <1>   0.1400 
  6 C       -2.9390    -1.2230    -0.2000 C.3   1 <1>   0.1400 
  7 C       -2.3420     3.3870    -1.4760 C.3   1 <1>  -0.1600 
  8 C       -1.0560     3.1460     0.6910 C.3   1 <1>  -0.1600 
  9 C       -5.1660    -0.7860     0.6000 C.3   1 <1>   0.2000 
 10 C       -4.0850    -1.8620     0.5850 C.3   1 <1>  -0.0800 
 11 C       -2.2960     4.9030    -1.2910 C.3   1 <1>   0.3430 
 12 C       -1.0490     4.6670     0.8160 C.3   1 <1>   0.3430 
 13 O       -5.9680    -0.9210     1.7200 O.3   1 <1>  -0.6800 
 14 C       -4.5640    -3.1980    -0.0010 C.3   1 <1>   0.0210 
 15 N       -1.0600     5.2730    -0.5470 N.4   1 <1>  -0.9590 
 16 C       -3.4250    -4.1950    -0.0760 C.2   1 <1>   0.1080 
 17 C       -0.9090     6.7660    -0.5090 C.3   1 <1>   0.3430 
 18 N       -2.7920    -4.6190     0.9740 N.2   1 <1>  -0.7070 
 19 C       -2.9260    -4.7500    -1.2500 C.2   1 <1>  -0.1500 
 20 C        0.4790     7.2160    -0.0370 C.3   1 <1>   0.1200 
 21 N       -1.8630    -5.4650     0.4920 N.pl3 1 <1>   0.3000 
 22 C       -1.9230    -5.5600    -0.8530 C.2   1 <1>  -0.3320 
 23 O        0.4910     8.6020    -0.0770 O.3   1 <1>  -0.5600 
 24 C       -1.0030    -6.4310    -1.6880 C.3   1 <1>  -0.0600 
 25 C        1.7000     9.1820     0.3040 C.3   1 <1>   0.0400 
 26 H       -3.1450     2.8240     0.4220 H     1 <1>   0.0800 
 27 H       -4.2640     0.8830     1.6210 H     1 <1>   0.0800 
 28 H       -4.9430     1.2790     0.0350 H     1 <1>   0.0800 
 29 H       -3.0190    -1.4460    -1.2510 H     1 <1>   0.0800 
 30 H       -1.9820    -1.5650     0.1600 H     1 <1>   0.0800 
 31 H       -3.2590     3.1190    -1.9720 H     1 <1>   0.0800 
 32 H       -1.5340     3.0890    -2.1220 H     1 <1>   0.0800 
 33 H       -0.1300     2.8300     0.2420 H     1 <1>   0.0800 
 34 H       -1.0930     2.7100     1.6750 H     1 <1>   0.0800 
 35 H       -5.7920    -0.8410    -0.2750 H     1 <1>   0.0800 
 36 H       -3.7250    -2.0270     1.5860 H     1 <1>   0.0800 
 37 H       -3.1660     5.2310    -0.7450 H     1 <1>   0.0800 
 38 H       -2.3030     5.3800    -2.2590 H     1 <1>   0.0800 
 39 H       -0.1670     4.9730     1.3550 H     1 <1>   0.0800 
 40 H       -1.9150     4.9930     1.3690 H     1 <1>   0.0800 
 41 H       -5.4250    -1.1410     2.5030 H     1 <1>   0.4000 
 42 H       -4.9730    -3.0490    -0.9830 H     1 <1>   0.0800 
 43 H       -5.3370    -3.6080     0.6250 H     1 <1>   0.0800 
 44 H       -0.2670     4.8770    -1.0730 H     1 <1>   0.4500 
 45 H       -1.0630     7.1650    -1.4980 H     1 <1>   0.0800 
 46 H       -1.6520     7.1910     0.1450 H     1 <1>   0.0800 
 47 H       -3.2810    -4.5550    -2.2470 H     1 <1>   0.1500 
 48 H        1.2460     6.8510    -0.6980 H     1 <1>   0.0800 
 49 H        0.6690     6.9080     0.9760 H     1 <1>   0.0800 
 50 H       -1.2040    -5.9590     1.1050 H     1 <1>   0.2700 
 51 H       -1.2490    -6.3350    -2.7310 H     1 <1>   0.0800 
 52 H       -1.1090    -7.4630    -1.4050 H     1 <1>   0.0800 
 53 H        0.0200    -6.1310    -1.5500 H     1 <1>   0.0800 
 54 H        1.5950    10.2510     0.2350 H     1 <1>   0.0800 
 55 H        2.4810     8.8550    -0.3610 H     1 <1>   0.0800 
 56 H        1.9270     8.9080     1.3200 H     1 <1>   0.0800 
@<TRIPOS>BOND
  1   1   2  2   
  2   2   3  am  
  3   2   4  1   
  4   3   5  1   
  5   3   6  1   
  6   4   7  1   
  7   4   8  1   
  8   4  26  1   
  9   5   9  1   
 10   5  27  1   
 11   5  28  1   
 12   6  10  1   
 13   6  29  1   
 14   6  30  1   
 15   7  11  1   
 16   7  31  1   
 17   7  32  1   
 18   8  12  1   
 19   8  33  1   
 20   8  34  1   
 21   9  10  1   
 22   9  13  1   
 23   9  35  1   
 24  10  14  1   
 25  10  36  1   
 26  11  15  1   
 27  11  37  1   
 28  11  38  1   
 29  12  15  1   
 30  12  39  1   
 31  12  40  1   
 32  13  41  1   
 33  14  16  1   
 34  14  42  1   
 35  14  43  1   
 36  15  17  1   
 37  15  44  1   
 38  16  18  2   
 39  16  19  1   
 40  17  20  1   
 41  17  45  1   
 42  17  46  1   
 43  18  21  1   
 44  19  22  2   
 45  19  47  1   
 46  20  23  1   
 47  20  48  1   
 48  20  49  1   
 49  21  22  1   
 50  21  50  1   
 51  22  24  1   
 52  23  25  1   
 53  24  51  1   
 54  24  52  1   
 55  24  53  1   
 56  25  54  1   
 57  25  55  1   
 58  25  56  1   
@<TRIPOS>SUBSTRUCTURE
  1 ****   2 GROUP 4 **** **** 0

# MOE 2024.06 (io_trps.svl 2023.06)
