@<TRIPOS>MOLECULE
NONAME
49 52 1 0 0 
SMALL
USER_CHARGES


@<TRIPOS>ATOM
  1 O        0.8610    -0.3430    -1.5410 O.3   1 <1>  -0.0190 
  2 N        0.9430     0.9140    -1.2450 N.2   1 <1>  -0.4100 
  3 C        1.4610    -1.0950    -0.6650 C.2   1 <1>  -0.0400 
  4 C        1.6340     1.0030    -0.1490 C.2   1 <1>   0.2350 
  5 C        1.9900    -0.2890     0.2660 C.2   1 <1>  -0.1500 
  6 C        1.4550    -2.6010    -0.8500 C.3   1 <1>   0.5230 
  7 C        1.9660     2.2480     0.5180 C.ar  1 <1>   0.0540 
  8 N        0.1010    -3.1650    -0.5520 N.4   1 <1>  -0.9590 
  9 C        2.8320     2.3340     1.6020 C.ar  1 <1>  -0.1500 
 10 C        1.4350     3.4640     0.1110 C.ar  1 <1>  -0.1500 
 11 C        0.1630    -4.6400    -0.3480 C.3   1 <1>   0.3430 
 12 C       -0.9100    -2.7910    -1.5880 C.3   1 <1>   0.3430 
 13 C        3.1010     3.5560     2.1900 C.ar  1 <1>   0.1600 
 14 C        1.7670     4.6350     0.7650 C.ar  1 <1>   0.1600 
 15 C       -1.1960    -5.1560     0.1150 C.3   1 <1>  -0.1600 
 16 C       -2.2910    -3.2650    -1.1480 C.3   1 <1>  -0.1600 
 17 N        2.5880     4.7100     1.7990 N.ar  1 <1>  -0.6200 
 18 C       -2.3060    -4.7660    -0.8650 C.3   1 <1>   0.2000 
 19 O       -3.5240    -5.0350    -0.2680 O.3   1 <1>  -0.5600 
 20 C       -4.0310    -6.3310    -0.4690 C.3   1 <1>   0.2630 
 21 C       -5.2520    -6.6100     0.4040 C.ar  1 <1>   0.1670 
 22 N       -5.5590    -7.8930     0.5480 N.ar  1 <1>  -0.6200 
 23 C       -5.9730    -5.5760     0.9880 C.ar  1 <1>  -0.1500 
 24 C       -6.6160    -8.1520     1.3020 C.ar  1 <1>   0.1600 
 25 C       -7.0720    -5.8620     1.7690 C.ar  1 <1>  -0.1500 
 26 C       -7.3940    -7.1920     1.9250 C.ar  1 <1>  -0.1500 
 27 H        2.5610    -0.5310     1.1430 H     1 <1>   0.1500 
 28 H        2.1790    -3.0280    -0.1760 H     1 <1>   0.0800 
 29 H        1.7500    -2.8420    -1.8580 H     1 <1>   0.0800 
 30 H       -0.2120    -2.7350     0.3300 H     1 <1>   0.4500 
 31 H        3.3070     1.4590     1.9980 H     1 <1>   0.1500 
 32 H        0.7570     3.5030    -0.7230 H     1 <1>   0.1500 
 33 H        0.9050    -4.8820     0.3960 H     1 <1>   0.0800 
 34 H        0.4370    -5.1260    -1.2710 H     1 <1>   0.0800 
 35 H       -0.6550    -3.2420    -2.5340 H     1 <1>   0.0800 
 36 H       -0.9400    -1.7220    -1.7210 H     1 <1>   0.0800 
 37 H        3.7760     3.5900     3.0290 H     1 <1>   0.1500 
 38 H        1.3350     5.5600     0.4220 H     1 <1>   0.1500 
 39 H       -1.4140    -4.7560     1.0900 H     1 <1>   0.0800 
 40 H       -1.1460    -6.2270     0.2000 H     1 <1>   0.0800 
 41 H       -3.0010    -3.0460    -1.9260 H     1 <1>   0.0800 
 42 H       -2.5860    -2.7220    -0.2680 H     1 <1>   0.0800 
 43 H       -2.2270    -5.3160    -1.7900 H     1 <1>   0.0800 
 44 H       -3.2670    -7.0480    -0.2260 H     1 <1>   0.0800 
 45 H       -4.3030    -6.4380    -1.5040 H     1 <1>   0.0800 
 46 H       -5.6820    -4.5530     0.8340 H     1 <1>   0.1500 
 47 H       -6.8780    -9.1880     1.4300 H     1 <1>   0.1500 
 48 H       -7.6490    -5.0820     2.2350 H     1 <1>   0.1500 
 49 H       -8.2380    -7.4840     2.5220 H     1 <1>   0.1500 
@<TRIPOS>BOND
  1   1   2  1   
  2   1   3  1   
  3   2   4  2   
  4   3   5  2   
  5   3   6  1   
  6   4   5  1   
  7   4   7  1   
  8   5  27  1   
  9   6   8  1   
 10   6  28  1   
 11   6  29  1   
 12   7   9  ar  
 13   7  10  ar  
 14   8  11  1   
 15   8  12  1   
 16   8  30  1   
 17   9  13  ar  
 18   9  31  1   
 19  10  14  ar  
 20  10  32  1   
 21  11  15  1   
 22  11  33  1   
 23  11  34  1   
 24  12  16  1   
 25  12  35  1   
 26  12  36  1   
 27  13  17  ar  
 28  13  37  1   
 29  14  17  ar  
 30  14  38  1   
 31  15  18  1   
 32  15  39  1   
 33  15  40  1   
 34  16  18  1   
 35  16  41  1   
 36  16  42  1   
 37  18  19  1   
 38  18  43  1   
 39  19  20  1   
 40  20  21  1   
 41  20  44  1   
 42  20  45  1   
 43  21  22  ar  
 44  21  23  ar  
 45  22  24  ar  
 46  23  25  ar  
 47  23  46  1   
 48  24  26  ar  
 49  24  47  1   
 50  25  26  ar  
 51  25  48  1   
 52  26  49  1   
@<TRIPOS>SUBSTRUCTURE
  1 ****   8 GROUP 4 **** **** 0

# MOE 2024.06 (io_trps.svl 2023.06)
