@<TRIPOS>MOLECULE
NONAME
61 64 1 0 0 
SMALL
USER_CHARGES


@<TRIPOS>ATOM
  1 O       -0.8340     0.2030    -0.0480 O.3   1 <1>  -0.3630 
  2 C       -1.8970     1.0440    -0.1930 C.ar  1 <1>   0.0820 
  3 C        0.4450     0.7380     0.2510 C.3   1 <1>   0.1200 
  4 C       -3.0340     0.5640    -0.8380 C.ar  1 <1>  -0.1440 
  5 C       -1.8780     2.3600     0.2670 C.ar  1 <1>  -0.1500 
  6 C        1.5140    -0.3460     0.0470 C.3   1 <1>   0.3430 
  7 C       -4.1110     1.4110    -1.0600 C.ar  1 <1>  -0.1500 
  8 C       -3.1120    -0.8760    -1.3050 C.3   1 <1>   0.4860 
  9 C       -2.9630     3.1900     0.0540 C.ar  1 <1>  -0.1500 
 10 N        2.9000     0.1290     0.3770 N.4   1 <1>  -0.9590 
 11 C       -4.0760     2.7190    -0.6150 C.ar  1 <1>  -0.1500 
 12 N       -3.5290    -1.7370    -0.1640 N.4   1 <1>  -0.9590 
 13 C        3.3950     1.1790    -0.5700 C.3   1 <1>   0.3430 
 14 C        3.8440    -1.0290     0.4250 C.3   1 <1>   0.3430 
 15 C       -3.3930    -3.1860    -0.5300 C.3   1 <1>   0.3430 
 16 C       -4.9090    -1.4110     0.3050 C.3   1 <1>   0.3430 
 17 C        4.7550     1.6990    -0.0990 C.3   1 <1>  -0.1600 
 18 C        5.2140    -0.5610     0.9190 C.3   1 <1>  -0.1600 
 19 C       -3.7720    -4.1320     0.6240 C.3   1 <1>   0.1000 
 20 C       -5.2820    -2.2950     1.4980 C.3   1 <1>  -0.1600 
 21 C        5.7780     0.5650     0.0440 C.3   1 <1>  -0.1600 
 22 C       -3.7140    -5.5650     0.1180 C.2   1 <1>   0.0060 
 23 C       -5.1710    -3.7910     1.1640 C.3   1 <1>  -0.1600 
 24 N       -3.4680    -5.8680    -1.1170 N.2   1 <1>  -0.5650 
 25 N       -3.9100    -6.6480     0.9070 N.pl3 1 <1>   0.0330 
 26 C       -3.5060    -7.2150    -1.1370 C.2   1 <1>   0.0770 
 27 C       -3.7740    -7.7070     0.0910 C.2   1 <1>  -0.3020 
 28 H        0.4340     1.0710     1.2740 H     1 <1>   0.0800 
 29 H        0.6200     1.5660    -0.4150 H     1 <1>   0.0800 
 30 H       -1.0380     2.7710     0.7940 H     1 <1>   0.1500 
 31 H        1.4850    -0.6790    -0.9780 H     1 <1>   0.0800 
 32 H        1.2680    -1.1820     0.6820 H     1 <1>   0.0800 
 33 H       -4.9900     1.0690    -1.5820 H     1 <1>   0.1500 
 34 H       -2.1430    -1.1820    -1.6640 H     1 <1>   0.0800 
 35 H       -3.8170    -0.9630    -2.1160 H     1 <1>   0.0800 
 36 H       -2.9440     4.2090     0.4070 H     1 <1>   0.1500 
 37 H        2.9060     0.5430     1.3200 H     1 <1>   0.4500 
 38 H       -4.9140     3.3750    -0.7870 H     1 <1>   0.1500 
 39 H       -2.8820    -1.5160     0.6030 H     1 <1>   0.4500 
 40 H        2.7010     2.0020    -0.6160 H     1 <1>   0.0800 
 41 H        3.4950     0.7620    -1.5590 H     1 <1>   0.0800 
 42 H        3.9460    -1.4600    -0.5590 H     1 <1>   0.0800 
 43 H        3.4670    -1.7900     1.0900 H     1 <1>   0.0800 
 44 H       -2.3820    -3.4040    -0.8350 H     1 <1>   0.0800 
 45 H       -4.0370    -3.4080    -1.3660 H     1 <1>   0.0800 
 46 H       -5.6130    -1.5750    -0.4950 H     1 <1>   0.0800 
 47 H       -4.9660    -0.3740     0.5990 H     1 <1>   0.0800 
 48 H        4.6390     2.2100     0.8410 H     1 <1>   0.0800 
 49 H        5.1220     2.4190    -0.8110 H     1 <1>   0.0800 
 50 H        5.8960    -1.3940     0.9060 H     1 <1>   0.0800 
 51 H        5.1340    -0.2290     1.9400 H     1 <1>   0.0800 
 52 H       -3.0430    -4.0240     1.4080 H     1 <1>   0.0800 
 53 H       -6.2950    -2.0730     1.7890 H     1 <1>   0.0800 
 54 H       -4.6500    -2.0510     2.3340 H     1 <1>   0.0800 
 55 H        6.6880     0.9460     0.4780 H     1 <1>   0.0800 
 56 H        6.0210     0.1750    -0.9310 H     1 <1>   0.0800 
 57 H       -5.3790    -4.3730     2.0450 H     1 <1>   0.0800 
 58 H       -5.9080    -4.0470     0.4210 H     1 <1>   0.0800 
 59 H       -4.1190    -6.6710     1.9100 H     1 <1>   0.2700 
 60 H       -3.3360    -7.7690    -2.0460 H     1 <1>   0.1500 
 61 H       -3.8730    -8.7280     0.4150 H     1 <1>   0.1500 
@<TRIPOS>BOND
  1   1   2  1   
  2   1   3  1   
  3   2   4  ar  
  4   2   5  ar  
  5   3   6  1   
  6   3  28  1   
  7   3  29  1   
  8   4   7  ar  
  9   4   8  1   
 10   5   9  ar  
 11   5  30  1   
 12   6  10  1   
 13   6  31  1   
 14   6  32  1   
 15   7  11  ar  
 16   7  33  1   
 17   8  12  1   
 18   8  34  1   
 19   8  35  1   
 20   9  11  ar  
 21   9  36  1   
 22  10  13  1   
 23  10  14  1   
 24  10  37  1   
 25  11  38  1   
 26  12  15  1   
 27  12  16  1   
 28  12  39  1   
 29  13  17  1   
 30  13  40  1   
 31  13  41  1   
 32  14  18  1   
 33  14  42  1   
 34  14  43  1   
 35  15  19  1   
 36  15  44  1   
 37  15  45  1   
 38  16  20  1   
 39  16  46  1   
 40  16  47  1   
 41  17  21  1   
 42  17  48  1   
 43  17  49  1   
 44  18  21  1   
 45  18  50  1   
 46  18  51  1   
 47  19  22  1   
 48  19  23  1   
 49  19  52  1   
 50  20  23  1   
 51  20  53  1   
 52  20  54  1   
 53  21  55  1   
 54  21  56  1   
 55  22  24  2   
 56  22  25  1   
 57  23  57  1   
 58  23  58  1   
 59  24  26  1   
 60  25  27  1   
 61  25  59  1   
 62  26  27  2   
 63  26  60  1   
 64  27  61  1   
@<TRIPOS>SUBSTRUCTURE
  1 ****   1 GROUP 4 **** **** 0

# MOE 2024.06 (io_trps.svl 2023.06)
