@<TRIPOS>MOLECULE
NONAME
48 51 1 0 0 
SMALL
USER_CHARGES


@<TRIPOS>ATOM
  1 CL       0.1700    -2.9170     3.2390 Cl    1 <1>  -0.1770 
  2 C       -0.8970    -3.7000     2.1030 C.ar  1 <1>   0.1770 
  3 C       -0.5420    -3.7680     0.7700 C.ar  1 <1>  -0.1500 
  4 C       -2.0860    -4.2440     2.5470 C.ar  1 <1>  -0.1500 
  5 C       -1.3930    -4.3900    -0.1250 C.ar  1 <1>  -0.1500 
  6 C       -2.9290    -4.8620     1.6400 C.ar  1 <1>  -0.1500 
  7 C       -2.6080    -4.9530     0.2820 C.ar  1 <1>   0.0530 
  8 C       -3.4810    -5.5910    -0.6790 C.2   1 <1>   0.0870 
  9 O       -3.2860    -5.4050    -1.9640 O.3   1 <1>  -0.0190 
 10 C       -4.5610    -6.4080    -0.5690 C.2   1 <1>  -0.2330 
 11 N       -4.1510    -6.0390    -2.7100 N.2   1 <1>  -0.4100 
 12 C       -4.9270    -6.6590    -1.8930 C.2   1 <1>   0.3720 
 13 C       -5.2010    -6.9340     0.5880 C.2   1 <1>   1.0330 
 14 N       -5.9870    -7.4480    -2.3480 N.pl3 1 <1>  -0.8210 
 15 O       -6.3780    -6.6550     0.8710 O.co2 1 <1>  -0.9000 
 16 O       -4.5880    -7.7010     1.3480 O.co2 1 <1>  -0.9000 
 17 C       -6.0590    -8.8460    -1.7920 C.3   1 <1>   0.2090 
 18 C       -7.2710    -6.6990    -2.3670 C.3   1 <1>   0.2090 
 19 C       -7.4160    -9.1680    -1.1440 C.3   1 <1>   0.1000 
 20 C       -8.3890    -7.5890    -2.9220 C.3   1 <1>  -0.1600 
 21 C       -7.4230   -10.5950    -0.5950 C.2   1 <1>   0.0070 
 22 C       -8.5660    -8.9070    -2.1400 C.3   1 <1>  -0.1600 
 23 N       -7.8290   -11.6340    -1.2470 N.2   1 <1>  -0.3380 
 24 N       -6.9950   -10.9290     0.6320 N.pl3 1 <1>   0.0480 
 25 N       -7.6770   -12.6890    -0.4500 N.2   1 <1>  -0.3380 
 26 C       -7.1830   -12.2550     0.6580 C.2   1 <1>   0.0060 
 27 C       -6.4120   -10.0780     1.6960 C.3   1 <1>   0.0160 
 28 C       -6.8560   -13.1520     1.8360 C.3   1 <1>   0.3000 
 29 O       -5.4810   -13.2020     1.9940 O.3   1 <1>  -0.6800 
 30 H        0.3880    -3.3410     0.4430 H     1 <1>   0.1500 
 31 H       -2.3500    -4.1870     3.5870 H     1 <1>   0.1500 
 32 H       -1.1100    -4.4440    -1.1620 H     1 <1>   0.1500 
 33 H       -3.8510    -5.2810     2.0020 H     1 <1>   0.1500 
 34 H       -5.2720    -9.0050    -1.0750 H     1 <1>   0.0800 
 35 H       -5.8950    -9.5350    -2.6020 H     1 <1>   0.0800 
 36 H       -7.1580    -5.8260    -2.9880 H     1 <1>   0.0800 
 37 H       -7.5160    -6.3700    -1.3700 H     1 <1>   0.0800 
 38 H       -7.5570    -8.5000    -0.3170 H     1 <1>   0.0800 
 39 H       -8.1490    -7.8140    -3.9460 H     1 <1>   0.0800 
 40 H       -9.3120    -7.0390    -2.9180 H     1 <1>   0.0800 
 41 H       -9.4930    -8.8900    -1.5940 H     1 <1>   0.0800 
 42 H       -8.6220    -9.7130    -2.8510 H     1 <1>   0.0800 
 43 H       -6.8240    -9.0860     1.6560 H     1 <1>   0.0800 
 44 H       -5.3480   -10.0230     1.5600 H     1 <1>   0.0800 
 45 H       -6.6190   -10.4970     2.6610 H     1 <1>   0.0800 
 46 H       -7.2090   -14.1520     1.6500 H     1 <1>   0.0800 
 47 H       -7.2930   -12.7820     2.7460 H     1 <1>   0.0800 
 48 H       -5.0750   -13.3000     1.1090 H     1 <1>   0.4000 
@<TRIPOS>BOND
  1   1   2  1   
  2   2   3  ar  
  3   2   4  ar  
  4   3   5  ar  
  5   3  30  1   
  6   4   6  ar  
  7   4  31  1   
  8   5   7  ar  
  9   5  32  1   
 10   6   7  ar  
 11   6  33  1   
 12   7   8  1   
 13   8   9  1   
 14   8  10  2   
 15   9  11  1   
 16  10  12  1   
 17  10  13  1   
 18  11  12  2   
 19  12  14  1   
 20  13  15  ar  
 21  13  16  ar  
 22  14  17  1   
 23  14  18  1   
 24  17  19  1   
 25  17  34  1   
 26  17  35  1   
 27  18  20  1   
 28  18  36  1   
 29  18  37  1   
 30  19  21  1   
 31  19  22  1   
 32  19  38  1   
 33  20  22  1   
 34  20  39  1   
 35  20  40  1   
 36  21  23  2   
 37  21  24  1   
 38  22  41  1   
 39  22  42  1   
 40  23  25  1   
 41  24  26  1   
 42  24  27  1   
 43  25  26  2   
 44  26  28  1   
 45  27  43  1   
 46  27  44  1   
 47  27  45  1   
 48  28  29  1   
 49  28  46  1   
 50  28  47  1   
 51  29  48  1   
@<TRIPOS>SUBSTRUCTURE
  1 ****  13 GROUP 4 **** **** 0

# MOE 2024.06 (io_trps.svl 2023.06)
