@<TRIPOS>MOLECULE
NONAME
50 53 1 0 0 
SMALL
USER_CHARGES


@<TRIPOS>ATOM
  1 CL       0.5740     0.0650    -0.6970 Cl    1 <1>  -0.1400 
  2 C        1.1680    -1.5430    -0.3660 C.2   1 <1>   0.1400 
  3 C        0.3610    -2.6310    -0.5390 C.2   1 <1>   0.2290 
  4 C        2.4980    -1.6800     0.0800 C.2   1 <1>  -0.1500 
  5 N        0.8520    -3.8990    -0.2680 N.pl3 1 <1>  -0.6290 
  6 C        2.9710    -2.9400     0.3390 C.2   1 <1>  -0.1410 
  7 C        2.1310    -4.0550     0.1590 C.cat 1 <1>   0.7910 
  8 C        0.3030    -5.1590    -0.3710 C.2   1 <1>   0.2000 
  9 N        2.3590    -5.3610     0.3340 N.pl3 1 <1>  -0.7000 
 10 C        1.2210    -6.0830     0.0090 C.2   1 <1>   0.2770 
 11 C        1.1410    -7.5380     0.0550 C.2   1 <1>   0.7030 
 12 O        2.1800    -8.1590    -0.0340 O.2   1 <1>  -0.5700 
 13 N       -0.0330    -8.2650     0.2050 N.am  1 <1>  -0.6600 
 14 C       -1.1120    -7.8740     1.1760 C.3   1 <1>   0.1400 
 15 C        0.0200    -9.7470    -0.0610 C.3   1 <1>   0.1400 
 16 C       -2.4920    -8.4980     0.8420 C.3   1 <1>   0.4230 
 17 C       -1.3570   -10.3520    -0.3920 C.3   1 <1>   0.3430 
 18 N       -2.4090    -9.9950     0.6310 N.4   1 <1>  -0.9590 
 19 C       -3.1260    -7.8070    -0.3870 C.3   1 <1>   0.1200 
 20 C       -3.7810   -10.5160     0.2790 C.3   1 <1>   0.4230 
 21 O       -4.3790    -8.3570    -0.6580 O.3   1 <1>  -0.5600 
 22 C       -4.3960    -9.7360    -0.9100 C.3   1 <1>   0.1200 
 23 C       -3.7390   -12.0350     0.0400 C.3   1 <1>  -0.1600 
 24 C       -5.1400   -12.6680     0.0480 C.3   1 <1>  -0.1600 
 25 C       -5.0510   -14.1880    -0.1100 C.3   1 <1>  -0.2400 
 26 H       -0.6560    -2.5260    -0.8850 H     1 <1>   0.1500 
 27 H        3.1030    -0.7960     0.2030 H     1 <1>   0.1500 
 28 H        3.9780    -3.1020     0.6780 H     1 <1>   0.1500 
 29 H       -0.7030    -5.3190    -0.7220 H     1 <1>   0.1500 
 30 H        3.2520    -5.7930     0.5980 H     1 <1>   0.4500 
 31 H       -0.8210    -8.2030     2.1600 H     1 <1>   0.0800 
 32 H       -1.2110    -6.8040     1.2200 H     1 <1>   0.0800 
 33 H        0.6830    -9.9440    -0.8880 H     1 <1>   0.0800 
 34 H        0.4330   -10.2460     0.8000 H     1 <1>   0.0800 
 35 H       -3.1460    -8.3020     1.6770 H     1 <1>   0.0800 
 36 H       -1.2550   -11.4240    -0.4540 H     1 <1>   0.0800 
 37 H       -1.6600    -9.9990    -1.3640 H     1 <1>   0.0800 
 38 H       -2.1450   -10.4310     1.5230 H     1 <1>   0.4500 
 39 H       -2.5090    -7.9060    -1.2630 H     1 <1>   0.0800 
 40 H       -3.2770    -6.7600    -0.1890 H     1 <1>   0.0800 
 41 H       -4.4290   -10.3480     1.1250 H     1 <1>   0.0800 
 42 H       -5.4240   -10.0190    -1.0510 H     1 <1>   0.0800 
 43 H       -3.8660    -9.9280    -1.8270 H     1 <1>   0.0800 
 44 H       -3.2740   -12.2540    -0.9050 H     1 <1>   0.0800 
 45 H       -3.1640   -12.4990     0.8220 H     1 <1>   0.0800 
 46 H       -5.6420   -12.4450     0.9760 H     1 <1>   0.0800 
 47 H       -5.7400   -12.2770    -0.7570 H     1 <1>   0.0800 
 48 H       -4.4910   -14.6260     0.6980 H     1 <1>   0.0800 
 49 H       -4.5790   -14.4490    -1.0410 H     1 <1>   0.0800 
 50 H       -6.0390   -14.6150    -0.1030 H     1 <1>   0.0800 
@<TRIPOS>BOND
  1   1   2  1   
  2   2   3  2   
  3   2   4  1   
  4   3   5  1   
  5   3  26  1   
  6   4   6  2   
  7   4  27  1   
  8   5   7  ar  
  9   5   8  1   
 10   6   7  1   
 11   6  28  1   
 12   7   9  ar  
 13   8  10  2   
 14   8  29  1   
 15   9  10  1   
 16   9  30  1   
 17  10  11  1   
 18  11  12  2   
 19  11  13  am  
 20  13  14  1   
 21  13  15  1   
 22  14  16  1   
 23  14  31  1   
 24  14  32  1   
 25  15  17  1   
 26  15  33  1   
 27  15  34  1   
 28  16  18  1   
 29  16  19  1   
 30  16  35  1   
 31  17  18  1   
 32  17  36  1   
 33  17  37  1   
 34  18  20  1   
 35  18  38  1   
 36  19  21  1   
 37  19  39  1   
 38  19  40  1   
 39  20  22  1   
 40  20  23  1   
 41  20  41  1   
 42  21  22  1   
 43  22  42  1   
 44  22  43  1   
 45  23  24  1   
 46  23  44  1   
 47  23  45  1   
 48  24  25  1   
 49  24  46  1   
 50  24  47  1   
 51  25  48  1   
 52  25  49  1   
 53  25  50  1   
@<TRIPOS>SUBSTRUCTURE
  1 ****  13 GROUP 4 **** **** 0

# MOE 2024.06 (io_trps.svl 2023.06)
