@<TRIPOS>MOLECULE
NONAME
48 51 1 0 0 
SMALL
USER_CHARGES


@<TRIPOS>ATOM
  1 O       -0.2930     1.3190     1.1310 O.2   1 <1>  -0.5700 
  2 C       -0.0760     2.4790     0.8160 C.2   1 <1>   0.5440 
  3 N       -1.1720     3.2930     0.5680 N.am  1 <1>  -0.6600 
  4 C        1.3190     2.9190     0.6910 C.ar  1 <1>   0.3960 
  5 C       -2.5470     2.9300     1.0360 C.3   1 <1>   0.1400 
  6 C       -1.1170     4.5670    -0.1980 C.3   1 <1>   0.1400 
  7 N        1.6820     4.1850     1.0690 N.ar  1 <1>  -0.6200 
  8 C        2.2660     2.0450     0.2080 C.ar  1 <1>  -0.1500 
  9 C       -3.5290     2.8090    -0.1560 C.3   1 <1>   0.0000 
 10 C       -2.0770     4.5020    -1.3930 C.3   1 <1>  -0.1600 
 11 C        2.9290     4.5250     0.9540 C.ar  1 <1>   0.1600 
 12 C        3.6160     2.3980     0.0710 C.ar  1 <1>   0.0000 
 13 C       -4.9510     2.4680     0.3230 C.3   1 <1>   0.2000 
 14 C       -3.5050     4.1200    -0.9710 C.3   1 <1>  -0.1600 
 15 C       -3.1870     1.5770    -1.0110 C.3   1 <1>  -0.1600 
 16 C        3.9620     3.6990     0.4620 C.ar  1 <1>   0.0000 
 17 C        4.6150     1.5390    -0.4230 C.ar  1 <1>  -0.1500 
 18 O       -5.2870     3.1750     1.4800 O.3   1 <1>  -0.5600 
 19 C       -4.9550     0.9560     0.5700 C.3   1 <1>  -0.1600 
 20 C       -3.8130     0.3840    -0.2820 C.3   1 <1>  -0.1600 
 21 C        5.3050     4.1070     0.3460 C.ar  1 <1>  -0.1500 
 22 C        5.9140     1.9580    -0.5270 C.ar  1 <1>  -0.1500 
 23 C       -6.6400     3.1600     1.8060 C.3   1 <1>   0.0400 
 24 C        6.2620     3.2560    -0.1380 C.ar  1 <1>  -0.1500 
 25 H       -2.5280     2.0130     1.5970 H     1 <1>   0.0800 
 26 H       -2.8860     3.7030     1.7030 H     1 <1>   0.0800 
 27 H       -1.3950     5.3770     0.4550 H     1 <1>   0.0800 
 28 H       -0.1250     4.7560    -0.5650 H     1 <1>   0.0800 
 29 H        1.9690     1.0520    -0.0740 H     1 <1>   0.1500 
 30 H       -2.0920     5.4590    -1.8830 H     1 <1>   0.0800 
 31 H       -1.7000     3.7830    -2.0990 H     1 <1>   0.0800 
 32 H        3.2060     5.5190     1.2560 H     1 <1>   0.1500 
 33 H       -5.6530     2.7140    -0.4560 H     1 <1>   0.0800 
 34 H       -4.1280     4.0290    -1.8430 H     1 <1>   0.0800 
 35 H       -3.9100     4.9100    -0.3610 H     1 <1>   0.0800 
 36 H       -3.6440     1.6700    -1.9810 H     1 <1>   0.0800 
 37 H       -2.1270     1.4430    -1.1440 H     1 <1>   0.0800 
 38 H        4.3390     0.5420    -0.7190 H     1 <1>   0.1500 
 39 H       -4.7640     0.7470     1.6090 H     1 <1>   0.0800 
 40 H       -5.8980     0.5290     0.2820 H     1 <1>   0.0800 
 41 H       -3.0760    -0.0690     0.3610 H     1 <1>   0.0800 
 42 H       -4.1660    -0.3550    -0.9800 H     1 <1>   0.0800 
 43 H        5.5710     5.1050     0.6470 H     1 <1>   0.1500 
 44 H        6.6780     1.3010    -0.9050 H     1 <1>   0.1500 
 45 H       -6.7750     3.7510     2.6950 H     1 <1>   0.0800 
 46 H       -6.9540     2.1480     1.9950 H     1 <1>   0.0800 
 47 H       -7.2060     3.5890     0.9980 H     1 <1>   0.0800 
 48 H        7.2880     3.5700    -0.2260 H     1 <1>   0.1500 
@<TRIPOS>BOND
  1   1   2  2   
  2   2   3  am  
  3   2   4  1   
  4   3   5  1   
  5   3   6  1   
  6   4   7  ar  
  7   4   8  ar  
  8   5   9  1   
  9   5  25  1   
 10   5  26  1   
 11   6  10  1   
 12   6  27  1   
 13   6  28  1   
 14   7  11  ar  
 15   8  12  ar  
 16   8  29  1   
 17   9  13  1   
 18   9  14  1   
 19   9  15  1   
 20  10  14  1   
 21  10  30  1   
 22  10  31  1   
 23  11  16  ar  
 24  11  32  1   
 25  12  16  ar  
 26  12  17  ar  
 27  13  18  1   
 28  13  19  1   
 29  13  33  1   
 30  14  34  1   
 31  14  35  1   
 32  15  20  1   
 33  15  36  1   
 34  15  37  1   
 35  16  21  ar  
 36  17  22  ar  
 37  17  38  1   
 38  18  23  1   
 39  19  20  1   
 40  19  39  1   
 41  19  40  1   
 42  20  41  1   
 43  20  42  1   
 44  21  24  ar  
 45  21  43  1   
 46  22  24  ar  
 47  22  44  1   
 48  23  45  1   
 49  23  46  1   
 50  23  47  1   
 51  24  48  1   
@<TRIPOS>SUBSTRUCTURE
  1 ****   2 GROUP 4 **** **** 0

# MOE 2024.06 (io_trps.svl 2023.06)
