@<TRIPOS>MOLECULE
NONAME
24 25 1 0 0 
SMALL
USER_CHARGES


@<TRIPOS>ATOM
  1 N        9.2340    -1.2490     0.6940 N.1   1 <1>   0.6880 
  2 N        8.0730    -0.7930     0.5580 N.2   1 <1>  -0.5640 
  3 N       10.3820    -1.6770     0.8110 N.1   1 <1>  -0.3700 
  4 C        7.8770     0.3780    -0.2810 C.3   1 <1>   0.1660 
  5 C        7.3050     1.5250     0.5770 C.3   1 <1>  -0.1600 
  6 C        6.9460     0.0080    -1.4540 C.3   1 <1>  -0.1600 
  7 C        5.7710     1.5150     0.7050 C.3   1 <1>   0.4230 
  8 C        5.4460     0.1400    -1.1370 C.3   1 <1>   0.4230 
  9 N        5.2290     1.5130    -0.6610 N.4   1 <1>  -0.9060 
 10 C        5.2070     0.2150     1.2800 C.3   1 <1>  -0.1600 
 11 C        4.9920    -0.6950     0.0610 C.3   1 <1>  -0.1600 
 12 H        8.8350     0.6820    -0.6770 H     1 <1>   0.0800 
 13 H        7.5930     2.4610     0.1340 H     1 <1>   0.0800 
 14 H        7.7490     1.5040     1.5570 H     1 <1>   0.0800 
 15 H        7.1590    -0.9930    -1.7870 H     1 <1>   0.0800 
 16 H        7.1660     0.6560    -2.2840 H     1 <1>   0.0800 
 17 H        5.4340     2.3720     1.2670 H     1 <1>   0.0800 
 18 H        4.8550    -0.0770    -2.0140 H     1 <1>   0.0800 
 19 H        5.6900     2.2040    -1.2580 H     1 <1>   0.4500 
 20 H        4.2230     1.7070    -0.6280 H     1 <1>   0.4500 
 21 H        4.2680     0.4120     1.7690 H     1 <1>   0.0800 
 22 H        5.8730    -0.2210     2.0050 H     1 <1>   0.0800 
 23 H        5.5430    -1.6170     0.1350 H     1 <1>   0.0800 
 24 H        3.9490    -0.9400    -0.0420 H     1 <1>   0.0800 
@<TRIPOS>BOND
  1   1   2  2   
  2   1   3  3   
  3   2   4  1   
  4   4   5  1   
  5   4   6  1   
  6   4  12  1   
  7   5   7  1   
  8   5  13  1   
  9   5  14  1   
 10   6   8  1   
 11   6  15  1   
 12   6  16  1   
 13   7   9  1   
 14   7  10  1   
 15   7  17  1   
 16   8   9  1   
 17   8  11  1   
 18   8  18  1   
 19   9  19  1   
 20   9  20  1   
 21  10  11  1   
 22  10  21  1   
 23  10  22  1   
 24  11  23  1   
 25  11  24  1   
@<TRIPOS>SUBSTRUCTURE
  1 ****   4 GROUP 4 **** **** 0

# MOE 2024.06 (io_trps.svl 2023.06)
