@<TRIPOS>MOLECULE
NONAME
30 31 1 0 0 
SMALL
USER_CHARGES


@<TRIPOS>ATOM
  1 O        0.1090    -0.5390    -1.2020 O.2   1 <1>  -0.5700 
  2 C       -0.0110    -1.7000    -0.8280 C.2   1 <1>   0.5440 
  3 N        1.1470    -2.3990    -0.6440 N.am  1 <1>  -0.5390 
  4 C       -1.2670    -2.3390    -0.5430 C.ar  1 <1>   0.0860 
  5 C        1.1870    -3.6900    -0.1350 C.2   1 <1>  -0.0290 
  6 C       -2.5240    -1.7630    -0.7500 C.ar  1 <1>   0.4100 
  7 C       -1.2490    -3.6150    -0.0040 C.ar  1 <1>   0.0280 
  8 C        0.0030    -4.2760     0.1800 C.2   1 <1>  -0.1780 
  9 C        2.5790    -4.3320     0.0270 C.3   1 <1>   0.1380 
 10 N       -3.6660    -2.3350    -0.4040 N.ar  1 <1>  -0.3100 
 11 N       -2.6660    -0.5090    -1.3290 N.pl3 1 <1>  -0.9000 
 12 C       -2.4940    -4.1770     0.3350 C.ar  1 <1>   0.1390 
 13 C        3.2750    -4.4050    -1.3400 C.3   1 <1>  -0.2400 
 14 C        3.4290    -3.4840     0.9850 C.3   1 <1>  -0.2400 
 15 C        2.4990    -5.7580     0.5970 C.3   1 <1>  -0.2400 
 16 N       -3.6590    -3.5320     0.1430 N.ar  1 <1>  -0.3100 
 17 O       -2.5370    -5.3260     0.8480 O.3   1 <1>  -0.8290 
 18 H        2.0030    -1.8990    -0.8750 H     1 <1>   0.3700 
 19 H       -0.0760    -5.2690     0.5860 H     1 <1>   0.1500 
 20 H       -3.4510    -0.0060    -0.9170 H     1 <1>   0.4000 
 21 H       -1.7850     0.0220    -1.3010 H     1 <1>   0.4000 
 22 H        3.4220    -3.4230    -1.7510 H     1 <1>   0.0800 
 23 H        2.6710    -4.9710    -2.0270 H     1 <1>   0.0800 
 24 H        4.2350    -4.8820    -1.2540 H     1 <1>   0.0800 
 25 H        3.5780    -2.4940     0.5960 H     1 <1>   0.0800 
 26 H        4.3930    -3.9360     1.1400 H     1 <1>   0.0800 
 27 H        2.9330    -3.4010     1.9360 H     1 <1>   0.0800 
 28 H        1.9210    -6.3900    -0.0550 H     1 <1>   0.0800 
 29 H        2.0300    -5.7490     1.5650 H     1 <1>   0.0800 
 30 H        3.4790    -6.1850     0.7000 H     1 <1>   0.0800 
@<TRIPOS>BOND
  1   1   2  2   
  2   2   3  am  
  3   2   4  1   
  4   3   5  1   
  5   3  18  1   
  6   4   6  ar  
  7   4   7  ar  
  8   5   8  2   
  9   5   9  1   
 10   6  10  ar  
 11   6  11  1   
 12   7   8  1   
 13   7  12  ar  
 14   8  19  1   
 15   9  13  1   
 16   9  14  1   
 17   9  15  1   
 18  10  16  ar  
 19  11  20  1   
 20  11  21  1   
 21  12  16  ar  
 22  12  17  1   
 23  13  22  1   
 24  13  23  1   
 25  13  24  1   
 26  14  25  1   
 27  14  26  1   
 28  14  27  1   
 29  15  28  1   
 30  15  29  1   
 31  15  30  1   
@<TRIPOS>SUBSTRUCTURE
  1 ****   7 GROUP 4 **** **** 0

# MOE 2024.06 (io_trps.svl 2023.06)
