@<TRIPOS>MOLECULE
NONAME
57 61 1 0 0 
SMALL
USER_CHARGES


@<TRIPOS>ATOM
  1 O       -0.5260     0.0390     2.1140 O.2   1 <1>  -0.5700 
  2 C       -1.1680     0.6920     1.3250 C.2   1 <1>   0.5690 
  3 N       -2.0650     0.0920     0.4820 N.am  1 <1>  -0.6600 
  4 C       -0.9720     2.2030     1.3280 C.3   1 <1>  -0.0990 
  5 C       -3.0100     0.7520    -0.4530 C.3   1 <1>   0.1400 
  6 C       -2.2590    -1.3790     0.4650 C.3   1 <1>   0.1400 
  7 C        0.2520     2.7200     0.5330 C.3   1 <1>   0.0000 
  8 C       -3.6510    -0.3920    -1.2350 C.3   1 <1>   0.2000 
  9 C       -3.5500    -1.6100    -0.3220 C.3   1 <1>  -0.0800 
 10 C        0.3070     4.2620     0.6450 C.3   1 <1>  -0.1600 
 11 C        1.5750     2.1480     1.0990 C.3   1 <1>  -0.1600 
 12 C        0.1610     2.3490    -0.9670 C.3   1 <1>  -0.1600 
 13 O       -4.9770    -0.1240    -1.5370 O.3   1 <1>  -0.6800 
 14 C       -3.5770    -2.9430    -1.0830 C.3   1 <1>   0.0210 
 15 C        1.5130     4.8310    -0.1260 C.3   1 <1>  -0.0800 
 16 C        2.7890     2.7050     0.3320 C.3   1 <1>  -0.0800 
 17 C        1.3700     2.9020    -1.7440 C.3   1 <1>  -0.0800 
 18 C       -3.3770    -4.1120    -0.1390 C.2   1 <1>   0.1080 
 19 C        2.8090     4.2390     0.4580 C.3   1 <1>  -0.1600 
 20 C        1.3980     4.4350    -1.6100 C.3   1 <1>  -0.1600 
 21 C        2.6660     2.3170    -1.1520 C.3   1 <1>  -0.1600 
 22 N       -4.2000    -4.3840     0.8250 N.2   1 <1>  -0.7070 
 23 C       -2.3070    -5.0000    -0.1840 C.2   1 <1>  -0.1500 
 24 N       -3.6730    -5.4660     1.4270 N.pl3 1 <1>   0.3000 
 25 C       -2.5250    -5.8570     0.8350 C.2   1 <1>  -0.3320 
 26 C       -1.6940    -7.0440     1.2870 C.3   1 <1>  -0.0600 
 27 H       -1.8610     2.6810     0.9660 H     1 <1>   0.0800 
 28 H       -0.8620     2.5020     2.3540 H     1 <1>   0.0800 
 29 H       -3.7510     1.2880     0.1130 H     1 <1>   0.0800 
 30 H       -2.4930     1.4170    -1.1190 H     1 <1>   0.0800 
 31 H       -1.4170    -1.8350    -0.0270 H     1 <1>   0.0800 
 32 H       -2.3370    -1.7710     1.4670 H     1 <1>   0.0800 
 33 H       -3.1160    -0.5450    -2.1570 H     1 <1>   0.0800 
 34 H       -4.3570    -1.5960     0.3910 H     1 <1>   0.0800 
 35 H       -0.5980     4.6920     0.2520 H     1 <1>   0.0800 
 36 H        0.3810     4.5510     1.6790 H     1 <1>   0.0800 
 37 H        1.6640     2.3930     2.1420 H     1 <1>   0.0800 
 38 H        1.5810     1.0750     1.0190 H     1 <1>   0.0800 
 39 H        0.1280     1.2800    -1.0810 H     1 <1>   0.0800 
 40 H       -0.7390     2.7580    -1.3890 H     1 <1>   0.0800 
 41 H       -5.5220    -0.1700    -0.7270 H     1 <1>   0.4000 
 42 H       -2.8090    -2.9570    -1.8350 H     1 <1>   0.0800 
 43 H       -4.5270    -3.0570    -1.5740 H     1 <1>   0.0800 
 44 H        1.5300     5.9030    -0.0360 H     1 <1>   0.0800 
 45 H        3.6950     2.2950     0.7420 H     1 <1>   0.0800 
 46 H        1.2910     2.6300    -2.7830 H     1 <1>   0.0800 
 47 H        2.9030     4.5180     1.4930 H     1 <1>   0.0800 
 48 H        3.6600     4.6370    -0.0670 H     1 <1>   0.0800 
 49 H        2.2340     4.8330    -2.1580 H     1 <1>   0.0800 
 50 H        0.5020     4.8560    -2.0310 H     1 <1>   0.0800 
 51 H        2.6590     1.2450    -1.2480 H     1 <1>   0.0800 
 52 H        3.5160     2.6890    -1.6970 H     1 <1>   0.0800 
 53 H       -1.4950    -4.9820    -0.8880 H     1 <1>   0.1500 
 54 H       -4.1190    -5.9110     2.2380 H     1 <1>   0.2700 
 55 H       -0.8290    -7.1510     0.6570 H     1 <1>   0.0800 
 56 H       -2.2730    -7.9480     1.2300 H     1 <1>   0.0800 
 57 H       -1.3630    -6.9010     2.3010 H     1 <1>   0.0800 
@<TRIPOS>BOND
  1   1   2  2   
  2   2   3  am  
  3   2   4  1   
  4   3   5  1   
  5   3   6  1   
  6   4   7  1   
  7   4  27  1   
  8   4  28  1   
  9   5   8  1   
 10   5  29  1   
 11   5  30  1   
 12   6   9  1   
 13   6  31  1   
 14   6  32  1   
 15   7  10  1   
 16   7  11  1   
 17   7  12  1   
 18   8   9  1   
 19   8  13  1   
 20   8  33  1   
 21   9  14  1   
 22   9  34  1   
 23  10  15  1   
 24  10  35  1   
 25  10  36  1   
 26  11  16  1   
 27  11  37  1   
 28  11  38  1   
 29  12  17  1   
 30  12  39  1   
 31  12  40  1   
 32  13  41  1   
 33  14  18  1   
 34  14  42  1   
 35  14  43  1   
 36  15  19  1   
 37  15  20  1   
 38  15  44  1   
 39  16  19  1   
 40  16  21  1   
 41  16  45  1   
 42  17  20  1   
 43  17  21  1   
 44  17  46  1   
 45  18  22  2   
 46  18  23  1   
 47  19  47  1   
 48  19  48  1   
 49  20  49  1   
 50  20  50  1   
 51  21  51  1   
 52  21  52  1   
 53  22  24  1   
 54  23  25  2   
 55  23  53  1   
 56  24  25  1   
 57  24  54  1   
 58  25  26  1   
 59  26  55  1   
 60  26  56  1   
 61  26  57  1   
@<TRIPOS>SUBSTRUCTURE
  1 ****   3 GROUP 4 **** **** 0

# MOE 2024.06 (io_trps.svl 2023.06)
