@<TRIPOS>MOLECULE
NONAME
57 60 1 0 0 
SMALL
USER_CHARGES


@<TRIPOS>ATOM
  1 O       -0.7720     0.1100     0.3910 O.3   1 <1>  -0.3630 
  2 C       -0.4530     1.4150     0.1810 C.ar  1 <1>   0.0820 
  3 C       -1.7520    -0.5460    -0.3720 C.3   1 <1>   0.1200 
  4 C        0.6080     1.9480     0.9110 C.ar  1 <1>  -0.1440 
  5 C       -1.1380     2.2190    -0.7270 C.ar  1 <1>  -0.1500 
  6 C       -1.7720    -2.0080     0.0800 C.3   1 <1>   0.3430 
  7 C        0.9720     3.2720     0.7160 C.ar  1 <1>  -0.1500 
  8 C        1.3870     1.1140     1.9220 C.3   1 <1>  -0.0170 
  9 C       -0.7660     3.5380    -0.9100 C.ar  1 <1>  -0.1500 
 10 N       -2.6040    -2.8870    -0.8140 N.4   1 <1>  -0.9590 
 11 C        0.2900     4.0650    -0.1890 C.ar  1 <1>  -0.1500 
 12 C        2.5070     0.3320     1.2310 C.3   1 <1>  -0.2400 
 13 C       -4.0610    -2.5570    -0.7540 C.3   1 <1>   0.3430 
 14 C       -2.5230    -4.3000    -0.3450 C.3   1 <1>   0.3430 
 15 C       -4.6090    -3.3060     0.4650 C.3   1 <1>   0.2000 
 16 C       -3.7300    -4.5560     0.5770 C.3   1 <1>  -0.0800 
 17 O       -4.4060    -2.5190     1.5910 O.3   1 <1>  -0.6800 
 18 C       -4.4910    -5.8350     0.1760 C.3   1 <1>  -0.0170 
 19 C       -3.5880    -7.0570     0.2360 C.ar  1 <1>   0.1670 
 20 N       -2.7720    -7.2350    -0.7580 N.ar  1 <1>  -0.6200 
 21 C       -3.6660    -7.9150     1.3440 C.ar  1 <1>  -0.1500 
 22 C       -1.9580    -8.3240    -0.7200 C.ar  1 <1>   0.3100 
 23 C       -2.8530    -9.0040     1.4140 C.ar  1 <1>  -0.1500 
 24 C       -1.9580    -9.2370     0.3580 C.ar  1 <1>   0.0000 
 25 C       -1.0780    -8.5540    -1.7900 C.ar  1 <1>  -0.1500 
 26 C       -1.0700   -10.3300     0.3290 C.ar  1 <1>  -0.1500 
 27 C       -0.2240    -9.6250    -1.8000 C.ar  1 <1>  -0.1500 
 28 C       -0.2200   -10.5210    -0.7270 C.ar  1 <1>  -0.1500 
 29 H       -2.6970    -0.0690    -0.1830 H     1 <1>   0.0800 
 30 H       -1.4720    -0.4670    -1.4070 H     1 <1>   0.0800 
 31 H       -1.9630     1.8480    -1.3020 H     1 <1>   0.1500 
 32 H       -2.1460    -2.0520     1.0890 H     1 <1>   0.0800 
 33 H       -0.7570    -2.3690     0.0810 H     1 <1>   0.0800 
 34 H        1.7920     3.6930     1.2700 H     1 <1>   0.1500 
 35 H        1.8140     1.7570     2.6720 H     1 <1>   0.0800 
 36 H        0.7250     0.4340     2.4280 H     1 <1>   0.0800 
 37 H       -1.2950     4.1590    -1.6120 H     1 <1>   0.1500 
 38 H       -2.2490    -2.8250    -1.7780 H     1 <1>   0.4500 
 39 H        0.5820     5.0910    -0.3310 H     1 <1>   0.1500 
 40 H        3.1830     1.0100     0.7420 H     1 <1>   0.0800 
 41 H        2.0930    -0.3330     0.4940 H     1 <1>   0.0800 
 42 H        3.0560    -0.2460     1.9520 H     1 <1>   0.0800 
 43 H       -4.2440    -1.4990    -0.6740 H     1 <1>   0.0800 
 44 H       -4.5460    -2.9340    -1.6390 H     1 <1>   0.0800 
 45 H       -2.5810    -4.9540    -1.1990 H     1 <1>   0.0800 
 46 H       -1.5950    -4.4970     0.1680 H     1 <1>   0.0800 
 47 H       -5.6640    -3.5090     0.3760 H     1 <1>   0.0800 
 48 H       -3.3750    -4.6840     1.5860 H     1 <1>   0.0800 
 49 H       -4.8680    -2.8850     2.3750 H     1 <1>   0.4000 
 50 H       -4.8760    -5.7450    -0.8260 H     1 <1>   0.0800 
 51 H       -5.3310    -5.9800     0.8320 H     1 <1>   0.0800 
 52 H       -4.3670    -7.7080     2.1330 H     1 <1>   0.1500 
 53 H       -2.8810    -9.6850     2.2470 H     1 <1>   0.1500 
 54 H       -1.0950    -7.8610    -2.6100 H     1 <1>   0.1500 
 55 H       -1.0730   -11.0190     1.1550 H     1 <1>   0.1500 
 56 H        0.4470    -9.7920    -2.6250 H     1 <1>   0.1500 
 57 H        0.4570   -11.3590    -0.7460 H     1 <1>   0.1500 
@<TRIPOS>BOND
  1   1   2  1   
  2   1   3  1   
  3   2   4  ar  
  4   2   5  ar  
  5   3   6  1   
  6   3  29  1   
  7   3  30  1   
  8   4   7  ar  
  9   4   8  1   
 10   5   9  ar  
 11   5  31  1   
 12   6  10  1   
 13   6  32  1   
 14   6  33  1   
 15   7  11  ar  
 16   7  34  1   
 17   8  12  1   
 18   8  35  1   
 19   8  36  1   
 20   9  11  ar  
 21   9  37  1   
 22  10  13  1   
 23  10  14  1   
 24  10  38  1   
 25  11  39  1   
 26  12  40  1   
 27  12  41  1   
 28  12  42  1   
 29  13  15  1   
 30  13  43  1   
 31  13  44  1   
 32  14  16  1   
 33  14  45  1   
 34  14  46  1   
 35  15  16  1   
 36  15  17  1   
 37  15  47  1   
 38  16  18  1   
 39  16  48  1   
 40  17  49  1   
 41  18  19  1   
 42  18  50  1   
 43  18  51  1   
 44  19  20  ar  
 45  19  21  ar  
 46  20  22  ar  
 47  21  23  ar  
 48  21  52  1   
 49  22  24  ar  
 50  22  25  ar  
 51  23  24  ar  
 52  23  53  1   
 53  24  26  ar  
 54  25  27  ar  
 55  25  54  1   
 56  26  28  ar  
 57  26  55  1   
 58  27  28  ar  
 59  27  56  1   
 60  28  57  1   
@<TRIPOS>SUBSTRUCTURE
  1 ****  14 GROUP 4 **** **** 0

# MOE 2024.06 (io_trps.svl 2023.06)
