@<TRIPOS>MOLECULE
NONAME
47 48 1 0 0 
SMALL
USER_CHARGES


@<TRIPOS>ATOM
  1 CL      -0.6410    -4.2150    -2.4110 Cl    1 <1>  -0.1770 
  2 C       -2.0760    -3.6300    -1.6110 C.ar  1 <1>   0.1770 
  3 C       -2.3310    -4.0150    -0.3090 C.ar  1 <1>  -0.1500 
  4 C       -2.9370    -2.7890    -2.2900 C.ar  1 <1>  -0.1500 
  5 C       -3.4740    -3.5540     0.3220 C.ar  1 <1>  -0.1500 
  6 C       -4.0780    -2.3300    -1.6540 C.ar  1 <1>  -0.1500 
  7 C       -4.3570    -2.7170    -0.3490 C.ar  1 <1>  -0.1430 
  8 C       -5.6250    -2.2220     0.3430 C.3   1 <1>   0.0440 
  9 C       -6.3510    -3.3050     1.1370 C.2   1 <1>   0.5690 
 10 O       -6.5130    -3.1080     2.3160 O.2   1 <1>  -0.5700 
 11 N       -6.8350    -4.4520     0.5590 N.am  1 <1>  -0.6600 
 12 C       -7.1800    -5.5870     1.4920 C.3   1 <1>   0.3210 
 13 C       -6.9620    -4.6560    -0.9260 C.3   1 <1>   0.1400 
 14 C       -7.5710    -6.9010     0.8140 C.2   1 <1>   0.0460 
 15 C       -8.2830    -4.1030    -1.5090 C.3   1 <1>   0.3430 
 16 N       -8.8080    -7.0920     0.3000 N.2   1 <1>  -0.5650 
 17 C       -6.8070    -8.0060     0.6430 C.2   1 <1>  -0.3320 
 18 N       -9.4990    -4.4910    -0.7230 N.4   1 <1>  -0.9590 
 19 C       -8.7740    -8.3060    -0.1470 C.2   1 <1>   0.0360 
 20 N       -7.5840    -8.9160     0.0280 N.pl3 1 <1>   0.0330 
 21 C       -5.3640    -8.2950     1.0260 C.3   1 <1>  -0.0600 
 22 C      -10.6840    -4.7280    -1.5940 C.3   1 <1>   0.2630 
 23 C       -9.8200    -3.5290     0.3760 C.3   1 <1>   0.2630 
 24 H       -1.6420    -4.6640     0.2000 H     1 <1>   0.1500 
 25 H       -2.7080    -2.4980    -3.3000 H     1 <1>   0.1500 
 26 H       -3.6660    -3.8500     1.3400 H     1 <1>   0.1500 
 27 H       -4.7390    -1.6660    -2.1850 H     1 <1>   0.1500 
 28 H       -6.3070    -1.8050    -0.3720 H     1 <1>   0.0800 
 29 H       -5.3500    -1.4320     1.0190 H     1 <1>   0.0800 
 30 H       -7.9890    -5.2830     2.1330 H     1 <1>   0.0800 
 31 H       -6.3320    -5.7690     2.1290 H     1 <1>   0.0800 
 32 H       -6.8740    -5.6970    -1.1780 H     1 <1>   0.0800 
 33 H       -6.1460    -4.1760    -1.4330 H     1 <1>   0.0800 
 34 H       -8.3750    -4.4770    -2.5150 H     1 <1>   0.0800 
 35 H       -8.2220    -3.0300    -1.5700 H     1 <1>   0.0800 
 36 H       -9.2640    -5.4060    -0.2700 H     1 <1>   0.4500 
 37 H       -9.6020    -8.8110    -0.6160 H     1 <1>   0.1500 
 38 H       -7.3340    -9.8740    -0.2380 H     1 <1>   0.2700 
 39 H       -4.8990    -7.4290     1.4590 H     1 <1>   0.0800 
 40 H       -4.7980    -8.5800     0.1560 H     1 <1>   0.0800 
 41 H       -5.3240    -9.0970     1.7420 H     1 <1>   0.0800 
 42 H      -10.9700    -3.8180    -2.0960 H     1 <1>   0.0800 
 43 H      -11.5150    -5.0740    -1.0010 H     1 <1>   0.0800 
 44 H      -10.4570    -5.4790    -2.3330 H     1 <1>   0.0800 
 45 H      -10.0690    -2.5630    -0.0310 H     1 <1>   0.0800 
 46 H       -8.9810    -3.4190     1.0420 H     1 <1>   0.0800 
 47 H      -10.6590    -3.8900     0.9490 H     1 <1>   0.0800 
@<TRIPOS>BOND
  1   1   2  1   
  2   2   3  ar  
  3   2   4  ar  
  4   3   5  ar  
  5   3  24  1   
  6   4   6  ar  
  7   4  25  1   
  8   5   7  ar  
  9   5  26  1   
 10   6   7  ar  
 11   6  27  1   
 12   7   8  1   
 13   8   9  1   
 14   8  28  1   
 15   8  29  1   
 16   9  10  2   
 17   9  11  am  
 18  11  12  1   
 19  11  13  1   
 20  12  14  1   
 21  12  30  1   
 22  12  31  1   
 23  13  15  1   
 24  13  32  1   
 25  13  33  1   
 26  14  16  1   
 27  14  17  2   
 28  15  18  1   
 29  15  34  1   
 30  15  35  1   
 31  16  19  2   
 32  17  20  1   
 33  17  21  1   
 34  18  22  1   
 35  18  23  1   
 36  18  36  1   
 37  19  20  1   
 38  19  37  1   
 39  20  38  1   
 40  21  39  1   
 41  21  40  1   
 42  21  41  1   
 43  22  42  1   
 44  22  43  1   
 45  22  44  1   
 46  23  45  1   
 47  23  46  1   
 48  23  47  1   
@<TRIPOS>SUBSTRUCTURE
  1 ****  11 GROUP 4 **** **** 0

# MOE 2024.06 (io_trps.svl 2023.06)
