@<TRIPOS>MOLECULE
NONAME
46 49 1 0 0 
SMALL
USER_CHARGES


@<TRIPOS>ATOM
  1 S       -0.0290     0.4470     1.3720 S.o2  1 <1>   1.5000 
  2 O        0.8190     0.0210     2.4650 O.2   1 <1>  -0.6500 
  3 O       -1.0290     1.4660     1.6090 O.2   1 <1>  -0.6500 
  4 N       -0.8500    -0.9300     0.8160 N.am  1 <1>  -0.8490 
  5 C        1.0250     0.8800    -0.0360 C.2   1 <1>  -0.0220 
  6 C       -1.8490    -0.5960    -0.2050 C.3   1 <1>   0.1960 
  7 C       -1.4820    -1.6530     1.9250 C.3   1 <1>   0.1960 
  8 S        0.5950     2.2890    -1.0050 S.3   1 <1>  -0.0800 
  9 C        2.1300     0.3050    -0.5550 C.2   1 <1>  -0.1500 
 10 C       -2.4350    -1.8780    -0.7960 C.3   1 <1>  -0.1600 
 11 C       -2.0690    -2.9730     1.4220 C.3   1 <1>  -0.1600 
 12 C        1.9540     2.0420    -2.0850 C.2   1 <1>  -0.1100 
 13 C        2.6600     0.9610    -1.7120 C.2   1 <1>  -0.1500 
 14 C       -3.0810    -2.7450     0.2940 C.3   1 <1>   0.4240 
 15 O       -4.1230    -2.0020     0.8820 O.3   1 <1>  -0.5600 
 16 C       -3.5840    -4.0910    -0.2720 C.ar  1 <1>  -0.1430 
 17 C       -5.3650    -2.0200     0.2500 C.3   1 <1>   0.1200 
 18 C       -4.9370    -4.4180    -0.2550 C.ar  1 <1>  -0.1430 
 19 C       -2.6900    -5.0050    -0.8200 C.ar  1 <1>  -0.1500 
 20 C       -5.9330    -3.4330     0.3240 C.3   1 <1>  -0.0170 
 21 C       -5.3800    -5.6290    -0.7620 C.ar  1 <1>  -0.1500 
 22 C       -3.1310    -6.2130    -1.3290 C.ar  1 <1>  -0.1500 
 23 C       -4.4760    -6.5370    -1.3030 C.ar  1 <1>   0.0830 
 24 O       -4.8260    -7.7420    -1.8190 O.3   1 <1>  -0.3630 
 25 C       -6.1670    -8.1760    -1.8210 C.3   1 <1>   0.0400 
 26 H       -1.3890    -0.0290    -0.9970 H     1 <1>   0.0800 
 27 H       -2.6350     0.0060     0.2260 H     1 <1>   0.0800 
 28 H       -2.2550    -1.0440     2.3700 H     1 <1>   0.0800 
 29 H       -0.7510    -1.8720     2.6850 H     1 <1>   0.0800 
 30 H        2.6030    -0.5770    -0.1570 H     1 <1>   0.1500 
 31 H       -1.6410    -2.4240    -1.2700 H     1 <1>   0.0800 
 32 H       -3.1550    -1.6420    -1.5550 H     1 <1>   0.0800 
 33 H       -2.5520    -3.4910     2.2290 H     1 <1>   0.0800 
 34 H       -1.2590    -3.5890     1.0790 H     1 <1>   0.0800 
 35 H        2.0810     2.7420    -2.8920 H     1 <1>   0.1500 
 36 H        3.5420     0.5880    -2.2050 H     1 <1>   0.1500 
 37 H       -5.2500    -1.7010    -0.7710 H     1 <1>   0.0800 
 38 H       -6.0070    -1.3280     0.7660 H     1 <1>   0.0800 
 39 H       -1.6380    -4.7860    -0.8580 H     1 <1>   0.1500 
 40 H       -6.8570    -3.4720    -0.2240 H     1 <1>   0.0800 
 41 H       -6.1360    -3.6840     1.3500 H     1 <1>   0.0800 
 42 H       -6.4280    -5.8540    -0.7290 H     1 <1>   0.1500 
 43 H       -2.4340    -6.9150    -1.7490 H     1 <1>   0.1500 
 44 H       -6.2000    -9.1540    -2.2670 H     1 <1>   0.0800 
 45 H       -6.7560    -7.4890    -2.4030 H     1 <1>   0.0800 
 46 H       -6.5200    -8.2250    -0.8060 H     1 <1>   0.0800 
@<TRIPOS>BOND
  1   1   2  2   
  2   1   3  2   
  3   1   4  am  
  4   1   5  1   
  5   4   6  1   
  6   4   7  1   
  7   5   8  1   
  8   5   9  2   
  9   6  10  1   
 10   6  26  1   
 11   6  27  1   
 12   7  11  1   
 13   7  28  1   
 14   7  29  1   
 15   8  12  1   
 16   9  13  1   
 17   9  30  1   
 18  10  14  1   
 19  10  31  1   
 20  10  32  1   
 21  11  14  1   
 22  11  33  1   
 23  11  34  1   
 24  12  13  2   
 25  12  35  1   
 26  13  36  1   
 27  14  15  1   
 28  14  16  1   
 29  15  17  1   
 30  16  18  ar  
 31  16  19  ar  
 32  17  20  1   
 33  17  37  1   
 34  17  38  1   
 35  18  20  1   
 36  18  21  ar  
 37  19  22  ar  
 38  19  39  1   
 39  20  40  1   
 40  20  41  1   
 41  21  23  ar  
 42  21  42  1   
 43  22  23  ar  
 44  22  43  1   
 45  23  24  1   
 46  24  25  1   
 47  25  44  1   
 48  25  45  1   
 49  25  46  1   
@<TRIPOS>SUBSTRUCTURE
  1 ****  10 GROUP 4 **** **** 0

# MOE 2024.06 (io_trps.svl 2023.06)
