@<TRIPOS>MOLECULE
NONAME
38 39 1 0 0 
SMALL
USER_CHARGES


@<TRIPOS>ATOM
  1 CL      -0.8380     0.5840    -0.0610 Cl    1 <1>  -0.1240 
  2 C       -1.1620    -1.1180     0.1080 C.2   1 <1>   0.1640 
  3 S       -2.1540    -1.8590    -1.1210 S.3   1 <1>  -0.0800 
  4 C       -0.7780    -2.0020     1.0440 C.2   1 <1>  -0.1500 
  5 C       -2.0400    -3.4410    -0.3280 C.2   1 <1>  -0.0450 
  6 C       -1.2770    -3.3150     0.7940 C.2   1 <1>  -0.1500 
  7 C       -2.7180    -4.5650    -0.9220 C.2   1 <1>   0.7150 
  8 O       -3.3590    -4.4650    -1.9500 O.2   1 <1>  -0.5700 
  9 N       -2.6490    -5.7870    -0.3220 N.am  1 <1>  -0.7300 
 10 C       -3.3000    -7.0220    -0.8060 C.3   1 <1>   0.2200 
 11 C       -4.3960    -7.4170     0.1730 C.3   1 <1>  -0.0800 
 12 C       -2.3310    -8.1870    -0.6700 C.3   1 <1>   0.1200 
 13 C       -3.6400    -8.2590     1.2130 C.3   1 <1>   0.1200 
 14 C       -5.5080    -8.2170    -0.5330 C.3   1 <1>  -0.0550 
 15 O       -2.3810    -8.5440     0.6750 O.3   1 <1>  -0.5600 
 16 S       -6.9420    -8.5160     0.5010 S.o2  1 <1>   1.3330 
 17 O       -6.5970    -9.4550     1.5450 O.2   1 <1>  -0.6500 
 18 O       -7.5050    -7.2330     0.8530 O.2   1 <1>  -0.6500 
 19 N       -8.0070    -9.2950    -0.5660 N.am  1 <1>  -0.8490 
 20 C       -9.4130    -9.0100    -0.2590 C.3   1 <1>   0.1160 
 21 C       -7.7980   -10.7450    -0.6460 C.3   1 <1>   0.1160 
 22 H       -0.1640    -1.7750     1.8960 H     1 <1>   0.1500 
 23 H       -1.0420    -4.1190     1.4700 H     1 <1>   0.1500 
 24 H       -2.1020    -5.9060     0.5300 H     1 <1>   0.3700 
 25 H       -3.6500    -6.9000    -1.8180 H     1 <1>   0.0800 
 26 H       -4.8390    -6.5460     0.6270 H     1 <1>   0.0800 
 27 H       -1.3230    -7.9250    -0.9400 H     1 <1>   0.0800 
 28 H       -2.6580    -9.0320    -1.2500 H     1 <1>   0.0800 
 29 H       -4.1270    -9.1920     1.4390 H     1 <1>   0.0800 
 30 H       -3.4900    -7.7080     2.1260 H     1 <1>   0.0800 
 31 H       -5.1150    -9.1530    -0.8810 H     1 <1>   0.0800 
 32 H       -5.8340    -7.6610    -1.3910 H     1 <1>   0.0800 
 33 H      -10.0570    -9.5060    -0.9640 H     1 <1>   0.0800 
 34 H       -9.5970    -7.9510    -0.3240 H     1 <1>   0.0800 
 35 H       -9.6530    -9.3420     0.7380 H     1 <1>   0.0800 
 36 H       -8.4340   -11.1690    -1.4050 H     1 <1>   0.0800 
 37 H       -8.0220   -11.2110     0.3000 H     1 <1>   0.0800 
 38 H       -6.7750   -10.9600    -0.9020 H     1 <1>   0.0800 
@<TRIPOS>BOND
  1   1   2  1   
  2   2   3  1   
  3   2   4  2   
  4   3   5  1   
  5   4   6  1   
  6   4  22  1   
  7   5   6  2   
  8   5   7  1   
  9   6  23  1   
 10   7   8  2   
 11   7   9  am  
 12   9  10  1   
 13   9  24  1   
 14  10  11  1   
 15  10  12  1   
 16  10  25  1   
 17  11  13  1   
 18  11  14  1   
 19  11  26  1   
 20  12  15  1   
 21  12  27  1   
 22  12  28  1   
 23  13  15  1   
 24  13  29  1   
 25  13  30  1   
 26  14  16  1   
 27  14  31  1   
 28  14  32  1   
 29  16  17  2   
 30  16  18  2   
 31  16  19  am  
 32  19  20  1   
 33  19  21  1   
 34  20  33  1   
 35  20  34  1   
 36  20  35  1   
 37  21  36  1   
 38  21  37  1   
 39  21  38  1   
@<TRIPOS>SUBSTRUCTURE
  1 ****  11 GROUP 4 **** **** 0

# MOE 2024.06 (io_trps.svl 2023.06)
