@<TRIPOS>MOLECULE
Untitled Document
40 41 1 0 0 
SMALL
USER_CHARGES


@<TRIPOS>ATOM
  1 O       -0.5830     0.6360     1.9430 O.2   1 <1>  -0.5700 
  2 C       -0.9340     1.6070     1.3080 C.2   1 <1>   0.7200 
  3 N       -2.2130     2.0470     1.2220 N.2   1 <1>  -0.6610 
  4 C        0.0090     2.5220     0.5160 C.3   1 <1>   0.4300 
  5 C       -2.2240     3.1260     0.4950 C.2   1 <1>   0.4140 
  6 N       -0.9910     3.4350    -0.0040 N.pl3 1 <1>  -0.8190 
  7 C        0.7260     1.8100    -0.6740 C.3   1 <1>  -0.0800 
  8 C        0.9380     3.3390     1.4260 C.3   1 <1>  -0.2400 
  9 C       -3.4240     3.9450     0.2330 C.ar  1 <1>   0.3960 
 10 C        1.8070     0.8030    -0.2340 C.3   1 <1>  -0.2400 
 11 C        1.3600     2.7820    -1.6920 C.3   1 <1>  -0.2400 
 12 N       -4.6010     3.2900     0.2960 N.ar  1 <1>  -0.6200 
 13 C       -3.3850     5.3180    -0.0920 C.ar  1 <1>  -0.1790 
 14 C       -5.7090     3.9550     0.0450 C.ar  1 <1>   0.1600 
 15 C       -2.1680     6.0860    -0.1740 C.2   1 <1>   0.9790 
 16 C       -4.5760     5.9820    -0.3640 C.ar  1 <1>  -0.1500 
 17 C       -5.7620     5.2930    -0.2950 C.ar  1 <1>  -0.1440 
 18 O       -1.9860     6.8590    -1.1260 O.co2 1 <1>  -0.9000 
 19 O       -1.2740     6.0010     0.6860 O.co2 1 <1>  -0.9000 
 20 C       -7.0690     6.0030    -0.6040 C.3   1 <1>   0.2630 
 21 O       -8.1330     5.3520     0.0210 O.3   1 <1>  -0.5600 
 22 C       -9.3670     5.9560    -0.1860 C.3   1 <1>   0.0400 
 23 H       -0.7320     4.4450     0.0330 H     1 <1>   0.4000 
 24 H       -0.0330     1.2510    -1.1960 H     1 <1>   0.0800 
 25 H        0.3570     3.8480     2.1760 H     1 <1>   0.0800 
 26 H        1.4800     4.0740     0.8610 H     1 <1>   0.0800 
 27 H        1.6340     2.6920     1.9240 H     1 <1>   0.0800 
 28 H        2.6200     1.3020     0.2630 H     1 <1>   0.0800 
 29 H        2.2020     0.2870    -1.0900 H     1 <1>   0.0800 
 30 H        1.3970     0.0650     0.4330 H     1 <1>   0.0800 
 31 H        2.1550     3.3500    -1.2440 H     1 <1>   0.0800 
 32 H        0.6230     3.4690    -2.0720 H     1 <1>   0.0800 
 33 H        1.7610     2.2370    -2.5280 H     1 <1>   0.0800 
 34 H       -6.6290     3.4010     0.1110 H     1 <1>   0.1500 
 35 H       -4.5440     7.0260    -0.6300 H     1 <1>   0.1500 
 36 H       -7.2410     6.0020    -1.6660 H     1 <1>   0.0800 
 37 H       -7.0300     7.0170    -0.2430 H     1 <1>   0.0800 
 38 H      -10.1120     5.3770     0.3310 H     1 <1>   0.0800 
 39 H       -9.5850     5.9690    -1.2400 H     1 <1>   0.0800 
 40 H       -9.3460     6.9560     0.2120 H     1 <1>   0.0800 
@<TRIPOS>BOND
  1   1   2  2   
  2   2   3  1   
  3   2   4  1   
  4   3   5  2   
  5   4   6  1   
  6   4   7  1   
  7   4   8  1   
  8   5   6  1   
  9   5   9  1   
 10   6  23  1   
 11   7  10  1   
 12   7  11  1   
 13   7  24  1   
 14   8  25  1   
 15   8  26  1   
 16   8  27  1   
 17   9  12  ar  
 18   9  13  ar  
 19  10  28  1   
 20  10  29  1   
 21  10  30  1   
 22  11  31  1   
 23  11  32  1   
 24  11  33  1   
 25  12  14  ar  
 26  13  15  1   
 27  13  16  ar  
 28  14  17  ar  
 29  14  34  1   
 30  15  18  ar  
 31  15  19  ar  
 32  16  17  ar  
 33  16  35  1   
 34  17  20  1   
 35  20  21  1   
 36  20  36  1   
 37  20  37  1   
 38  21  22  1   
 39  22  38  1   
 40  22  39  1   
 41  22  40  1   
@<TRIPOS>SUBSTRUCTURE
  1 ****   9 GROUP 4 **** **** 0

# MOE 2024.06 (io_trps.svl 2023.06)
