@<TRIPOS>MOLECULE
NONAME
48 50 1 0 0 
SMALL
USER_CHARGES


@<TRIPOS>ATOM
  1 S       -0.7590     0.8830     1.0660 S.o2  1 <1>   1.4470 
  2 O       -0.7180    -0.1890     2.0400 O.2   1 <1>  -0.6500 
  3 O       -1.3660     2.1460     1.4280 O.2   1 <1>  -0.6500 
  4 N       -1.5610     0.3110    -0.3170 N.am  1 <1>  -0.8490 
  5 C        0.9170     1.2050     0.4440 C.ar  1 <1>  -0.0090 
  6 C       -3.0180     0.3420    -0.1920 C.3   1 <1>   0.1960 
  7 C       -1.2400    -1.0790    -0.6440 C.3   1 <1>   0.1960 
  8 C        1.1230     2.0230    -0.6600 C.ar  1 <1>  -0.1500 
  9 C        2.0380     0.6480     1.0460 C.ar  1 <1>  -0.1500 
 10 C       -3.4050    -0.9770     0.4810 C.3   1 <1>  -0.0800 
 11 C       -2.3580    -1.9620    -0.0700 C.3   1 <1>  -0.0800 
 12 C        2.3950     2.2760    -1.1420 C.ar  1 <1>  -0.1500 
 13 C        3.3100     0.9000     0.5650 C.ar  1 <1>  -0.1500 
 14 C       -4.8880    -1.4230     0.3490 C.3   1 <1>   0.2800 
 15 C       -2.9360    -2.9060    -1.1380 C.3   1 <1>  -0.1600 
 16 C        3.5250     1.7240    -0.5380 C.ar  1 <1>   0.0860 
 17 O       -5.3830    -1.0590    -0.8900 O.3   1 <1>  -0.6800 
 18 C       -4.9700    -2.9590     0.4420 C.3   1 <1>  -0.1600 
 19 C       -5.8170    -0.7970     1.4140 C.3   1 <1>  -0.1600 
 20 C       -4.1380    -3.7100    -0.6180 C.3   1 <1>  -0.1600 
 21 C        4.8700     1.9840    -1.0250 C.2   1 <1>   0.5440 
 22 C       -5.9060     0.7380     1.4280 C.3   1 <1>  -0.2400 
 23 O        5.7850     1.2210    -0.8070 O.2   1 <1>  -0.5700 
 24 N        5.1780     3.0960    -1.7320 N.am  1 <1>  -0.8000 
 25 H       -3.3570     1.2040     0.3530 H     1 <1>   0.0800 
 26 H       -3.4360     0.3870    -1.1830 H     1 <1>   0.0800 
 27 H       -1.2140    -1.1720    -1.7160 H     1 <1>   0.0800 
 28 H       -0.2760    -1.3690    -0.2590 H     1 <1>   0.0800 
 29 H        0.2680     2.4640    -1.1460 H     1 <1>   0.1500 
 30 H        1.9140     0.0080     1.9050 H     1 <1>   0.1500 
 31 H       -3.2040    -0.8700     1.5320 H     1 <1>   0.0800 
 32 H       -1.9640    -2.5530     0.7400 H     1 <1>   0.0800 
 33 H        2.5080     2.9060    -2.0060 H     1 <1>   0.1500 
 34 H        4.1610     0.4520     1.0510 H     1 <1>   0.1500 
 35 H       -3.2600    -2.3160    -1.9790 H     1 <1>   0.0800 
 36 H       -2.1760    -3.5820    -1.4910 H     1 <1>   0.0800 
 37 H       -6.2930    -1.3910    -0.9810 H     1 <1>   0.4000 
 38 H       -4.6000    -3.2430     1.4110 H     1 <1>   0.0800 
 39 H       -5.9940    -3.2860     0.3940 H     1 <1>   0.0800 
 40 H       -6.8090    -1.1910     1.2790 H     1 <1>   0.0800 
 41 H       -5.4890    -1.1190     2.3870 H     1 <1>   0.0800 
 42 H       -3.7950    -4.6370    -0.1920 H     1 <1>   0.0800 
 43 H       -4.7670    -3.9550    -1.4570 H     1 <1>   0.0800 
 44 H       -6.1110     1.1220     0.4440 H     1 <1>   0.0800 
 45 H       -4.9920     1.1700     1.7920 H     1 <1>   0.0800 
 46 H       -6.6980     1.0500     2.0850 H     1 <1>   0.0800 
 47 H        6.1490     3.2340    -2.0150 H     1 <1>   0.3700 
 48 H        4.5470     3.8840    -1.8620 H     1 <1>   0.3700 
@<TRIPOS>BOND
  1   1   2  2   
  2   1   3  2   
  3   1   4  am  
  4   1   5  1   
  5   4   6  1   
  6   4   7  1   
  7   5   8  ar  
  8   5   9  ar  
  9   6  10  1   
 10   6  25  1   
 11   6  26  1   
 12   7  11  1   
 13   7  27  1   
 14   7  28  1   
 15   8  12  ar  
 16   8  29  1   
 17   9  13  ar  
 18   9  30  1   
 19  10  11  1   
 20  10  14  1   
 21  10  31  1   
 22  11  15  1   
 23  11  32  1   
 24  12  16  ar  
 25  12  33  1   
 26  13  16  ar  
 27  13  34  1   
 28  14  17  1   
 29  14  18  1   
 30  14  19  1   
 31  15  20  1   
 32  15  35  1   
 33  15  36  1   
 34  16  21  1   
 35  17  37  1   
 36  18  20  1   
 37  18  38  1   
 38  18  39  1   
 39  19  22  1   
 40  19  40  1   
 41  19  41  1   
 42  20  42  1   
 43  20  43  1   
 44  21  23  2   
 45  21  24  am  
 46  22  44  1   
 47  22  45  1   
 48  22  46  1   
 49  24  47  1   
 50  24  48  1   
@<TRIPOS>SUBSTRUCTURE
  1 ****   4 GROUP 4 **** **** 0

# MOE 2024.06 (io_trps.svl 2023.06)
