@<TRIPOS>MOLECULE
NONAME
51 52 1 0 0 
SMALL
USER_CHARGES


@<TRIPOS>ATOM
  1 S       -0.2670     0.0490    -0.4320 S.o2  1 <1>   1.3330 
  2 O       -1.3260    -0.9220    -0.5530 O.2   1 <1>  -0.6500 
  3 O        0.9300    -0.0560    -1.2370 O.2   1 <1>  -0.6500 
  4 N        0.2270     0.1150     1.1900 N.am  1 <1>  -0.8490 
  5 C       -0.9190     1.6950    -0.7290 C.3   1 <1>  -0.0550 
  6 C        1.1890    -0.9510     1.5020 C.3   1 <1>   0.1160 
  7 C       -0.8980     0.0250     2.1330 C.3   1 <1>   0.1160 
  8 C        0.0420     2.8270    -0.3080 C.3   1 <1>  -0.0800 
  9 C       -0.4730     4.2160    -0.7050 C.3   1 <1>   0.2000 
 10 C        1.4390     2.7310    -0.9330 C.3   1 <1>   0.3430 
 11 O       -0.9160     4.8740     0.4350 O.3   1 <1>  -0.6800 
 12 C        0.7210     4.9440    -1.3380 C.3   1 <1>   0.3430 
 13 N        1.9270     4.1280    -0.9990 N.4   1 <1>  -0.9590 
 14 C        2.5590     4.5320     0.2890 C.3   1 <1>   0.4860 
 15 C        2.9110     6.0000     0.2350 C.ar  1 <1>  -0.1430 
 16 C        3.9740     6.4240    -0.5480 C.ar  1 <1>   0.0820 
 17 C        2.1660     6.9130     0.9700 C.ar  1 <1>   0.0820 
 18 O        4.6360     5.4750    -1.2630 O.3   1 <1>  -0.3630 
 19 C        4.3060     7.7760    -0.5800 C.ar  1 <1>  -0.1500 
 20 O        1.1170     6.4250     1.6850 O.3   1 <1>  -0.3630 
 21 C        2.5060     8.2620     0.9330 C.ar  1 <1>  -0.1500 
 22 C        5.8490     5.7770    -1.9240 C.3   1 <1>   0.0400 
 23 C        3.5740     8.6860     0.1620 C.ar  1 <1>  -0.1500 
 24 C        0.3910     7.2560     2.5720 C.3   1 <1>   0.0400 
 25 H       -1.1490     1.7860    -1.7730 H     1 <1>   0.0800 
 26 H       -1.8390     1.8100    -0.1880 H     1 <1>   0.0800 
 27 H        1.5000    -0.8860     2.5300 H     1 <1>   0.0800 
 28 H        2.0630    -0.8580     0.8790 H     1 <1>   0.0800 
 29 H        0.7460    -1.9190     1.3280 H     1 <1>   0.0800 
 30 H       -0.5410     0.1200     3.1450 H     1 <1>   0.0800 
 31 H       -1.4040    -0.9220     2.0310 H     1 <1>   0.0800 
 32 H       -1.6060     0.8150     1.9510 H     1 <1>   0.0800 
 33 H        0.1680     2.7810     0.7610 H     1 <1>   0.0800 
 34 H       -1.2980     4.1710    -1.3960 H     1 <1>   0.0800 
 35 H        1.3630     2.3260    -1.9300 H     1 <1>   0.0800 
 36 H        2.0930     2.0970    -0.3530 H     1 <1>   0.0800 
 37 H       -0.1860     5.3130     0.9310 H     1 <1>   0.4000 
 38 H        0.7950     5.9620    -0.9920 H     1 <1>   0.0800 
 39 H        0.5930     4.9500    -2.4080 H     1 <1>   0.0800 
 40 H        2.6630     4.2570    -1.7120 H     1 <1>   0.4500 
 41 H        1.8890     4.3440     1.1120 H     1 <1>   0.0800 
 42 H        3.4590     3.9610     0.4500 H     1 <1>   0.0800 
 43 H        5.1250     8.1410    -1.1720 H     1 <1>   0.1500 
 44 H        1.9570     8.9970     1.4910 H     1 <1>   0.1500 
 45 H        6.2380     4.8690    -2.3490 H     1 <1>   0.0800 
 46 H        6.5500     6.1720    -1.2090 H     1 <1>   0.0800 
 47 H        5.6570     6.4910    -2.7060 H     1 <1>   0.0800 
 48 H        3.8350     9.7310     0.1370 H     1 <1>   0.1500 
 49 H       -0.3480     6.6540     3.0720 H     1 <1>   0.0800 
 50 H       -0.0970     8.0330     2.0100 H     1 <1>   0.0800 
 51 H        1.0680     7.6750     3.2960 H     1 <1>   0.0800 
@<TRIPOS>BOND
  1   1   2  2   
  2   1   3  2   
  3   1   4  am  
  4   1   5  1   
  5   4   6  1   
  6   4   7  1   
  7   5   8  1   
  8   5  25  1   
  9   5  26  1   
 10   6  27  1   
 11   6  28  1   
 12   6  29  1   
 13   7  30  1   
 14   7  31  1   
 15   7  32  1   
 16   8   9  1   
 17   8  10  1   
 18   8  33  1   
 19   9  11  1   
 20   9  12  1   
 21   9  34  1   
 22  10  13  1   
 23  10  35  1   
 24  10  36  1   
 25  11  37  1   
 26  12  13  1   
 27  12  38  1   
 28  12  39  1   
 29  13  14  1   
 30  13  40  1   
 31  14  15  1   
 32  14  41  1   
 33  14  42  1   
 34  15  16  ar  
 35  15  17  ar  
 36  16  18  1   
 37  16  19  ar  
 38  17  20  1   
 39  17  21  ar  
 40  18  22  1   
 41  19  23  ar  
 42  19  43  1   
 43  20  24  1   
 44  21  23  ar  
 45  21  44  1   
 46  22  45  1   
 47  22  46  1   
 48  22  47  1   
 49  23  48  1   
 50  24  49  1   
 51  24  50  1   
 52  24  51  1   
@<TRIPOS>SUBSTRUCTURE
  1 ****  13 GROUP 4 **** **** 0

# MOE 2024.06 (io_trps.svl 2023.06)
