@<TRIPOS>MOLECULE
NONAME
48 51 1 0 0 
SMALL
USER_CHARGES


@<TRIPOS>ATOM
  1 S       -0.1860     0.3430    -1.9970 S.o2  1 <1>   1.5000 
  2 O        0.3010     1.6430    -2.4060 O.2   1 <1>  -0.6500 
  3 O       -0.5760    -0.6170    -3.0080 O.2   1 <1>  -0.6500 
  4 N       -1.5400     0.6070    -1.0110 N.am  1 <1>  -0.8490 
  5 C        0.9750    -0.4610    -0.8650 C.2   1 <1>  -0.0220 
  6 C       -1.3100     1.6840    -0.0440 C.3   1 <1>   0.1960 
  7 C       -2.7320     0.8980    -1.8130 C.3   1 <1>   0.1960 
  8 S        2.3540     0.4840    -0.2770 S.3   1 <1>  -0.0800 
  9 C        1.0040    -1.6920    -0.3150 C.2   1 <1>  -0.1500 
 10 C       -2.4890     1.7670     0.9280 C.3   1 <1>  -0.1600 
 11 C       -3.9640     0.9690    -0.9090 C.3   1 <1>  -0.1600 
 12 C        2.9410    -0.8550     0.7160 C.ar  1 <1>   0.0400 
 13 C        2.0990    -1.9470     0.5780 C.ar  1 <1>   0.0000 
 14 C       -3.8100     2.0340     0.1870 C.3   1 <1>   0.2800 
 15 C        4.0630    -0.8580     1.5230 C.ar  1 <1>  -0.1500 
 16 C        2.4060    -3.1020     1.2930 C.ar  1 <1>  -0.1500 
 17 O       -3.7200     3.2670    -0.4860 O.3   1 <1>  -0.5600 
 18 C       -5.0260     2.0250     1.1470 C.3   1 <1>  -0.1600 
 19 C        4.3510    -2.0140     2.2260 C.ar  1 <1>  -0.1500 
 20 C        3.5240    -3.1290     2.1090 C.ar  1 <1>  -0.1500 
 21 C       -3.9070     4.4340     0.2640 C.3   1 <1>   0.1200 
 22 C       -6.0360     3.1340     0.8400 C.3   1 <1>   0.2800 
 23 C       -5.3270     4.4910     0.8510 C.3   1 <1>  -0.1600 
 24 O       -6.5060     2.9360    -0.4300 O.3   1 <1>  -0.6800 
 25 C       -7.2470     3.1010     1.7690 C.3   1 <1>  -0.2400 
 26 H       -1.1890     2.6260    -0.5560 H     1 <1>   0.0800 
 27 H       -0.4120     1.4880     0.5170 H     1 <1>   0.0800 
 28 H       -2.8850     0.1170    -2.5390 H     1 <1>   0.0800 
 29 H       -2.6020     1.8290    -2.3440 H     1 <1>   0.0800 
 30 H        0.2740    -2.4590    -0.5040 H     1 <1>   0.1500 
 31 H       -2.3020     2.5300     1.6590 H     1 <1>   0.0800 
 32 H       -2.5580     0.8320     1.4540 H     1 <1>   0.0800 
 33 H       -4.1060     0.0020    -0.4600 H     1 <1>   0.0800 
 34 H       -4.8330     1.1750    -1.5070 H     1 <1>   0.0800 
 35 H        4.6860     0.0150     1.5960 H     1 <1>   0.1500 
 36 H        1.7720    -3.9660     1.2060 H     1 <1>   0.1500 
 37 H       -4.6790     2.1660     2.1540 H     1 <1>   0.0800 
 38 H       -5.5160     1.0680     1.1310 H     1 <1>   0.0800 
 39 H        5.2160    -2.0550     2.8650 H     1 <1>   0.1500 
 40 H        3.7610    -4.0220     2.6610 H     1 <1>   0.1500 
 41 H       -3.7410     5.2720    -0.3910 H     1 <1>   0.0800 
 42 H       -3.1680     4.4630     1.0440 H     1 <1>   0.0800 
 43 H       -5.9180     5.2170     0.3210 H     1 <1>   0.0800 
 44 H       -5.2440     4.8420     1.8630 H     1 <1>   0.0800 
 45 H       -5.7370     3.0440    -1.0290 H     1 <1>   0.4000 
 46 H       -6.9410     3.2450     2.7880 H     1 <1>   0.0800 
 47 H       -7.7480     2.1520     1.6930 H     1 <1>   0.0800 
 48 H       -7.9370     3.8830     1.5050 H     1 <1>   0.0800 
@<TRIPOS>BOND
  1   1   2  2   
  2   1   3  2   
  3   1   4  am  
  4   1   5  1   
  5   4   6  1   
  6   4   7  1   
  7   5   8  1   
  8   5   9  2   
  9   6  10  1   
 10   6  26  1   
 11   6  27  1   
 12   7  11  1   
 13   7  28  1   
 14   7  29  1   
 15   8  12  1   
 16   9  13  1   
 17   9  30  1   
 18  10  14  1   
 19  10  31  1   
 20  10  32  1   
 21  11  14  1   
 22  11  33  1   
 23  11  34  1   
 24  12  13  ar  
 25  12  15  ar  
 26  13  16  ar  
 27  14  17  1   
 28  14  18  1   
 29  15  19  ar  
 30  15  35  1   
 31  16  20  ar  
 32  16  36  1   
 33  17  21  1   
 34  18  22  1   
 35  18  37  1   
 36  18  38  1   
 37  19  20  ar  
 38  19  39  1   
 39  20  40  1   
 40  21  23  1   
 41  21  41  1   
 42  21  42  1   
 43  22  23  1   
 44  22  24  1   
 45  22  25  1   
 46  23  43  1   
 47  23  44  1   
 48  24  45  1   
 49  25  46  1   
 50  25  47  1   
 51  25  48  1   
@<TRIPOS>SUBSTRUCTURE
  1 ****   6 GROUP 4 **** **** 0

# MOE 2024.06 (io_trps.svl 2023.06)
