@<TRIPOS>MOLECULE
NONAME
48 50 1 0 0 
SMALL
USER_CHARGES


@<TRIPOS>ATOM
  1 O        2.7850     1.6250     2.0050 O.co2 1 <1>  -0.9000 
  2 C        2.2230     0.7240     1.3660 C.2   1 <1>   0.9060 
  3 O        1.9310    -0.3480     1.8970 O.co2 1 <1>  -0.9000 
  4 C        2.1710     0.8030    -0.1660 C.3   1 <1>  -0.1060 
  5 C        3.2390    -0.2200    -0.6040 C.3   1 <1>   0.2000 
  6 C        2.5880     2.2120    -0.7020 C.3   1 <1>  -0.1600 
  7 C        0.7550     0.4150    -0.6660 C.3   1 <1>  -0.0160 
  8 O        3.3740    -0.2120    -1.9950 O.3   1 <1>  -0.6800 
  9 C        4.6120     0.1350     0.0270 C.3   1 <1>   0.3430 
 10 C        4.1090     2.4400    -0.7770 C.3   1 <1>   0.3430 
 11 C       -0.3000     1.4770    -0.3750 C.ar  1 <1>  -0.1440 
 12 N        4.8000     1.6150     0.2480 N.4   1 <1>  -0.9590 
 13 C       -0.8200     1.6130     0.9030 C.ar  1 <1>  -0.1500 
 14 C       -0.7530     2.3170    -1.3820 C.ar  1 <1>  -0.1500 
 15 C        6.2220     1.9840     0.5280 C.3   1 <1>   0.5240 
 16 C       -1.7740     2.5780     1.1730 C.ar  1 <1>  -0.1500 
 17 C       -1.7090     3.2820    -1.1140 C.ar  1 <1>  -0.1500 
 18 C        6.4630     3.4700     0.8190 C.2   1 <1>   0.3350 
 19 C       -2.2200     3.4140     0.1650 C.ar  1 <1>  -0.1500 
 20 N        6.7140     3.9450     1.9720 N.2   1 <1>  -0.4100 
 21 N        6.4510     4.3920    -0.1400 N.2   1 <1>  -0.5650 
 22 O        6.8690     5.2270     1.8350 O.3   1 <1>  -0.0190 
 23 C        6.7010     5.4320     0.5520 C.2   1 <1>   0.2980 
 24 C        6.8140     6.8480     0.0160 C.3   1 <1>   0.0200 
 25 C        8.2450     7.3900     0.1250 C.3   1 <1>  -0.2400 
 26 H        2.9600    -1.2190    -0.3090 H     1 <1>   0.0800 
 27 H        2.1470     2.9740    -0.0820 H     1 <1>   0.0800 
 28 H        2.1970     2.3590    -1.6920 H     1 <1>   0.0800 
 29 H        0.7750     0.2410    -1.7250 H     1 <1>   0.0800 
 30 H        0.4480    -0.5090    -0.2040 H     1 <1>   0.0800 
 31 H        2.5450    -0.5270    -2.4080 H     1 <1>   0.4000 
 32 H        5.3890    -0.2590    -0.6050 H     1 <1>   0.0800 
 33 H        4.6700    -0.3570     0.9850 H     1 <1>   0.0800 
 34 H        4.3090     3.4870    -0.6270 H     1 <1>   0.0800 
 35 H        4.4640     2.1580    -1.7550 H     1 <1>   0.0800 
 36 H        4.2410     1.8170     1.1230 H     1 <1>   0.4500 
 37 H       -0.4800     0.9680     1.6980 H     1 <1>   0.1500 
 38 H       -0.3660     2.2240    -2.3810 H     1 <1>   0.1500 
 39 H        6.5640     1.4250     1.3820 H     1 <1>   0.0800 
 40 H        6.8310     1.7110    -0.3150 H     1 <1>   0.0800 
 41 H       -2.1650     2.6750     2.1710 H     1 <1>   0.1500 
 42 H       -2.0550     3.9300    -1.9000 H     1 <1>   0.1500 
 43 H       -2.9600     4.1640     0.3770 H     1 <1>   0.1500 
 44 H        6.5080     6.8560    -1.0150 H     1 <1>   0.0800 
 45 H        6.1420     7.4810     0.5670 H     1 <1>   0.0800 
 46 H        8.9220     6.7620    -0.4270 H     1 <1>   0.0800 
 47 H        8.5590     7.4170     1.1540 H     1 <1>   0.0800 
 48 H        8.2950     8.3860    -0.2760 H     1 <1>   0.0800 
@<TRIPOS>BOND
  1   1   2  ar  
  2   2   3  ar  
  3   2   4  1   
  4   4   5  1   
  5   4   6  1   
  6   4   7  1   
  7   5   8  1   
  8   5   9  1   
  9   5  26  1   
 10   6  10  1   
 11   6  27  1   
 12   6  28  1   
 13   7  11  1   
 14   7  29  1   
 15   7  30  1   
 16   8  31  1   
 17   9  12  1   
 18   9  32  1   
 19   9  33  1   
 20  10  12  1   
 21  10  34  1   
 22  10  35  1   
 23  11  13  ar  
 24  11  14  ar  
 25  12  15  1   
 26  12  36  1   
 27  13  16  ar  
 28  13  37  1   
 29  14  17  ar  
 30  14  38  1   
 31  15  18  1   
 32  15  39  1   
 33  15  40  1   
 34  16  19  ar  
 35  16  41  1   
 36  17  19  ar  
 37  17  42  1   
 38  18  20  2   
 39  18  21  1   
 40  19  43  1   
 41  20  22  1   
 42  21  23  2   
 43  22  23  1   
 44  23  24  1   
 45  24  25  1   
 46  24  44  1   
 47  24  45  1   
 48  25  46  1   
 49  25  47  1   
 50  25  48  1   
@<TRIPOS>SUBSTRUCTURE
  1 ****   6 GROUP 4 **** **** 0

# MOE 2024.06 (io_trps.svl 2023.06)
