@<TRIPOS>MOLECULE
NONAME
44 46 1 0 0 
SMALL
USER_CHARGES


@<TRIPOS>ATOM
  1 O        0.0930     2.9460    -1.9410 O.co2 1 <1>  -0.9000 
  2 C       -0.7050     2.2240    -1.3280 C.2   1 <1>   0.9060 
  3 O       -1.7470     1.8260    -1.8460 O.co2 1 <1>  -0.9000 
  4 C       -0.4830     1.9570     0.1510 C.3   1 <1>  -0.1060 
  5 C       -1.8090     2.1190     0.9190 C.3   1 <1>   0.2000 
  6 C        0.4810     3.0130     0.6890 C.3   1 <1>   0.3430 
  7 C        0.1050     0.5280     0.3100 C.3   1 <1>  -0.0170 
  8 O       -1.5740     1.8970     2.2720 O.3   1 <1>  -0.6800 
  9 C       -2.4150     3.5290     0.8080 C.3   1 <1>  -0.1600 
 10 N       -0.0580     4.4250     0.7060 N.4   1 <1>  -0.9590 
 11 C        1.6210     0.4840     0.1460 C.ar  1 <1>  -0.1440 
 12 C       -1.4640     4.5710     0.2130 C.3   1 <1>   0.3430 
 13 C        0.8330     5.2370    -0.1620 C.3   1 <1>   0.5240 
 14 C        2.2000     0.6270    -1.1050 C.ar  1 <1>  -0.1500 
 15 C        2.4370     0.3130     1.2550 C.ar  1 <1>  -0.1500 
 16 C        0.5290     6.7040     0.0610 C.2   1 <1>  -0.1810 
 17 C        3.5770     0.6060    -1.2460 C.ar  1 <1>  -0.1500 
 18 C        3.8140     0.2900     1.1150 C.ar  1 <1>  -0.1500 
 19 C        0.9970     7.5320     1.0200 C.2   1 <1>  -0.0100 
 20 C       -0.3250     7.4900    -0.7290 C.2   1 <1>  -0.1500 
 21 C        4.3850     0.4370    -0.1360 C.ar  1 <1>  -0.1500 
 22 O        0.4890     8.7380     0.8810 O.3   1 <1>  -0.2800 
 23 C       -0.3030     8.7190    -0.1710 C.2   1 <1>  -0.0100 
 24 H       -2.5190     1.3790     0.5820 H     1 <1>   0.0800 
 25 H        1.3800     2.9710     0.0940 H     1 <1>   0.0800 
 26 H        0.7470     2.7310     1.6940 H     1 <1>   0.0800 
 27 H       -0.1370     0.1250     1.2760 H     1 <1>   0.0800 
 28 H       -0.3500    -0.1290    -0.4130 H     1 <1>   0.0800 
 29 H       -2.4180     1.7050     2.7270 H     1 <1>   0.4000 
 30 H       -3.2580     3.4710     0.1420 H     1 <1>   0.0800 
 31 H       -2.7860     3.8740     1.7560 H     1 <1>   0.0800 
 32 H       -0.0080     4.7810     1.6630 H     1 <1>   0.4500 
 33 H       -1.8310     5.5610     0.4280 H     1 <1>   0.0800 
 34 H       -1.4680     4.4520    -0.8600 H     1 <1>   0.0800 
 35 H        1.8620     5.0440     0.0890 H     1 <1>   0.0800 
 36 H        0.6870     4.9760    -1.1990 H     1 <1>   0.0800 
 37 H        1.5820     0.7620    -1.9790 H     1 <1>   0.1500 
 38 H        2.0050     0.1930     2.2330 H     1 <1>   0.1500 
 39 H        4.0130     0.7200    -2.2240 H     1 <1>   0.1500 
 40 H        4.4410     0.1530     1.9790 H     1 <1>   0.1500 
 41 H        1.6830     7.3580     1.8330 H     1 <1>   0.1500 
 42 H       -0.8670     7.1600    -1.5990 H     1 <1>   0.1500 
 43 H        5.4550     0.4180    -0.2480 H     1 <1>   0.1500 
 44 H       -0.8100     9.6260    -0.4550 H     1 <1>   0.1500 
@<TRIPOS>BOND
  1   1   2  ar  
  2   2   3  ar  
  3   2   4  1   
  4   4   5  1   
  5   4   6  1   
  6   4   7  1   
  7   5   8  1   
  8   5   9  1   
  9   5  24  1   
 10   6  10  1   
 11   6  25  1   
 12   6  26  1   
 13   7  11  1   
 14   7  27  1   
 15   7  28  1   
 16   8  29  1   
 17   9  12  1   
 18   9  30  1   
 19   9  31  1   
 20  10  12  1   
 21  10  13  1   
 22  10  32  1   
 23  11  14  ar  
 24  11  15  ar  
 25  12  33  1   
 26  12  34  1   
 27  13  16  1   
 28  13  35  1   
 29  13  36  1   
 30  14  17  ar  
 31  14  37  1   
 32  15  18  ar  
 33  15  38  1   
 34  16  19  2   
 35  16  20  1   
 36  17  21  ar  
 37  17  39  1   
 38  18  21  ar  
 39  18  40  1   
 40  19  22  1   
 41  19  41  1   
 42  20  23  2   
 43  20  42  1   
 44  21  43  1   
 45  22  23  1   
 46  23  44  1   
@<TRIPOS>SUBSTRUCTURE
  1 ****   6 GROUP 4 **** **** 0

# MOE 2024.06 (io_trps.svl 2023.06)
