@<TRIPOS>MOLECULE
NONAME
37 39 1 0 0 
SMALL
USER_CHARGES


@<TRIPOS>ATOM
  1 CL      -1.9350     0.8650    -1.3220 Cl    1 <1>  -0.1230 
  2 C       -3.1360     1.0860    -0.0620 C.2   1 <1>   0.1230 
  3 C       -3.7350     0.0730     0.6920 C.2   1 <1>   0.2030 
  4 C       -3.6590     2.2580     0.3340 C.2   1 <1>  -0.3020 
  5 N       -4.6150     0.6240     1.5220 N.2   1 <1>  -0.7070 
  6 C       -3.3690    -1.3300     0.5450 C.2   1 <1>   0.7160 
  7 N       -4.5460     1.9500     1.2990 N.pl3 1 <1>   0.3000 
  8 O       -2.2000    -1.6310     0.7260 O.2   1 <1>  -0.5700 
  9 N       -4.2460    -2.3590     0.1940 N.am  1 <1>  -0.6600 
 10 C       -5.6340    -2.2190    -0.3390 C.3   1 <1>   0.2200 
 11 C       -3.8100    -3.7850     0.3040 C.3   1 <1>   0.0600 
 12 C       -6.6340    -1.8850     0.7630 C.3   1 <1>  -0.1600 
 13 C       -5.7930    -1.1840    -1.4540 C.3   1 <1>  -0.1600 
 14 C       -7.7060    -0.9890     0.1290 C.3   1 <1>  -0.0800 
 15 C       -7.1610    -0.5210    -1.2430 C.3   1 <1>  -0.0800 
 16 C       -8.1590     0.1310     1.0860 C.3   1 <1>   0.1400 
 17 C       -7.1060     1.0100    -1.4190 C.3   1 <1>  -0.0990 
 18 N       -8.8140     1.2140     0.3240 N.am  1 <1>  -0.7300 
 19 C       -8.3430     1.6720    -0.8530 C.2   1 <1>   0.5690 
 20 O       -8.8700     2.5880    -1.4290 O.2   1 <1>  -0.5700 
 21 H       -3.4570     3.2570    -0.0050 H     1 <1>   0.1500 
 22 H       -5.1200     2.6270     1.8200 H     1 <1>   0.2700 
 23 H       -5.9380    -3.1620    -0.7620 H     1 <1>   0.0800 
 24 H       -4.5940    -4.3760     0.7430 H     1 <1>   0.0800 
 25 H       -2.9360    -3.8780     0.9260 H     1 <1>   0.0800 
 26 H       -3.5790    -4.1680    -0.6740 H     1 <1>   0.0800 
 27 H       -7.0750    -2.7860     1.1510 H     1 <1>   0.0800 
 28 H       -6.1440    -1.3840     1.5750 H     1 <1>   0.0800 
 29 H       -5.0120    -0.4520    -1.4430 H     1 <1>   0.0800 
 30 H       -5.7630    -1.6730    -2.4110 H     1 <1>   0.0800 
 31 H       -8.5680    -1.6040    -0.0670 H     1 <1>   0.0800 
 32 H       -7.8360    -0.9010    -1.9930 H     1 <1>   0.0800 
 33 H       -7.3100     0.5470     1.6010 H     1 <1>   0.0800 
 34 H       -8.8400    -0.2650     1.8200 H     1 <1>   0.0800 
 35 H       -7.0110     1.2600    -2.4600 H     1 <1>   0.0800 
 36 H       -6.2610     1.4150    -0.8990 H     1 <1>   0.0800 
 37 H       -9.6370     1.6730     0.7200 H     1 <1>   0.3700 
@<TRIPOS>BOND
  1   1   2  1   
  2   2   3  1   
  3   2   4  2   
  4   3   5  2   
  5   3   6  1   
  6   4   7  1   
  7   4  21  1   
  8   5   7  1   
  9   6   8  2   
 10   6   9  am  
 11   7  22  1   
 12   9  10  1   
 13   9  11  1   
 14  10  12  1   
 15  10  13  1   
 16  10  23  1   
 17  11  24  1   
 18  11  25  1   
 19  11  26  1   
 20  12  14  1   
 21  12  27  1   
 22  12  28  1   
 23  13  15  1   
 24  13  29  1   
 25  13  30  1   
 26  14  15  1   
 27  14  16  1   
 28  14  31  1   
 29  15  17  1   
 30  15  32  1   
 31  16  18  1   
 32  16  33  1   
 33  16  34  1   
 34  17  19  1   
 35  17  35  1   
 36  17  36  1   
 37  18  19  am  
 38  18  37  1   
 39  19  20  2   
@<TRIPOS>SUBSTRUCTURE
  1 ****  13 GROUP 4 **** **** 0

# MOE 2024.06 (io_trps.svl 2023.06)
