@<TRIPOS>MOLECULE
NONAME
47 49 1 0 0 
SMALL
USER_CHARGES


@<TRIPOS>ATOM
  1 CL      -1.7390     0.1690     2.6350 Cl    1 <1>  -0.1400 
  2 C       -2.7930    -0.1330     1.2700 C.2   1 <1>   0.1540 
  3 C       -3.1160     0.9560     0.4000 C.2   1 <1>   0.6160 
  4 C       -3.2840    -1.3830     1.0600 C.2   1 <1>  -0.1500 
  5 O       -2.7270     2.1060     0.5260 O.2   1 <1>  -0.5700 
  6 N       -3.9360     0.6730    -0.6610 N.am  1 <1>  -0.5390 
  7 C       -4.1490    -1.6370    -0.0480 C.2   1 <1>   0.0140 
  8 C       -4.4350    -0.5870    -0.8860 C.2   1 <1>  -0.0410 
  9 C       -4.6710    -2.9650    -0.2530 C.2   1 <1>   0.6160 
 10 O       -3.9010    -3.8570    -0.5540 O.2   1 <1>  -0.5700 
 11 N       -6.0140    -3.2510    -0.1090 N.am  1 <1>  -0.6600 
 12 C       -6.5480    -4.6420    -0.3070 C.3   1 <1>   0.1400 
 13 C       -7.0040    -2.3060     0.4840 C.3   1 <1>   0.1400 
 14 C       -7.4880    -4.7440    -1.5190 C.3   1 <1>   0.1400 
 15 C       -7.8110    -1.5550    -0.5860 C.3   1 <1>  -0.1600 
 16 N       -8.6030    -3.7470    -1.4540 N.am  1 <1>  -0.6600 
 17 C       -8.1830    -2.3720    -1.8300 C.3   1 <1>   0.1400 
 18 C       -9.8940    -3.9960    -1.0220 C.2   1 <1>   0.5690 
 19 O      -10.7080    -3.0960    -1.0510 O.2   1 <1>  -0.5700 
 20 C      -10.3850    -5.3910    -0.5090 C.3   1 <1>   0.3410 
 21 O       -9.4020    -6.0900     0.2270 O.3   1 <1>  -0.5600 
 22 C      -11.5750    -5.2820     0.4600 C.3   1 <1>  -0.1600 
 23 C      -10.7510    -6.3000    -1.6930 C.3   1 <1>  -0.2400 
 24 C       -9.8680    -6.5570     1.4560 C.3   1 <1>   0.1200 
 25 C      -11.3800    -6.4420     1.4130 C.3   1 <1>  -0.1600 
 26 H       -3.0340    -2.2030     1.7110 H     1 <1>   0.1500 
 27 H       -4.1240     1.4710    -1.2720 H     1 <1>   0.3700 
 28 H       -5.0590    -0.7320    -1.7540 H     1 <1>   0.1500 
 29 H       -7.0790    -4.9500     0.5760 H     1 <1>   0.0800 
 30 H       -5.7420    -5.3400    -0.4450 H     1 <1>   0.0800 
 31 H       -6.5110    -1.6000     1.1290 H     1 <1>   0.0800 
 32 H       -7.6900    -2.8660     1.0970 H     1 <1>   0.0800 
 33 H       -7.8750    -5.7430    -1.5800 H     1 <1>   0.0800 
 34 H       -6.9140    -4.5830    -2.4140 H     1 <1>   0.0800 
 35 H       -7.2710    -0.6810    -0.8980 H     1 <1>   0.0800 
 36 H       -8.7190    -1.2030    -0.1320 H     1 <1>   0.0800 
 37 H       -7.3350    -2.4250    -2.4920 H     1 <1>   0.0800 
 38 H       -8.9790    -1.8800    -2.3630 H     1 <1>   0.0800 
 39 H      -12.5240    -5.3070    -0.0460 H     1 <1>   0.0800 
 40 H      -11.5090    -4.3590     1.0090 H     1 <1>   0.0800 
 41 H       -9.9070    -6.4210    -2.3460 H     1 <1>   0.0800 
 42 H      -11.5470    -5.8510    -2.2590 H     1 <1>   0.0800 
 43 H      -11.0740    -7.2660    -1.3520 H     1 <1>   0.0800 
 44 H       -9.4570    -5.9220     2.2230 H     1 <1>   0.0800 
 45 H       -9.5360    -7.5710     1.5990 H     1 <1>   0.0800 
 46 H      -11.8010    -7.3460     1.0080 H     1 <1>   0.0800 
 47 H      -11.8010    -6.2570     2.3860 H     1 <1>   0.0800 
@<TRIPOS>BOND
  1   1   2  1   
  2   2   3  1   
  3   2   4  2   
  4   3   5  2   
  5   3   6  am  
  6   4   7  1   
  7   4  26  1   
  8   6   8  1   
  9   6  27  1   
 10   7   8  2   
 11   7   9  1   
 12   8  28  1   
 13   9  10  2   
 14   9  11  am  
 15  11  12  1   
 16  11  13  1   
 17  12  14  1   
 18  12  29  1   
 19  12  30  1   
 20  13  15  1   
 21  13  31  1   
 22  13  32  1   
 23  14  16  1   
 24  14  33  1   
 25  14  34  1   
 26  15  17  1   
 27  15  35  1   
 28  15  36  1   
 29  16  17  1   
 30  16  18  am  
 31  17  37  1   
 32  17  38  1   
 33  18  19  2   
 34  18  20  1   
 35  20  21  1   
 36  20  22  1   
 37  20  23  1   
 38  21  24  1   
 39  22  25  1   
 40  22  39  1   
 41  22  40  1   
 42  23  41  1   
 43  23  42  1   
 44  23  43  1   
 45  24  25  1   
 46  24  44  1   
 47  24  45  1   
 48  25  46  1   
 49  25  47  1   
@<TRIPOS>SUBSTRUCTURE
  1 ****  13 GROUP 4 **** **** 0

# MOE 2024.06 (io_trps.svl 2023.06)
