@<TRIPOS>MOLECULE
NONAME
42 44 1 0 0 
SMALL
USER_CHARGES


@<TRIPOS>ATOM
  1 CL      -2.0210     0.5570    -0.0760 Cl    1 <1>  -0.1770 
  2 C       -1.0440     1.9990     0.0730 C.ar  1 <1>   0.1770 
  3 C       -1.5100     3.0660     0.8350 C.ar  1 <1>  -0.1440 
  4 C        0.1730     2.0440    -0.5880 C.ar  1 <1>  -0.1500 
  5 C       -0.7250     4.2070     0.9320 C.ar  1 <1>  -0.1500 
  6 C       -2.8460     2.9800     1.5480 C.3   1 <1>   0.4870 
  7 C        0.9540     3.1850    -0.4930 C.ar  1 <1>  -0.1500 
  8 C        0.4870     4.2430     0.2640 C.ar  1 <1>   0.1900 
  9 N       -3.9400     2.9640     0.5430 N.4   1 <1>  -0.9590 
 10 F        1.2150     5.3210     0.3550 F     1 <1>  -0.1900 
 11 C       -5.2560     2.6310     1.1710 C.3   1 <1>   0.3430 
 12 C       -4.0160     4.2320    -0.2400 C.3   1 <1>   0.3430 
 13 C       -6.3330     2.4040     0.1000 C.3   1 <1>   0.0000 
 14 C       -5.0450     4.0800    -1.3610 C.3   1 <1>  -0.1600 
 15 C       -7.6630     2.0610     0.7880 C.3   1 <1>   0.2000 
 16 C       -6.4210     3.6540    -0.8210 C.3   1 <1>  -0.1600 
 17 C       -6.1070     1.1320    -0.7400 C.3   1 <1>  -0.1600 
 18 O       -8.2770     3.1820     1.3070 O.3   1 <1>  -0.6800 
 19 C       -8.5150     1.3940    -0.2840 C.3   1 <1>  -0.1600 
 20 C       -7.5050     0.6980    -1.2100 C.3   1 <1>  -0.1600 
 21 H        0.5050     1.2000    -1.1670 H     1 <1>   0.1500 
 22 H       -1.0250     5.0650     1.5100 H     1 <1>   0.1500 
 23 H       -2.9650     3.8180     2.2140 H     1 <1>   0.0800 
 24 H       -2.8730     2.0740     2.1330 H     1 <1>   0.0800 
 25 H        1.9050     3.2550    -0.9940 H     1 <1>   0.1500 
 26 H       -3.7210     2.2080    -0.1210 H     1 <1>   0.4500 
 27 H       -5.1640     1.7400     1.7700 H     1 <1>   0.0800 
 28 H       -5.5720     3.4380     1.8120 H     1 <1>   0.0800 
 29 H       -4.3080     5.0440     0.4070 H     1 <1>   0.0800 
 30 H       -3.0540     4.4650    -0.6690 H     1 <1>   0.0800 
 31 H       -5.1450     5.0240    -1.8690 H     1 <1>   0.0800 
 32 H       -4.6850     3.3720    -2.0850 H     1 <1>   0.0800 
 33 H       -7.5020     1.3640     1.5940 H     1 <1>   0.0800 
 34 H       -7.0910     3.4760    -1.6450 H     1 <1>   0.0800 
 35 H       -6.8240     4.4830    -0.2650 H     1 <1>   0.0800 
 36 H       -5.4450     1.2750    -1.5750 H     1 <1>   0.0800 
 37 H       -5.7020     0.3510    -0.1180 H     1 <1>   0.0800 
 38 H       -9.2010     2.9780     1.5570 H     1 <1>   0.4000 
 39 H       -9.2010     0.6850     0.1460 H     1 <1>   0.0800 
 40 H       -9.0630     2.1340    -0.8440 H     1 <1>   0.0800 
 41 H       -7.6060    -0.3740    -1.1600 H     1 <1>   0.0800 
 42 H       -7.6720     1.0080    -2.2280 H     1 <1>   0.0800 
@<TRIPOS>BOND
  1   1   2  1   
  2   2   3  ar  
  3   2   4  ar  
  4   3   5  ar  
  5   3   6  1   
  6   4   7  ar  
  7   4  21  1   
  8   5   8  ar  
  9   5  22  1   
 10   6   9  1   
 11   6  23  1   
 12   6  24  1   
 13   7   8  ar  
 14   7  25  1   
 15   8  10  1   
 16   9  11  1   
 17   9  12  1   
 18   9  26  1   
 19  11  13  1   
 20  11  27  1   
 21  11  28  1   
 22  12  14  1   
 23  12  29  1   
 24  12  30  1   
 25  13  15  1   
 26  13  16  1   
 27  13  17  1   
 28  14  16  1   
 29  14  31  1   
 30  14  32  1   
 31  15  18  1   
 32  15  19  1   
 33  15  33  1   
 34  16  34  1   
 35  16  35  1   
 36  17  20  1   
 37  17  36  1   
 38  17  37  1   
 39  18  38  1   
 40  19  20  1   
 41  19  39  1   
 42  19  40  1   
 43  20  41  1   
 44  20  42  1   
@<TRIPOS>SUBSTRUCTURE
  1 ****   9 GROUP 4 **** **** 0

# MOE 2024.06 (io_trps.svl 2023.06)
