@<TRIPOS>MOLECULE
NONAME
61 63 1 0 0 
SMALL
USER_CHARGES


@<TRIPOS>ATOM
  1 O       -1.1690     0.6370    -1.1860 O.2   1 <1>  -0.5700 
  2 C       -1.9540     0.5570    -0.2650 C.2   1 <1>   0.5690 
  3 N       -2.9310    -0.4160    -0.3020 N.am  1 <1>  -0.6600 
  4 C       -1.7850     1.5120     0.9610 C.3   1 <1>   0.3410 
  5 C       -4.3310    -0.1570    -0.7490 C.3   1 <1>   0.2200 
  6 C       -2.4870    -1.8040    -0.6050 C.3   1 <1>   0.0600 
  7 O       -2.7360     2.5850     0.9140 O.3   1 <1>  -0.3630 
  8 C       -0.3500     2.0770     1.0870 C.3   1 <1>  -0.2400 
  9 C       -2.0680     0.7730     2.2830 C.3   1 <1>  -0.2400 
 10 C       -4.4400     0.8650    -1.8740 C.3   1 <1>  -0.1600 
 11 C       -5.2310     0.3830     0.3540 C.3   1 <1>  -0.1600 
 12 C       -2.4730     3.7800     0.3320 C.ar  1 <1>   0.0820 
 13 C       -5.8810     1.3850    -1.8050 C.3   1 <1>  -0.0800 
 14 C       -6.3620     1.1350    -0.3640 C.3   1 <1>  -0.0800 
 15 C       -2.0410     3.8970    -0.9830 C.ar  1 <1>  -0.1500 
 16 C       -2.6590     4.9200     1.0970 C.ar  1 <1>  -0.1500 
 17 C       -5.9660     2.8970    -2.0320 C.3   1 <1>  -0.1600 
 18 C       -6.6410     2.5200     0.2420 C.3   1 <1>  -0.1600 
 19 C       -1.7840     5.1480    -1.5160 C.ar  1 <1>  -0.1500 
 20 C       -2.3980     6.1690     0.5620 C.ar  1 <1>  -0.1500 
 21 C       -5.8270     3.4730    -0.6260 C.3   1 <1>   0.4230 
 22 C       -1.9600     6.2890    -0.7480 C.ar  1 <1>  -0.1440 
 23 N       -6.2390     4.9010    -0.4940 N.4   1 <1>  -0.9590 
 24 C       -1.6490     7.6550    -1.3330 C.3   1 <1>  -0.0960 
 25 C       -7.6530     5.2060    -0.8810 C.3   1 <1>   0.2630 
 26 C       -5.2890     5.7690    -1.2520 C.3   1 <1>   0.2630 
 27 H       -4.7700    -1.0750    -1.1040 H     1 <1>   0.0800 
 28 H       -3.0840    -2.5090    -0.0540 H     1 <1>   0.0800 
 29 H       -1.4540    -1.9310    -0.3260 H     1 <1>   0.0800 
 30 H       -2.5830    -1.9960    -1.6590 H     1 <1>   0.0800 
 31 H        0.3420     1.2730     1.2580 H     1 <1>   0.0800 
 32 H       -0.2800     2.7670     1.9080 H     1 <1>   0.0800 
 33 H       -0.0390     2.5690     0.1840 H     1 <1>   0.0800 
 34 H       -1.3760    -0.0420     2.3990 H     1 <1>   0.0800 
 35 H       -3.0580     0.3620     2.3030 H     1 <1>   0.0800 
 36 H       -1.9510     1.4390     3.1180 H     1 <1>   0.0800 
 37 H       -3.7560     1.6730    -1.7090 H     1 <1>   0.0800 
 38 H       -4.2260     0.4140    -2.8280 H     1 <1>   0.0800 
 39 H       -5.6160    -0.4180     0.9610 H     1 <1>   0.0800 
 40 H       -4.6850     1.0590     0.9770 H     1 <1>   0.0800 
 41 H       -6.4970     0.8470    -2.5090 H     1 <1>   0.0800 
 42 H       -7.2560     0.5320    -0.3660 H     1 <1>   0.0800 
 43 H       -1.8850     3.0240    -1.5900 H     1 <1>   0.1500 
 44 H       -2.9870     4.8220     2.1170 H     1 <1>   0.1500 
 45 H       -6.9300     3.1220    -2.4480 H     1 <1>   0.0800 
 46 H       -5.1950     3.2460    -2.6950 H     1 <1>   0.0800 
 47 H       -6.3560     2.5780     1.2780 H     1 <1>   0.0800 
 48 H       -7.6930     2.7150     0.1510 H     1 <1>   0.0800 
 49 H       -1.4310     5.2260    -2.5310 H     1 <1>   0.1500 
 50 H       -2.5220     7.0470     1.1740 H     1 <1>   0.1500 
 51 H       -4.7940     3.3740    -0.3320 H     1 <1>   0.0800 
 52 H       -6.1230     5.1270     0.5050 H     1 <1>   0.4500 
 53 H       -1.8770     7.6790    -2.3840 H     1 <1>   0.0800 
 54 H       -0.6030     7.8720    -1.2050 H     1 <1>   0.0800 
 55 H       -2.2210     8.4220    -0.8420 H     1 <1>   0.0800 
 56 H       -7.8140     4.9820    -1.9230 H     1 <1>   0.0800 
 57 H       -7.8650     6.2510    -0.7190 H     1 <1>   0.0800 
 58 H       -8.3410     4.6250    -0.2910 H     1 <1>   0.0800 
 59 H       -5.4000     5.6110    -2.3120 H     1 <1>   0.0800 
 60 H       -4.2760     5.5300    -0.9780 H     1 <1>   0.0800 
 61 H       -5.4690     6.8090    -1.0340 H     1 <1>   0.0800 
@<TRIPOS>BOND
  1   1   2  2   
  2   2   3  am  
  3   2   4  1   
  4   3   5  1   
  5   3   6  1   
  6   4   7  1   
  7   4   8  1   
  8   4   9  1   
  9   5  10  1   
 10   5  11  1   
 11   5  27  1   
 12   6  28  1   
 13   6  29  1   
 14   6  30  1   
 15   7  12  1   
 16   8  31  1   
 17   8  32  1   
 18   8  33  1   
 19   9  34  1   
 20   9  35  1   
 21   9  36  1   
 22  10  13  1   
 23  10  37  1   
 24  10  38  1   
 25  11  14  1   
 26  11  39  1   
 27  11  40  1   
 28  12  15  ar  
 29  12  16  ar  
 30  13  14  1   
 31  13  17  1   
 32  13  41  1   
 33  14  18  1   
 34  14  42  1   
 35  15  19  ar  
 36  15  43  1   
 37  16  20  ar  
 38  16  44  1   
 39  17  21  1   
 40  17  45  1   
 41  17  46  1   
 42  18  21  1   
 43  18  47  1   
 44  18  48  1   
 45  19  22  ar  
 46  19  49  1   
 47  20  22  ar  
 48  20  50  1   
 49  21  23  1   
 50  21  51  1   
 51  22  24  1   
 52  23  25  1   
 53  23  26  1   
 54  23  52  1   
 55  24  53  1   
 56  24  54  1   
 57  24  55  1   
 58  25  56  1   
 59  25  57  1   
 60  25  58  1   
 61  26  59  1   
 62  26  60  1   
 63  26  61  1   
@<TRIPOS>SUBSTRUCTURE
  1 ****   7 GROUP 4 **** **** 0

# MOE 2024.06 (io_trps.svl 2023.06)
