@<TRIPOS>MOLECULE
NONAME
43 44 1 0 0 
SMALL
USER_CHARGES


@<TRIPOS>ATOM
  1 F        0.2870     1.1160    -1.7720 F     1 <1>  -0.3400 
  2 C        0.1810     2.2680    -1.1280 C.3   1 <1>   1.0200 
  3 F        0.8430     2.1270     0.0090 F     1 <1>  -0.3400 
  4 F        0.8160     3.1780    -1.8440 F     1 <1>  -0.3400 
  5 C       -1.2720     2.6340    -0.8830 C.3   1 <1>  -0.1600 
  6 C       -1.9200     1.5250    -0.0510 C.3   1 <1>   0.3430 
  7 N       -3.3610     1.7880     0.2550 N.4   1 <1>  -0.9590 
  8 C       -4.2150     1.8410    -0.9710 C.3   1 <1>   0.3430 
  9 C       -3.5620     3.0090     1.0940 C.3   1 <1>   0.3430 
 10 C       -5.6850     1.9170    -0.5750 C.3   1 <1>  -0.1600 
 11 C       -5.0210     3.1020     1.5250 C.3   1 <1>  -0.1600 
 12 C       -5.9610     3.1420     0.3130 C.3   1 <1>   0.2800 
 13 O       -5.5570     4.2570    -0.4490 O.3   1 <1>  -0.5600 
 14 C       -7.4420     3.2360     0.7900 C.3   1 <1>   0.2000 
 15 C       -6.4930     5.2620    -0.7360 C.3   1 <1>   0.1200 
 16 O       -7.8460     2.0400     1.3940 O.3   1 <1>  -0.6800 
 17 C       -8.4410     3.7050    -0.3120 C.3   1 <1>   0.2800 
 18 C       -7.7490     4.6240    -1.3320 C.3   1 <1>  -0.1600 
 19 O       -9.4010     4.4580     0.3330 O.3   1 <1>  -0.6800 
 20 C       -9.2210     2.5910    -1.0270 C.3   1 <1>  -0.2400 
 21 H       -1.2930     3.5730    -0.3640 H     1 <1>   0.0800 
 22 H       -1.7530     2.7370    -1.8370 H     1 <1>   0.0800 
 23 H       -1.3760     1.4160     0.8750 H     1 <1>   0.0800 
 24 H       -1.8370     0.5900    -0.5850 H     1 <1>   0.0800 
 25 H       -3.7100     0.9950     0.8130 H     1 <1>   0.4500 
 26 H       -3.9660     2.7140    -1.5530 H     1 <1>   0.0800 
 27 H       -4.0510     0.9650    -1.5780 H     1 <1>   0.0800 
 28 H       -2.9310     2.9690     1.9680 H     1 <1>   0.0800 
 29 H       -3.3090     3.8910     0.5270 H     1 <1>   0.0800 
 30 H       -5.9650     1.0120    -0.0660 H     1 <1>   0.0800 
 31 H       -6.2770     1.9770    -1.4680 H     1 <1>   0.0800 
 32 H       -5.1580     3.9940     2.1100 H     1 <1>   0.0800 
 33 H       -5.2640     2.2660     2.1570 H     1 <1>   0.0800 
 34 H       -7.4620     3.9760     1.5710 H     1 <1>   0.0800 
 35 H       -6.7180     5.8030     0.1690 H     1 <1>   0.0800 
 36 H       -6.0420     5.9390    -1.4410 H     1 <1>   0.0800 
 37 H       -8.7660     2.1510     1.7130 H     1 <1>   0.4000 
 38 H       -7.4470     4.0610    -2.1970 H     1 <1>   0.0800 
 39 H       -8.4240     5.3900    -1.6720 H     1 <1>   0.0800 
 40 H      -10.1110     4.6970    -0.2930 H     1 <1>   0.4000 
 41 H       -8.5480     1.8990    -1.4960 H     1 <1>   0.0800 
 42 H       -9.8560     3.0030    -1.7910 H     1 <1>   0.0800 
 43 H       -9.8280     2.0400    -0.3320 H     1 <1>   0.0800 
@<TRIPOS>BOND
  1   1   2  1   
  2   2   3  1   
  3   2   4  1   
  4   2   5  1   
  5   5   6  1   
  6   5  21  1   
  7   5  22  1   
  8   6   7  1   
  9   6  23  1   
 10   6  24  1   
 11   7   8  1   
 12   7   9  1   
 13   7  25  1   
 14   8  10  1   
 15   8  26  1   
 16   8  27  1   
 17   9  11  1   
 18   9  28  1   
 19   9  29  1   
 20  10  12  1   
 21  10  30  1   
 22  10  31  1   
 23  11  12  1   
 24  11  32  1   
 25  11  33  1   
 26  12  13  1   
 27  12  14  1   
 28  13  15  1   
 29  14  16  1   
 30  14  17  1   
 31  14  34  1   
 32  15  18  1   
 33  15  35  1   
 34  15  36  1   
 35  16  37  1   
 36  17  18  1   
 37  17  19  1   
 38  17  20  1   
 39  18  38  1   
 40  18  39  1   
 41  19  40  1   
 42  20  41  1   
 43  20  42  1   
 44  20  43  1   
@<TRIPOS>SUBSTRUCTURE
  1 ****   8 GROUP 4 **** **** 0

# MOE 2024.06 (io_trps.svl 2023.06)
