@<TRIPOS>MOLECULE
NONAME
45 46 1 0 0 
SMALL
USER_CHARGES


@<TRIPOS>ATOM
  1 O       -0.0860    -0.7080    -0.6150 O.3   1 <1>  -0.5600 
  2 C        1.0090    -1.3240     0.0080 C.3   1 <1>   0.1200 
  3 C       -1.3250    -1.0200    -0.0390 C.3   1 <1>   0.1200 
  4 C        0.8630    -2.8640     0.0050 C.3   1 <1>   0.3430 
  5 C       -1.5890    -2.5440    -0.0730 C.3   1 <1>   0.3430 
  6 N       -0.4220    -3.2900    -0.6560 N.4   1 <1>  -0.9590 
  7 C       -0.6410    -4.7640    -0.7760 C.3   1 <1>   0.4230 
  8 C       -0.6570    -5.4880     0.5980 C.3   1 <1>   0.1100 
  9 C        0.4260    -5.3280    -1.7160 C.3   1 <1>  -0.2400 
 10 N       -0.8420    -6.9460     0.4640 N.3   1 <1>  -0.8100 
 11 C       -2.2400    -7.3530     0.1980 C.3   1 <1>   0.2480 
 12 C       -0.3050    -7.6630     1.6350 C.3   1 <1>   0.0300 
 13 C       -2.3150    -8.7320    -0.4590 C.2   1 <1>  -0.0380 
 14 N       -3.5000    -9.4260    -0.4090 N.pl3 1 <1>  -0.5500 
 15 C       -1.2950    -9.3410    -1.1080 C.2   1 <1>  -0.1360 
 16 C       -3.6270   -10.6600    -0.9810 C.2   1 <1>   0.4390 
 17 C       -1.4740   -10.6210    -1.6900 C.2   1 <1>   0.7670 
 18 N       -2.6810   -11.2600    -1.6010 N.2   1 <1>  -0.6610 
 19 C       -4.9740   -11.3260    -0.8550 C.3   1 <1>  -0.1790 
 20 O       -0.5580   -11.1700    -2.2810 O.2   1 <1>  -0.5700 
 21 H        1.0890    -0.9500     1.0150 H     1 <1>   0.0800 
 22 H        1.8970    -1.0350    -0.5280 H     1 <1>   0.0800 
 23 H       -2.0860    -0.4990    -0.5950 H     1 <1>   0.0800 
 24 H       -1.3380    -0.6510     0.9720 H     1 <1>   0.0800 
 25 H        0.8940    -3.2180     1.0210 H     1 <1>   0.0800 
 26 H        1.7060    -3.2900    -0.5130 H     1 <1>   0.0800 
 27 H       -2.4740    -2.7300    -0.6580 H     1 <1>   0.0800 
 28 H       -1.7850    -2.8840     0.9300 H     1 <1>   0.0800 
 29 H       -0.3400    -2.9150    -1.6130 H     1 <1>   0.4500 
 30 H       -1.6000    -4.9240    -1.2390 H     1 <1>   0.0800 
 31 H       -1.4350    -5.0890     1.2260 H     1 <1>   0.0800 
 32 H        0.2890    -5.3120     1.0780 H     1 <1>   0.0800 
 33 H        1.3990    -5.3190    -1.2600 H     1 <1>   0.0800 
 34 H        0.4510    -4.7840    -2.6430 H     1 <1>   0.0800 
 35 H        0.1900    -6.3520    -1.9490 H     1 <1>   0.0800 
 36 H       -2.7100    -6.6510    -0.4670 H     1 <1>   0.0800 
 37 H       -2.7930    -7.3600     1.1220 H     1 <1>   0.0800 
 38 H        0.7440    -7.4490     1.7530 H     1 <1>   0.0800 
 39 H       -0.4100    -8.7280     1.5040 H     1 <1>   0.0800 
 40 H       -0.8250    -7.3730     2.5320 H     1 <1>   0.0800 
 41 H       -4.3210    -9.0500     0.0700 H     1 <1>   0.4000 
 42 H       -0.3220    -8.9030    -1.2170 H     1 <1>   0.1500 
 43 H       -5.7290   -10.7210    -1.3220 H     1 <1>   0.0800 
 44 H       -5.2170   -11.4720     0.1810 H     1 <1>   0.0800 
 45 H       -4.9560   -12.2860    -1.3410 H     1 <1>   0.0800 
@<TRIPOS>BOND
  1   1   2  1   
  2   1   3  1   
  3   2   4  1   
  4   2  21  1   
  5   2  22  1   
  6   3   5  1   
  7   3  23  1   
  8   3  24  1   
  9   4   6  1   
 10   4  25  1   
 11   4  26  1   
 12   5   6  1   
 13   5  27  1   
 14   5  28  1   
 15   6   7  1   
 16   6  29  1   
 17   7   8  1   
 18   7   9  1   
 19   7  30  1   
 20   8  10  1   
 21   8  31  1   
 22   8  32  1   
 23   9  33  1   
 24   9  34  1   
 25   9  35  1   
 26  10  11  1   
 27  10  12  1   
 28  11  13  1   
 29  11  36  1   
 30  11  37  1   
 31  12  38  1   
 32  12  39  1   
 33  12  40  1   
 34  13  14  1   
 35  13  15  2   
 36  14  16  1   
 37  14  41  1   
 38  15  17  1   
 39  15  42  1   
 40  16  18  2   
 41  16  19  1   
 42  17  18  1   
 43  17  20  2   
 44  19  43  1   
 45  19  44  1   
 46  19  45  1   
@<TRIPOS>SUBSTRUCTURE
  1 ****  10 GROUP 4 **** **** 0

# MOE 2024.06 (io_trps.svl 2023.06)
