@<TRIPOS>MOLECULE
NONAME
46 48 1 0 0 
SMALL
USER_CHARGES


@<TRIPOS>ATOM
  1 F       -1.8580    -0.5080     0.2420 F     1 <1>  -0.1900 
  2 C       -2.7780     0.4060     0.0900 C.ar  1 <1>   0.1900 
  3 C       -2.9770     1.3260     1.1000 C.ar  1 <1>  -0.1500 
  4 C       -3.5190     0.4180    -1.0760 C.ar  1 <1>  -0.1500 
  5 C       -3.9530     2.2940     0.9310 C.ar  1 <1>  -0.1500 
  6 C       -4.4920     1.3910    -1.2330 C.ar  1 <1>  -0.1500 
  7 C       -4.7100     2.3340    -0.2350 C.ar  1 <1>  -0.1430 
  8 C       -5.7750     3.4140    -0.4150 C.3   1 <1>   0.0450 
  9 C       -7.1020     3.1500     0.2940 C.2   1 <1>   0.5690 
 10 O       -7.1700     2.2290     1.0760 O.2   1 <1>  -0.5700 
 11 N       -8.1900     3.9530     0.0410 N.am  1 <1>  -0.6600 
 12 C       -9.5300     3.6500     0.6370 C.3   1 <1>   0.1400 
 13 C       -8.2220     5.1290    -0.8700 C.3   1 <1>   0.1400 
 14 C      -10.5620     3.3340    -0.4760 C.3   1 <1>   0.0000 
 15 C       -9.2000     4.8540    -2.0170 C.3   1 <1>  -0.1600 
 16 C      -11.9540     3.0560     0.1170 C.3   1 <1>   0.2000 
 17 C      -10.6020     4.4970    -1.4910 C.3   1 <1>  -0.1600 
 18 C      -10.2360     1.9850    -1.1420 C.3   1 <1>  -0.1600 
 19 O      -12.2520     3.9370     1.1590 O.3   1 <1>  -0.5600 
 20 C      -11.9160     1.6030     0.6030 C.3   1 <1>  -0.1600 
 21 C      -10.8040     0.9160    -0.2030 C.3   1 <1>  -0.1600 
 22 C      -13.5880     3.9530     1.5520 C.3   1 <1>   0.0400 
 23 H       -2.3870     1.2810     1.9960 H     1 <1>   0.1500 
 24 H       -3.3380    -0.3180    -1.8380 H     1 <1>   0.1500 
 25 H       -4.1300     3.0120     1.7130 H     1 <1>   0.1500 
 26 H       -5.0800     1.4080    -2.1340 H     1 <1>   0.1500 
 27 H       -5.9700     3.5250    -1.4640 H     1 <1>   0.0800 
 28 H       -5.3850     4.3470    -0.0530 H     1 <1>   0.0800 
 29 H       -9.4650     2.8270     1.3260 H     1 <1>   0.0800 
 30 H       -9.8530     4.5090     1.1980 H     1 <1>   0.0800 
 31 H       -8.5550     5.9880    -0.3120 H     1 <1>   0.0800 
 32 H       -7.2480     5.3530    -1.2650 H     1 <1>   0.0800 
 33 H       -9.2650     5.7260    -2.6430 H     1 <1>   0.0800 
 34 H       -8.8180     4.0480    -2.6190 H     1 <1>   0.0800 
 35 H      -12.6950     3.1630    -0.6570 H     1 <1>   0.0800 
 36 H      -11.2460     4.2510    -2.3170 H     1 <1>   0.0800 
 37 H      -11.0170     5.3630    -1.0030 H     1 <1>   0.0800 
 38 H      -10.7410     1.9170    -2.0900 H     1 <1>   0.0800 
 39 H       -9.1820     1.8420    -1.3070 H     1 <1>   0.0800 
 40 H      -11.6710     1.5670     1.6510 H     1 <1>   0.0800 
 41 H      -12.8630     1.1230     0.4350 H     1 <1>   0.0800 
 42 H      -10.0310     0.5770     0.4660 H     1 <1>   0.0800 
 43 H      -11.1770     0.0720    -0.7580 H     1 <1>   0.0800 
 44 H      -13.6950     4.6800     2.3380 H     1 <1>   0.0800 
 45 H      -13.8660     2.9810     1.9200 H     1 <1>   0.0800 
 46 H      -14.2020     4.2330     0.7140 H     1 <1>   0.0800 
@<TRIPOS>BOND
  1   1   2  1   
  2   2   3  ar  
  3   2   4  ar  
  4   3   5  ar  
  5   3  23  1   
  6   4   6  ar  
  7   4  24  1   
  8   5   7  ar  
  9   5  25  1   
 10   6   7  ar  
 11   6  26  1   
 12   7   8  1   
 13   8   9  1   
 14   8  27  1   
 15   8  28  1   
 16   9  10  2   
 17   9  11  am  
 18  11  12  1   
 19  11  13  1   
 20  12  14  1   
 21  12  29  1   
 22  12  30  1   
 23  13  15  1   
 24  13  31  1   
 25  13  32  1   
 26  14  16  1   
 27  14  17  1   
 28  14  18  1   
 29  15  17  1   
 30  15  33  1   
 31  15  34  1   
 32  16  19  1   
 33  16  20  1   
 34  16  35  1   
 35  17  36  1   
 36  17  37  1   
 37  18  21  1   
 38  18  38  1   
 39  18  39  1   
 40  19  22  1   
 41  20  21  1   
 42  20  40  1   
 43  20  41  1   
 44  21  42  1   
 45  21  43  1   
 46  22  44  1   
 47  22  45  1   
 48  22  46  1   
@<TRIPOS>SUBSTRUCTURE
  1 ****   9 GROUP 4 **** **** 0

# MOE 2024.06 (io_trps.svl 2023.06)
