@<TRIPOS>MOLECULE
NONAME
43 45 1 0 0 
SMALL
USER_CHARGES


@<TRIPOS>ATOM
  1 F        0.5370     1.3130    -1.1760 F     1 <1>  -0.1900 
  2 C        1.6640     1.5740    -0.5730 C.ar  1 <1>   0.1900 
  3 C        1.9010     2.8610    -0.1370 C.ar  1 <1>  -0.1500 
  4 C        2.5760     0.5510    -0.3980 C.ar  1 <1>  -0.1500 
  5 C        3.1030     3.1550     0.5020 C.ar  1 <1>   0.0860 
  6 C        3.7730     0.8290     0.2410 C.ar  1 <1>  -0.1440 
  7 C        3.4060     4.4970     0.9500 C.2   1 <1>   0.5440 
  8 C        4.0210     2.1200     0.6850 C.ar  1 <1>  -0.1500 
  9 C        4.7930    -0.2740     0.4580 C.3   1 <1>  -0.0960 
 10 O        3.2300     4.7850     2.1190 O.2   1 <1>  -0.5700 
 11 N        3.9200     5.4600     0.0960 N.am  1 <1>  -0.6600 
 12 C        4.2880     6.8020     0.6550 C.3   1 <1>   0.1400 
 13 C        4.4160     5.1140    -1.2730 C.3   1 <1>   0.1400 
 14 C        5.8020     6.9570     0.9610 C.3   1 <1>   0.4230 
 15 C        5.9130     5.4200    -1.5100 C.3   1 <1>  -0.0800 
 16 N        6.5960     7.4830    -0.2100 N.4   1 <1>  -0.9590 
 17 C        6.4840     5.6840     1.5360 C.3   1 <1>   0.1200 
 18 C        6.9060     4.6300    -0.6290 C.3   1 <1>   0.1200 
 19 C        6.1840     6.9260    -1.5330 C.3   1 <1>   0.3430 
 20 C        6.5950     8.9790    -0.2460 C.3   1 <1>   0.2630 
 21 O        6.5020     4.5500     0.7020 O.3   1 <1>  -0.5600 
 22 H        1.1630     3.6270    -0.2880 H     1 <1>   0.1500 
 23 H        2.3460    -0.4380    -0.7530 H     1 <1>   0.1500 
 24 H        4.9460     2.3470     1.1890 H     1 <1>   0.1500 
 25 H        5.7590     0.1380     0.6900 H     1 <1>   0.0800 
 26 H        4.8840    -0.8770    -0.4270 H     1 <1>   0.0800 
 27 H        4.4820    -0.9020     1.2750 H     1 <1>   0.0800 
 28 H        3.9580     7.5730    -0.0170 H     1 <1>   0.0800 
 29 H        3.7530     6.9640     1.5740 H     1 <1>   0.0800 
 30 H        4.2610     4.0680    -1.4710 H     1 <1>   0.0800 
 31 H        3.8220     5.6540    -1.9910 H     1 <1>   0.0800 
 32 H        5.8670     7.6960     1.7410 H     1 <1>   0.0800 
 33 H        6.1030     5.0960    -2.5180 H     1 <1>   0.0800 
 34 H        7.5610     7.1660    -0.0430 H     1 <1>   0.4500 
 35 H        5.9580     5.3900     2.4290 H     1 <1>   0.0800 
 36 H        7.4980     5.9020     1.8180 H     1 <1>   0.0800 
 37 H        7.9020     5.0360    -0.6690 H     1 <1>   0.0800 
 38 H        6.9520     3.6140    -0.9830 H     1 <1>   0.0800 
 39 H        5.2960     7.4290    -1.8800 H     1 <1>   0.0800 
 40 H        6.9670     7.1240    -2.2470 H     1 <1>   0.0800 
 41 H        5.5960     9.3510    -0.4100 H     1 <1>   0.0800 
 42 H        7.2300     9.3350    -1.0420 H     1 <1>   0.0800 
 43 H        6.9620     9.3770     0.6860 H     1 <1>   0.0800 
@<TRIPOS>BOND
  1   1   2  1   
  2   2   3  ar  
  3   2   4  ar  
  4   3   5  ar  
  5   3  22  1   
  6   4   6  ar  
  7   4  23  1   
  8   5   7  1   
  9   5   8  ar  
 10   6   8  ar  
 11   6   9  1   
 12   7  10  2   
 13   7  11  am  
 14   8  24  1   
 15   9  25  1   
 16   9  26  1   
 17   9  27  1   
 18  11  12  1   
 19  11  13  1   
 20  12  14  1   
 21  12  28  1   
 22  12  29  1   
 23  13  15  1   
 24  13  30  1   
 25  13  31  1   
 26  14  16  1   
 27  14  17  1   
 28  14  32  1   
 29  15  18  1   
 30  15  19  1   
 31  15  33  1   
 32  16  19  1   
 33  16  20  1   
 34  16  34  1   
 35  17  21  1   
 36  17  35  1   
 37  17  36  1   
 38  18  21  1   
 39  18  37  1   
 40  18  38  1   
 41  19  39  1   
 42  19  40  1   
 43  20  41  1   
 44  20  42  1   
 45  20  43  1   
@<TRIPOS>SUBSTRUCTURE
  1 ****  11 GROUP 4 **** **** 0

# MOE 2024.06 (io_trps.svl 2023.06)
