@<TRIPOS>MOLECULE
NONAME
47 49 1 0 0 
SMALL
USER_CHARGES


@<TRIPOS>ATOM
  1 O        2.5830    -1.3580    -0.9070 O.3   1 <1>  -0.0190 
  2 N        2.4800    -2.6090    -0.5750 N.2   1 <1>  -0.4100 
  3 C        1.7760    -0.7420    -0.0790 C.2   1 <1>   0.2980 
  4 C        1.6480    -2.6760     0.3890 C.2   1 <1>   0.3350 
  5 N        1.1720    -1.4890     0.7560 N.2   1 <1>  -0.5650 
  6 C        1.6360     0.7660    -0.1720 C.3   1 <1>   0.0200 
  7 C        1.2320    -3.9680     1.0980 C.3   1 <1>   0.2910 
  8 C        0.5360     1.2080    -1.1580 C.3   1 <1>  -0.0800 
  9 N       -0.0590    -4.5260     0.6230 N.3   1 <1>  -0.8100 
 10 C        0.8390     0.7790    -2.6010 C.3   1 <1>  -0.2400 
 11 C        0.3560     2.7310    -1.1040 C.3   1 <1>  -0.2400 
 12 C       -1.2240    -3.6460     0.8410 C.3   1 <1>   0.1100 
 13 C       -0.3780    -5.8380     1.1880 C.3   1 <1>   0.1100 
 14 C       -2.3640    -4.5370     1.3510 C.3   1 <1>   0.2000 
 15 C       -1.8970    -5.9610     1.0560 C.3   1 <1>  -0.0800 
 16 O       -2.4690    -4.3920     2.7260 O.3   1 <1>  -0.6800 
 17 C       -2.3230    -6.3970    -0.3590 C.3   1 <1>  -0.0170 
 18 C       -1.8300    -7.7970    -0.6900 C.ar  1 <1>  -0.1430 
 19 C       -0.7400    -8.0090    -1.5090 C.ar  1 <1>  -0.1500 
 20 C       -2.4440    -8.9270    -0.1880 C.ar  1 <1>  -0.1500 
 21 C       -0.3250    -9.3030    -1.7760 C.ar  1 <1>   0.1600 
 22 C       -1.9500   -10.1780    -0.5170 C.ar  1 <1>   0.1600 
 23 N       -0.9030   -10.3930    -1.2980 N.ar  1 <1>  -0.6200 
 24 H        1.3950     1.1340     0.8090 H     1 <1>   0.0800 
 25 H        2.5820     1.1890    -0.4570 H     1 <1>   0.0800 
 26 H        1.1780    -3.7780     2.1550 H     1 <1>   0.0800 
 27 H        2.0040    -4.6970     0.9280 H     1 <1>   0.0800 
 28 H       -0.3910     0.7490    -0.8550 H     1 <1>   0.0800 
 29 H        1.7860     1.1740    -2.9260 H     1 <1>   0.0800 
 30 H        0.0730     1.1370    -3.2650 H     1 <1>   0.0800 
 31 H        0.8670    -0.2930    -2.6820 H     1 <1>   0.0800 
 32 H        1.2600     3.2330    -1.4040 H     1 <1>   0.0800 
 33 H        0.1020     3.0450    -0.1060 H     1 <1>   0.0800 
 34 H       -0.4390     3.0360    -1.7620 H     1 <1>   0.0800 
 35 H       -1.0140    -2.8550     1.5420 H     1 <1>   0.0800 
 36 H       -1.4960    -3.2050    -0.1030 H     1 <1>   0.0800 
 37 H        0.1500    -6.6200     0.6700 H     1 <1>   0.0800 
 38 H       -0.1070    -5.8660     2.2300 H     1 <1>   0.0800 
 39 H       -3.3180    -4.2920     0.9150 H     1 <1>   0.0800 
 40 H       -2.2950    -6.6610     1.7700 H     1 <1>   0.0800 
 41 H       -1.5820    -4.4730     3.1250 H     1 <1>   0.4000 
 42 H       -1.9420    -5.7020    -1.0880 H     1 <1>   0.0800 
 43 H       -3.3960    -6.3810    -0.4300 H     1 <1>   0.0800 
 44 H       -0.2080    -7.1780    -1.9380 H     1 <1>   0.1500 
 45 H       -3.3010    -8.8440     0.4560 H     1 <1>   0.1500 
 46 H        0.5280    -9.4470    -2.4160 H     1 <1>   0.1500 
 47 H       -2.4410   -11.0480    -0.1170 H     1 <1>   0.1500 
@<TRIPOS>BOND
  1   1   2  1   
  2   1   3  1   
  3   2   4  2   
  4   3   5  2   
  5   3   6  1   
  6   4   5  1   
  7   4   7  1   
  8   6   8  1   
  9   6  24  1   
 10   6  25  1   
 11   7   9  1   
 12   7  26  1   
 13   7  27  1   
 14   8  10  1   
 15   8  11  1   
 16   8  28  1   
 17   9  12  1   
 18   9  13  1   
 19  10  29  1   
 20  10  30  1   
 21  10  31  1   
 22  11  32  1   
 23  11  33  1   
 24  11  34  1   
 25  12  14  1   
 26  12  35  1   
 27  12  36  1   
 28  13  15  1   
 29  13  37  1   
 30  13  38  1   
 31  14  15  1   
 32  14  16  1   
 33  14  39  1   
 34  15  17  1   
 35  15  40  1   
 36  16  41  1   
 37  17  18  1   
 38  17  42  1   
 39  17  43  1   
 40  18  19  ar  
 41  18  20  ar  
 42  19  21  ar  
 43  19  44  1   
 44  20  22  ar  
 45  20  45  1   
 46  21  23  ar  
 47  21  46  1   
 48  22  23  ar  
 49  22  47  1   
@<TRIPOS>SUBSTRUCTURE
  1 ****   9 GROUP 4 **** **** 0

# MOE 2024.06 (io_trps.svl 2023.06)
