@<TRIPOS>MOLECULE
NONAME
54 57 1 0 0 
SMALL
USER_CHARGES


@<TRIPOS>ATOM
  1 O        1.9550     1.0760    -2.3210 O.3   1 <1>  -0.3630 
  2 C        2.4090     1.6540    -1.1810 C.ar  1 <1>   0.0830 
  3 C        2.1610    -0.2990    -2.5720 C.3   1 <1>   0.0400 
  4 C        3.7040     1.4300    -0.6290 C.ar  1 <1>   0.3100 
  5 C        1.5320     2.5190    -0.5820 C.ar  1 <1>  -0.1500 
  6 N        4.6130     0.6450    -1.2710 N.ar  1 <1>  -0.6200 
  7 C        4.0370     2.1010     0.5790 C.ar  1 <1>   0.0000 
  8 C        1.8790     3.2010     0.5810 C.ar  1 <1>  -0.1500 
  9 C        5.7740     0.4520    -0.7290 C.ar  1 <1>   0.1600 
 10 C        3.1100     3.0110     1.1500 C.ar  1 <1>  -0.1430 
 11 C        5.3110     1.8560     1.1350 C.ar  1 <1>  -0.1500 
 12 C        6.1690     1.0310     0.4790 C.ar  1 <1>  -0.1500 
 13 C        3.4780     3.8430     2.3720 C.3   1 <1>   0.3530 
 14 N        4.4900     4.9240     2.0910 N.pl3 1 <1>  -0.8380 
 15 C        4.9600     5.4140     0.8980 C.ar  1 <1>   0.7710 
 16 C        5.0360     5.4860     3.3740 C.3   1 <1>   0.1290 
 17 N        5.9440     6.3060     0.9290 N.ar  1 <1>  -0.6200 
 18 N        4.4430     5.0060    -0.2770 N.ar  1 <1>  -0.1790 
 19 C        6.4330     6.7690    -0.2060 C.ar  1 <1>   0.4100 
 20 C        4.9010     5.4560    -1.4670 C.ar  1 <1>   0.2110 
 21 N        7.4590     7.6590    -0.1360 N.pl3 1 <1>  -0.8380 
 22 C        5.9080     6.3570    -1.4460 C.ar  1 <1>  -0.1500 
 23 C        8.5380     7.7980    -1.1700 C.3   1 <1>   0.2090 
 24 C        7.6730     8.5500     1.0460 C.3   1 <1>   0.2090 
 25 C        8.6220     9.2530    -1.6600 C.3   1 <1>   0.2000 
 26 C        7.7440    10.0110     0.5800 C.3   1 <1>  -0.1600 
 27 O        9.6860     9.3910    -2.5340 O.3   1 <1>  -0.6800 
 28 C        8.8210    10.2320    -0.4970 C.3   1 <1>  -0.1600 
 29 H        1.3840    -0.6400    -3.2330 H     1 <1>   0.0800 
 30 H        2.1200    -0.8410    -1.6440 H     1 <1>   0.0800 
 31 H        3.1180    -0.4290    -3.0440 H     1 <1>   0.0800 
 32 H        0.5580     2.6710    -1.0160 H     1 <1>   0.1500 
 33 H        1.1520     3.8740     1.0080 H     1 <1>   0.1500 
 34 H        6.4750    -0.1900    -1.2380 H     1 <1>   0.1500 
 35 H        5.6140     2.3100     2.0610 H     1 <1>   0.1500 
 36 H        7.1500     0.8120     0.8640 H     1 <1>   0.1500 
 37 H        3.8580     3.1850     3.1360 H     1 <1>   0.0800 
 38 H        2.5910     4.3040     2.7750 H     1 <1>   0.0800 
 39 H        4.3840     5.2700     4.2040 H     1 <1>   0.0800 
 40 H        5.1380     6.5560     3.3090 H     1 <1>   0.0800 
 41 H        6.0060     5.0600     3.5750 H     1 <1>   0.0800 
 42 H        3.7080     4.3050    -0.2120 H     1 <1>   0.4570 
 43 H        4.4530     5.0890    -2.3770 H     1 <1>   0.1500 
 44 H        6.3030     6.7710    -2.3540 H     1 <1>   0.1500 
 45 H        8.3680     7.1450    -2.0050 H     1 <1>   0.0800 
 46 H        9.4750     7.5230    -0.7190 H     1 <1>   0.0800 
 47 H        8.5910     8.2730     1.5370 H     1 <1>   0.0800 
 48 H        6.8710     8.4480     1.7570 H     1 <1>   0.0800 
 49 H        7.7250     9.4960    -2.2040 H     1 <1>   0.0800 
 50 H        7.9500    10.6410     1.4270 H     1 <1>   0.0800 
 51 H        6.7810    10.2930     0.1920 H     1 <1>   0.0800 
 52 H       10.5300     9.4070    -2.0440 H     1 <1>   0.4000 
 53 H        8.7610    11.2430    -0.8620 H     1 <1>   0.0800 
 54 H        9.7890    10.0790    -0.0530 H     1 <1>   0.0800 
@<TRIPOS>BOND
  1   1   2  1   
  2   1   3  1   
  3   2   4  ar  
  4   2   5  ar  
  5   3  29  1   
  6   3  30  1   
  7   3  31  1   
  8   4   6  ar  
  9   4   7  ar  
 10   5   8  ar  
 11   5  32  1   
 12   6   9  ar  
 13   7  10  ar  
 14   7  11  ar  
 15   8  10  ar  
 16   8  33  1   
 17   9  12  ar  
 18   9  34  1   
 19  10  13  1   
 20  11  12  ar  
 21  11  35  1   
 22  12  36  1   
 23  13  14  1   
 24  13  37  1   
 25  13  38  1   
 26  14  15  1   
 27  14  16  1   
 28  15  17  ar  
 29  15  18  ar  
 30  16  39  1   
 31  16  40  1   
 32  16  41  1   
 33  17  19  ar  
 34  18  20  ar  
 35  18  42  1   
 36  19  21  1   
 37  19  22  ar  
 38  20  22  ar  
 39  20  43  1   
 40  21  23  1   
 41  21  24  1   
 42  22  44  1   
 43  23  25  1   
 44  23  45  1   
 45  23  46  1   
 46  24  26  1   
 47  24  47  1   
 48  24  48  1   
 49  25  27  1   
 50  25  28  1   
 51  25  49  1   
 52  26  28  1   
 53  26  50  1   
 54  26  51  1   
 55  27  52  1   
 56  28  53  1   
 57  28  54  1   
@<TRIPOS>SUBSTRUCTURE
  1 ****  18 GROUP 4 **** **** 0

# MOE 2024.06 (io_trps.svl 2023.06)
