@<TRIPOS>MOLECULE
NONAME
44 46 1 0 0 
SMALL
USER_CHARGES


@<TRIPOS>ATOM
  1 CL       0.8580     0.9960    -0.8460 Cl    1 <1>  -0.1770 
  2 C        2.1220    -0.1310    -0.4050 C.ar  1 <1>   0.1770 
  3 C        3.1400     0.2490     0.4610 C.ar  1 <1>  -0.1440 
  4 C        2.0750    -1.4000    -0.9520 C.ar  1 <1>  -0.1500 
  5 C        4.1240    -0.6800     0.7690 C.ar  1 <1>  -0.1500 
  6 C        3.2120     1.6450     1.0670 C.3   1 <1>  -0.0160 
  7 C        3.0620    -2.3170    -0.6350 C.ar  1 <1>  -0.1500 
  8 C        4.0850    -1.9540     0.2250 C.ar  1 <1>  -0.1500 
  9 C        3.8700     2.6210     0.0820 C.3   1 <1>  -0.0990 
 10 C        4.1120     4.0110     0.6550 C.2   1 <1>   0.5690 
 11 O        3.6050     4.2850     1.7190 O.2   1 <1>  -0.5700 
 12 N        4.8980     4.9140    -0.0210 N.am  1 <1>  -0.6600 
 13 C        5.4250     6.1140     0.7070 C.3   1 <1>   0.1400 
 14 C        5.4390     4.6890    -1.4010 C.3   1 <1>   0.1400 
 15 C        6.9510     6.0940     0.9620 C.3   1 <1>   0.2200 
 16 C        6.9690     4.5110    -1.4830 C.3   1 <1>  -0.0190 
 17 N        7.6950     6.5510    -0.2470 N.am  1 <1>  -0.6600 
 18 C        7.5290     4.7650     1.5160 C.3   1 <1>   0.1200 
 19 C        7.6760     5.8450    -1.4130 C.2   1 <1>   0.5690 
 20 C        7.6280     3.4980    -0.5270 C.3   1 <1>   0.1200 
 21 C        8.4090     7.8550    -0.1240 C.3   1 <1>   0.0600 
 22 O        7.1980     3.6050     0.7960 O.3   1 <1>  -0.5600 
 23 O        8.2150     6.2460    -2.4170 O.2   1 <1>  -0.5700 
 24 H        1.2730    -1.6630    -1.6180 H     1 <1>   0.1500 
 25 H        4.9280    -0.4140     1.4340 H     1 <1>   0.1500 
 26 H        2.2270     1.9930     1.3270 H     1 <1>   0.0800 
 27 H        3.7880     1.6150     1.9760 H     1 <1>   0.0800 
 28 H        3.0340    -3.3080    -1.0540 H     1 <1>   0.1500 
 29 H        4.8530    -2.6660     0.4740 H     1 <1>   0.1500 
 30 H        3.2500     2.7140    -0.7890 H     1 <1>   0.0800 
 31 H        4.8180     2.2100    -0.2100 H     1 <1>   0.0800 
 32 H        5.1680     7.0010     0.1550 H     1 <1>   0.0800 
 33 H        4.9410     6.1950     1.6630 H     1 <1>   0.0800 
 34 H        4.9760     3.8270    -1.8420 H     1 <1>   0.0800 
 35 H        5.1580     5.5300    -2.0120 H     1 <1>   0.0800 
 36 H        7.1270     6.8290     1.7270 H     1 <1>   0.0800 
 37 H        7.1650     4.1420    -2.4730 H     1 <1>   0.0800 
 38 H        7.1420     4.6160     2.5080 H     1 <1>   0.0800 
 39 H        8.6010     4.8270     1.5830 H     1 <1>   0.0800 
 40 H        8.7000     3.5980    -0.5450 H     1 <1>   0.0800 
 41 H        7.3800     2.5010    -0.8460 H     1 <1>   0.0800 
 42 H        9.1300     7.8030     0.6720 H     1 <1>   0.0800 
 43 H        7.7030     8.6400     0.0840 H     1 <1>   0.0800 
 44 H        8.9270     8.0960    -1.0370 H     1 <1>   0.0800 
@<TRIPOS>BOND
  1   1   2  1   
  2   2   3  ar  
  3   2   4  ar  
  4   3   5  ar  
  5   3   6  1   
  6   4   7  ar  
  7   4  24  1   
  8   5   8  ar  
  9   5  25  1   
 10   6   9  1   
 11   6  26  1   
 12   6  27  1   
 13   7   8  ar  
 14   7  28  1   
 15   8  29  1   
 16   9  10  1   
 17   9  30  1   
 18   9  31  1   
 19  10  11  2   
 20  10  12  am  
 21  12  13  1   
 22  12  14  1   
 23  13  15  1   
 24  13  32  1   
 25  13  33  1   
 26  14  16  1   
 27  14  34  1   
 28  14  35  1   
 29  15  17  1   
 30  15  18  1   
 31  15  36  1   
 32  16  19  1   
 33  16  20  1   
 34  16  37  1   
 35  17  19  am  
 36  17  21  1   
 37  18  22  1   
 38  18  38  1   
 39  18  39  1   
 40  19  23  2   
 41  20  22  1   
 42  20  40  1   
 43  20  41  1   
 44  21  42  1   
 45  21  43  1   
 46  21  44  1   
@<TRIPOS>SUBSTRUCTURE
  1 ****   9 GROUP 4 **** **** 0

# MOE 2024.06 (io_trps.svl 2023.06)
