@<TRIPOS>MOLECULE
NONAME
54 57 1 0 0 
SMALL
USER_CHARGES


@<TRIPOS>ATOM
  1 O       -2.9280     0.0580     0.8890 O.2   1 <1>  -0.5700 
  2 C       -2.2220     1.0340     0.8870 C.2   1 <1>   0.5950 
  3 C       -2.3080     2.1150    -0.0490 C.2   1 <1>  -0.0860 
  4 C       -1.1380     1.1630     1.9530 C.3   1 <1>  -0.0990 
  5 C       -3.0710     2.2820    -1.2290 C.2   1 <1>  -0.0860 
  6 C       -1.5720     3.2450     0.0550 C.2   1 <1>  -0.0400 
  7 C       -0.8640     2.6310     2.3660 C.3   1 <1>  -0.1600 
  8 C       -2.6880     3.4920    -1.7200 C.2   1 <1>  -0.0400 
  9 C       -4.0240     1.3360    -1.7500 C.2   1 <1>   0.7160 
 10 O       -1.7990     4.0600    -0.9400 O.3   1 <1>  -0.2800 
 11 C       -0.5890     3.5570     1.1620 C.3   1 <1>   0.0200 
 12 C       -3.1250     4.2210    -2.9720 C.3   1 <1>  -0.0600 
 13 O       -3.7100     0.6230    -2.6840 O.2   1 <1>  -0.5700 
 14 N       -5.2940     1.2440    -1.2220 N.am  1 <1>  -0.6600 
 15 C       -6.1080     0.0080    -1.4210 C.3   1 <1>   0.1400 
 16 C       -5.9220     2.3610    -0.4590 C.3   1 <1>   0.1400 
 17 C       -6.6030    -0.5950    -0.0980 C.3   1 <1>   0.1400 
 18 C       -5.9300     2.0540     1.0420 C.3   1 <1>  -0.1600 
 19 N       -7.6540     0.2670     0.5310 N.am  1 <1>  -0.6600 
 20 C       -7.1520     1.2610     1.5250 C.3   1 <1>   0.1400 
 21 C       -9.0060     0.1440     0.2950 C.2   1 <1>   0.5690 
 22 O       -9.8080     0.8830     0.8190 O.2   1 <1>  -0.5700 
 23 C       -9.5770    -0.8950    -0.6590 C.3   1 <1>   0.0810 
 24 C       -9.8790    -2.2050     0.0440 C.2   1 <1>  -0.0400 
 25 O       -8.9080    -3.0020     0.4030 O.3   1 <1>  -0.0190 
 26 C      -11.0360    -2.7780     0.4080 C.2   1 <1>  -0.1500 
 27 N       -9.3510    -4.0780     0.9840 N.2   1 <1>  -0.4100 
 28 C      -10.6320    -3.9690     1.0050 C.2   1 <1>   0.1080 
 29 C      -11.5640    -5.0010     1.6000 C.3   1 <1>  -0.0590 
 30 H       -0.2380     0.7230     1.5630 H     1 <1>   0.0800 
 31 H       -1.4330     0.5960     2.8180 H     1 <1>   0.0800 
 32 H       -0.0340     2.6710     3.0500 H     1 <1>   0.0800 
 33 H       -1.7310     3.0020     2.8840 H     1 <1>   0.0800 
 34 H       -0.6890     4.5860     1.4590 H     1 <1>   0.0800 
 35 H        0.4090     3.4060     0.7900 H     1 <1>   0.0800 
 36 H       -3.8400     3.6340    -3.5200 H     1 <1>   0.0800 
 37 H       -2.2710     4.4010    -3.6000 H     1 <1>   0.0800 
 38 H       -3.5700     5.1630    -2.7090 H     1 <1>   0.0800 
 39 H       -5.5120    -0.7390    -1.9160 H     1 <1>   0.0800 
 40 H       -6.9430     0.2320    -2.0600 H     1 <1>   0.0800 
 41 H       -6.9250     2.5260    -0.8140 H     1 <1>   0.0800 
 42 H       -5.3680     3.2680    -0.6290 H     1 <1>   0.0800 
 43 H       -5.7700    -0.7200     0.5740 H     1 <1>   0.0800 
 44 H       -6.9970    -1.5750    -0.2890 H     1 <1>   0.0800 
 45 H       -5.9190     2.9840     1.5800 H     1 <1>   0.0800 
 46 H       -5.0320     1.5330     1.3140 H     1 <1>   0.0800 
 47 H       -7.9340     1.9650     1.7550 H     1 <1>   0.0800 
 48 H       -6.9080     0.7470     2.4390 H     1 <1>   0.0800 
 49 H       -8.9140    -1.0660    -1.4840 H     1 <1>   0.0800 
 50 H      -10.4930    -0.5060    -1.0630 H     1 <1>   0.0800 
 51 H      -12.0460    -2.4310     0.2890 H     1 <1>   0.1500 
 52 H      -12.1380    -4.5580     2.3920 H     1 <1>   0.0800 
 53 H      -10.9960    -5.8230     1.9980 H     1 <1>   0.0800 
 54 H      -12.2290    -5.3720     0.8420 H     1 <1>   0.0800 
@<TRIPOS>BOND
  1   1   2  2   
  2   2   3  1   
  3   2   4  1   
  4   3   5  1   
  5   3   6  2   
  6   4   7  1   
  7   4  30  1   
  8   4  31  1   
  9   5   8  2   
 10   5   9  1   
 11   6  10  1   
 12   6  11  1   
 13   7  11  1   
 14   7  32  1   
 15   7  33  1   
 16   8  10  1   
 17   8  12  1   
 18   9  13  2   
 19   9  14  am  
 20  11  34  1   
 21  11  35  1   
 22  12  36  1   
 23  12  37  1   
 24  12  38  1   
 25  14  15  1   
 26  14  16  1   
 27  15  17  1   
 28  15  39  1   
 29  15  40  1   
 30  16  18  1   
 31  16  41  1   
 32  16  42  1   
 33  17  19  1   
 34  17  43  1   
 35  17  44  1   
 36  18  20  1   
 37  18  45  1   
 38  18  46  1   
 39  19  20  1   
 40  19  21  am  
 41  20  47  1   
 42  20  48  1   
 43  21  22  2   
 44  21  23  1   
 45  23  24  1   
 46  23  49  1   
 47  23  50  1   
 48  24  25  1   
 49  24  26  2   
 50  25  27  1   
 51  26  28  1   
 52  26  51  1   
 53  27  28  2   
 54  28  29  1   
 55  29  52  1   
 56  29  53  1   
 57  29  54  1   
@<TRIPOS>SUBSTRUCTURE
  1 ****  17 GROUP 4 **** **** 0

# MOE 2024.06 (io_trps.svl 2023.06)
