@<TRIPOS>MOLECULE
NONAME
50 52 1 0 0 
SMALL
USER_CHARGES


@<TRIPOS>ATOM
  1 O       -0.4750     1.4270     1.9850 O.2   1 <1>  -0.5700 
  2 C       -0.2010     2.1920     1.0870 C.2   1 <1>   0.5770 
  3 N       -1.1860     2.9430     0.4830 N.am  1 <1>  -0.6600 
  4 C        1.2610     2.2420     0.6290 C.3   1 <1>   0.0530 
  5 C       -2.5790     2.9560     1.0260 C.3   1 <1>   0.1400 
  6 C       -1.0580     3.7280    -0.7780 C.3   1 <1>   0.1400 
  7 C        2.2810     1.9510     1.7780 C.3   1 <1>   0.0000 
  8 C        1.8710     3.6780     0.5530 C.3   1 <1>   0.0000 
  9 C        1.4460     1.3280    -0.6000 C.3   1 <1>   0.1200 
 10 C       -3.5560     2.3120     0.0260 C.3   1 <1>   0.0000 
 11 C       -2.0010     3.1560    -1.8430 C.3   1 <1>  -0.1600 
 12 C        3.1250     3.1580     1.2990 C.3   1 <1>   0.0000 
 13 O        2.7070     1.4770    -1.1790 O.3   1 <1>  -0.5600 
 14 C       -4.9850     2.3140     0.6000 C.3   1 <1>   0.2000 
 15 C       -3.4520     3.0500    -1.3380 C.3   1 <1>  -0.1600 
 16 C       -3.3040     0.8020    -0.1420 C.3   1 <1>  -0.1600 
 17 C        2.9510     0.6080    -2.2370 C.3   1 <1>   0.0400 
 18 O       -5.6120     3.5510     0.4340 O.3   1 <1>  -0.5600 
 19 C       -5.7260     1.2000    -0.1440 C.3   1 <1>  -0.1600 
 20 C       -4.6450     0.2010    -0.5820 C.3   1 <1>  -0.1600 
 21 C       -6.7810     3.7230     1.1720 C.3   1 <1>   0.0400 
 22 H       -2.6250     2.4400     1.9690 H     1 <1>   0.0800 
 23 H       -2.8740     3.9760     1.2020 H     1 <1>   0.0800 
 24 H       -1.3190     4.7530    -0.5760 H     1 <1>   0.0800 
 25 H       -0.0550     3.7090    -1.1580 H     1 <1>   0.0800 
 26 H        1.8840     2.1240     2.7630 H     1 <1>   0.0000 
 27 H        2.7930     1.0090     1.6900 H     1 <1>   0.0000 
 28 H        2.0850     4.0250    -0.4430 H     1 <1>   0.0000 
 29 H        1.3260     4.3960     1.1420 H     1 <1>   0.0000 
 30 H        0.7100     1.5610    -1.3490 H     1 <1>   0.0800 
 31 H        1.3240     0.3010    -0.3000 H     1 <1>   0.0800 
 32 H       -1.9750     3.7920    -2.7100 H     1 <1>   0.0800 
 33 H       -1.6420     2.1900    -2.1470 H     1 <1>   0.0800 
 34 H        3.9240     2.8770     0.6370 H     1 <1>   0.0000 
 35 H        3.4450     3.8020     2.0990 H     1 <1>   0.0000 
 36 H       -4.9430     2.0810     1.6510 H     1 <1>   0.0800 
 37 H       -4.0590     2.5630    -2.0790 H     1 <1>   0.0800 
 38 H       -3.8310     4.0500    -1.2240 H     1 <1>   0.0800 
 39 H       -2.5160     0.5760    -0.8360 H     1 <1>   0.0800 
 40 H       -3.0330     0.3810     0.8110 H     1 <1>   0.0800 
 41 H        3.9380     0.8110    -2.6140 H     1 <1>   0.0800 
 42 H        2.2240     0.7780    -3.0120 H     1 <1>   0.0800 
 43 H        2.9000    -0.4070    -1.8820 H     1 <1>   0.0800 
 44 H       -6.4500     0.7280     0.4960 H     1 <1>   0.0800 
 45 H       -6.2160     1.6020    -1.0140 H     1 <1>   0.0800 
 46 H       -4.7940    -0.7650    -0.1300 H     1 <1>   0.0800 
 47 H       -4.6660     0.0920    -1.6520 H     1 <1>   0.0800 
 48 H       -7.1510     4.7150     0.9830 H     1 <1>   0.0800 
 49 H       -6.5600     3.6120     2.2190 H     1 <1>   0.0800 
 50 H       -7.5130     2.9990     0.8590 H     1 <1>   0.0800 
@<TRIPOS>BOND
  1   1   2  2   
  2   2   3  am  
  3   2   4  1   
  4   3   5  1   
  5   3   6  1   
  6   4   7  1   
  7   4   8  1   
  8   4   9  1   
  9   5  10  1   
 10   5  22  1   
 11   5  23  1   
 12   6  11  1   
 13   6  24  1   
 14   6  25  1   
 15   7  12  1   
 16   7  26  1   
 17   7  27  1   
 18   8  12  1   
 19   8  28  1   
 20   8  29  1   
 21   9  13  1   
 22   9  30  1   
 23   9  31  1   
 24  10  14  1   
 25  10  15  1   
 26  10  16  1   
 27  11  15  1   
 28  11  32  1   
 29  11  33  1   
 30  12  34  1   
 31  12  35  1   
 32  13  17  1   
 33  14  18  1   
 34  14  19  1   
 35  14  36  1   
 36  15  37  1   
 37  15  38  1   
 38  16  20  1   
 39  16  39  1   
 40  16  40  1   
 41  17  41  1   
 42  17  42  1   
 43  17  43  1   
 44  18  21  1   
 45  19  20  1   
 46  19  44  1   
 47  19  45  1   
 48  20  46  1   
 49  20  47  1   
 50  21  48  1   
 51  21  49  1   
 52  21  50  1   
@<TRIPOS>SUBSTRUCTURE
  1 ****   3 GROUP 4 **** **** 0

# MOE 2024.06 (io_trps.svl 2023.06)
