@<TRIPOS>MOLECULE
NONAME
52 53 1 0 0 
SMALL
USER_CHARGES


@<TRIPOS>ATOM
  1 O       -0.0670    -0.0700    -0.2190 O.2   1 <1>  -0.5700 
  2 C        0.9070    -0.7800    -0.1540 C.2   1 <1>   0.5690 
  3 N        0.8350    -2.0230     0.3780 N.am  1 <1>  -0.7300 
  4 C        2.2480    -0.2730    -0.6890 C.3   1 <1>  -0.0190 
  5 C       -0.4210    -2.6790     0.8370 C.3   1 <1>   0.2010 
  6 C        2.7590    -1.1300    -1.8590 C.3   1 <1>  -0.2400 
  7 C        3.3150    -0.1970     0.4170 C.3   1 <1>  -0.2400 
  8 C       -0.3630    -4.2110     0.7640 C.2   1 <1>   0.5690 
  9 O        0.7160    -4.7300     0.5790 O.2   1 <1>  -0.5700 
 10 N       -1.5020    -4.9680     0.9060 N.am  1 <1>  -0.6600 
 11 C       -1.4690    -6.4610     0.7830 C.3   1 <1>   0.1400 
 12 C       -2.8910    -4.4420     1.0900 C.3   1 <1>   0.1400 
 13 C       -2.4960    -6.9500    -0.2540 C.3   1 <1>   0.3430 
 14 C       -3.8430    -5.0260     0.0210 C.3   1 <1>   0.2000 
 15 O       -3.7640    -6.4250     0.0430 O.3   1 <1>  -0.5600 
 16 C       -2.5630    -8.4740    -0.2670 C.ar  1 <1>  -0.1440 
 17 C       -5.3220    -4.6250     0.2350 C.3   1 <1>  -0.0800 
 18 C       -3.4080    -9.1690     0.5880 C.ar  1 <1>  -0.1500 
 19 C       -1.7530    -9.1880    -1.1390 C.ar  1 <1>  -0.1500 
 20 C       -6.2350    -5.2590    -0.8290 C.3   1 <1>  -0.2400 
 21 C       -5.5240    -3.0990     0.2070 C.3   1 <1>  -0.2400 
 22 C       -3.4430   -10.5530     0.5720 C.ar  1 <1>  -0.1500 
 23 C       -1.7860   -10.5720    -1.1560 C.ar  1 <1>  -0.1500 
 24 C       -2.6310   -11.2560    -0.3000 C.ar  1 <1>  -0.1500 
 25 H        1.6430    -2.6540     0.3540 H     1 <1>   0.3700 
 26 H        2.0840     0.7250    -1.0570 H     1 <1>   0.0800 
 27 H       -0.6090    -2.3900     1.8550 H     1 <1>   0.0800 
 28 H       -1.2290    -2.3250     0.2240 H     1 <1>   0.0800 
 29 H        2.9640    -2.1360    -1.5380 H     1 <1>   0.0800 
 30 H        3.6600    -0.7080    -2.2670 H     1 <1>   0.0800 
 31 H        2.0170    -1.1650    -2.6380 H     1 <1>   0.0800 
 32 H        3.5370    -1.1760     0.8030 H     1 <1>   0.0800 
 33 H        2.9600     0.4180     1.2250 H     1 <1>   0.0800 
 34 H        4.2210     0.2350     0.0320 H     1 <1>   0.0800 
 35 H       -0.4910    -6.8010     0.4900 H     1 <1>   0.0800 
 36 H       -1.6960    -6.9020     1.7370 H     1 <1>   0.0800 
 37 H       -3.2470    -4.7240     2.0660 H     1 <1>   0.0800 
 38 H       -2.9040    -3.3710     1.0330 H     1 <1>   0.0800 
 39 H       -2.2160    -6.6010    -1.2330 H     1 <1>   0.0800 
 40 H       -3.5320    -4.6920    -0.9540 H     1 <1>   0.0800 
 41 H       -5.6310    -4.9850     1.2020 H     1 <1>   0.0800 
 42 H       -4.0470    -8.6310     1.2670 H     1 <1>   0.1500 
 43 H       -1.0890    -8.6720    -1.8100 H     1 <1>   0.1500 
 44 H       -5.9470    -4.9410    -1.8150 H     1 <1>   0.0800 
 45 H       -7.2600    -4.9800    -0.6610 H     1 <1>   0.0800 
 46 H       -6.1740    -6.3330    -0.7860 H     1 <1>   0.0800 
 47 H       -5.1610    -2.6850    -0.7180 H     1 <1>   0.0800 
 48 H       -5.0170    -2.6230     1.0260 H     1 <1>   0.0800 
 49 H       -6.5700    -2.8630     0.2940 H     1 <1>   0.0800 
 50 H       -4.1040   -11.0810     1.2370 H     1 <1>   0.1500 
 51 H       -1.1550   -11.1180    -1.8360 H     1 <1>   0.1500 
 52 H       -2.6580   -12.3310    -0.3130 H     1 <1>   0.1500 
@<TRIPOS>BOND
  1   1   2  2   
  2   2   3  am  
  3   2   4  1   
  4   3   5  1   
  5   3  25  1   
  6   4   6  1   
  7   4   7  1   
  8   4  26  1   
  9   5   8  1   
 10   5  27  1   
 11   5  28  1   
 12   6  29  1   
 13   6  30  1   
 14   6  31  1   
 15   7  32  1   
 16   7  33  1   
 17   7  34  1   
 18   8   9  2   
 19   8  10  am  
 20  10  11  1   
 21  10  12  1   
 22  11  13  1   
 23  11  35  1   
 24  11  36  1   
 25  12  14  1   
 26  12  37  1   
 27  12  38  1   
 28  13  15  1   
 29  13  16  1   
 30  13  39  1   
 31  14  15  1   
 32  14  17  1   
 33  14  40  1   
 34  16  18  ar  
 35  16  19  ar  
 36  17  20  1   
 37  17  21  1   
 38  17  41  1   
 39  18  22  ar  
 40  18  42  1   
 41  19  23  ar  
 42  19  43  1   
 43  20  44  1   
 44  20  45  1   
 45  20  46  1   
 46  21  47  1   
 47  21  48  1   
 48  21  49  1   
 49  22  24  ar  
 50  22  50  1   
 51  23  24  ar  
 52  23  51  1   
 53  24  52  1   
@<TRIPOS>SUBSTRUCTURE
  1 ****  10 GROUP 4 **** **** 0

# MOE 2024.06 (io_trps.svl 2023.06)
