@<TRIPOS>MOLECULE
NONAME
45 46 1 0 0 
SMALL
USER_CHARGES


@<TRIPOS>ATOM
  1 O        0.2130    -0.0760    -2.1640 O.2   1 <1>  -0.5700 
  2 C        1.0410    -0.6320    -1.4790 C.2   1 <1>   0.5690 
  3 N        1.8160     0.0170    -0.5560 N.am  1 <1>  -0.4940 
  4 C        1.2340    -2.1450    -1.6250 C.3   1 <1>   0.2610 
  5 C        1.8510     1.3810    -0.1830 C.2   1 <1>  -0.0880 
  6 O        1.9600    -2.6410    -0.5050 O.3   1 <1>  -0.3630 
  7 C        2.0200    -2.5230    -2.8850 C.3   1 <1>  -0.2400 
  8 N        2.5670     1.8830     0.8590 N.pl3 1 <1>   0.3140 
  9 C        1.2180     2.4360    -0.7460 C.2   1 <1>  -0.1500 
 10 C        1.4380    -3.7060     0.1390 C.ar  1 <1>   0.0830 
 11 N        2.4070     3.2200     0.9740 N.2   1 <1>  -0.7070 
 12 C        3.4030     1.1260     1.8140 C.3   1 <1>   0.0960 
 13 C        1.6000     3.5370     0.0080 C.2   1 <1>   0.1390 
 14 C        0.3610    -3.5700     1.0140 C.ar  1 <1>  -0.1430 
 15 C        2.0150    -4.9450    -0.0840 C.ar  1 <1>  -0.1500 
 16 C        4.7660     0.7750     1.2000 C.3   1 <1>  -0.1600 
 17 C       -0.1340    -4.7050     1.6350 C.ar  1 <1>  -0.1500 
 18 C       -0.2770    -2.2200     1.3140 C.3   1 <1>  -0.0970 
 19 C        1.5160    -6.0730     0.5440 C.ar  1 <1>  -0.1430 
 20 C        5.6120    -0.0630     2.1650 C.3   1 <1>  -0.2400 
 21 C        0.4360    -5.9460     1.4010 C.ar  1 <1>  -0.1500 
 22 C        2.1360    -7.4370     0.3020 C.3   1 <1>  -0.0970 
 23 H        2.4340    -0.6230    -0.0470 H     1 <1>   0.3700 
 24 H        0.2650    -2.6130    -1.6470 H     1 <1>   0.0800 
 25 H        2.9990    -2.0780    -2.8640 H     1 <1>   0.0800 
 26 H        1.5000    -2.1630    -3.7540 H     1 <1>   0.0800 
 27 H        2.1090    -3.5910    -2.9600 H     1 <1>   0.0800 
 28 H        0.5570     2.4390    -1.5950 H     1 <1>   0.1500 
 29 H        2.8750     0.2340     2.0960 H     1 <1>   0.0800 
 30 H        3.5400     1.7310     2.6910 H     1 <1>   0.0800 
 31 H        1.2680     4.5440    -0.1790 H     1 <1>   0.1500 
 32 H        2.8540    -5.0170    -0.7520 H     1 <1>   0.1500 
 33 H        5.2910     1.6870     0.9680 H     1 <1>   0.0800 
 34 H        4.6270     0.2240     0.2860 H     1 <1>   0.0800 
 35 H       -0.9690    -4.6340     2.3090 H     1 <1>   0.1500 
 36 H        0.4820    -1.4840     1.5070 H     1 <1>   0.0800 
 37 H       -0.9080    -2.2810     2.1820 H     1 <1>   0.0800 
 38 H       -0.8770    -1.8990     0.4820 H     1 <1>   0.0800 
 39 H        5.7860     0.4770     3.0800 H     1 <1>   0.0800 
 40 H        6.5640    -0.2880     1.7180 H     1 <1>   0.0800 
 41 H        5.1170    -0.9900     2.3970 H     1 <1>   0.0800 
 42 H        0.0350    -6.8140     1.8930 H     1 <1>   0.1500 
 43 H        3.0660    -7.3480    -0.2290 H     1 <1>   0.0800 
 44 H        1.4640    -8.0450    -0.2780 H     1 <1>   0.0800 
 45 H        2.3260    -7.9260     1.2410 H     1 <1>   0.0800 
@<TRIPOS>BOND
  1   1   2  2   
  2   2   3  am  
  3   2   4  1   
  4   3   5  1   
  5   3  23  1   
  6   4   6  1   
  7   4   7  1   
  8   4  24  1   
  9   5   8  1   
 10   5   9  2   
 11   6  10  1   
 12   7  25  1   
 13   7  26  1   
 14   7  27  1   
 15   8  11  1   
 16   8  12  1   
 17   9  13  1   
 18   9  28  1   
 19  10  14  ar  
 20  10  15  ar  
 21  11  13  2   
 22  12  16  1   
 23  12  29  1   
 24  12  30  1   
 25  13  31  1   
 26  14  17  ar  
 27  14  18  1   
 28  15  19  ar  
 29  15  32  1   
 30  16  20  1   
 31  16  33  1   
 32  16  34  1   
 33  17  21  ar  
 34  17  35  1   
 35  18  36  1   
 36  18  37  1   
 37  18  38  1   
 38  19  21  ar  
 39  19  22  1   
 40  20  39  1   
 41  20  40  1   
 42  20  41  1   
 43  21  42  1   
 44  22  43  1   
 45  22  44  1   
 46  22  45  1   
@<TRIPOS>SUBSTRUCTURE
  1 ****   6 GROUP 4 **** **** 0

# MOE 2024.06 (io_trps.svl 2023.06)
