@<TRIPOS>MOLECULE
NONAME
45 47 1 0 0 
SMALL
USER_CHARGES


@<TRIPOS>ATOM
  1 CL       3.3650     0.6640     0.3320 Cl    1 <1>  -0.1770 
  2 C        2.9010     2.3210     0.6040 C.ar  1 <1>   0.1770 
  3 C        3.2250     3.2950    -0.3240 C.ar  1 <1>   0.1600 
  4 C        2.2130     2.6610     1.7440 C.ar  1 <1>  -0.1500 
  5 N        2.9130     4.5790    -0.2030 N.ar  1 <1>  -0.6200 
  6 C        1.8860     3.9940     1.8830 C.ar  1 <1>  -0.1500 
  7 C        2.2360     4.9360     0.9100 C.ar  1 <1>   0.3960 
  8 C        1.8720     6.3390     1.1430 C.2   1 <1>   0.5440 
  9 O        2.0760     6.8190     2.2450 O.2   1 <1>  -0.5700 
 10 N        1.3430     7.1880     0.1770 N.am  1 <1>  -0.6600 
 11 C        1.3880     6.9150    -1.2960 C.3   1 <1>   0.1400 
 12 C        0.8700     8.5600     0.5270 C.3   1 <1>   0.1400 
 13 C        2.7790     7.2480    -1.8800 C.3   1 <1>   0.3430 
 14 C        2.0070     9.5870     0.4130 C.3   1 <1>  -0.1600 
 15 N        3.4890     8.2740    -1.0530 N.4   1 <1>  -0.9590 
 16 C        2.7750     9.5700    -0.9130 C.3   1 <1>   0.3430 
 17 C        4.9400     8.3890    -1.3320 C.3   1 <1>   0.4860 
 18 C        5.5980     9.1010    -0.1680 C.ar  1 <1>  -0.1440 
 19 C        5.5240     8.5460     1.1110 C.ar  1 <1>   0.4100 
 20 C        6.2670    10.2930    -0.3420 C.ar  1 <1>  -0.1500 
 21 N        6.0420     9.0880     2.1890 N.ar  1 <1>  -0.6200 
 22 N        4.8820     7.3740     1.3520 N.pl3 1 <1>  -0.9000 
 23 C        6.8220    10.8660     0.7850 C.ar  1 <1>  -0.1500 
 24 C        6.6810    10.2310     2.0070 C.ar  1 <1>   0.1600 
 25 H        3.7670     2.9880    -1.2020 H     1 <1>   0.1500 
 26 H        1.9520     1.9220     2.4810 H     1 <1>   0.1500 
 27 H        1.3540     4.3240     2.7590 H     1 <1>   0.1500 
 28 H        0.6450     7.5120    -1.7960 H     1 <1>   0.0800 
 29 H        1.1410     5.8870    -1.4980 H     1 <1>   0.0800 
 30 H        0.4880     8.5640     1.5360 H     1 <1>   0.0800 
 31 H        0.0550     8.8360    -0.1190 H     1 <1>   0.0800 
 32 H        2.6780     7.5820    -2.8990 H     1 <1>   0.0800 
 33 H        3.3610     6.3410    -1.8870 H     1 <1>   0.0800 
 34 H        2.6930     9.4480     1.2300 H     1 <1>   0.0800 
 35 H        1.5790    10.5650     0.5410 H     1 <1>   0.0800 
 36 H        3.4820     7.8700    -0.0920 H     1 <1>   0.4500 
 37 H        3.4870    10.3800    -0.9060 H     1 <1>   0.0800 
 38 H        2.1000     9.7200    -1.7390 H     1 <1>   0.0800 
 39 H        5.1060     8.9310    -2.2480 H     1 <1>   0.0800 
 40 H        5.3730     7.4060    -1.4230 H     1 <1>   0.0800 
 41 H        6.3670    10.7720    -1.3020 H     1 <1>   0.1500 
 42 H        4.1660     7.4880     2.0880 H     1 <1>   0.4000 
 43 H        5.5370     6.7060     1.7710 H     1 <1>   0.4000 
 44 H        7.3600    11.7960     0.7210 H     1 <1>   0.1500 
 45 H        7.1180    10.6870     2.8800 H     1 <1>   0.1500 
@<TRIPOS>BOND
  1   1   2  1   
  2   2   3  ar  
  3   2   4  ar  
  4   3   5  ar  
  5   3  25  1   
  6   4   6  ar  
  7   4  26  1   
  8   5   7  ar  
  9   6   7  ar  
 10   6  27  1   
 11   7   8  1   
 12   8   9  2   
 13   8  10  am  
 14  10  11  1   
 15  10  12  1   
 16  11  13  1   
 17  11  28  1   
 18  11  29  1   
 19  12  14  1   
 20  12  30  1   
 21  12  31  1   
 22  13  15  1   
 23  13  32  1   
 24  13  33  1   
 25  14  16  1   
 26  14  34  1   
 27  14  35  1   
 28  15  16  1   
 29  15  17  1   
 30  15  36  1   
 31  16  37  1   
 32  16  38  1   
 33  17  18  1   
 34  17  39  1   
 35  17  40  1   
 36  18  19  ar  
 37  18  20  ar  
 38  19  21  ar  
 39  19  22  1   
 40  20  23  ar  
 41  20  41  1   
 42  21  24  ar  
 43  22  42  1   
 44  22  43  1   
 45  23  24  ar  
 46  23  44  1   
 47  24  45  1   
@<TRIPOS>SUBSTRUCTURE
  1 ****  22 GROUP 4 **** **** 0

# MOE 2024.06 (io_trps.svl 2023.06)
