@<TRIPOS>MOLECULE
NONAME
53 56 1 0 0 
SMALL
USER_CHARGES


@<TRIPOS>ATOM
  1 O       -1.2270    -2.0840    -1.3980 O.2   1 <1>  -0.5700 
  2 C       -0.1570    -2.1600    -0.8300 C.2   1 <1>   0.6900 
  3 N        0.6330    -3.2950    -0.8810 N.am  1 <1>  -0.4690 
  4 N        0.2820    -1.0990    -0.1070 N.am  1 <1>  -0.4900 
  5 C        1.8370    -3.3490    -0.1880 C.2   1 <1>  -0.0410 
  6 C        0.1850    -4.4980    -1.6540 C.3   1 <1>   0.2010 
  7 C        1.4570    -1.0980     0.5790 C.2   1 <1>   0.6160 
  8 C        2.2610    -2.2840     0.5330 C.2   1 <1>  -0.1240 
  9 C       -0.1210    -5.6940    -0.7550 C.2   1 <1>   0.5690 
 10 O        1.7600    -0.0940     1.1920 O.2   1 <1>  -0.5700 
 11 C        3.5730    -2.3080     1.3060 C.3   1 <1>  -0.1020 
 12 O        0.6980    -6.5840    -0.7080 O.2   1 <1>  -0.5700 
 13 N       -1.2800    -5.7540    -0.0270 N.am  1 <1>  -0.6600 
 14 C       -2.3480    -4.7290    -0.0060 C.3   1 <1>   0.1400 
 15 C       -1.6400    -6.9100     0.8150 C.3   1 <1>   0.1400 
 16 C       -3.5430    -5.3820     0.7030 C.3   1 <1>  -0.0800 
 17 C       -3.1630    -6.8600     0.9420 C.3   1 <1>  -0.0800 
 18 C       -4.9170    -5.1430     0.0250 C.3   1 <1>   0.4240 
 19 C       -3.8590    -7.8150    -0.0430 C.3   1 <1>  -0.1600 
 20 O       -4.7960    -5.2650    -1.3490 O.3   1 <1>  -0.6800 
 21 C       -5.4210    -3.7200     0.3400 C.ar  1 <1>  -0.1430 
 22 C       -5.8810    -6.2740     0.4330 C.3   1 <1>  -0.1600 
 23 C       -5.3950    -7.6820     0.0120 C.3   1 <1>  -0.1600 
 24 C       -6.2900    -3.4630     1.3980 C.ar  1 <1>  -0.1500 
 25 C       -4.9850    -2.6380    -0.4200 C.ar  1 <1>  -0.1500 
 26 C       -6.7120    -2.1750     1.6790 C.ar  1 <1>  -0.1500 
 27 C       -5.4030    -1.3490    -0.1400 C.ar  1 <1>  -0.1500 
 28 C       -6.2690    -1.1150     0.9110 C.ar  1 <1>  -0.1500 
 29 H       -0.2970    -0.2690    -0.0710 H     1 <1>   0.3700 
 30 H        2.4000    -4.2680    -0.2500 H     1 <1>   0.1500 
 31 H       -0.6830    -4.2710    -2.2450 H     1 <1>   0.0800 
 32 H        0.9690    -4.7780    -2.3340 H     1 <1>   0.0800 
 33 H        4.2220    -1.5280     0.9490 H     1 <1>   0.0800 
 34 H        4.0730    -3.2530     1.1910 H     1 <1>   0.0800 
 35 H        3.3850    -2.1430     2.3520 H     1 <1>   0.0800 
 36 H       -2.0190    -3.8640     0.5440 H     1 <1>   0.0800 
 37 H       -2.5800    -4.4280    -1.0120 H     1 <1>   0.0800 
 38 H       -1.2970    -7.8320     0.3750 H     1 <1>   0.0800 
 39 H       -1.1800    -6.7880     1.7810 H     1 <1>   0.0800 
 40 H       -3.5990    -4.9280     1.6770 H     1 <1>   0.0800 
 41 H       -3.4400    -7.1550     1.9390 H     1 <1>   0.0800 
 42 H       -3.5100    -7.6040    -1.0400 H     1 <1>   0.0800 
 43 H       -3.5830    -8.8330     0.1770 H     1 <1>   0.0800 
 44 H       -4.5950    -6.1970    -1.5420 H     1 <1>   0.4000 
 45 H       -5.9710    -6.2710     1.5030 H     1 <1>   0.0800 
 46 H       -6.8590    -6.0800     0.0290 H     1 <1>   0.0800 
 47 H       -5.7910    -8.3990     0.7110 H     1 <1>   0.0800 
 48 H       -5.8000    -7.9290    -0.9560 H     1 <1>   0.0800 
 49 H       -6.6550    -4.2550     2.0240 H     1 <1>   0.1500 
 50 H       -4.3110    -2.7900    -1.2450 H     1 <1>   0.1500 
 51 H       -7.3870    -1.9970     2.4980 H     1 <1>   0.1500 
 52 H       -5.0510    -0.5310    -0.7440 H     1 <1>   0.1500 
 53 H       -6.5970    -0.1140     1.1280 H     1 <1>   0.1500 
@<TRIPOS>BOND
  1   1   2  2   
  2   2   3  am  
  3   2   4  am  
  4   3   5  1   
  5   3   6  1   
  6   4   7  am  
  7   4  29  1   
  8   5   8  2   
  9   5  30  1   
 10   6   9  1   
 11   6  31  1   
 12   6  32  1   
 13   7   8  1   
 14   7  10  2   
 15   8  11  1   
 16   9  12  2   
 17   9  13  am  
 18  11  33  1   
 19  11  34  1   
 20  11  35  1   
 21  13  14  1   
 22  13  15  1   
 23  14  16  1   
 24  14  36  1   
 25  14  37  1   
 26  15  17  1   
 27  15  38  1   
 28  15  39  1   
 29  16  17  1   
 30  16  18  1   
 31  16  40  1   
 32  17  19  1   
 33  17  41  1   
 34  18  20  1   
 35  18  21  1   
 36  18  22  1   
 37  19  23  1   
 38  19  42  1   
 39  19  43  1   
 40  20  44  1   
 41  21  24  ar  
 42  21  25  ar  
 43  22  23  1   
 44  22  45  1   
 45  22  46  1   
 46  23  47  1   
 47  23  48  1   
 48  24  26  ar  
 49  24  49  1   
 50  25  27  ar  
 51  25  50  1   
 52  26  28  ar  
 53  26  51  1   
 54  27  28  ar  
 55  27  52  1   
 56  28  53  1   
@<TRIPOS>SUBSTRUCTURE
  1 ****  14 GROUP 4 **** **** 0

# MOE 2024.06 (io_trps.svl 2023.06)
