@<TRIPOS>MOLECULE
NONAME
44 45 1 0 0 
SMALL
USER_CHARGES


@<TRIPOS>ATOM
  1 S       -1.6260    -0.2160    -1.1000 S.o2  1 <1>   1.3330 
  2 O       -1.0810    -1.5250    -1.3540 O.2   1 <1>  -0.6500 
  3 O       -2.7570     0.2830    -1.8430 O.2   1 <1>  -0.6500 
  4 N       -2.0090    -0.2410     0.5310 N.am  1 <1>  -0.9140 
  5 C       -0.3190     0.9890    -1.1650 C.3   1 <1>  -0.1350 
  6 C       -3.3800    -0.6570     0.8220 C.3   1 <1>   0.1960 
  7 C       -4.3050     0.5610     0.9020 C.3   1 <1>  -0.0990 
  8 C       -5.7170     0.1870     1.3200 C.2   1 <1>   0.5690 
  9 O       -5.9240    -0.9500     1.6800 O.2   1 <1>  -0.5700 
 10 N       -6.7180     1.1240     1.2880 N.am  1 <1>  -0.6600 
 11 C       -8.1330     0.7550     1.5930 C.3   1 <1>   0.1400 
 12 C       -6.5740     2.5350     0.8380 C.3   1 <1>   0.1400 
 13 C       -9.0000     0.8810     0.3250 C.3   1 <1>   0.0000 
 14 C       -7.3930     2.7450    -0.4410 C.3   1 <1>  -0.1600 
 15 C      -10.4560     0.4800     0.6310 C.3   1 <1>   0.2000 
 16 C       -8.8630     2.3190    -0.2560 C.3   1 <1>  -0.1600 
 17 C       -8.6230    -0.1740    -0.7320 C.3   1 <1>  -0.1600 
 18 O      -11.2010     1.5120     1.1740 O.3   1 <1>  -0.6800 
 19 C      -11.0670     0.0260    -0.6940 C.3   1 <1>  -0.1600 
 20 C       -9.8830    -0.3880    -1.5780 C.3   1 <1>  -0.1600 
 21 H       -1.4140    -0.9940     0.8780 H     1 <1>   0.4200 
 22 H        0.4930     0.6920    -0.5320 H     1 <1>   0.0800 
 23 H       -0.6830     1.9430    -0.8380 H     1 <1>   0.0800 
 24 H        0.0420     1.0840    -2.1700 H     1 <1>   0.0800 
 25 H       -3.7360    -1.3560     0.0810 H     1 <1>   0.0800 
 26 H       -3.3900    -1.1550     1.7780 H     1 <1>   0.0800 
 27 H       -4.3540     1.0310    -0.0600 H     1 <1>   0.0800 
 28 H       -3.9130     1.2550     1.6200 H     1 <1>   0.0800 
 29 H       -8.1880    -0.2490     1.9780 H     1 <1>   0.0800 
 30 H       -8.5110     1.4150     2.3550 H     1 <1>   0.0800 
 31 H       -6.9430     3.1850     1.6140 H     1 <1>   0.0800 
 32 H       -5.5460     2.7920     0.6590 H     1 <1>   0.0800 
 33 H       -7.3560     3.7850    -0.7140 H     1 <1>   0.0800 
 34 H       -6.9380     2.1910    -1.2420 H     1 <1>   0.0800 
 35 H      -10.4710    -0.3410     1.3290 H     1 <1>   0.0800 
 36 H       -9.3800     2.3990    -1.1950 H     1 <1>   0.0800 
 37 H       -9.3110     3.0210     0.4250 H     1 <1>   0.0800 
 38 H       -7.7780     0.1050    -1.3340 H     1 <1>   0.0800 
 39 H       -8.3810    -1.1000    -0.2370 H     1 <1>   0.0800 
 40 H      -11.2610     2.2410     0.5300 H     1 <1>   0.4000 
 41 H      -11.7310    -0.8050    -0.5290 H     1 <1>   0.0800 
 42 H      -11.6080     0.8260    -1.1680 H     1 <1>   0.0800 
 43 H       -9.9630    -1.4150    -1.8920 H     1 <1>   0.0800 
 44 H       -9.8460     0.2390    -2.4520 H     1 <1>   0.0800 
@<TRIPOS>BOND
  1   1   2  2   
  2   1   3  2   
  3   1   4  am  
  4   1   5  1   
  5   4   6  1   
  6   4  21  1   
  7   5  22  1   
  8   5  23  1   
  9   5  24  1   
 10   6   7  1   
 11   6  25  1   
 12   6  26  1   
 13   7   8  1   
 14   7  27  1   
 15   7  28  1   
 16   8   9  2   
 17   8  10  am  
 18  10  11  1   
 19  10  12  1   
 20  11  13  1   
 21  11  29  1   
 22  11  30  1   
 23  12  14  1   
 24  12  31  1   
 25  12  32  1   
 26  13  15  1   
 27  13  16  1   
 28  13  17  1   
 29  14  16  1   
 30  14  33  1   
 31  14  34  1   
 32  15  18  1   
 33  15  19  1   
 34  15  35  1   
 35  16  36  1   
 36  16  37  1   
 37  17  20  1   
 38  17  38  1   
 39  17  39  1   
 40  18  40  1   
 41  19  20  1   
 42  19  41  1   
 43  19  42  1   
 44  20  43  1   
 45  20  44  1   
@<TRIPOS>SUBSTRUCTURE
  1 ****   8 GROUP 4 **** **** 0

# MOE 2024.06 (io_trps.svl 2023.06)
