@<TRIPOS>MOLECULE
NONAME
51 52 1 0 0 
SMALL
USER_CHARGES


@<TRIPOS>ATOM
  1 O       -0.3490     0.1960    -0.3260 O.2   1 <1>  -0.5700 
  2 C       -1.3450     0.8490    -0.5890 C.2   1 <1>   0.5440 
  3 N       -2.5180     0.1820    -0.8780 N.am  1 <1>  -0.6600 
  4 C       -1.2840     2.2950    -0.5850 C.ar  1 <1>   0.0860 
  5 C       -3.8680     0.7740    -0.6260 C.3   1 <1>   0.1400 
  6 C       -2.5610    -1.3000    -1.0750 C.3   1 <1>   0.1400 
  7 C       -0.8040     3.0030     0.5310 C.ar  1 <1>   0.1000 
  8 C       -1.7150     3.0200    -1.6970 C.ar  1 <1>  -0.1500 
  9 C       -4.6230    -0.0170     0.4660 C.3   1 <1>   0.2000 
 10 C       -3.3840    -1.9760     0.0410 C.3   1 <1>   0.2000 
 11 N       -0.3340     2.3430     1.6540 N.pl3 1 <1>  -0.9000 
 12 C       -0.7930     4.3940     0.5170 C.ar  1 <1>  -0.1500 
 13 C       -1.6900     4.4010    -1.6940 C.ar  1 <1>   0.0830 
 14 O       -4.6450    -1.3770     0.1250 O.3   1 <1>  -0.5600 
 15 C       -6.0820     0.4560     0.6640 C.3   1 <1>  -0.0800 
 16 C       -3.6210    -3.4720    -0.2030 C.3   1 <1>  -0.1600 
 17 C       -1.2340     5.0940    -0.5870 C.ar  1 <1>  -0.1500 
 18 O       -2.1090     5.0930    -2.7690 O.3   1 <1>  -0.5330 
 19 C       -6.1650     1.9400     1.0630 C.3   1 <1>  -0.2400 
 20 C       -6.8040    -0.3790     1.7350 C.3   1 <1>  -0.2400 
 21 C       -2.3250    -4.2990    -0.1750 C.3   1 <1>  -0.1600 
 22 C       -2.6240    -5.7950    -0.3230 C.3   1 <1>  -0.1600 
 23 C       -1.3330    -6.6180    -0.2970 C.3   1 <1>  -0.2400 
 24 H       -3.7720     1.7960    -0.3110 H     1 <1>   0.0800 
 25 H       -4.4390     0.7550    -1.5370 H     1 <1>   0.0800 
 26 H       -3.0120    -1.5140    -2.0270 H     1 <1>   0.0800 
 27 H       -1.5660    -1.7050    -1.0860 H     1 <1>   0.0800 
 28 H       -2.0680     2.4840    -2.5580 H     1 <1>   0.1500 
 29 H       -4.0960     0.0820     1.4000 H     1 <1>   0.0800 
 30 H       -2.8860    -1.8440     0.9860 H     1 <1>   0.0800 
 31 H       -0.0710     1.3580     1.4810 H     1 <1>   0.4000 
 32 H        0.3720     2.8220     2.2180 H     1 <1>   0.4000 
 33 H       -0.4380     4.9260     1.3800 H     1 <1>   0.1500 
 34 H       -6.6040     0.3310    -0.2700 H     1 <1>   0.0800 
 35 H       -4.2790    -3.8340     0.5680 H     1 <1>   0.0800 
 36 H       -4.1120    -3.6030    -1.1510 H     1 <1>   0.0800 
 37 H       -1.2260     6.1690    -0.6010 H     1 <1>   0.1500 
 38 H       -2.3580     4.5210    -3.5160 H     1 <1>   0.4500 
 39 H       -5.5920     2.1250     1.9550 H     1 <1>   0.0800 
 40 H       -7.1870     2.2180     1.2520 H     1 <1>   0.0800 
 41 H       -5.7980     2.5760     0.2770 H     1 <1>   0.0800 
 42 H       -6.2990    -0.3010     2.6810 H     1 <1>   0.0800 
 43 H       -6.8300    -1.4160     1.4490 H     1 <1>   0.0800 
 44 H       -7.8190    -0.0440     1.8560 H     1 <1>   0.0800 
 45 H       -1.6750    -3.9920    -0.9760 H     1 <1>   0.0800 
 46 H       -1.8120    -4.1290     0.7570 H     1 <1>   0.0800 
 47 H       -3.2650    -6.1180     0.4800 H     1 <1>   0.0800 
 48 H       -3.1380    -5.9720    -1.2520 H     1 <1>   0.0800 
 49 H       -0.8120    -6.4710     0.6330 H     1 <1>   0.0800 
 50 H       -0.6860    -6.3300    -1.1060 H     1 <1>   0.0800 
 51 H       -1.5620    -7.6650    -0.3980 H     1 <1>   0.0800 
@<TRIPOS>BOND
  1   1   2  2   
  2   2   3  am  
  3   2   4  1   
  4   3   5  1   
  5   3   6  1   
  6   4   7  ar  
  7   4   8  ar  
  8   5   9  1   
  9   5  24  1   
 10   5  25  1   
 11   6  10  1   
 12   6  26  1   
 13   6  27  1   
 14   7  11  1   
 15   7  12  ar  
 16   8  13  ar  
 17   8  28  1   
 18   9  14  1   
 19   9  15  1   
 20   9  29  1   
 21  10  14  1   
 22  10  16  1   
 23  10  30  1   
 24  11  31  1   
 25  11  32  1   
 26  12  17  ar  
 27  12  33  1   
 28  13  17  ar  
 29  13  18  1   
 30  15  19  1   
 31  15  20  1   
 32  15  34  1   
 33  16  21  1   
 34  16  35  1   
 35  16  36  1   
 36  17  37  1   
 37  18  38  1   
 38  19  39  1   
 39  19  40  1   
 40  19  41  1   
 41  20  42  1   
 42  20  43  1   
 43  20  44  1   
 44  21  22  1   
 45  21  45  1   
 46  21  46  1   
 47  22  23  1   
 48  22  47  1   
 49  22  48  1   
 50  23  49  1   
 51  23  50  1   
 52  23  51  1   
@<TRIPOS>SUBSTRUCTURE
  1 ****   3 GROUP 4 **** **** 0

# MOE 2024.06 (io_trps.svl 2023.06)
