@<TRIPOS>MOLECULE
NONAME
49 51 1 0 0 
SMALL
USER_CHARGES


@<TRIPOS>ATOM
  1 O       -0.0930     1.0690    -1.7900 O.2   1 <1>  -0.5700 
  2 C       -0.1440     2.2080    -1.3650 C.2   1 <1>   0.5440 
  3 N       -1.3030     2.9400    -1.5330 N.am  1 <1>  -0.6600 
  4 C        1.0050     2.7690    -0.6830 C.ar  1 <1>   0.0860 
  5 C       -1.5440     4.2730    -0.9240 C.3   1 <1>   0.1400 
  6 C       -2.4770     2.4160    -2.2820 C.3   1 <1>   0.1400 
  7 C        1.3550     2.3990     0.6240 C.ar  1 <1>  -0.1440 
  8 C        1.7900     3.7250    -1.3290 C.ar  1 <1>  -0.1500 
  9 C       -2.7160     4.1660     0.0560 C.3   1 <1>  -0.1600 
 10 C       -3.6650     2.2970    -1.3250 C.3   1 <1>  -0.1600 
 11 C        2.4450     2.9820     1.2490 C.ar  1 <1>  -0.1500 
 12 C        0.5390     1.3490     1.3660 C.3   1 <1>  -0.0970 
 13 C        2.8760     4.3080    -0.7050 C.ar  1 <1>  -0.1500 
 14 C       -3.9950     3.6250    -0.6200 C.3   1 <1>   0.2800 
 15 C        3.2000     3.9360     0.5860 C.ar  1 <1>   0.0830 
 16 O       -4.3630     4.5070    -1.6410 O.3   1 <1>  -0.5600 
 17 C       -5.1590     3.4010     0.3840 C.3   1 <1>  -0.1600 
 18 O        4.2510     4.5060     1.1850 O.3   1 <1>  -0.5320 
 19 C       -4.9380     5.7600    -1.3510 C.3   1 <1>   0.1200 
 20 C       -6.3660     4.3380     0.2130 C.3   1 <1>   0.2800 
 21 C       -5.8750     5.7630    -0.1270 C.3   1 <1>   0.2000 
 22 O       -7.1360     3.8730    -0.8370 O.3   1 <1>  -0.6800 
 23 C       -7.2860     4.2970     1.4370 C.3   1 <1>  -0.2400 
 24 O       -5.1880     6.3150     0.9590 O.3   1 <1>  -0.6800 
 25 H       -0.6720     4.6290    -0.4040 H     1 <1>   0.0800 
 26 H       -1.7790     4.9780    -1.7040 H     1 <1>   0.0800 
 27 H       -2.7160     3.0950    -3.0820 H     1 <1>   0.0800 
 28 H       -2.2590     1.4550    -2.7150 H     1 <1>   0.0800 
 29 H        1.5360     4.0080    -2.3360 H     1 <1>   0.1500 
 30 H       -2.8890     5.1290     0.4910 H     1 <1>   0.0800 
 31 H       -2.4240     3.5030     0.8500 H     1 <1>   0.0800 
 32 H       -3.4300     1.5440    -0.5950 H     1 <1>   0.0800 
 33 H       -4.5270     1.9620    -1.8740 H     1 <1>   0.0800 
 34 H        2.7110     2.6960     2.2500 H     1 <1>   0.1500 
 35 H        0.9070     1.2020     2.3660 H     1 <1>   0.0800 
 36 H        0.5930     0.4100     0.8430 H     1 <1>   0.0800 
 37 H       -0.4910     1.6510     1.4220 H     1 <1>   0.0800 
 38 H        3.4750     5.0450    -1.2100 H     1 <1>   0.1500 
 39 H       -5.5000     2.3820     0.3520 H     1 <1>   0.0800 
 40 H       -4.7690     3.5350     1.3760 H     1 <1>   0.0800 
 41 H        4.4320     4.1600     2.0770 H     1 <1>   0.4500 
 42 H       -4.1510     6.4830    -1.2370 H     1 <1>   0.0800 
 43 H       -5.5140     6.0250    -2.2200 H     1 <1>   0.0800 
 44 H       -6.7160     6.4070    -0.3130 H     1 <1>   0.0800 
 45 H       -7.4080     2.9540    -0.6680 H     1 <1>   0.4000 
 46 H       -6.7650     4.6470     2.3100 H     1 <1>   0.0800 
 47 H       -7.6260     3.2950     1.6290 H     1 <1>   0.0800 
 48 H       -8.1360     4.9380     1.2820 H     1 <1>   0.0800 
 49 H       -4.4180     5.7590     1.1740 H     1 <1>   0.4000 
@<TRIPOS>BOND
  1   1   2  2   
  2   2   3  am  
  3   2   4  1   
  4   3   5  1   
  5   3   6  1   
  6   4   7  ar  
  7   4   8  ar  
  8   5   9  1   
  9   5  25  1   
 10   5  26  1   
 11   6  10  1   
 12   6  27  1   
 13   6  28  1   
 14   7  11  ar  
 15   7  12  1   
 16   8  13  ar  
 17   8  29  1   
 18   9  14  1   
 19   9  30  1   
 20   9  31  1   
 21  10  14  1   
 22  10  32  1   
 23  10  33  1   
 24  11  15  ar  
 25  11  34  1   
 26  12  35  1   
 27  12  36  1   
 28  12  37  1   
 29  13  15  ar  
 30  13  38  1   
 31  14  16  1   
 32  14  17  1   
 33  15  18  1   
 34  16  19  1   
 35  17  20  1   
 36  17  39  1   
 37  17  40  1   
 38  18  41  1   
 39  19  21  1   
 40  19  42  1   
 41  19  43  1   
 42  20  21  1   
 43  20  22  1   
 44  20  23  1   
 45  21  24  1   
 46  21  44  1   
 47  22  45  1   
 48  23  46  1   
 49  23  47  1   
 50  23  48  1   
 51  24  49  1   
@<TRIPOS>SUBSTRUCTURE
  1 ****   5 GROUP 4 **** **** 0

# MOE 2024.06 (io_trps.svl 2023.06)
