@<TRIPOS>MOLECULE
NONAME
48 51 1 0 0 
SMALL
USER_CHARGES


@<TRIPOS>ATOM
  1 F        0.2370    -0.7200     0.3030 F     1 <1>  -0.3400 
  2 C        0.0870    -2.0090     0.5720 C.3   1 <1>   0.8800 
  3 F        1.3130    -2.4990     0.7000 F     1 <1>  -0.3400 
  4 O       -0.5300    -2.6160    -0.5400 O.3   1 <1>  -0.3630 
  5 C       -0.9580    -3.8990    -0.5140 C.ar  1 <1>   0.0830 
  6 C       -0.8140    -4.7550     0.5750 C.ar  1 <1>  -0.1500 
  7 C       -1.5710    -4.3730    -1.6620 C.ar  1 <1>  -0.1500 
  8 C       -1.2840    -6.0550     0.5010 C.ar  1 <1>  -0.1500 
  9 C       -2.0350    -5.6730    -1.7270 C.ar  1 <1>  -0.1500 
 10 C       -1.9090    -6.5480    -0.6470 C.ar  1 <1>   0.0860 
 11 C       -2.4000    -7.9140    -0.7290 C.2   1 <1>   0.5440 
 12 O       -2.5480    -8.4690    -1.8010 O.2   1 <1>  -0.5700 
 13 N       -2.7800    -8.6240     0.3860 N.am  1 <1>  -0.6600 
 14 C       -3.9380    -8.1510     1.2000 C.3   1 <1>   0.1400 
 15 C       -2.6190   -10.1070     0.3790 C.3   1 <1>   0.1400 
 16 C       -5.2570    -8.8540     0.7810 C.3   1 <1>   0.4230 
 17 C       -3.9160   -10.7760    -0.1070 C.3   1 <1>   0.3430 
 18 N       -5.1120   -10.3660     0.7240 N.4   1 <1>  -0.9590 
 19 C       -5.7850    -8.2970    -0.5630 C.3   1 <1>   0.1200 
 20 C       -6.3960   -10.9810     0.2380 C.3   1 <1>   0.5180 
 21 O       -6.9850    -8.9280    -0.9060 O.3   1 <1>  -0.5600 
 22 C       -6.2340   -12.5130     0.1570 C.3   1 <1>  -0.1950 
 23 C       -6.8810   -10.3150    -1.0740 C.3   1 <1>   0.1200 
 24 C       -5.7210   -13.2590    -1.0410 C.3   1 <1>  -0.2000 
 25 C       -7.1610   -13.3880    -0.6330 C.3   1 <1>  -0.2000 
 26 H       -0.4660    -2.1320     1.4850 H     1 <1>   0.0800 
 27 H       -0.3300    -4.4370     1.4810 H     1 <1>   0.1500 
 28 H       -1.6780    -3.7160    -2.5080 H     1 <1>   0.1500 
 29 H       -1.1500    -6.7060     1.3470 H     1 <1>   0.1500 
 30 H       -2.4990    -6.0220    -2.6350 H     1 <1>   0.1500 
 31 H       -3.7410    -8.3490     2.2390 H     1 <1>   0.0800 
 32 H       -4.0510    -7.0850     1.0930 H     1 <1>   0.0800 
 33 H       -1.8120   -10.3800    -0.2800 H     1 <1>   0.0800 
 34 H       -2.3660   -10.4510     1.3660 H     1 <1>   0.0800 
 35 H       -5.9990    -8.6050     1.5230 H     1 <1>   0.0800 
 36 H       -3.7870   -11.8450    -0.0700 H     1 <1>   0.0800 
 37 H       -4.0700   -10.4980    -1.1370 H     1 <1>   0.0800 
 38 H       -4.9580   -10.7090     1.6770 H     1 <1>   0.4500 
 39 H       -5.0790    -8.4420    -1.3620 H     1 <1>   0.0800 
 40 H       -5.9870    -7.2430    -0.4770 H     1 <1>   0.0800 
 41 H       -7.1610   -10.7870     0.9710 H     1 <1>   0.0800 
 42 H       -5.9800   -12.9120     1.1240 H     1 <1>   0.1000 
 43 H       -7.8600   -10.6770    -1.3340 H     1 <1>   0.0800 
 44 H       -6.2140   -10.5150    -1.8930 H     1 <1>   0.0800 
 45 H       -5.5210   -12.7620    -1.9760 H     1 <1>   0.1000 
 46 H       -5.0840   -14.1160    -0.8970 H     1 <1>   0.1000 
 47 H       -7.4850   -14.3230    -0.2050 H     1 <1>   0.1000 
 48 H       -7.9060   -12.9750    -1.2930 H     1 <1>   0.1000 
@<TRIPOS>BOND
  1   1   2  1   
  2   2   3  1   
  3   2   4  1   
  4   2  26  1   
  5   4   5  1   
  6   5   6  ar  
  7   5   7  ar  
  8   6   8  ar  
  9   6  27  1   
 10   7   9  ar  
 11   7  28  1   
 12   8  10  ar  
 13   8  29  1   
 14   9  10  ar  
 15   9  30  1   
 16  10  11  1   
 17  11  12  2   
 18  11  13  am  
 19  13  14  1   
 20  13  15  1   
 21  14  16  1   
 22  14  31  1   
 23  14  32  1   
 24  15  17  1   
 25  15  33  1   
 26  15  34  1   
 27  16  18  1   
 28  16  19  1   
 29  16  35  1   
 30  17  18  1   
 31  17  36  1   
 32  17  37  1   
 33  18  20  1   
 34  18  38  1   
 35  19  21  1   
 36  19  39  1   
 37  19  40  1   
 38  20  22  1   
 39  20  23  1   
 40  20  41  1   
 41  21  23  1   
 42  22  24  1   
 43  22  25  1   
 44  22  42  1   
 45  23  43  1   
 46  23  44  1   
 47  24  25  1   
 48  24  45  1   
 49  24  46  1   
 50  25  47  1   
 51  25  48  1   
@<TRIPOS>SUBSTRUCTURE
  1 ****  11 GROUP 4 **** **** 0

# MOE 2024.06 (io_trps.svl 2023.06)
