@<TRIPOS>MOLECULE
NONAME
42 44 1 0 0 
SMALL
USER_CHARGES


@<TRIPOS>ATOM
  1 S        0.0880     0.2730     1.3730 S.o2  1 <1>   1.4470 
  2 O        0.6010    -0.8380     2.1400 O.2   1 <1>  -0.6500 
  3 O       -0.4100     1.4550     2.0390 O.2   1 <1>  -0.6500 
  4 N        1.3910     0.8170     0.4270 N.am  1 <1>  -0.8490 
  5 C       -1.1370    -0.2880     0.1520 C.ar  1 <1>  -0.0090 
  6 C        2.3800     1.5010     1.2970 C.3   1 <1>   0.1960 
  7 C        2.0310    -0.2790    -0.3210 C.3   1 <1>   0.1960 
  8 C       -1.3520    -1.6400    -0.0900 C.ar  1 <1>  -0.1500 
  9 C       -1.8770     0.6240    -0.5900 C.ar  1 <1>  -0.1500 
 10 C        3.5040     2.2940     0.5670 C.3   1 <1>   0.4230 
 11 C        2.9890     0.2430    -1.4140 C.3   1 <1>  -0.0800 
 12 C       -2.2640    -2.0630    -1.0410 C.ar  1 <1>  -0.1500 
 13 C       -2.7910     0.2050    -1.5420 C.ar  1 <1>  -0.1500 
 14 N        3.1560     2.7600    -0.8370 N.4   1 <1>  -0.9590 
 15 C        4.8580     1.5540     0.6090 C.3   1 <1>   0.1200 
 16 C        4.4710    -0.0310    -1.1160 C.3   1 <1>   0.1200 
 17 C        2.7000     1.7010    -1.8060 C.3   1 <1>   0.3430 
 18 C       -2.9980    -1.1470    -1.7850 C.ar  1 <1>   0.0730 
 19 C        2.1080     3.8250    -0.7640 C.3   1 <1>   0.2630 
 20 O        4.7600     0.2210     0.2180 O.3   1 <1>  -0.5600 
 21 C       -3.9410    -1.5830    -2.7760 C.1   1 <1>   0.4840 
 22 N       -4.6830    -1.9280    -3.5690 N.1   1 <1>  -0.5570 
 23 H        1.8640     2.2180     1.9120 H     1 <1>   0.0800 
 24 H        2.8210     0.7890     1.9760 H     1 <1>   0.0800 
 25 H        2.5400    -0.9500     0.3540 H     1 <1>   0.0800 
 26 H        1.2660    -0.8560    -0.8140 H     1 <1>   0.0800 
 27 H       -0.8020    -2.3750     0.4770 H     1 <1>   0.1500 
 28 H       -1.7410     1.6790    -0.4140 H     1 <1>   0.1500 
 29 H        3.6660     3.1800     1.1580 H     1 <1>   0.0800 
 30 H        2.7710    -0.3350    -2.2940 H     1 <1>   0.0800 
 31 H       -2.4110    -3.1190    -1.2050 H     1 <1>   0.1500 
 32 H       -3.3540     0.9360    -2.0990 H     1 <1>   0.1500 
 33 H        4.0090     3.1800    -1.2280 H     1 <1>   0.4500 
 34 H        5.2140     1.5410     1.6240 H     1 <1>   0.0800 
 35 H        5.6000     2.0460     0.0050 H     1 <1>   0.0800 
 36 H        5.1320     0.5430    -1.7440 H     1 <1>   0.0800 
 37 H        4.6800    -1.0760    -1.2780 H     1 <1>   0.0800 
 38 H        1.6330     1.7850    -1.9360 H     1 <1>   0.0800 
 39 H        3.1510     1.8940    -2.7660 H     1 <1>   0.0800 
 40 H        1.1950     3.4180    -0.3590 H     1 <1>   0.0800 
 41 H        1.9040     4.2200    -1.7460 H     1 <1>   0.0800 
 42 H        2.4340     4.6340    -0.1310 H     1 <1>   0.0800 
@<TRIPOS>BOND
  1   1   2  2   
  2   1   3  2   
  3   1   4  am  
  4   1   5  1   
  5   4   6  1   
  6   4   7  1   
  7   5   8  ar  
  8   5   9  ar  
  9   6  10  1   
 10   6  23  1   
 11   6  24  1   
 12   7  11  1   
 13   7  25  1   
 14   7  26  1   
 15   8  12  ar  
 16   8  27  1   
 17   9  13  ar  
 18   9  28  1   
 19  10  14  1   
 20  10  15  1   
 21  10  29  1   
 22  11  16  1   
 23  11  17  1   
 24  11  30  1   
 25  12  18  ar  
 26  12  31  1   
 27  13  18  ar  
 28  13  32  1   
 29  14  17  1   
 30  14  19  1   
 31  14  33  1   
 32  15  20  1   
 33  15  34  1   
 34  15  35  1   
 35  16  20  1   
 36  16  36  1   
 37  16  37  1   
 38  17  38  1   
 39  17  39  1   
 40  18  21  1   
 41  19  40  1   
 42  19  41  1   
 43  19  42  1   
 44  21  22  3   
@<TRIPOS>SUBSTRUCTURE
  1 ****   4 GROUP 4 **** **** 0

# MOE 2024.06 (io_trps.svl 2023.06)
