@<TRIPOS>MOLECULE
NONAME
54 56 1 0 0 
SMALL
USER_CHARGES


@<TRIPOS>ATOM
  1 F       -3.3340    -0.8680    -2.9590 F     1 <1>  -0.3400 
  2 C       -3.5540    -2.1520    -2.6980 C.3   1 <1>   1.1640 
  3 F       -2.3830    -2.7620    -2.8390 F     1 <1>  -0.3400 
  4 F       -4.3300    -2.6020    -3.6750 F     1 <1>  -0.3400 
  5 C       -4.1860    -2.3820    -1.3150 C.ar  1 <1>  -0.1440 
  6 C       -3.9920    -3.5820    -0.6390 C.ar  1 <1>  -0.1500 
  7 C       -4.9690    -1.4030    -0.7110 C.ar  1 <1>  -0.1500 
  8 C       -4.5570    -3.7940     0.6050 C.ar  1 <1>  -0.1500 
  9 C       -5.5350    -1.6160     0.5340 C.ar  1 <1>  -0.1500 
 10 C       -5.3350    -2.8140     1.2010 C.ar  1 <1>  -0.1430 
 11 C       -5.9490    -3.0490     2.5810 C.3   1 <1>   0.0440 
 12 C       -6.5740    -4.4300     2.7420 C.2   1 <1>   0.5690 
 13 O       -5.9640    -5.2210     3.4250 O.2   1 <1>  -0.5700 
 14 N       -7.7720    -4.7730     2.1520 N.am  1 <1>  -0.6600 
 15 C       -8.5300    -3.8720     1.2310 C.3   1 <1>   0.2200 
 16 C       -8.3050    -6.1540     2.3840 C.3   1 <1>   0.0600 
 17 C       -9.8830    -3.4510     1.8040 C.3   1 <1>  -0.1600 
 18 C       -8.8450    -4.4990    -0.1280 C.3   1 <1>  -0.1600 
 19 C      -10.7380    -3.0910     0.5800 C.3   1 <1>  -0.0800 
 20 C      -10.0600    -3.7150    -0.6440 C.3   1 <1>  -0.0800 
 21 C      -12.1680    -3.6520     0.5940 C.3   1 <1>  -0.1600 
 22 C      -11.1380    -4.5640    -1.3390 C.3   1 <1>  -0.1600 
 23 C      -12.4840    -4.0050    -0.8630 C.3   1 <1>   0.4230 
 24 N      -12.8700    -2.7780    -1.6330 N.4   1 <1>  -0.9590 
 25 C      -14.1390    -2.1590    -1.1290 C.3   1 <1>   0.2630 
 26 C      -13.0230    -3.0350    -3.1020 C.3   1 <1>   0.2630 
 27 H       -3.3940    -4.3650    -1.0770 H     1 <1>   0.1500 
 28 H       -5.1410    -0.4610    -1.2060 H     1 <1>   0.1500 
 29 H       -4.3840    -4.7300     1.1110 H     1 <1>   0.1500 
 30 H       -6.1270    -0.8370     0.9830 H     1 <1>   0.1500 
 31 H       -6.6910    -2.3060     2.8010 H     1 <1>   0.0800 
 32 H       -5.1710    -2.9430     3.3160 H     1 <1>   0.0800 
 33 H       -7.9710    -2.9750     1.0360 H     1 <1>   0.0800 
 34 H       -9.3640    -6.2020     2.2120 H     1 <1>   0.0800 
 35 H       -8.1140    -6.4570     3.3990 H     1 <1>   0.0800 
 36 H       -7.8090    -6.8420     1.7230 H     1 <1>   0.0800 
 37 H      -10.3270    -4.2590     2.3540 H     1 <1>   0.0800 
 38 H       -9.7710    -2.6080     2.4620 H     1 <1>   0.0800 
 39 H       -8.0050    -4.4060    -0.7930 H     1 <1>   0.0800 
 40 H       -9.0890    -5.5380    -0.0190 H     1 <1>   0.0800 
 41 H      -10.7600    -2.0200     0.4590 H     1 <1>   0.0800 
 42 H       -9.7250    -2.9260    -1.2980 H     1 <1>   0.0800 
 43 H      -12.8660    -2.9830     1.0610 H     1 <1>   0.0800 
 44 H      -12.1860    -4.5720     1.1520 H     1 <1>   0.0800 
 45 H      -11.0790    -5.5780    -0.9840 H     1 <1>   0.0800 
 46 H      -11.0080    -4.5960    -2.4040 H     1 <1>   0.0800 
 47 H      -13.2620    -4.7490    -0.9280 H     1 <1>   0.0800 
 48 H      -12.1030    -2.1040    -1.5000 H     1 <1>   0.4500 
 49 H      -14.9480    -2.8700    -1.1760 H     1 <1>   0.0800 
 50 H      -14.4000    -1.3020    -1.7300 H     1 <1>   0.0800 
 51 H      -14.0270    -1.8300    -0.1100 H     1 <1>   0.0800 
 52 H      -13.7530    -3.8100    -3.2730 H     1 <1>   0.0800 
 53 H      -12.0860    -3.3410    -3.5370 H     1 <1>   0.0800 
 54 H      -13.3470    -2.1390    -3.6060 H     1 <1>   0.0800 
@<TRIPOS>BOND
  1   1   2  1   
  2   2   3  1   
  3   2   4  1   
  4   2   5  1   
  5   5   6  ar  
  6   5   7  ar  
  7   6   8  ar  
  8   6  27  1   
  9   7   9  ar  
 10   7  28  1   
 11   8  10  ar  
 12   8  29  1   
 13   9  10  ar  
 14   9  30  1   
 15  10  11  1   
 16  11  12  1   
 17  11  31  1   
 18  11  32  1   
 19  12  13  2   
 20  12  14  am  
 21  14  15  1   
 22  14  16  1   
 23  15  17  1   
 24  15  18  1   
 25  15  33  1   
 26  16  34  1   
 27  16  35  1   
 28  16  36  1   
 29  17  19  1   
 30  17  37  1   
 31  17  38  1   
 32  18  20  1   
 33  18  39  1   
 34  18  40  1   
 35  19  20  1   
 36  19  21  1   
 37  19  41  1   
 38  20  22  1   
 39  20  42  1   
 40  21  23  1   
 41  21  43  1   
 42  21  44  1   
 43  22  23  1   
 44  22  45  1   
 45  22  46  1   
 46  23  24  1   
 47  23  47  1   
 48  24  25  1   
 49  24  26  1   
 50  24  48  1   
 51  25  49  1   
 52  25  50  1   
 53  25  51  1   
 54  26  52  1   
 55  26  53  1   
 56  26  54  1   
@<TRIPOS>SUBSTRUCTURE
  1 ****  18 GROUP 4 **** **** 0

# MOE 2024.06 (io_trps.svl 2023.06)
