@<TRIPOS>MOLECULE
NONAME
48 50 1 0 0 
SMALL
USER_CHARGES


@<TRIPOS>ATOM
  1 O       -0.3340     0.7830     0.8080 O.2   1 <1>  -0.5700 
  2 C       -0.0760     1.9130     0.4360 C.2   1 <1>   0.6900 
  3 N       -1.0740     2.8510     0.3240 N.am  1 <1>  -0.6600 
  4 N        1.2070     2.2840     0.1530 N.am  1 <1>  -0.5470 
  5 C       -2.4430     2.5840     0.8620 C.3   1 <1>   0.1400 
  6 C       -0.9760     4.1130    -0.4610 C.3   1 <1>   0.1400 
  7 C        2.3980     1.5480     0.0560 C.ar  1 <1>   0.1170 
  8 C       -3.4940     2.5170    -0.2750 C.3   1 <1>   0.0000 
  9 C       -1.9960     4.0990    -1.6050 C.3   1 <1>  -0.1600 
 10 C        3.6230     2.1780     0.2900 C.ar  1 <1>  -0.1430 
 11 C        2.3950     0.2010    -0.2950 C.ar  1 <1>  -0.1500 
 12 C       -4.9180     2.2680     0.2640 C.3   1 <1>   0.2000 
 13 C       -3.4240     3.8180    -1.1040 C.3   1 <1>  -0.1600 
 14 C       -3.2700     1.2650    -1.1420 C.3   1 <1>  -0.1600 
 15 C        4.8010     1.4580     0.1700 C.ar  1 <1>  -0.1500 
 16 C        3.6950     3.6480     0.6820 C.3   1 <1>  -0.0970 
 17 C        3.5720    -0.5170    -0.4100 C.ar  1 <1>  -0.1430 
 18 O       -5.1640     2.9050     1.4680 O.3   1 <1>  -0.6800 
 19 C       -5.0740     0.7540     0.4290 C.3   1 <1>  -0.1600 
 20 C       -3.9330     0.1180    -0.3760 C.3   1 <1>  -0.1600 
 21 C        4.7780     0.1190    -0.1780 C.ar  1 <1>  -0.1500 
 22 C        3.5430    -1.9860    -0.7900 C.3   1 <1>  -0.0970 
 23 H        1.3270     3.2870     0.1340 H     1 <1>   0.3700 
 24 H       -2.4540     1.6710     1.4310 H     1 <1>   0.0800 
 25 H       -2.6910     3.3850     1.5360 H     1 <1>   0.0800 
 26 H       -1.1760     4.9450     0.1930 H     1 <1>   0.0800 
 27 H        0.0090     4.2390    -0.8750 H     1 <1>   0.0800 
 28 H       -1.9760     5.0490    -2.1080 H     1 <1>   0.0800 
 29 H       -1.7050     3.3490    -2.3200 H     1 <1>   0.0800 
 30 H        1.4580    -0.2890    -0.4830 H     1 <1>   0.1500 
 31 H       -5.6420     2.6250    -0.4500 H     1 <1>   0.0800 
 32 H       -4.0950     3.7610    -1.9430 H     1 <1>   0.0800 
 33 H       -3.7460     4.6400    -0.4860 H     1 <1>   0.0800 
 34 H       -3.7700     1.3840    -2.0870 H     1 <1>   0.0800 
 35 H       -2.2300     1.0620    -1.3310 H     1 <1>   0.0800 
 36 H        5.7490     1.9320     0.3480 H     1 <1>   0.1500 
 37 H        4.7060     3.9370     0.9060 H     1 <1>   0.0800 
 38 H        3.0950     3.8240     1.5580 H     1 <1>   0.0800 
 39 H        3.3380     4.2630    -0.1240 H     1 <1>   0.0800 
 40 H       -4.6880     2.4480     2.1860 H     1 <1>   0.4000 
 41 H       -5.0030     0.4520     1.4590 H     1 <1>   0.0800 
 42 H       -6.0250     0.4460     0.0330 H     1 <1>   0.0800 
 43 H       -3.2140    -0.3200     0.2970 H     1 <1>   0.0800 
 44 H       -4.2890    -0.6460    -1.0450 H     1 <1>   0.0800 
 45 H        5.7020    -0.4250    -0.2660 H     1 <1>   0.1500 
 46 H        4.2900    -2.5280    -0.2390 H     1 <1>   0.0800 
 47 H        3.7370    -2.0940    -1.8420 H     1 <1>   0.0800 
 48 H        2.5820    -2.4140    -0.5700 H     1 <1>   0.0800 
@<TRIPOS>BOND
  1   1   2  2   
  2   2   3  am  
  3   2   4  am  
  4   3   5  1   
  5   3   6  1   
  6   4   7  1   
  7   4  23  1   
  8   5   8  1   
  9   5  24  1   
 10   5  25  1   
 11   6   9  1   
 12   6  26  1   
 13   6  27  1   
 14   7  10  ar  
 15   7  11  ar  
 16   8  12  1   
 17   8  13  1   
 18   8  14  1   
 19   9  13  1   
 20   9  28  1   
 21   9  29  1   
 22  10  15  ar  
 23  10  16  1   
 24  11  17  ar  
 25  11  30  1   
 26  12  18  1   
 27  12  19  1   
 28  12  31  1   
 29  13  32  1   
 30  13  33  1   
 31  14  20  1   
 32  14  34  1   
 33  14  35  1   
 34  15  21  ar  
 35  15  36  1   
 36  16  37  1   
 37  16  38  1   
 38  16  39  1   
 39  17  21  ar  
 40  17  22  1   
 41  18  40  1   
 42  19  20  1   
 43  19  41  1   
 44  19  42  1   
 45  20  43  1   
 46  20  44  1   
 47  21  45  1   
 48  22  46  1   
 49  22  47  1   
 50  22  48  1   
@<TRIPOS>SUBSTRUCTURE
  1 ****   2 GROUP 4 **** **** 0

# MOE 2024.06 (io_trps.svl 2023.06)
