@<TRIPOS>MOLECULE
NONAME
55 59 1 0 0 
SMALL
USER_CHARGES


@<TRIPOS>ATOM
  1 S       -0.0480     0.0370    -1.7630 S.o2  1 <1>   1.4470 
  2 O       -0.7150    -1.1550    -2.2400 O.2   1 <1>  -0.6500 
  3 O        0.0790     1.1870    -2.6320 O.2   1 <1>  -0.6500 
  4 N       -0.8860     0.5510    -0.3830 N.am  1 <1>  -0.8490 
  5 C        1.5890    -0.3800    -1.1070 C.ar  1 <1>  -0.0090 
  6 C       -2.1400     1.2370    -0.7540 C.3   1 <1>   0.1960 
  7 C       -1.1680    -0.5540     0.5410 C.3   1 <1>   0.1960 
  8 C        2.3180     0.5600    -0.3890 C.ar  1 <1>  -0.1500 
  9 C        2.1460    -1.6490    -1.3040 C.ar  1 <1>  -0.1500 
 10 C       -2.8350     1.8580     0.4740 C.3   1 <1>   0.1440 
 11 C       -1.7990    -0.0170     1.8310 C.3   1 <1>  -0.1600 
 12 C        3.5650     0.2280     0.1200 C.ar  1 <1>   0.1170 
 13 C        3.3910    -1.9860    -0.7990 C.ar  1 <1>  -0.1500 
 14 C       -4.1170     2.5260     0.0150 C.ar  1 <1>   0.1660 
 15 C       -3.0870     0.7670     1.5360 C.3   1 <1>  -0.1600 
 16 C       -2.0210     3.0510     1.0450 C.3   1 <1>  -0.1600 
 17 N        4.4800     0.9640     0.8610 N.am  1 <1>  -0.4770 
 18 C        4.0970    -1.0340    -0.0820 C.ar  1 <1>   0.1170 
 19 N       -5.2110     1.9000    -0.3570 N.ar  1 <1>  -0.6200 
 20 C       -4.0020     3.8840     0.0100 C.ar  1 <1>  -0.1430 
 21 C       -2.6360     4.3360     0.4610 C.3   1 <1>  -0.0160 
 22 C        5.5560     0.1520     1.1000 C.2   1 <1>   0.6900 
 23 C        4.3490     2.3800     1.2670 C.3   1 <1>   0.0600 
 24 N        5.3400    -1.0760     0.5360 N.am  1 <1>  -0.4770 
 25 C       -6.2010     2.7010    -0.7260 C.ar  1 <1>   0.4770 
 26 C       -5.0910     4.6160    -0.3930 C.ar  1 <1>   0.1600 
 27 O        6.5590     0.4760     1.7210 O.2   1 <1>  -0.5700 
 28 C        6.2730    -2.2220     0.5590 C.3   1 <1>   0.0600 
 29 N       -6.2080     4.0270    -0.7660 N.ar  1 <1>  -0.6200 
 30 C       -7.4730     2.0130    -1.1580 C.3   1 <1>  -0.0970 
 31 H       -2.8100     0.5390    -1.2300 H     1 <1>   0.0800 
 32 H       -1.9330     2.0230    -1.4610 H     1 <1>   0.0800 
 33 H       -0.2530    -1.0670     0.7880 H     1 <1>   0.0800 
 34 H       -1.8350    -1.2630     0.0770 H     1 <1>   0.0800 
 35 H        1.9180     1.5440    -0.2250 H     1 <1>   0.1500 
 36 H        1.5890    -2.3830    -1.8640 H     1 <1>   0.1500 
 37 H       -1.0860     0.6130     2.3330 H     1 <1>   0.0800 
 38 H       -2.0230    -0.8410     2.4850 H     1 <1>   0.0800 
 39 H        3.8100    -2.9640    -0.9550 H     1 <1>   0.1500 
 40 H       -3.8280     0.0810     1.1590 H     1 <1>   0.0800 
 41 H       -3.4810     1.2020     2.4370 H     1 <1>   0.0800 
 42 H       -0.9720     2.9770     0.8180 H     1 <1>   0.0800 
 43 H       -2.1330     3.0850     2.1140 H     1 <1>   0.0800 
 44 H       -2.0700     4.6760    -0.3890 H     1 <1>   0.0800 
 45 H       -2.6970     5.1170     1.1980 H     1 <1>   0.0800 
 46 H        3.4660     2.5030     1.8670 H     1 <1>   0.0800 
 47 H        4.2810     3.0000     0.3910 H     1 <1>   0.0800 
 48 H        5.2100     2.6760     1.8410 H     1 <1>   0.0800 
 49 H       -5.0490     5.6920    -0.4130 H     1 <1>   0.1500 
 50 H        5.8000    -3.0630     1.0320 H     1 <1>   0.0800 
 51 H        7.1600    -1.9610     1.1110 H     1 <1>   0.0800 
 52 H        6.5500    -2.4820    -0.4470 H     1 <1>   0.0800 
 53 H       -7.7060     1.2190    -0.4740 H     1 <1>   0.0800 
 54 H       -7.3390     1.6060    -2.1410 H     1 <1>   0.0800 
 55 H       -8.2900     2.7110    -1.1740 H     1 <1>   0.0800 
@<TRIPOS>BOND
  1   1   2  2   
  2   1   3  2   
  3   1   4  am  
  4   1   5  1   
  5   4   6  1   
  6   4   7  1   
  7   5   8  ar  
  8   5   9  ar  
  9   6  10  1   
 10   6  31  1   
 11   6  32  1   
 12   7  11  1   
 13   7  33  1   
 14   7  34  1   
 15   8  12  ar  
 16   8  35  1   
 17   9  13  ar  
 18   9  36  1   
 19  10  14  1   
 20  10  15  1   
 21  10  16  1   
 22  11  15  1   
 23  11  37  1   
 24  11  38  1   
 25  12  17  1   
 26  12  18  ar  
 27  13  18  ar  
 28  13  39  1   
 29  14  19  ar  
 30  14  20  ar  
 31  15  40  1   
 32  15  41  1   
 33  16  21  1   
 34  16  42  1   
 35  16  43  1   
 36  17  22  am  
 37  17  23  1   
 38  18  24  1   
 39  19  25  ar  
 40  20  21  1   
 41  20  26  ar  
 42  21  44  1   
 43  21  45  1   
 44  22  24  am  
 45  22  27  2   
 46  23  46  1   
 47  23  47  1   
 48  23  48  1   
 49  24  28  1   
 50  25  29  ar  
 51  25  30  1   
 52  26  29  ar  
 53  26  49  1   
 54  28  50  1   
 55  28  51  1   
 56  28  52  1   
 57  30  53  1   
 58  30  54  1   
 59  30  55  1   
@<TRIPOS>SUBSTRUCTURE
  1 ****   4 GROUP 4 **** **** 0

# MOE 2024.06 (io_trps.svl 2023.06)
