@<TRIPOS>MOLECULE
NONAME
52 55 1 0 0 
SMALL
USER_CHARGES


@<TRIPOS>ATOM
  1 S       -0.2930     0.2990     1.6900 S.o2  1 <1>   1.4470 
  2 O       -0.9830    -0.7880     2.3530 O.2   1 <1>  -0.6500 
  3 O       -0.0990     1.5490     2.3930 O.2   1 <1>  -0.6500 
  4 N       -1.1990     0.6610     0.3040 N.am  1 <1>  -0.8490 
  5 C        1.2880    -0.2710     1.0080 C.ar  1 <1>  -0.0090 
  6 C       -2.4470     1.3640     0.6570 C.3   1 <1>   0.1960 
  7 C       -1.4900    -0.5340    -0.4960 C.3   1 <1>   0.1960 
  8 C        1.7610    -1.5550     1.2510 C.ar  1 <1>  -0.1500 
  9 C        2.0580     0.5560     0.2020 C.ar  1 <1>  -0.1500 
 10 C       -3.1970     1.8510    -0.5990 C.3   1 <1>   0.1440 
 11 C       -2.1870    -0.1390    -1.8040 C.3   1 <1>  -0.1600 
 12 C        2.9500    -1.9950     0.6990 C.ar  1 <1>  -0.1500 
 13 C        3.2470     0.1160    -0.3500 C.ar  1 <1>  -0.1500 
 14 C       -4.4670     2.5520    -0.1580 C.ar  1 <1>   0.1670 
 15 C       -3.4750     0.6550    -1.5330 C.3   1 <1>  -0.1600 
 16 C       -2.4190     2.9870    -1.3180 C.3   1 <1>  -0.1600 
 17 C        3.7240    -1.1750    -0.1210 C.ar  1 <1>  -0.1790 
 18 N       -5.5370     1.9580     0.3110 N.ar  1 <1>  -0.6200 
 19 C       -4.3650     3.9030    -0.2890 C.ar  1 <1>  -0.1440 
 20 C       -3.0210     4.3180    -0.8320 C.3   1 <1>  -0.0170 
 21 C        4.9720    -1.6450    -0.7130 C.2   1 <1>   0.9790 
 22 C       -6.5390     2.7730     0.6480 C.ar  1 <1>   0.7200 
 23 C       -5.4450     4.6620     0.0830 C.ar  1 <1>   0.1600 
 24 O        5.3750    -2.8020    -0.5020 O.co2 1 <1>  -0.9000 
 25 O        5.6470    -0.8980    -1.4430 O.co2 1 <1>  -0.9000 
 26 N       -6.5380     4.1070     0.5520 N.ar  1 <1>  -0.6200 
 27 N       -7.6830     2.1820     1.1470 N.pl3 1 <1>  -0.8380 
 28 C       -7.9350     0.7190     1.0290 C.3   1 <1>   0.1290 
 29 C       -8.7330     2.9650     1.8540 C.3   1 <1>   0.1290 
 30 H       -2.2240     2.2170     1.2750 H     1 <1>   0.0800 
 31 H       -3.0870     0.7070     1.2250 H     1 <1>   0.0800 
 32 H       -2.1190    -1.2080     0.0640 H     1 <1>   0.0800 
 33 H       -0.5740    -1.0490    -0.7350 H     1 <1>   0.0800 
 34 H        1.1950    -2.2220     1.8760 H     1 <1>   0.1500 
 35 H        1.7220     1.5580     0.0000 H     1 <1>   0.1500 
 36 H       -2.4240    -1.0280    -2.3610 H     1 <1>   0.0800 
 37 H       -1.5070     0.4470    -2.3970 H     1 <1>   0.0800 
 38 H        3.3010    -2.9960     0.8960 H     1 <1>   0.1500 
 39 H        3.8310     0.7730    -0.9750 H     1 <1>   0.1500 
 40 H       -3.9130     0.9930    -2.4560 H     1 <1>   0.0800 
 41 H       -4.1880     0.0030    -1.0580 H     1 <1>   0.0800 
 42 H       -2.5800     2.9160    -2.3790 H     1 <1>   0.0800 
 43 H       -1.3600     2.9410    -1.1330 H     1 <1>   0.0800 
 44 H       -3.1160     5.0270    -1.6360 H     1 <1>   0.0800 
 45 H       -2.4240     4.7370    -0.0400 H     1 <1>   0.0800 
 46 H       -5.4140     5.7340    -0.0030 H     1 <1>   0.1500 
 47 H       -7.4540     0.3230     0.1510 H     1 <1>   0.0800 
 48 H       -8.9900     0.5300     0.9500 H     1 <1>   0.0800 
 49 H       -7.5460     0.2170     1.8980 H     1 <1>   0.0800 
 50 H       -8.3040     3.8300     2.3300 H     1 <1>   0.0800 
 51 H       -9.2000     2.3600     2.6110 H     1 <1>   0.0800 
 52 H       -9.4770     3.2890     1.1470 H     1 <1>   0.0800 
@<TRIPOS>BOND
  1   1   2  2   
  2   1   3  2   
  3   1   4  am  
  4   1   5  1   
  5   4   6  1   
  6   4   7  1   
  7   5   8  ar  
  8   5   9  ar  
  9   6  10  1   
 10   6  30  1   
 11   6  31  1   
 12   7  11  1   
 13   7  32  1   
 14   7  33  1   
 15   8  12  ar  
 16   8  34  1   
 17   9  13  ar  
 18   9  35  1   
 19  10  14  1   
 20  10  15  1   
 21  10  16  1   
 22  11  15  1   
 23  11  36  1   
 24  11  37  1   
 25  12  17  ar  
 26  12  38  1   
 27  13  17  ar  
 28  13  39  1   
 29  14  18  ar  
 30  14  19  ar  
 31  15  40  1   
 32  15  41  1   
 33  16  20  1   
 34  16  42  1   
 35  16  43  1   
 36  17  21  1   
 37  18  22  ar  
 38  19  20  1   
 39  19  23  ar  
 40  20  44  1   
 41  20  45  1   
 42  21  24  ar  
 43  21  25  ar  
 44  22  26  ar  
 45  22  27  1   
 46  23  26  ar  
 47  23  46  1   
 48  27  28  1   
 49  27  29  1   
 50  28  47  1   
 51  28  48  1   
 52  28  49  1   
 53  29  50  1   
 54  29  51  1   
 55  29  52  1   
@<TRIPOS>SUBSTRUCTURE
  1 ****   4 GROUP 4 **** **** 0

# MOE 2024.06 (io_trps.svl 2023.06)
