@<TRIPOS>MOLECULE
NONAME
38 39 1 0 0 
SMALL
USER_CHARGES


@<TRIPOS>ATOM
  1 S       -1.1610    -0.1410     0.9980 S.3   1 <1>  -0.3320 
  2 C       -0.9950     1.4580     0.2320 C.ar  1 <1>   0.7220 
  3 C       -1.5690    -1.2790    -0.4110 C.3   1 <1>   0.1310 
  4 N       -1.0900     1.4780    -1.0880 N.ar  1 <1>  -0.6200 
  5 N       -0.8060     2.4550     1.0770 N.ar  1 <1>  -0.6200 
  6 C       -2.0590    -2.6280     0.0990 C.2   1 <1>   0.5690 
  7 C       -0.9650     2.6690    -1.6270 C.ar  1 <1>   0.1660 
  8 C       -0.6850     3.6310     0.5050 C.ar  1 <1>   0.1600 
  9 O       -1.4260    -3.6070    -0.2300 O.2   1 <1>  -0.5700 
 10 N       -3.1990    -2.7520     0.8550 N.am  1 <1>  -0.6600 
 11 C       -0.7570     3.7930    -0.8590 C.ar  1 <1>  -0.1500 
 12 C       -1.0580     2.7540    -3.1360 C.3   1 <1>  -0.0970 
 13 C       -3.6290    -4.0960     1.3430 C.3   1 <1>   0.3200 
 14 C       -4.1690    -1.6480     1.1320 C.3   1 <1>   0.1400 
 15 C       -4.3760    -4.8400     0.2500 C.2   1 <1>   0.0060 
 16 C       -4.0810    -1.1990     2.5960 C.3   1 <1>   0.1200 
 17 N       -5.6220    -5.1900     0.2990 N.2   1 <1>  -0.5650 
 18 N       -3.7570    -5.2010    -0.8930 N.pl3 1 <1>   0.0330 
 19 O       -4.6420     0.0620     2.7260 O.3   1 <1>  -0.6800 
 20 C       -5.8250    -5.8130    -0.8780 C.2   1 <1>   0.0770 
 21 C       -4.6960    -5.8290    -1.6210 C.2   1 <1>  -0.3020 
 22 H       -0.6700    -1.3960    -0.9880 H     1 <1>   0.0800 
 23 H       -2.3240    -0.8090    -1.0110 H     1 <1>   0.0800 
 24 H       -0.5230     4.4860     1.1410 H     1 <1>   0.1500 
 25 H       -0.6540     4.7650    -1.3020 H     1 <1>   0.1500 
 26 H       -0.2840     2.1550    -3.5800 H     1 <1>   0.0800 
 27 H       -0.9490     3.7680    -3.4740 H     1 <1>   0.0800 
 28 H       -2.0130     2.3810    -3.4610 H     1 <1>   0.0800 
 29 H       -4.2690    -3.9940     2.2020 H     1 <1>   0.0800 
 30 H       -2.7680    -4.6690     1.6400 H     1 <1>   0.0800 
 31 H       -5.1680    -1.9920     0.9230 H     1 <1>   0.0800 
 32 H       -3.9690    -0.8100     0.4900 H     1 <1>   0.0800 
 33 H       -3.0590    -1.1430     2.9290 H     1 <1>   0.0800 
 34 H       -4.6320    -1.8720     3.2300 H     1 <1>   0.0800 
 35 H       -2.7730    -4.9950    -1.1180 H     1 <1>   0.2700 
 36 H       -4.0130     0.7480     2.4210 H     1 <1>   0.4000 
 37 H       -6.7880    -6.2230    -1.1330 H     1 <1>   0.1500 
 38 H       -4.5150    -6.2390    -2.5980 H     1 <1>   0.1500 
@<TRIPOS>BOND
  1   1   2  1   
  2   1   3  1   
  3   2   4  ar  
  4   2   5  ar  
  5   3   6  1   
  6   3  22  1   
  7   3  23  1   
  8   4   7  ar  
  9   5   8  ar  
 10   6   9  2   
 11   6  10  am  
 12   7  11  ar  
 13   7  12  1   
 14   8  11  ar  
 15   8  24  1   
 16  10  13  1   
 17  10  14  1   
 18  11  25  1   
 19  12  26  1   
 20  12  27  1   
 21  12  28  1   
 22  13  15  1   
 23  13  29  1   
 24  13  30  1   
 25  14  16  1   
 26  14  31  1   
 27  14  32  1   
 28  15  17  2   
 29  15  18  1   
 30  16  19  1   
 31  16  33  1   
 32  16  34  1   
 33  17  20  1   
 34  18  21  1   
 35  18  35  1   
 36  19  36  1   
 37  20  21  2   
 38  20  37  1   
 39  21  38  1   
@<TRIPOS>SUBSTRUCTURE
  1 ****   3 GROUP 4 **** **** 0

# MOE 2024.06 (io_trps.svl 2023.06)
