@<TRIPOS>MOLECULE
NONAME
50 53 1 0 0 
SMALL
USER_CHARGES


@<TRIPOS>ATOM
  1 O       -0.2960     0.2520    -0.1420 O.2   1 <1>  -0.5700 
  2 C       -1.3670     0.8130    -0.1370 C.2   1 <1>   0.5690 
  3 N       -2.5370     0.1080    -0.1400 N.am  1 <1>  -0.6600 
  4 C       -1.4160     2.3330    -0.1340 C.3   1 <1>  -0.0990 
  5 C       -3.9100     0.6680    -0.1850 C.3   1 <1>   0.1400 
  6 C       -2.5730    -1.3740    -0.1050 C.3   1 <1>   0.1400 
  7 C       -0.0380     2.9910     0.0320 C.3   1 <1>   0.0210 
  8 C       -4.8200    -0.5450    -0.3800 C.3   1 <1>   0.2000 
  9 C       -4.0340    -1.7310     0.1730 C.3   1 <1>  -0.0800 
 10 C       -0.1160     4.5100     0.0540 C.2   1 <1>  -0.1810 
 11 O       -6.0160    -0.4000     0.3020 O.3   1 <1>  -0.6800 
 12 C       -4.4630    -3.0790    -0.4250 C.3   1 <1>   0.0210 
 13 C        1.0230     5.3330     0.2110 C.ar  1 <1>   0.0000 
 14 C       -1.1930     5.3270    -0.0610 C.2   1 <1>  -0.3020 
 15 C       -3.5720    -4.2010     0.0710 C.2   1 <1>   0.1080 
 16 C        0.5700     6.6480     0.1830 C.ar  1 <1>  -0.1520 
 17 C        2.3890     5.0800     0.3740 C.ar  1 <1>  -0.1500 
 18 N       -0.7900     6.6290     0.0160 N.pl3 1 <1>   0.0330 
 19 N       -3.4330    -4.4850     1.3290 N.2   1 <1>  -0.7070 
 20 C       -2.8050    -5.0290    -0.7420 C.2   1 <1>  -0.1500 
 21 C        1.4580     7.7180     0.3150 C.ar  1 <1>  -0.1500 
 22 C        3.2640     6.1340     0.5040 C.ar  1 <1>  -0.1500 
 23 N       -2.5650    -5.5130     1.3520 N.pl3 1 <1>   0.3000 
 24 C       -2.1690    -5.8610     0.1100 C.2   1 <1>  -0.3320 
 25 C        2.7990     7.4540     0.4740 C.ar  1 <1>  -0.1500 
 26 C       -1.1910    -6.9810    -0.1920 C.3   1 <1>  -0.0600 
 27 H       -1.8480     2.6590    -1.0610 H     1 <1>   0.0800 
 28 H       -2.0470     2.6520     0.6730 H     1 <1>   0.0800 
 29 H       -4.1230     1.1570     0.7500 H     1 <1>   0.0800 
 30 H       -4.0140     1.3570    -1.0040 H     1 <1>   0.0800 
 31 H       -2.2550    -1.7540    -1.0600 H     1 <1>   0.0800 
 32 H       -1.9220    -1.7580     0.6640 H     1 <1>   0.0800 
 33 H        0.6020     2.6880    -0.7780 H     1 <1>   0.0800 
 34 H        0.4090     2.6530     0.9510 H     1 <1>   0.0800 
 35 H       -5.0380    -0.6690    -1.4270 H     1 <1>   0.0800 
 36 H       -4.1460    -1.7720     1.2430 H     1 <1>   0.0800 
 37 H       -5.8690    -0.4850     1.2650 H     1 <1>   0.4000 
 38 H       -4.4190    -3.0390    -1.4980 H     1 <1>   0.0800 
 39 H       -5.4770    -3.2930    -0.1380 H     1 <1>   0.0800 
 40 H       -2.2280     5.0690    -0.1950 H     1 <1>   0.1500 
 41 H        2.7340     4.0630     0.3940 H     1 <1>   0.1500 
 42 H       -1.3870     7.4600    -0.0410 H     1 <1>   0.2700 
 43 H       -2.7490    -4.9920    -1.8150 H     1 <1>   0.1500 
 44 H        1.0910     8.7290     0.2920 H     1 <1>   0.1500 
 45 H        4.3170     5.9520     0.6290 H     1 <1>   0.1500 
 46 H       -2.2630    -5.9530     2.2300 H     1 <1>   0.2700 
 47 H        3.5040     8.2600     0.5780 H     1 <1>   0.1500 
 48 H       -1.0370    -7.0620    -1.2530 H     1 <1>   0.0800 
 49 H       -1.5750    -7.9180     0.1710 H     1 <1>   0.0800 
 50 H       -0.2440    -6.7840     0.2770 H     1 <1>   0.0800 
@<TRIPOS>BOND
  1   1   2  2   
  2   2   3  am  
  3   2   4  1   
  4   3   5  1   
  5   3   6  1   
  6   4   7  1   
  7   4  27  1   
  8   4  28  1   
  9   5   8  1   
 10   5  29  1   
 11   5  30  1   
 12   6   9  1   
 13   6  31  1   
 14   6  32  1   
 15   7  10  1   
 16   7  33  1   
 17   7  34  1   
 18   8   9  1   
 19   8  11  1   
 20   8  35  1   
 21   9  12  1   
 22   9  36  1   
 23  10  13  1   
 24  10  14  2   
 25  11  37  1   
 26  12  15  1   
 27  12  38  1   
 28  12  39  1   
 29  13  16  ar  
 30  13  17  ar  
 31  14  18  1   
 32  14  40  1   
 33  15  19  2   
 34  15  20  1   
 35  16  18  1   
 36  16  21  ar  
 37  17  22  ar  
 38  17  41  1   
 39  18  42  1   
 40  19  23  1   
 41  20  24  2   
 42  20  43  1   
 43  21  25  ar  
 44  21  44  1   
 45  22  25  ar  
 46  22  45  1   
 47  23  24  1   
 48  23  46  1   
 49  24  26  1   
 50  25  47  1   
 51  26  48  1   
 52  26  49  1   
 53  26  50  1   
@<TRIPOS>SUBSTRUCTURE
  1 ****   2 GROUP 4 **** **** 0

# MOE 2024.06 (io_trps.svl 2023.06)
