@<TRIPOS>MOLECULE
NONAME
53 55 1 0 0 
SMALL
USER_CHARGES


@<TRIPOS>ATOM
  1 O       -0.1340    -0.3160     2.1840 O.2   1 <1>  -0.5700 
  2 C       -0.7050     0.4440     1.4290 C.2   1 <1>   0.5690 
  3 N       -1.9450     0.0890     0.9430 N.am  1 <1>  -0.6600 
  4 C       -0.0150     1.8060     1.0880 C.3   1 <1>   0.3410 
  5 C       -2.8660     0.9170     0.1250 C.3   1 <1>   0.1400 
  6 C       -2.5420    -1.2500     1.1840 C.3   1 <1>   0.1400 
  7 O       -0.3140     2.1580    -0.2710 O.3   1 <1>  -0.3630 
  8 C       -0.5230     2.8940     2.0530 C.3   1 <1>  -0.2400 
  9 C        1.5190     1.7020     1.2190 C.3   1 <1>  -0.2400 
 10 C       -4.2210     0.2260     0.2590 C.3   1 <1>   0.2000 
 11 C       -3.8800    -1.2560     0.4250 C.3   1 <1>  -0.0800 
 12 C        0.0040     3.3690    -0.8050 C.ar  1 <1>   0.0820 
 13 O       -4.8170     0.6590     1.4320 O.3   1 <1>  -0.6800 
 14 C       -3.7610    -1.9510    -0.9470 C.3   1 <1>  -0.0170 
 15 C       -0.9230     4.4150    -0.8250 C.ar  1 <1>   0.0820 
 16 C        1.2510     3.5340    -1.3890 C.ar  1 <1>  -0.1500 
 17 C       -3.6230    -3.4590    -0.8060 C.ar  1 <1>   0.1670 
 18 O       -2.1610     4.1950    -0.2970 O.3   1 <1>  -0.3630 
 19 C       -0.5550     5.6340    -1.3900 C.ar  1 <1>  -0.1500 
 20 C        1.6040     4.7480    -1.9500 C.ar  1 <1>  -0.1500 
 21 N       -2.3940    -3.9480    -0.8310 N.ar  1 <1>  -0.6200 
 22 C       -4.7630    -4.2370    -0.6630 C.ar  1 <1>  -0.1500 
 23 C       -3.1460     5.2040    -0.2700 C.3   1 <1>   0.0400 
 24 C        0.7030     5.7980    -1.9450 C.ar  1 <1>  -0.1500 
 25 C       -2.2930    -5.2610    -0.7050 C.ar  1 <1>   0.1600 
 26 C       -4.6450    -5.6040    -0.5330 C.ar  1 <1>  -0.1500 
 27 C       -3.3680    -6.1210    -0.5560 C.ar  1 <1>  -0.1500 
 28 H       -2.9110     1.9340     0.4670 H     1 <1>   0.0800 
 29 H       -2.5390     0.8970    -0.9000 H     1 <1>   0.0800 
 30 H       -1.8720    -2.0230     0.8490 H     1 <1>   0.0800 
 31 H       -2.7090    -1.3720     2.2400 H     1 <1>   0.0800 
 32 H       -0.2990     2.6050     3.0640 H     1 <1>   0.0800 
 33 H       -1.5870     3.0050     1.9710 H     1 <1>   0.0800 
 34 H       -0.0460     3.8370     1.8620 H     1 <1>   0.0800 
 35 H        1.7820     1.3770     2.2090 H     1 <1>   0.0800 
 36 H        1.9900     2.6530     1.0550 H     1 <1>   0.0800 
 37 H        1.8970     0.9780     0.5200 H     1 <1>   0.0800 
 38 H       -4.8880     0.4380    -0.5580 H     1 <1>   0.0800 
 39 H       -4.6400    -1.7600     0.9960 H     1 <1>   0.0800 
 40 H       -4.1540     0.6030     2.1510 H     1 <1>   0.4000 
 41 H       -2.9150    -1.5650    -1.4900 H     1 <1>   0.0800 
 42 H       -4.6400    -1.7450    -1.5300 H     1 <1>   0.0800 
 43 H        1.9420     2.7120    -1.4070 H     1 <1>   0.1500 
 44 H       -1.2310     6.4670    -1.4140 H     1 <1>   0.1500 
 45 H        2.5770     4.8740    -2.3930 H     1 <1>   0.1500 
 46 H       -5.7350    -3.7790    -0.6510 H     1 <1>   0.1500 
 47 H       -4.0270     4.7980     0.1940 H     1 <1>   0.0800 
 48 H       -3.3690     5.5020    -1.2790 H     1 <1>   0.0800 
 49 H       -2.7800     6.0350     0.3070 H     1 <1>   0.0800 
 50 H        0.9800     6.7430    -2.3800 H     1 <1>   0.1500 
 51 H       -1.2990    -5.6740    -0.7210 H     1 <1>   0.1500 
 52 H       -5.5080    -6.2370    -0.4200 H     1 <1>   0.1500 
 53 H       -3.2030    -7.1790    -0.4590 H     1 <1>   0.1500 
@<TRIPOS>BOND
  1   1   2  2   
  2   2   3  am  
  3   2   4  1   
  4   3   5  1   
  5   3   6  1   
  6   4   7  1   
  7   4   8  1   
  8   4   9  1   
  9   5  10  1   
 10   5  28  1   
 11   5  29  1   
 12   6  11  1   
 13   6  30  1   
 14   6  31  1   
 15   7  12  1   
 16   8  32  1   
 17   8  33  1   
 18   8  34  1   
 19   9  35  1   
 20   9  36  1   
 21   9  37  1   
 22  10  11  1   
 23  10  13  1   
 24  10  38  1   
 25  11  14  1   
 26  11  39  1   
 27  12  15  ar  
 28  12  16  ar  
 29  13  40  1   
 30  14  17  1   
 31  14  41  1   
 32  14  42  1   
 33  15  18  1   
 34  15  19  ar  
 35  16  20  ar  
 36  16  43  1   
 37  17  21  ar  
 38  17  22  ar  
 39  18  23  1   
 40  19  24  ar  
 41  19  44  1   
 42  20  24  ar  
 43  20  45  1   
 44  21  25  ar  
 45  22  26  ar  
 46  22  46  1   
 47  23  47  1   
 48  23  48  1   
 49  23  49  1   
 50  24  50  1   
 51  25  27  ar  
 52  25  51  1   
 53  26  27  ar  
 54  26  52  1   
 55  27  53  1   
@<TRIPOS>SUBSTRUCTURE
  1 ****   3 GROUP 4 **** **** 0

# MOE 2024.06 (io_trps.svl 2023.06)
