@<TRIPOS>MOLECULE
NONAME
51 53 1 0 0 
SMALL
USER_CHARGES


@<TRIPOS>ATOM
  1 S        1.0990     1.8210    -0.2690 S.o2  1 <1>   1.3330 
  2 O        0.4110     0.7250    -0.9140 O.2   1 <1>  -0.6500 
  3 O        1.3330     1.7670     1.1570 O.2   1 <1>  -0.6500 
  4 N        2.6150     1.9980    -1.0120 N.am  1 <1>  -0.8490 
  5 C        0.2630     3.3390    -0.7270 C.3   1 <1>  -0.0550 
  6 C        3.3000     0.7120    -1.1590 C.3   1 <1>   0.1160 
  7 C        3.4920     2.9520    -0.3150 C.3   1 <1>   0.1160 
  8 C       -1.1710     3.5200    -0.1720 C.3   1 <1>  -0.0800 
  9 C       -1.6960     4.8840    -0.5990 C.3   1 <1>   0.2000 
 10 C       -1.2250     3.6470     1.3570 C.3   1 <1>   0.1100 
 11 O       -3.0670     4.9150    -0.4060 O.3   1 <1>  -0.6800 
 12 C       -1.0390     5.8230     0.4150 C.3   1 <1>   0.1100 
 13 N       -0.8390     5.0360     1.6650 N.3   1 <1>  -0.8100 
 14 C        0.5420     5.0650     2.2350 C.3   1 <1>   0.2530 
 15 C        1.3460     6.3340     1.9620 C.ar  1 <1>   0.1670 
 16 N        2.2860     6.2640     1.0640 N.ar  1 <1>  -0.6200 
 17 C        1.0390     7.5030     2.6710 C.ar  1 <1>  -0.1500 
 18 C        3.0140     7.3850     0.7920 C.ar  1 <1>   0.3100 
 19 C        1.7490     8.6390     2.4360 C.ar  1 <1>  -0.1500 
 20 C        4.0350     7.3560    -0.1980 C.ar  1 <1>   0.0820 
 21 C        2.7730     8.6010     1.4730 C.ar  1 <1>   0.0000 
 22 O        4.2420     6.1850    -0.8640 O.3   1 <1>  -0.3620 
 23 C        4.7780     8.4880    -0.4660 C.ar  1 <1>  -0.1500 
 24 C        3.5530     9.7320     1.1700 C.ar  1 <1>  -0.1500 
 25 C        5.1160     6.0850    -1.9660 C.3   1 <1>   0.0400 
 26 C        4.5350     9.6770     0.2220 C.ar  1 <1>  -0.1500 
 27 H        0.8710     4.1660    -0.4210 H     1 <1>   0.0800 
 28 H        0.2120     3.3740    -1.7980 H     1 <1>   0.0800 
 29 H        4.2460     0.8490    -1.6530 H     1 <1>   0.0800 
 30 H        2.7020     0.0430    -1.7550 H     1 <1>   0.0800 
 31 H        3.4640     0.2630    -0.1940 H     1 <1>   0.0800 
 32 H        4.4140     3.0720    -0.8560 H     1 <1>   0.0800 
 33 H        3.7140     2.6070     0.6820 H     1 <1>   0.0800 
 34 H        3.0230     3.9180    -0.2440 H     1 <1>   0.0800 
 35 H       -1.7980     2.7210    -0.5280 H     1 <1>   0.0800 
 36 H       -1.4870     5.1400    -1.6230 H     1 <1>   0.0800 
 37 H       -0.6250     2.9220     1.8770 H     1 <1>   0.0800 
 38 H       -2.2410     3.5010     1.6830 H     1 <1>   0.0800 
 39 H       -3.2330     4.9270     0.5580 H     1 <1>   0.4000 
 40 H       -1.6440     6.6940     0.5990 H     1 <1>   0.0800 
 41 H       -0.1020     6.1450    -0.0030 H     1 <1>   0.0800 
 42 H        0.4730     4.9210     3.2980 H     1 <1>   0.0800 
 43 H        1.1170     4.2420     1.8500 H     1 <1>   0.0800 
 44 H        0.2390     7.4770     3.3900 H     1 <1>   0.1500 
 45 H        1.5440     9.5540     2.9630 H     1 <1>   0.1500 
 46 H        5.5600     8.4940    -1.2020 H     1 <1>   0.1500 
 47 H        3.3610    10.6480     1.7010 H     1 <1>   0.1500 
 48 H        5.0470     5.0860    -2.3580 H     1 <1>   0.0800 
 49 H        6.1210     6.2780    -1.6340 H     1 <1>   0.0800 
 50 H        4.8130     6.7920    -2.7170 H     1 <1>   0.0800 
 51 H        5.1300    10.5460    -0.0050 H     1 <1>   0.1500 
@<TRIPOS>BOND
  1   1   2  2   
  2   1   3  2   
  3   1   4  am  
  4   1   5  1   
  5   4   6  1   
  6   4   7  1   
  7   5   8  1   
  8   5  27  1   
  9   5  28  1   
 10   6  29  1   
 11   6  30  1   
 12   6  31  1   
 13   7  32  1   
 14   7  33  1   
 15   7  34  1   
 16   8   9  1   
 17   8  10  1   
 18   8  35  1   
 19   9  11  1   
 20   9  12  1   
 21   9  36  1   
 22  10  13  1   
 23  10  37  1   
 24  10  38  1   
 25  11  39  1   
 26  12  13  1   
 27  12  40  1   
 28  12  41  1   
 29  13  14  1   
 30  14  15  1   
 31  14  42  1   
 32  14  43  1   
 33  15  16  ar  
 34  15  17  ar  
 35  16  18  ar  
 36  17  19  ar  
 37  17  44  1   
 38  18  20  ar  
 39  18  21  ar  
 40  19  21  ar  
 41  19  45  1   
 42  20  22  1   
 43  20  23  ar  
 44  21  24  ar  
 45  22  25  1   
 46  23  26  ar  
 47  23  46  1   
 48  24  26  ar  
 49  24  47  1   
 50  25  48  1   
 51  25  49  1   
 52  25  50  1   
 53  26  51  1   
@<TRIPOS>SUBSTRUCTURE
  1 ****  16 GROUP 4 **** **** 0

# MOE 2024.06 (io_trps.svl 2023.06)
