@<TRIPOS>MOLECULE
NONAME
42 45 1 0 0 
SMALL
USER_CHARGES


@<TRIPOS>ATOM
  1 S        1.5760    -1.0300     2.4210 S.3   1 <1>  -0.0800 
  2 C        1.5190    -1.2130     0.6480 C.2   1 <1>  -0.0450 
  3 C        1.9840     0.6770     2.3190 C.2   1 <1>  -0.1100 
  4 C        1.7990    -0.0040     0.0920 C.2   1 <1>   0.0620 
  5 C        1.2050    -2.4990     0.0930 C.2   1 <1>   0.7150 
  6 C        2.0650     1.0480     1.0310 C.2   1 <1>   0.0620 
  7 O        1.8370     0.2460    -1.2340 O.3   1 <1>  -0.3420 
  8 O        1.1440    -2.6900    -1.1080 O.2   1 <1>  -0.5700 
  9 N        0.9440    -3.5570     0.9140 N.am  1 <1>  -0.7300 
 10 O        2.3710     2.3060     0.6120 O.3   1 <1>  -0.3420 
 11 C        1.8560     1.5970    -1.6510 C.3   1 <1>   0.1200 
 12 C        0.5400    -4.9060     0.4620 C.3   1 <1>   0.2200 
 13 C        2.7760     2.4250    -0.7400 C.3   1 <1>   0.1200 
 14 C       -0.9760    -4.9850     0.4270 C.3   1 <1>  -0.0800 
 15 C        0.8830    -5.9380     1.5320 C.3   1 <1>   0.1200 
 16 C       -1.3130    -5.3220     1.8820 C.3   1 <1>   0.1200 
 17 C       -1.4640    -6.0670    -0.5540 C.3   1 <1>  -0.0160 
 18 O       -0.1860    -5.9440     2.4310 O.3   1 <1>  -0.5600 
 19 C       -2.9820    -6.1020    -0.6280 C.ar  1 <1>  -0.1430 
 20 C       -3.6950    -5.1290    -1.2990 C.ar  1 <1>  -0.1500 
 21 C       -3.7260    -7.1010    -0.0320 C.ar  1 <1>  -0.1500 
 22 C       -5.0780    -5.1960    -1.3370 C.ar  1 <1>   0.1600 
 23 C       -5.1080    -7.0750    -0.1300 C.ar  1 <1>   0.1600 
 24 N       -5.8020    -6.1460    -0.7670 N.ar  1 <1>  -0.6200 
 25 H        2.1240     1.2260     3.2320 H     1 <1>   0.1500 
 26 H        0.9010    -3.4000     1.9230 H     1 <1>   0.3700 
 27 H        2.2020     1.6230    -2.6680 H     1 <1>   0.0800 
 28 H        0.8500     1.9740    -1.6100 H     1 <1>   0.0800 
 29 H        1.0010    -5.1340    -0.4850 H     1 <1>   0.0800 
 30 H        2.7380     3.4660    -1.0050 H     1 <1>   0.0800 
 31 H        3.7910     2.0770    -0.8180 H     1 <1>   0.0800 
 32 H       -1.4080    -4.0420     0.1400 H     1 <1>   0.0800 
 33 H        1.7950    -5.7080     2.0540 H     1 <1>   0.0800 
 34 H        0.9500    -6.9210     1.1010 H     1 <1>   0.0800 
 35 H       -2.1600    -5.9790     1.9810 H     1 <1>   0.0800 
 36 H       -1.4930    -4.4230     2.4460 H     1 <1>   0.0800 
 37 H       -1.0930    -7.0340    -0.2610 H     1 <1>   0.0800 
 38 H       -1.0790    -5.8560    -1.5370 H     1 <1>   0.0800 
 39 H       -3.1880    -4.3190    -1.7920 H     1 <1>   0.1500 
 40 H       -3.2480    -7.8970     0.5070 H     1 <1>   0.1500 
 41 H       -5.6160    -4.4270    -1.8640 H     1 <1>   0.1500 
 42 H       -5.6720    -7.8620     0.3410 H     1 <1>   0.1500 
@<TRIPOS>BOND
  1   1   2  1   
  2   1   3  1   
  3   2   4  2   
  4   2   5  1   
  5   3   6  2   
  6   3  25  1   
  7   4   6  1   
  8   4   7  1   
  9   5   8  2   
 10   5   9  am  
 11   6  10  1   
 12   7  11  1   
 13   9  12  1   
 14   9  26  1   
 15  10  13  1   
 16  11  13  1   
 17  11  27  1   
 18  11  28  1   
 19  12  14  1   
 20  12  15  1   
 21  12  29  1   
 22  13  30  1   
 23  13  31  1   
 24  14  16  1   
 25  14  17  1   
 26  14  32  1   
 27  15  18  1   
 28  15  33  1   
 29  15  34  1   
 30  16  18  1   
 31  16  35  1   
 32  16  36  1   
 33  17  19  1   
 34  17  37  1   
 35  17  38  1   
 36  19  20  ar  
 37  19  21  ar  
 38  20  22  ar  
 39  20  39  1   
 40  21  23  ar  
 41  21  40  1   
 42  22  24  ar  
 43  22  41  1   
 44  23  24  ar  
 45  23  42  1   
@<TRIPOS>SUBSTRUCTURE
  1 ****   9 GROUP 4 **** **** 0

# MOE 2024.06 (io_trps.svl 2023.06)
