@<TRIPOS>MOLECULE
Untitled Document
44 44 1 0 0 
SMALL
USER_CHARGES


@<TRIPOS>ATOM
  1 O        5.5280     1.8820    -1.2330 O.3   1 <1>  -0.5320 
  2 C        4.4120     2.4780    -0.7920 C.ar  1 <1>   0.0830 
  3 C        3.7910     3.4190    -1.5910 C.ar  1 <1>  -0.1500 
  4 C        3.8900     2.1560     0.4490 C.ar  1 <1>  -0.1500 
  5 C        2.6360     4.0400    -1.1520 C.ar  1 <1>  -0.1500 
  6 C        2.7330     2.7780     0.8860 C.ar  1 <1>  -0.1500 
  7 C        2.0960     3.7180     0.0870 C.ar  1 <1>  -0.1430 
  8 C        0.8160     4.3910     0.5550 C.3   1 <1>  -0.0170 
  9 C       -0.4060     3.9100    -0.2620 C.3   1 <1>   0.4230 
 10 N       -1.6490     4.6930     0.0790 N.4   1 <1>  -0.9590 
 11 C       -0.6480     2.4140    -0.0090 C.3   1 <1>  -0.2400 
 12 C       -2.8680     4.1990    -0.6430 C.3   1 <1>   0.3430 
 13 C       -1.4810     6.1570    -0.1530 C.3   1 <1>   0.3430 
 14 C       -4.1480     4.7630    -0.0170 C.3   1 <1>  -0.1600 
 15 C       -1.5620     6.8730     1.1890 C.3   1 <1>  -0.2400 
 16 C       -5.3870     4.1160    -0.6530 C.3   1 <1>  -0.1600 
 17 C       -6.6750     4.6160     0.0010 C.3   1 <1>   0.1200 
 18 O       -7.7290     3.9180    -0.5480 O.3   1 <1>  -0.6800 
 19 H        5.9010     1.2440    -0.6000 H     1 <1>   0.4500 
 20 H        4.2180     3.6590    -2.5490 H     1 <1>   0.1500 
 21 H        4.3760     1.4280     1.0720 H     1 <1>   0.1500 
 22 H        2.1720     4.7750    -1.7860 H     1 <1>   0.1500 
 23 H        2.3380     2.5200     1.8530 H     1 <1>   0.1500 
 24 H        0.9700     5.4470     0.4440 H     1 <1>   0.0800 
 25 H        0.6600     4.1870     1.5990 H     1 <1>   0.0800 
 26 H       -0.1800     4.0450    -1.3080 H     1 <1>   0.0800 
 27 H       -1.8180     4.5560     1.0830 H     1 <1>   0.4500 
 28 H       -0.9900     2.2390     0.9960 H     1 <1>   0.0800 
 29 H        0.2640     1.8610    -0.1460 H     1 <1>   0.0800 
 30 H       -1.3450     1.9980    -0.7110 H     1 <1>   0.0800 
 31 H       -2.9270     3.1260    -0.5780 H     1 <1>   0.0800 
 32 H       -2.8160     4.4660    -1.6860 H     1 <1>   0.0800 
 33 H       -2.2570     6.5280    -0.8040 H     1 <1>   0.0800 
 34 H       -0.5340     6.3630    -0.6260 H     1 <1>   0.0800 
 35 H       -4.2050     5.8270    -0.1620 H     1 <1>   0.0800 
 36 H       -4.1530     4.5520     1.0380 H     1 <1>   0.0800 
 37 H       -2.5200     6.7180     1.6520 H     1 <1>   0.0800 
 38 H       -1.4400     7.9310     1.0320 H     1 <1>   0.0800 
 39 H       -0.7830     6.5470     1.8540 H     1 <1>   0.0800 
 40 H       -5.3360     3.0460    -0.5270 H     1 <1>   0.0800 
 41 H       -5.4150     4.3390    -1.7060 H     1 <1>   0.0800 
 42 H       -6.8340     5.6680    -0.1700 H     1 <1>   0.0800 
 43 H       -6.6740     4.4200     1.0610 H     1 <1>   0.0800 
 44 H       -7.8790     4.1710    -1.4800 H     1 <1>   0.4000 
@<TRIPOS>BOND
  1   1   2  1   
  2   1  19  1   
  3   2   3  ar  
  4   2   4  ar  
  5   3   5  ar  
  6   3  20  1   
  7   4   6  ar  
  8   4  21  1   
  9   5   7  ar  
 10   5  22  1   
 11   6   7  ar  
 12   6  23  1   
 13   7   8  1   
 14   8   9  1   
 15   8  24  1   
 16   8  25  1   
 17   9  10  1   
 18   9  11  1   
 19   9  26  1   
 20  10  12  1   
 21  10  13  1   
 22  10  27  1   
 23  11  28  1   
 24  11  29  1   
 25  11  30  1   
 26  12  14  1   
 27  12  31  1   
 28  12  32  1   
 29  13  15  1   
 30  13  33  1   
 31  13  34  1   
 32  14  16  1   
 33  14  35  1   
 34  14  36  1   
 35  15  37  1   
 36  15  38  1   
 37  15  39  1   
 38  16  17  1   
 39  16  40  1   
 40  16  41  1   
 41  17  18  1   
 42  17  42  1   
 43  17  43  1   
 44  18  44  1   
@<TRIPOS>SUBSTRUCTURE
  1 ****   9 GROUP 4 **** **** 0

# MOE 2024.06 (io_trps.svl 2023.06)
