@<TRIPOS>MOLECULE
NONAME
50 51 1 0 0 
SMALL
USER_CHARGES


@<TRIPOS>ATOM
  1 S        0.4400     0.7020    -1.4040 S.o2  1 <1>   1.3330 
  2 O        0.6550    -0.5950    -2.0060 O.2   1 <1>  -0.6500 
  3 O       -0.3020     1.7110    -2.1250 O.2   1 <1>  -0.6500 
  4 N       -0.3590     0.4590     0.0770 N.am  1 <1>  -0.8490 
  5 C        2.0380     1.3640    -0.9250 C.3   1 <1>  -0.0550 
  6 C       -1.3740    -0.5960    -0.0120 C.3   1 <1>   0.1160 
  7 C       -0.9640     1.6820     0.6160 C.3   1 <1>   0.1160 
  8 C        2.9530     0.3480    -0.2050 C.3   1 <1>  -0.0800 
  9 C        4.3710     0.8350     0.0500 C.3   1 <1>   0.2200 
 10 C        2.4870    -0.0820     1.1920 C.3   1 <1>   0.1200 
 11 N        4.3680     2.2300     0.5490 N.am  1 <1>  -0.7300 
 12 C        4.7780    -0.0880     1.1880 C.3   1 <1>   0.1200 
 13 O        3.6360    -0.1990     1.9830 O.3   1 <1>  -0.5600 
 14 C        4.6660     3.3380    -0.1900 C.2   1 <1>   0.5440 
 15 O        4.8680     3.1870    -1.3790 O.2   1 <1>  -0.5700 
 16 C        4.7300     4.6550     0.4250 C.ar  1 <1>   0.0860 
 17 C        5.4510     5.6880    -0.1750 C.ar  1 <1>  -0.1500 
 18 C        4.0830     4.9440     1.6280 C.ar  1 <1>  -0.1500 
 19 C        5.5430     6.9510     0.3880 C.ar  1 <1>  -0.1440 
 20 C        4.1650     6.1980     2.2040 C.ar  1 <1>  -0.1500 
 21 C        4.8930     7.1980     1.5870 C.ar  1 <1>  -0.1500 
 22 C        6.3440     8.0630    -0.2870 C.3   1 <1>   0.0630 
 23 C        5.7650     8.3960    -1.6660 C.3   1 <1>  -0.2400 
 24 C        7.8240     7.6810    -0.3970 C.3   1 <1>  -0.2400 
 25 H        2.5450     1.6910    -1.8120 H     1 <1>   0.0800 
 26 H        1.8940     2.2270    -0.3070 H     1 <1>   0.0800 
 27 H       -1.8550    -0.7340     0.9410 H     1 <1>   0.0800 
 28 H       -0.9130    -1.5290    -0.2930 H     1 <1>   0.0800 
 29 H       -2.1150    -0.3410    -0.7520 H     1 <1>   0.0800 
 30 H       -1.3760     1.4910     1.5920 H     1 <1>   0.0800 
 31 H       -1.7500     2.0320    -0.0340 H     1 <1>   0.0800 
 32 H       -0.2220     2.4560     0.7060 H     1 <1>   0.0800 
 33 H        3.0160    -0.5380    -0.8130 H     1 <1>   0.0800 
 34 H        5.0110     0.7350    -0.8120 H     1 <1>   0.0800 
 35 H        1.9770    -1.0300     1.1690 H     1 <1>   0.0800 
 36 H        1.8550     0.6590     1.6490 H     1 <1>   0.0800 
 37 H        4.2250     2.3030     1.5590 H     1 <1>   0.3700 
 38 H        5.5940     0.2990     1.7720 H     1 <1>   0.0800 
 39 H        5.0210    -1.0690     0.8190 H     1 <1>   0.0800 
 40 H        5.9490     5.4830    -1.1070 H     1 <1>   0.1500 
 41 H        3.5040     4.1870     2.1230 H     1 <1>   0.1500 
 42 H        3.6610     6.4010     3.1330 H     1 <1>   0.1500 
 43 H        4.9490     8.1700     2.0460 H     1 <1>   0.1500 
 44 H        6.2800     8.9520     0.3180 H     1 <1>   0.0800 
 45 H        5.8510     7.5560    -2.3310 H     1 <1>   0.0800 
 46 H        6.2860     9.2310    -2.0970 H     1 <1>   0.0800 
 47 H        4.7240     8.6530    -1.5730 H     1 <1>   0.0800 
 48 H        7.9520     6.8250    -1.0340 H     1 <1>   0.0800 
 49 H        8.2130     7.4440     0.5770 H     1 <1>   0.0800 
 50 H        8.3910     8.4990    -0.8030 H     1 <1>   0.0800 
@<TRIPOS>BOND
  1   1   2  2   
  2   1   3  2   
  3   1   4  am  
  4   1   5  1   
  5   4   6  1   
  6   4   7  1   
  7   5   8  1   
  8   5  25  1   
  9   5  26  1   
 10   6  27  1   
 11   6  28  1   
 12   6  29  1   
 13   7  30  1   
 14   7  31  1   
 15   7  32  1   
 16   8   9  1   
 17   8  10  1   
 18   8  33  1   
 19   9  11  1   
 20   9  12  1   
 21   9  34  1   
 22  10  13  1   
 23  10  35  1   
 24  10  36  1   
 25  11  14  am  
 26  11  37  1   
 27  12  13  1   
 28  12  38  1   
 29  12  39  1   
 30  14  15  2   
 31  14  16  1   
 32  16  17  ar  
 33  16  18  ar  
 34  17  19  ar  
 35  17  40  1   
 36  18  20  ar  
 37  18  41  1   
 38  19  21  ar  
 39  19  22  1   
 40  20  21  ar  
 41  20  42  1   
 42  21  43  1   
 43  22  23  1   
 44  22  24  1   
 45  22  44  1   
 46  23  45  1   
 47  23  46  1   
 48  23  47  1   
 49  24  48  1   
 50  24  49  1   
 51  24  50  1   
@<TRIPOS>SUBSTRUCTURE
  1 ****  14 GROUP 4 **** **** 0

# MOE 2024.06 (io_trps.svl 2023.06)
