@<TRIPOS>MOLECULE
NONAME
38 40 1 0 0 
SMALL
USER_CHARGES


@<TRIPOS>ATOM
  1 O       -0.0140    -0.1320     1.4510 O.3   1 <1>  -0.5600 
  2 C        0.7990     0.3350     0.4200 C.3   1 <1>   0.1200 
  3 C       -1.3590     0.1010     1.1540 C.3   1 <1>   0.1200 
  4 C        0.0370     1.5020    -0.1980 C.3   1 <1>   0.2890 
  5 C       -1.3910     0.9800    -0.1020 C.3   1 <1>  -0.0800 
  6 N        0.2290     2.7020     0.6580 N.pl3 1 <1>  -0.8690 
  7 C       -2.5070     2.0420    -0.0890 C.3   1 <1>  -0.0170 
  8 C        0.6120     3.9540     0.3730 C.ar  1 <1>   0.4100 
  9 C       -3.8790     1.3860    -0.0670 C.ar  1 <1>  -0.1430 
 10 N        0.8420     4.7100     1.4230 N.ar  1 <1>  -0.6200 
 11 C        0.7600     4.4350    -0.9420 C.ar  1 <1>  -0.1500 
 12 C       -4.4640     0.8820    -1.2120 C.ar  1 <1>  -0.1500 
 13 C       -4.6100     1.2550     1.0970 C.ar  1 <1>  -0.1500 
 14 C        1.2380     5.9470     1.2070 C.ar  1 <1>   0.7710 
 15 C        1.1670     5.7140    -1.1280 C.ar  1 <1>   0.2110 
 16 C       -5.7120     0.2850    -1.1380 C.ar  1 <1>   0.1600 
 17 C       -5.8510     0.6410     1.0610 C.ar  1 <1>   0.1600 
 18 N        1.4070     6.4650    -0.0230 N.ar  1 <1>  -0.1790 
 19 N        1.4730     6.6880     2.2860 N.pl3 1 <1>  -0.9000 
 20 N       -6.4190     0.1500    -0.0280 N.ar  1 <1>  -0.6200 
 21 H        1.7570     0.6240     0.8160 H     1 <1>   0.0800 
 22 H        0.9200    -0.4650    -0.2900 H     1 <1>   0.0800 
 23 H       -1.8530    -0.8420     0.9960 H     1 <1>   0.0800 
 24 H       -1.7950     0.6000     2.0030 H     1 <1>   0.0800 
 25 H        0.3460     1.6830    -1.2120 H     1 <1>   0.0800 
 26 H       -1.5600     0.3270    -0.9400 H     1 <1>   0.0800 
 27 H        0.1700     2.4590     1.6560 H     1 <1>   0.4000 
 28 H       -2.4260     2.6610    -0.9650 H     1 <1>   0.0800 
 29 H       -2.4050     2.6820     0.7710 H     1 <1>   0.0800 
 30 H        0.5470     3.7860    -1.7700 H     1 <1>   0.1500 
 31 H       -3.9640     0.9460    -2.1600 H     1 <1>   0.1500 
 32 H       -4.2300     1.6230     2.0320 H     1 <1>   0.1500 
 33 H        1.3040     6.1510    -2.1050 H     1 <1>   0.1500 
 34 H       -6.1520    -0.1020    -2.0410 H     1 <1>   0.1500 
 35 H       -6.4060     0.5480     1.9790 H     1 <1>   0.1500 
 36 H        1.7170     7.4310    -0.0790 H     1 <1>   0.4570 
 37 H        1.7870     7.6570     2.3510 H     1 <1>   0.4000 
 38 H        1.3310     6.2410     3.1990 H     1 <1>   0.4000 
@<TRIPOS>BOND
  1   1   2  1   
  2   1   3  1   
  3   2   4  1   
  4   2  21  1   
  5   2  22  1   
  6   3   5  1   
  7   3  23  1   
  8   3  24  1   
  9   4   5  1   
 10   4   6  1   
 11   4  25  1   
 12   5   7  1   
 13   5  26  1   
 14   6   8  1   
 15   6  27  1   
 16   7   9  1   
 17   7  28  1   
 18   7  29  1   
 19   8  10  ar  
 20   8  11  ar  
 21   9  12  ar  
 22   9  13  ar  
 23  10  14  ar  
 24  11  15  ar  
 25  11  30  1   
 26  12  16  ar  
 27  12  31  1   
 28  13  17  ar  
 29  13  32  1   
 30  14  18  ar  
 31  14  19  1   
 32  15  18  ar  
 33  15  33  1   
 34  16  20  ar  
 35  16  34  1   
 36  17  20  ar  
 37  17  35  1   
 38  18  36  1   
 39  19  37  1   
 40  19  38  1   
@<TRIPOS>SUBSTRUCTURE
  1 ****   7 GROUP 4 **** **** 0

# MOE 2024.06 (io_trps.svl 2023.06)
