@<TRIPOS>MOLECULE
NONAME
44 47 1 0 0 
SMALL
USER_CHARGES


@<TRIPOS>ATOM
  1 CL       0.4400     0.6490    -1.3600 Cl    1 <1>  -0.1770 
  2 C        0.5950     2.3000    -0.8080 C.ar  1 <1>   0.1770 
  3 C        1.7690     2.6970    -0.1260 C.ar  1 <1>   0.0000 
  4 C       -0.4350     3.1600    -1.0610 C.ar  1 <1>  -0.1500 
  5 C        1.8660     4.0460     0.2930 C.ar  1 <1>   0.0000 
  6 C        2.8370     1.8210     0.1580 C.ar  1 <1>  -0.1500 
  7 C       -0.3430     4.4860    -0.6340 C.ar  1 <1>  -0.1500 
  8 C        3.0440     4.4850     0.9600 C.ar  1 <1>   0.0860 
  9 C        0.7780     4.9100     0.0250 C.ar  1 <1>  -0.1500 
 10 C        3.9530     2.2510     0.8180 C.ar  1 <1>  -0.1500 
 11 C        3.2050     5.8680     1.3500 C.2   1 <1>   0.5440 
 12 C        4.0510     3.5820     1.2170 C.ar  1 <1>  -0.1500 
 13 O        2.8580     6.2100     2.4650 O.2   1 <1>  -0.5700 
 14 N        3.7380     6.8100     0.4870 N.am  1 <1>  -0.6600 
 15 C        4.1820     8.1450     1.0090 C.3   1 <1>   0.1400 
 16 C        4.0710     6.4950    -0.9400 C.3   1 <1>   0.1400 
 17 C        5.7060     8.4000     0.9520 C.3   1 <1>   0.2200 
 18 C        5.5690     6.5520    -1.2950 C.3   1 <1>  -0.0190 
 19 N        6.1240     8.8190    -0.4170 N.am  1 <1>  -0.6600 
 20 C        6.6040     7.2590     1.4960 C.3   1 <1>   0.1200 
 21 C        6.0300     7.9780    -1.4870 C.2   1 <1>   0.5690 
 22 C        6.5480     5.7750    -0.3950 C.3   1 <1>   0.1200 
 23 C        6.5970    10.2260    -0.5570 C.3   1 <1>   0.0600 
 24 O        6.3520     5.9830     0.9700 O.3   1 <1>  -0.5600 
 25 O        6.3100     8.3320    -2.6080 O.2   1 <1>  -0.5700 
 26 H       -1.3150     2.8240    -1.5810 H     1 <1>   0.1500 
 27 H        2.7690     0.7920    -0.1490 H     1 <1>   0.1500 
 28 H       -1.1600     5.1610    -0.8280 H     1 <1>   0.1500 
 29 H        0.8320     5.9340     0.3550 H     1 <1>   0.1500 
 30 H        4.7630     1.5750     1.0380 H     1 <1>   0.1500 
 31 H        4.9370     3.9110     1.7340 H     1 <1>   0.1500 
 32 H        3.6740     8.9190     0.4630 H     1 <1>   0.0800 
 33 H        3.8820     8.2460     2.0370 H     1 <1>   0.0800 
 34 H        3.7100     5.5150    -1.1930 H     1 <1>   0.0800 
 35 H        3.5400     7.1880    -1.5710 H     1 <1>   0.0800 
 36 H        5.8840     9.2420     1.5970 H     1 <1>   0.0800 
 37 H        5.6530     6.0990    -2.2660 H     1 <1>   0.0800 
 38 H        6.4430     7.1790     2.5560 H     1 <1>   0.0800 
 39 H        7.6410     7.4950     1.3340 H     1 <1>   0.0800 
 40 H        7.5680     6.0260    -0.6350 H     1 <1>   0.0800 
 41 H        6.4150     4.7210    -0.5620 H     1 <1>   0.0800 
 42 H        7.4490    10.3900     0.0780 H     1 <1>   0.0800 
 43 H        5.8090    10.9050    -0.2790 H     1 <1>   0.0800 
 44 H        6.8850    10.4350    -1.5730 H     1 <1>   0.0800 
@<TRIPOS>BOND
  1   1   2  1   
  2   2   3  ar  
  3   2   4  ar  
  4   3   5  ar  
  5   3   6  ar  
  6   4   7  ar  
  7   4  26  1   
  8   5   8  ar  
  9   5   9  ar  
 10   6  10  ar  
 11   6  27  1   
 12   7   9  ar  
 13   7  28  1   
 14   8  11  1   
 15   8  12  ar  
 16   9  29  1   
 17  10  12  ar  
 18  10  30  1   
 19  11  13  2   
 20  11  14  am  
 21  12  31  1   
 22  14  15  1   
 23  14  16  1   
 24  15  17  1   
 25  15  32  1   
 26  15  33  1   
 27  16  18  1   
 28  16  34  1   
 29  16  35  1   
 30  17  19  1   
 31  17  20  1   
 32  17  36  1   
 33  18  21  1   
 34  18  22  1   
 35  18  37  1   
 36  19  21  am  
 37  19  23  1   
 38  20  24  1   
 39  20  38  1   
 40  20  39  1   
 41  21  25  2   
 42  22  24  1   
 43  22  40  1   
 44  22  41  1   
 45  23  42  1   
 46  23  43  1   
 47  23  44  1   
@<TRIPOS>SUBSTRUCTURE
  1 ****  14 GROUP 4 **** **** 0

# MOE 2024.06 (io_trps.svl 2023.06)
