@<TRIPOS>MOLECULE
NONAME
48 50 1 0 0 
SMALL
USER_CHARGES


@<TRIPOS>ATOM
  1 S       -1.7250     0.2070     1.8120 S.3   1 <1>  -0.0800 
  2 C       -2.0970    -1.0020     0.5890 C.2   1 <1>  -0.1400 
  3 C       -0.8480     1.1820     0.6500 C.2   1 <1>  -0.1100 
  4 C       -1.5640    -0.6480    -0.5990 C.2   1 <1>  -0.1810 
  5 C       -2.9110    -2.2060     1.0380 C.3   1 <1>   0.3890 
  6 C       -0.8570     0.5970    -0.5600 C.2   1 <1>  -0.1500 
  7 C       -1.6520    -1.4170    -1.9060 C.3   1 <1>  -0.0590 
  8 N       -4.3700    -1.9600     0.8640 N.pl3 1 <1>  -0.8380 
  9 C       -4.8260    -1.9830    -0.4380 C.ar  1 <1>   0.4100 
 10 C       -4.9630    -0.9760     1.8140 C.3   1 <1>   0.1290 
 11 N       -5.1220    -3.1850    -0.8950 N.ar  1 <1>  -0.6200 
 12 C       -4.9510    -0.8190    -1.2170 C.ar  1 <1>   0.1600 
 13 C       -5.5790    -3.1800    -2.1590 C.ar  1 <1>   0.3960 
 14 N       -5.3770    -0.7900    -2.4640 N.ar  1 <1>  -0.6200 
 15 C       -5.9760    -4.4380    -2.7850 C.2   1 <1>   0.5440 
 16 C       -5.6800    -2.0030    -2.9040 C.ar  1 <1>   0.1600 
 17 O       -5.6580    -4.6550    -3.9390 O.2   1 <1>  -0.5700 
 18 N       -6.6790    -5.4330    -2.1190 N.am  1 <1>  -0.6600 
 19 C       -6.5170    -6.8660    -2.5010 C.3   1 <1>   0.1400 
 20 C       -7.2780    -5.2590    -0.7630 C.3   1 <1>   0.1400 
 21 C       -5.6290    -7.5750    -1.4580 C.3   1 <1>   0.3430 
 22 C       -6.3730    -5.9340     0.2850 C.3   1 <1>   0.3430 
 23 N       -6.1300    -7.3910    -0.0420 N.4   1 <1>  -0.9590 
 24 C       -5.1810    -7.9970     0.9390 C.3   1 <1>   0.2630 
 25 H       -0.4130     2.1000     1.0010 H     1 <1>   0.1500 
 26 H       -2.6950    -2.4330     2.0670 H     1 <1>   0.0800 
 27 H       -2.6290    -3.0600     0.4470 H     1 <1>   0.0800 
 28 H       -0.3890     0.9950    -1.4440 H     1 <1>   0.1500 
 29 H       -2.1940    -2.3350    -1.7810 H     1 <1>   0.0800 
 30 H       -0.6640    -1.6470    -2.2630 H     1 <1>   0.0800 
 31 H       -2.1570    -0.8210    -2.6460 H     1 <1>   0.0800 
 32 H       -4.7440    -1.2650     2.8270 H     1 <1>   0.0800 
 33 H       -6.0320    -0.9450     1.6880 H     1 <1>   0.0800 
 34 H       -4.5640     0.0080     1.6360 H     1 <1>   0.0800 
 35 H       -4.6640     0.1140    -0.7690 H     1 <1>   0.1500 
 36 H       -6.0340    -2.0760    -3.9190 H     1 <1>   0.1500 
 37 H       -6.0620    -6.9540    -3.4730 H     1 <1>   0.0800 
 38 H       -7.4830    -7.3370    -2.5520 H     1 <1>   0.0800 
 39 H       -8.2570    -5.7060    -0.7440 H     1 <1>   0.0800 
 40 H       -7.4020    -4.2170    -0.5260 H     1 <1>   0.0800 
 41 H       -4.6330    -7.1700    -1.5420 H     1 <1>   0.0800 
 42 H       -5.5770    -8.6250    -1.6960 H     1 <1>   0.0800 
 43 H       -6.8290    -5.8440     1.2570 H     1 <1>   0.0800 
 44 H       -5.4350    -5.4020     0.3110 H     1 <1>   0.0800 
 45 H       -7.0350    -7.8770     0.0290 H     1 <1>   0.4500 
 46 H       -4.2240    -7.5030     0.8870 H     1 <1>   0.0800 
 47 H       -5.0410    -9.0450     0.7280 H     1 <1>   0.0800 
 48 H       -5.5650    -7.8990     1.9420 H     1 <1>   0.0800 
@<TRIPOS>BOND
  1   1   2  1   
  2   1   3  1   
  3   2   4  2   
  4   2   5  1   
  5   3   6  2   
  6   3  25  1   
  7   4   6  1   
  8   4   7  1   
  9   5   8  1   
 10   5  26  1   
 11   5  27  1   
 12   6  28  1   
 13   7  29  1   
 14   7  30  1   
 15   7  31  1   
 16   8   9  1   
 17   8  10  1   
 18   9  11  ar  
 19   9  12  ar  
 20  10  32  1   
 21  10  33  1   
 22  10  34  1   
 23  11  13  ar  
 24  12  14  ar  
 25  12  35  1   
 26  13  15  1   
 27  13  16  ar  
 28  14  16  ar  
 29  15  17  2   
 30  15  18  am  
 31  16  36  1   
 32  18  19  1   
 33  18  20  1   
 34  19  21  1   
 35  19  37  1   
 36  19  38  1   
 37  20  22  1   
 38  20  39  1   
 39  20  40  1   
 40  21  23  1   
 41  21  41  1   
 42  21  42  1   
 43  22  23  1   
 44  22  43  1   
 45  22  44  1   
 46  23  24  1   
 47  23  45  1   
 48  24  46  1   
 49  24  47  1   
 50  24  48  1   
@<TRIPOS>SUBSTRUCTURE
  1 ****  11 GROUP 4 **** **** 0

# MOE 2024.06 (io_trps.svl 2023.06)
