@<TRIPOS>MOLECULE
NONAME
42 44 1 0 0 
SMALL
USER_CHARGES


@<TRIPOS>ATOM
  1 CL       0.1370    -0.3430     2.0480 Cl    1 <1>  -0.1770 
  2 C        1.1740    -1.1660     0.8950 C.ar  1 <1>   0.1770 
  3 C        0.8380    -2.4310     0.3820 C.ar  1 <1>   0.4100 
  4 C        2.3340    -0.5360     0.5130 C.ar  1 <1>  -0.1500 
  5 N        1.6210    -3.0730    -0.4860 N.ar  1 <1>  -0.6200 
  6 N       -0.3370    -3.0810     0.7440 N.pl3 1 <1>  -0.8380 
  7 C        3.1340    -1.2100    -0.3870 C.ar  1 <1>  -0.1500 
  8 C        2.7350    -2.4540    -0.8440 C.ar  1 <1>   0.1600 
  9 C       -0.3700    -4.5770     0.8220 C.3   1 <1>   0.2090 
 10 C       -1.6400    -2.5060     0.2790 C.3   1 <1>   0.2090 
 11 C       -0.8650    -5.2240    -0.4890 C.3   1 <1>   0.2090 
 12 C       -2.1300    -3.1600    -1.0300 C.3   1 <1>   0.2090 
 13 N       -2.1780    -4.6550    -0.9320 N.pl3 1 <1>  -0.8380 
 14 C       -3.3420    -5.2890    -0.5460 C.ar  1 <1>   0.4100 
 15 N       -4.1980    -4.6170     0.2030 N.ar  1 <1>  -0.6200 
 16 C       -3.6010    -6.5840    -0.9250 C.ar  1 <1>  -0.1500 
 17 C       -5.2810    -5.2800     0.5570 C.ar  1 <1>   0.4700 
 18 C       -4.7660    -7.1720    -0.4990 C.ar  1 <1>   0.4100 
 19 N       -5.6240    -6.5170     0.2600 N.ar  1 <1>  -0.6200 
 20 N       -5.0690    -8.4660    -0.8490 N.pl3 1 <1>  -0.8690 
 21 C       -6.4210    -9.0620    -0.6810 C.3   1 <1>   0.2090 
 22 C       -6.5520    -9.6880     0.7110 C.3   1 <1>   0.1200 
 23 O       -7.8410   -10.1810     0.8850 O.3   1 <1>  -0.6800 
 24 H        2.5970     0.4310     0.9020 H     1 <1>   0.1500 
 25 H        4.0570    -0.7770    -0.7290 H     1 <1>   0.1500 
 26 H        3.3690    -2.9710    -1.5450 H     1 <1>   0.1500 
 27 H       -1.0270    -4.8680     1.6220 H     1 <1>   0.0800 
 28 H        0.6130    -4.9490     1.0540 H     1 <1>   0.0800 
 29 H       -1.5410    -1.4470     0.1230 H     1 <1>   0.0800 
 30 H       -2.3820    -2.6570     1.0440 H     1 <1>   0.0800 
 31 H       -0.9520    -6.2850    -0.3420 H     1 <1>   0.0800 
 32 H       -0.1310    -5.0560    -1.2580 H     1 <1>   0.0800 
 33 H       -1.4600    -2.8840    -1.8250 H     1 <1>   0.0800 
 34 H       -3.1050    -2.7790    -1.2760 H     1 <1>   0.0800 
 35 H       -2.9080    -7.1140    -1.5420 H     1 <1>   0.1500 
 36 H       -5.9780    -4.7370     1.1730 H     1 <1>   0.1500 
 37 H       -4.5030    -8.8890    -1.5880 H     1 <1>   0.4000 
 38 H       -6.5710    -9.8200    -1.4300 H     1 <1>   0.0800 
 39 H       -7.1680    -8.2960    -0.8080 H     1 <1>   0.0800 
 40 H       -6.3630    -8.9550     1.4760 H     1 <1>   0.0800 
 41 H       -5.8660   -10.5090     0.8150 H     1 <1>   0.0800 
 42 H       -8.4730    -9.4430     0.9880 H     1 <1>   0.4000 
@<TRIPOS>BOND
  1   1   2  1   
  2   2   3  ar  
  3   2   4  ar  
  4   3   5  ar  
  5   3   6  1   
  6   4   7  ar  
  7   4  24  1   
  8   5   8  ar  
  9   6   9  1   
 10   6  10  1   
 11   7   8  ar  
 12   7  25  1   
 13   8  26  1   
 14   9  11  1   
 15   9  27  1   
 16   9  28  1   
 17  10  12  1   
 18  10  29  1   
 19  10  30  1   
 20  11  13  1   
 21  11  31  1   
 22  11  32  1   
 23  12  13  1   
 24  12  33  1   
 25  12  34  1   
 26  13  14  1   
 27  14  15  ar  
 28  14  16  ar  
 29  15  17  ar  
 30  16  18  ar  
 31  16  35  1   
 32  17  19  ar  
 33  17  36  1   
 34  18  19  ar  
 35  18  20  1   
 36  20  21  1   
 37  20  37  1   
 38  21  22  1   
 39  21  38  1   
 40  21  39  1   
 41  22  23  1   
 42  22  40  1   
 43  22  41  1   
 44  23  42  1   
@<TRIPOS>SUBSTRUCTURE
  1 ****  13 GROUP 4 **** **** 0

# MOE 2024.06 (io_trps.svl 2023.06)
