@<TRIPOS>MOLECULE
NONAME
51 52 1 0 0 
SMALL
USER_CHARGES


@<TRIPOS>ATOM
  1 O        0.0780    -0.0710    -0.1490 O.2   1 <1>  -0.5700 
  2 C        1.0590    -0.6370     0.2900 C.2   1 <1>   0.5440 
  3 N        2.1720     0.0800     0.6640 N.am  1 <1>  -0.4940 
  4 C        1.0670    -2.0790     0.4340 C.ar  1 <1>   0.0860 
  5 C        2.5290     1.4410     0.5000 C.2   1 <1>  -0.0880 
  6 C        2.2160    -2.8370     0.1970 C.ar  1 <1>  -0.1500 
  7 C       -0.0840    -2.7650     0.8190 C.ar  1 <1>  -0.1500 
  8 N        1.7220     2.5390     0.5410 N.pl3 1 <1>   0.3140 
  9 C        3.7840     1.9040     0.2820 C.2   1 <1>  -0.1810 
 10 C        2.2170    -4.2110     0.3540 C.ar  1 <1>  -0.1500 
 11 C       -0.0870    -4.1390     0.9770 C.ar  1 <1>  -0.1500 
 12 N        2.4290     3.6770     0.3560 N.2   1 <1>  -0.7070 
 13 C        0.2880     2.6240     0.8490 C.3   1 <1>   0.0160 
 14 C        3.6510     3.2870     0.1950 C.2   1 <1>   0.1080 
 15 C        5.0700     1.1050     0.1490 C.3   1 <1>   0.0210 
 16 C        1.0650    -4.8710     0.7480 C.ar  1 <1>  -0.1430 
 17 C        4.7710     4.2720    -0.0540 C.3   1 <1>  -0.0590 
 18 C        5.2680     0.6550    -1.2990 C.3   1 <1>  -0.2400 
 19 C        1.0590    -6.3820     0.9140 C.3   1 <1>  -0.0170 
 20 C        0.7180    -7.0580    -0.4260 C.3   1 <1>  -0.1600 
 21 C        0.5900    -8.5910    -0.3710 C.3   1 <1>   0.2800 
 22 O       -0.3760    -8.9110     0.5470 O.3   1 <1>  -0.6800 
 23 C        0.1200    -9.1460    -1.7130 C.3   1 <1>  -0.2400 
 24 C        1.8730    -9.2870     0.0790 C.3   1 <1>  -0.2400 
 25 H        2.9270    -0.4960     1.0310 H     1 <1>   0.3700 
 26 H        3.1190    -2.3520    -0.1270 H     1 <1>   0.1500 
 27 H       -0.9870    -2.2070     0.9950 H     1 <1>   0.1500 
 28 H        3.1170    -4.7700     0.1640 H     1 <1>   0.1500 
 29 H       -0.9930    -4.6370     1.2770 H     1 <1>   0.1500 
 30 H        0.0350     1.8770     1.5760 H     1 <1>   0.0800 
 31 H       -0.2710     2.4620    -0.0530 H     1 <1>   0.0800 
 32 H        0.0680     3.5990     1.2390 H     1 <1>   0.0800 
 33 H        5.0270     0.2440     0.7920 H     1 <1>   0.0800 
 34 H        5.9060     1.7040     0.4640 H     1 <1>   0.0800 
 35 H        5.3970     3.9260    -0.8540 H     1 <1>   0.0800 
 36 H        5.3560     4.3860     0.8390 H     1 <1>   0.0800 
 37 H        4.3590     5.2270    -0.3250 H     1 <1>   0.0800 
 38 H        4.4380     0.0490    -1.6150 H     1 <1>   0.0800 
 39 H        6.1740     0.0840    -1.3920 H     1 <1>   0.0800 
 40 H        5.3290     1.5120    -1.9470 H     1 <1>   0.0800 
 41 H        0.3370    -6.6570     1.6630 H     1 <1>   0.0800 
 42 H        2.0240    -6.7040     1.2600 H     1 <1>   0.0800 
 43 H        1.4820    -6.8040    -1.1390 H     1 <1>   0.0800 
 44 H       -0.2030    -6.6440    -0.7960 H     1 <1>   0.0800 
 45 H       -1.2370    -8.5770     0.2400 H     1 <1>   0.4000 
 46 H       -0.8010    -8.6840    -2.0200 H     1 <1>   0.0800 
 47 H       -0.0230   -10.2110    -1.6490 H     1 <1>   0.0800 
 48 H        0.8600    -8.9530    -2.4680 H     1 <1>   0.0800 
 49 H        2.1360    -9.0010     1.0800 H     1 <1>   0.0800 
 50 H        2.6840    -9.0300    -0.5780 H     1 <1>   0.0800 
 51 H        1.7440   -10.3540     0.0540 H     1 <1>   0.0800 
@<TRIPOS>BOND
  1   1   2  2   
  2   2   3  am  
  3   2   4  1   
  4   3   5  1   
  5   3  25  1   
  6   4   6  ar  
  7   4   7  ar  
  8   5   8  1   
  9   5   9  2   
 10   6  10  ar  
 11   6  26  1   
 12   7  11  ar  
 13   7  27  1   
 14   8  12  1   
 15   8  13  1   
 16   9  14  1   
 17   9  15  1   
 18  10  16  ar  
 19  10  28  1   
 20  11  16  ar  
 21  11  29  1   
 22  12  14  2   
 23  13  30  1   
 24  13  31  1   
 25  13  32  1   
 26  14  17  1   
 27  15  18  1   
 28  15  33  1   
 29  15  34  1   
 30  16  19  1   
 31  17  35  1   
 32  17  36  1   
 33  17  37  1   
 34  18  38  1   
 35  18  39  1   
 36  18  40  1   
 37  19  20  1   
 38  19  41  1   
 39  19  42  1   
 40  20  21  1   
 41  20  43  1   
 42  20  44  1   
 43  21  22  1   
 44  21  23  1   
 45  21  24  1   
 46  22  45  1   
 47  23  46  1   
 48  23  47  1   
 49  23  48  1   
 50  24  49  1   
 51  24  50  1   
 52  24  51  1   
@<TRIPOS>SUBSTRUCTURE
  1 ****   4 GROUP 4 **** **** 0

# MOE 2024.06 (io_trps.svl 2023.06)
