@<TRIPOS>MOLECULE
NONAME
47 48 1 0 0 
SMALL
USER_CHARGES


@<TRIPOS>ATOM
  1 O        0.5300    -0.0130     0.9540 O.2   1 <1>  -0.5700 
  2 C        1.6160    -0.5340     0.7890 C.2   1 <1>   0.5440 
  3 N        1.7710    -1.8540     1.1210 N.am  1 <1>  -0.7300 
  4 C        2.7240     0.2250     0.2360 C.ar  1 <1>   0.0860 
  5 C        0.7190    -2.7260     1.7020 C.3   1 <1>   0.0600 
  6 C        2.4970     1.2650    -0.6650 C.ar  1 <1>  -0.1500 
  7 C        4.0500    -0.0450     0.5780 C.ar  1 <1>  -0.1500 
  8 C        3.5390     1.9940    -1.2060 C.ar  1 <1>  -0.1500 
  9 C        5.0980     0.6800     0.0390 C.ar  1 <1>  -0.1500 
 10 C        4.8490     1.7060    -0.8590 C.ar  1 <1>  -0.1430 
 11 C        5.9880     2.5200    -1.4420 C.3   1 <1>   0.2840 
 12 N        6.0740     3.7730    -0.6790 N.am  1 <1>  -0.7300 
 13 C        6.7000     4.8900    -1.1170 C.2   1 <1>   0.5690 
 14 O        7.2710     4.9080    -2.1800 O.2   1 <1>  -0.5700 
 15 C        6.6620     6.1360    -0.2300 C.3   1 <1>  -0.0190 
 16 C        7.0430     7.4310    -0.9800 C.3   1 <1>  -0.1600 
 17 C        7.5510     5.9530     1.0230 C.3   1 <1>  -0.1600 
 18 C        6.8480     8.6910    -0.1110 C.3   1 <1>   0.2000 
 19 C        7.9460     7.2770     1.7080 C.3   1 <1>  -0.1600 
 20 O        7.8390     9.6290    -0.4540 O.3   1 <1>  -0.5600 
 21 C        6.9400     8.3910     1.4090 C.3   1 <1>   0.2000 
 22 C        7.6180    10.3190    -1.6460 C.3   1 <1>   0.0400 
 23 O        7.3500     9.5280     2.0730 O.3   1 <1>  -0.6800 
 24 H        2.6440    -2.3210     0.8690 H     1 <1>   0.3700 
 25 H       -0.1520    -2.1470     1.9590 H     1 <1>   0.0800 
 26 H        1.0910    -3.2010     2.5930 H     1 <1>   0.0800 
 27 H        0.4350    -3.4800     0.9880 H     1 <1>   0.0800 
 28 H        1.4820     1.5000    -0.9390 H     1 <1>   0.1500 
 29 H        4.2660    -0.8280     1.2830 H     1 <1>   0.1500 
 30 H        3.3280     2.7920    -1.8980 H     1 <1>   0.1500 
 31 H        6.1090     0.4470     0.3260 H     1 <1>   0.1500 
 32 H        5.8050     2.7370    -2.4820 H     1 <1>   0.0800 
 33 H        6.9200     1.9870    -1.3630 H     1 <1>   0.0800 
 34 H        5.5820     3.7570     0.2150 H     1 <1>   0.3700 
 35 H        5.6420     6.2480     0.0940 H     1 <1>   0.0800 
 36 H        6.4450     7.5180    -1.8700 H     1 <1>   0.0800 
 37 H        8.0750     7.3540    -1.2770 H     1 <1>   0.0800 
 38 H        7.0290     5.3290     1.7280 H     1 <1>   0.0800 
 39 H        8.4560     5.4360     0.7480 H     1 <1>   0.0800 
 40 H        5.8820     9.1270    -0.3000 H     1 <1>   0.0800 
 41 H        8.9100     7.5840     1.3400 H     1 <1>   0.0800 
 42 H        8.0230     7.1270     2.7710 H     1 <1>   0.0800 
 43 H        5.9740     8.1150     1.7960 H     1 <1>   0.0800 
 44 H        8.4240    11.0180    -1.7810 H     1 <1>   0.0800 
 45 H        6.6850    10.8520    -1.5810 H     1 <1>   0.0800 
 46 H        7.6040     9.6250    -2.4680 H     1 <1>   0.0800 
 47 H        7.9300    10.0100     1.4400 H     1 <1>   0.4000 
@<TRIPOS>BOND
  1   1   2  2   
  2   2   3  am  
  3   2   4  1   
  4   3   5  1   
  5   3  24  1   
  6   4   6  ar  
  7   4   7  ar  
  8   5  25  1   
  9   5  26  1   
 10   5  27  1   
 11   6   8  ar  
 12   6  28  1   
 13   7   9  ar  
 14   7  29  1   
 15   8  10  ar  
 16   8  30  1   
 17   9  10  ar  
 18   9  31  1   
 19  10  11  1   
 20  11  12  1   
 21  11  32  1   
 22  11  33  1   
 23  12  13  am  
 24  12  34  1   
 25  13  14  2   
 26  13  15  1   
 27  15  16  1   
 28  15  17  1   
 29  15  35  1   
 30  16  18  1   
 31  16  36  1   
 32  16  37  1   
 33  17  19  1   
 34  17  38  1   
 35  17  39  1   
 36  18  20  1   
 37  18  21  1   
 38  18  40  1   
 39  19  21  1   
 40  19  41  1   
 41  19  42  1   
 42  20  22  1   
 43  21  23  1   
 44  21  43  1   
 45  22  44  1   
 46  22  45  1   
 47  22  46  1   
 48  23  47  1   
@<TRIPOS>SUBSTRUCTURE
  1 ****  12 GROUP 4 **** **** 0

# MOE 2024.06 (io_trps.svl 2023.06)
