@<TRIPOS>MOLECULE
NONAME
51 52 1 0 0 
SMALL
USER_CHARGES


@<TRIPOS>ATOM
  1 O        2.3340    -0.8880     1.9510 O.co2 1 <1>  -0.9000 
  2 C        2.3890    -0.7800     0.7200 C.2   1 <1>   0.9060 
  3 O        2.5420    -1.7780    -0.0020 O.co2 1 <1>  -0.9000 
  4 C        2.2600     0.6180     0.0670 C.3   1 <1>  -0.1060 
  5 C        3.1880     0.7050    -1.1750 C.3   1 <1>   0.2000 
  6 C        2.7360     1.7160     1.0610 C.3   1 <1>  -0.1600 
  7 C        0.7620     0.8330    -0.2960 C.3   1 <1>  -0.1600 
  8 O        2.8570    -0.2850    -2.0850 O.3   1 <1>  -0.6800 
  9 C        4.6730     0.5590    -0.7980 C.3   1 <1>   0.1400 
 10 C        4.2090     1.5330     1.4520 C.3   1 <1>   0.1400 
 11 C        0.4100     2.1420    -1.0280 C.3   1 <1>  -0.1600 
 12 N        5.0580     1.5880     0.2250 N.am  1 <1>  -0.6600 
 13 C       -1.0930     2.2160    -1.3110 C.3   1 <1>  -0.2400 
 14 C        6.0810     2.4770    -0.0020 C.2   1 <1>   0.5690 
 15 O        6.6520     2.5210    -1.0670 O.2   1 <1>  -0.5700 
 16 C        6.5000     3.4490     1.1020 C.3   1 <1>   0.0440 
 17 C        7.7650     4.2640     0.8370 C.ar  1 <1>  -0.1430 
 18 C        8.9210     4.0310     1.5680 C.ar  1 <1>  -0.1500 
 19 C        7.7660     5.2560    -0.1310 C.ar  1 <1>  -0.1500 
 20 C       10.0570     4.7850     1.3360 C.ar  1 <1>  -0.1500 
 21 C        8.9020     6.0120    -0.3670 C.ar  1 <1>  -0.1500 
 22 C       10.0590     5.7790     0.3720 C.ar  1 <1>   0.0830 
 23 O       11.2140     6.4700     0.2070 O.3   1 <1>  -0.3630 
 24 C       11.3440     7.4360    -0.8090 C.3   1 <1>   0.1200 
 25 C       12.7660     7.9870    -0.7570 C.3   1 <1>  -0.2400 
 26 H        3.0670     1.6470    -1.6770 H     1 <1>   0.0800 
 27 H        2.1350     1.6740     1.9530 H     1 <1>   0.0800 
 28 H        2.6230     2.6940     0.6340 H     1 <1>   0.0800 
 29 H        0.4480     0.0060    -0.9110 H     1 <1>   0.0800 
 30 H        0.1880     0.7750     0.6140 H     1 <1>   0.0800 
 31 H        2.7070    -1.1070    -1.5270 H     1 <1>   0.4000 
 32 H        5.2690     0.6670    -1.6870 H     1 <1>   0.0800 
 33 H        4.8490    -0.4210    -0.3890 H     1 <1>   0.0800 
 34 H        4.3510     0.5820     1.9380 H     1 <1>   0.0800 
 35 H        4.4760     2.2980     2.1560 H     1 <1>   0.0800 
 36 H        0.6900     2.9920    -0.4340 H     1 <1>   0.0800 
 37 H        0.9380     2.1900    -1.9640 H     1 <1>   0.0800 
 38 H       -1.6490     2.1860    -0.3910 H     1 <1>   0.0800 
 39 H       -1.3960     1.3870    -1.9270 H     1 <1>   0.0800 
 40 H       -1.3270     3.1300    -1.8270 H     1 <1>   0.0800 
 41 H        5.6880     4.1310     1.2650 H     1 <1>   0.0800 
 42 H        6.6400     2.8840     2.0040 H     1 <1>   0.0800 
 43 H        8.9450     3.2610     2.3190 H     1 <1>   0.1500 
 44 H        6.8790     5.4340    -0.7140 H     1 <1>   0.1500 
 45 H       10.9540     4.6060     1.9010 H     1 <1>   0.1500 
 46 H        8.8650     6.7690    -1.1250 H     1 <1>   0.1500 
 47 H       11.1530     6.9610    -1.7560 H     1 <1>   0.0800 
 48 H       10.6260     8.2170    -0.6300 H     1 <1>   0.0800 
 49 H       13.4740     7.1940    -0.9200 H     1 <1>   0.0800 
 50 H       12.9500     8.4420     0.1990 H     1 <1>   0.0800 
 51 H       12.8970     8.7290    -1.5230 H     1 <1>   0.0800 
@<TRIPOS>BOND
  1   1   2  ar  
  2   2   3  ar  
  3   2   4  1   
  4   4   5  1   
  5   4   6  1   
  6   4   7  1   
  7   5   8  1   
  8   5   9  1   
  9   5  26  1   
 10   6  10  1   
 11   6  27  1   
 12   6  28  1   
 13   7  11  1   
 14   7  29  1   
 15   7  30  1   
 16   8  31  1   
 17   9  12  1   
 18   9  32  1   
 19   9  33  1   
 20  10  12  1   
 21  10  34  1   
 22  10  35  1   
 23  11  13  1   
 24  11  36  1   
 25  11  37  1   
 26  12  14  am  
 27  13  38  1   
 28  13  39  1   
 29  13  40  1   
 30  14  15  2   
 31  14  16  1   
 32  16  17  1   
 33  16  41  1   
 34  16  42  1   
 35  17  18  ar  
 36  17  19  ar  
 37  18  20  ar  
 38  18  43  1   
 39  19  21  ar  
 40  19  44  1   
 41  20  22  ar  
 42  20  45  1   
 43  21  22  ar  
 44  21  46  1   
 45  22  23  1   
 46  23  24  1   
 47  24  25  1   
 48  24  47  1   
 49  24  48  1   
 50  25  49  1   
 51  25  50  1   
 52  25  51  1   
@<TRIPOS>SUBSTRUCTURE
  1 ****  14 GROUP 4 **** **** 0

# MOE 2024.06 (io_trps.svl 2023.06)
