@<TRIPOS>MOLECULE
NONAME
42 44 1 0 0 
SMALL
USER_CHARGES


@<TRIPOS>ATOM
  1 S        0.1810    -0.0800    -1.6280 S.o2  1 <1>   1.4470 
  2 O        0.9870    -0.9670    -2.4380 O.2   1 <1>  -0.6500 
  3 O       -0.2820     1.1590    -2.2170 O.2   1 <1>  -0.6500 
  4 N        1.1490     0.3840    -0.3180 N.am  1 <1>  -0.8490 
  5 C       -1.2110    -0.9790    -0.8650 C.ar  1 <1>  -0.0090 
  6 C        0.4450     1.3320     0.5900 C.3   1 <1>   0.2570 
  7 C        2.4220     0.9690    -0.7700 C.3   1 <1>   0.1960 
  8 C       -1.0870    -2.2200    -0.2260 C.ar  1 <1>  -0.1440 
  9 C       -2.4700    -0.3910    -0.9090 C.ar  1 <1>  -0.1500 
 10 C        1.3330     1.9400     1.6870 C.2   1 <1>   0.5690 
 11 C        3.3750     1.2520     0.4110 C.3   1 <1>   0.1400 
 12 C       -2.2050    -2.8430     0.3330 C.ar  1 <1>  -0.1440 
 13 C        0.2860    -2.9030    -0.1650 C.3   1 <1>  -0.0160 
 14 C       -3.5770    -0.9920    -0.3480 C.ar  1 <1>  -0.1500 
 15 O        0.8310     2.4280     2.6680 O.2   1 <1>  -0.5700 
 16 N        2.6810     1.9390     1.5330 N.am  1 <1>  -0.7300 
 17 C       -3.4520    -2.2230     0.2800 C.ar  1 <1>   0.0830 
 18 C       -2.1100    -4.2030     1.0300 C.3   1 <1>  -0.0170 
 19 C        0.3760    -4.0280     0.8670 C.3   1 <1>  -0.1600 
 20 O       -4.5100    -2.8540     0.8570 O.3   1 <1>  -0.3630 
 21 C       -0.8200    -4.9630     0.7220 C.3   1 <1>  -0.1600 
 22 C       -5.8090    -2.3060     0.8470 C.3   1 <1>   0.0400 
 23 H       -0.3720     0.8240     1.0710 H     1 <1>   0.0800 
 24 H        0.0390     2.1530     0.0250 H     1 <1>   0.0800 
 25 H        2.2320     1.8860    -1.3050 H     1 <1>   0.0800 
 26 H        2.9150     0.2920    -1.4480 H     1 <1>   0.0800 
 27 H       -2.5950     0.5620    -1.3960 H     1 <1>   0.1500 
 28 H        4.1950     1.8600     0.0700 H     1 <1>   0.0800 
 29 H        3.7760     0.3190     0.7690 H     1 <1>   0.0800 
 30 H        1.0560    -2.1940     0.0720 H     1 <1>   0.0800 
 31 H        0.5040    -3.3090    -1.1390 H     1 <1>   0.0800 
 32 H       -4.5220    -0.4880    -0.4120 H     1 <1>   0.1500 
 33 H        3.2410     2.3070     2.3060 H     1 <1>   0.3700 
 34 H       -2.9420    -4.8220     0.7410 H     1 <1>   0.0800 
 35 H       -2.1800    -4.0400     2.0910 H     1 <1>   0.0800 
 36 H        0.3880    -3.6070     1.8580 H     1 <1>   0.0800 
 37 H        1.2920    -4.5760     0.7230 H     1 <1>   0.0800 
 38 H       -0.8600    -5.3450    -0.2840 H     1 <1>   0.0800 
 39 H       -0.7230    -5.7970     1.3950 H     1 <1>   0.0800 
 40 H       -6.4620    -2.9890     1.3590 H     1 <1>   0.0800 
 41 H       -6.1310    -2.1880    -0.1720 H     1 <1>   0.0800 
 42 H       -5.7930    -1.3610     1.3610 H     1 <1>   0.0800 
@<TRIPOS>BOND
  1   1   2  2   
  2   1   3  2   
  3   1   4  am  
  4   1   5  1   
  5   4   6  1   
  6   4   7  1   
  7   5   8  ar  
  8   5   9  ar  
  9   6  10  1   
 10   6  23  1   
 11   6  24  1   
 12   7  11  1   
 13   7  25  1   
 14   7  26  1   
 15   8  12  ar  
 16   8  13  1   
 17   9  14  ar  
 18   9  27  1   
 19  10  15  2   
 20  10  16  am  
 21  11  16  1   
 22  11  28  1   
 23  11  29  1   
 24  12  17  ar  
 25  12  18  1   
 26  13  19  1   
 27  13  30  1   
 28  13  31  1   
 29  14  17  ar  
 30  14  32  1   
 31  16  33  1   
 32  17  20  1   
 33  18  21  1   
 34  18  34  1   
 35  18  35  1   
 36  19  21  1   
 37  19  36  1   
 38  19  37  1   
 39  20  22  1   
 40  21  38  1   
 41  21  39  1   
 42  22  40  1   
 43  22  41  1   
 44  22  42  1   
@<TRIPOS>SUBSTRUCTURE
  1 ****   5 GROUP 4 **** **** 0

# MOE 2024.06 (io_trps.svl 2023.06)
