@<TRIPOS>MOLECULE
NONAME
54 56 1 0 0 
SMALL
USER_CHARGES


@<TRIPOS>ATOM
  1 F       -1.4900    -0.8300    -1.2360 F     1 <1>  -0.1900 
  2 C       -2.0520    -1.9980    -1.0520 C.ar  1 <1>   0.1900 
  3 C       -1.4050    -2.9320    -0.2640 C.ar  1 <1>  -0.1500 
  4 C       -3.2710    -2.2540    -1.6520 C.ar  1 <1>  -0.1500 
  5 C       -2.0070    -4.1640    -0.0740 C.ar  1 <1>  -0.1500 
  6 C       -3.8580    -3.4910    -1.4530 C.ar  1 <1>  -0.1500 
  7 C       -3.2330    -4.4540    -0.6630 C.ar  1 <1>   0.1000 
  8 N       -3.8110    -5.7000    -0.4560 N.pl3 1 <1>  -0.8380 
  9 C       -5.1230    -5.7280     0.2540 C.3   1 <1>   0.2090 
 10 C       -3.6350    -6.6790    -1.5580 C.3   1 <1>   0.2090 
 11 C       -5.0850    -6.7090     1.4370 C.3   1 <1>   0.1100 
 12 C       -4.1980    -8.0690    -1.2360 C.3   1 <1>  -0.1600 
 13 N       -5.1280    -8.1400     1.0500 N.3   1 <1>  -0.8100 
 14 C       -3.9740    -8.5210     0.2100 C.3   1 <1>   0.1100 
 15 C       -5.1850    -8.9950     2.2780 C.3   1 <1>   0.1710 
 16 C       -5.6880   -10.4170     2.0190 C.2   1 <1>   0.5690 
 17 O       -5.4550   -11.2810     2.8290 O.2   1 <1>  -0.5700 
 18 N       -6.3760   -10.6050     0.8550 N.am  1 <1>  -0.5470 
 19 C       -6.9690   -11.7230     0.2500 C.ar  1 <1>   0.1170 
 20 C       -7.1350   -12.9440     0.8930 C.ar  1 <1>  -0.1500 
 21 C       -7.4170   -11.6020    -1.0580 C.ar  1 <1>  -0.1500 
 22 C       -7.7280   -14.0180     0.2510 C.ar  1 <1>   0.0830 
 23 C       -8.0110   -12.6630    -1.7170 C.ar  1 <1>   0.0830 
 24 O       -7.8440   -15.1660     0.9660 O.3   1 <1>  -0.3630 
 25 C       -8.1700   -13.8800    -1.0620 C.ar  1 <1>  -0.1500 
 26 O       -8.4110   -12.4340    -2.9940 O.3   1 <1>  -0.3630 
 27 C       -8.4170   -16.3290     0.4120 C.3   1 <1>   0.0400 
 28 C       -9.0410   -13.4380    -3.7590 C.3   1 <1>   0.0400 
 29 H       -0.4590    -2.6970     0.1870 H     1 <1>   0.1500 
 30 H       -3.7410    -1.5020    -2.2590 H     1 <1>   0.1500 
 31 H       -1.5360    -4.9160     0.5320 H     1 <1>   0.1500 
 32 H       -4.8030    -3.7200    -1.9090 H     1 <1>   0.1500 
 33 H       -5.9180    -5.9920    -0.4210 H     1 <1>   0.0800 
 34 H       -5.3290    -4.7440     0.6400 H     1 <1>   0.0800 
 35 H       -2.5790    -6.7700    -1.7500 H     1 <1>   0.0800 
 36 H       -4.0980    -6.3000    -2.4530 H     1 <1>   0.0800 
 37 H       -5.9410    -6.5000     2.0530 H     1 <1>   0.0800 
 38 H       -4.2020    -6.5090     2.0210 H     1 <1>   0.0800 
 39 H       -3.7080    -8.7670    -1.8890 H     1 <1>   0.0800 
 40 H       -5.2450    -8.1070    -1.4740 H     1 <1>   0.0800 
 41 H       -3.0600    -8.1080     0.6050 H     1 <1>   0.0800 
 42 H       -3.8730    -9.5940     0.2050 H     1 <1>   0.0800 
 43 H       -5.8600    -8.5560     2.9900 H     1 <1>   0.0800 
 44 H       -4.2120    -9.0460     2.7360 H     1 <1>   0.0800 
 45 H       -6.3870    -9.7380     0.3080 H     1 <1>   0.3700 
 46 H       -6.8050   -13.0750     1.9060 H     1 <1>   0.1500 
 47 H       -7.3040   -10.6710    -1.5800 H     1 <1>   0.1500 
 48 H       -8.6280   -14.7050    -1.5640 H     1 <1>   0.1500 
 49 H       -8.3920   -17.1010     1.1590 H     1 <1>   0.0800 
 50 H       -7.8380   -16.6300    -0.4440 H     1 <1>   0.0800 
 51 H       -9.4360   -16.1190     0.1370 H     1 <1>   0.0800 
 52 H       -9.2680   -13.0270    -4.7260 H     1 <1>   0.0800 
 53 H       -9.9500   -13.7330    -3.2650 H     1 <1>   0.0800 
 54 H       -8.3680   -14.2700    -3.8640 H     1 <1>   0.0800 
@<TRIPOS>BOND
  1   1   2  1   
  2   2   3  ar  
  3   2   4  ar  
  4   3   5  ar  
  5   3  29  1   
  6   4   6  ar  
  7   4  30  1   
  8   5   7  ar  
  9   5  31  1   
 10   6   7  ar  
 11   6  32  1   
 12   7   8  1   
 13   8   9  1   
 14   8  10  1   
 15   9  11  1   
 16   9  33  1   
 17   9  34  1   
 18  10  12  1   
 19  10  35  1   
 20  10  36  1   
 21  11  13  1   
 22  11  37  1   
 23  11  38  1   
 24  12  14  1   
 25  12  39  1   
 26  12  40  1   
 27  13  14  1   
 28  13  15  1   
 29  14  41  1   
 30  14  42  1   
 31  15  16  1   
 32  15  43  1   
 33  15  44  1   
 34  16  17  2   
 35  16  18  am  
 36  18  19  1   
 37  18  45  1   
 38  19  20  ar  
 39  19  21  ar  
 40  20  22  ar  
 41  20  46  1   
 42  21  23  ar  
 43  21  47  1   
 44  22  24  1   
 45  22  25  ar  
 46  23  25  ar  
 47  23  26  1   
 48  24  27  1   
 49  25  48  1   
 50  26  28  1   
 51  27  49  1   
 52  27  50  1   
 53  27  51  1   
 54  28  52  1   
 55  28  53  1   
 56  28  54  1   
@<TRIPOS>SUBSTRUCTURE
  1 ****  13 GROUP 4 **** **** 0

# MOE 2024.06 (io_trps.svl 2023.06)
