@<TRIPOS>MOLECULE
F1913-1492
21 21 1 0 0 
SMALL
USER_CHARGES


@<TRIPOS>ATOM
  1 F        0.4650    -0.2300    -0.1360 F     1 <1>  -0.3400 
  2 C        1.7880    -0.3440    -0.1450 C.3   1 <1>   1.0200 
  3 F        2.1410    -0.5910     1.1110 F     1 <1>  -0.3400 
  4 F        2.0580    -1.4450    -0.8350 F     1 <1>  -0.3400 
  5 C        2.4550     0.9220    -0.7310 C.3   1 <1>   0.1200 
  6 O        3.8520     0.8420    -0.9070 O.3   1 <1>  -0.5380 
  7 C        4.6210     1.1570     0.2230 C.3   1 <1>   0.2580 
  8 C        4.7640     2.6890     0.4460 C.3   1 <1>   0.0000 
  9 C        6.1370     1.1370    -0.1040 C.3   1 <1>   0.0000 
 10 C        6.0160     2.6420    -0.4740 C.3   1 <1>  -0.0710 
 11 C        7.1670     3.5230    -0.0120 C.2   1 <1>   0.8710 
 12 O        6.9150     4.6560     0.4150 O.co2 1 <1>  -0.9000 
 13 O        8.3220     3.0880    -0.0750 O.co2 1 <1>  -0.9000 
 14 H        2.2220     1.7690    -0.1130 H     1 <1>   0.0800 
 15 H        2.0350     1.0920    -1.7040 H     1 <1>   0.0800 
 16 H        4.3400     0.5790     1.0840 H     1 <1>   0.0000 
 17 H        5.0070     2.9220     1.4680 H     1 <1>   0.0000 
 18 H        3.9580     3.2840     0.0560 H     1 <1>   0.0000 
 19 H        6.4040     0.4980    -0.9270 H     1 <1>   0.0000 
 20 H        6.7350     0.9710     0.7770 H     1 <1>   0.0000 
 21 H        5.7620     2.7860    -1.5110 H     1 <1>   0.0000 
@<TRIPOS>BOND
  1   1   2  1   
  2   2   3  1   
  3   2   4  1   
  4   2   5  1   
  5   5   6  1   
  6   5  14  1   
  7   5  15  1   
  8   6   7  1   
  9   7   8  1   
 10   7   9  1   
 11   7  16  1   
 12   8  10  1   
 13   8  17  1   
 14   8  18  1   
 15   9  10  1   
 16   9  19  1   
 17   9  20  1   
 18  10  11  1   
 19  10  21  1   
 20  11  12  ar  
 21  11  13  ar  
@<TRIPOS>SUBSTRUCTURE
  1 ****   7 GROUP 4 **** **** 0

# MOE 2024.06 (io_trps.svl 2023.06)
