@<TRIPOS>MOLECULE
NONAME
51 52 1 0 0 
SMALL
USER_CHARGES


@<TRIPOS>ATOM
  1 O       -0.2230     0.9390     0.4020 O.3   1 <1>  -0.6800 
  2 C        0.8330     0.1020     0.0860 C.3   1 <1>   0.1200 
  3 C        2.1120     0.7240     0.6660 C.3   1 <1>   0.3430 
  4 N        3.3180    -0.1440     0.4700 N.4   1 <1>  -0.9590 
  5 C        3.2740    -1.3970     1.2710 C.3   1 <1>   0.5230 
  6 C        4.6150     0.5710     0.6330 C.3   1 <1>   0.3430 
  7 C        2.9330    -2.5310     0.3110 C.2   1 <1>   0.0070 
  8 C        4.8620     1.5670    -0.5010 C.3   1 <1>  -0.0220 
  9 N        2.7730    -2.3560    -0.9680 N.2   1 <1>  -0.5650 
 10 N        2.7690    -3.8170     0.7020 N.pl3 1 <1>   0.0330 
 11 C        6.3170     2.0320    -0.4210 C.2   1 <1>  -0.2760 
 12 C        2.4920    -3.5890    -1.4320 C.2   1 <1>   0.0770 
 13 C        2.4850    -4.4900    -0.4270 C.2   1 <1>  -0.3020 
 14 C        7.3290     1.2360    -0.8190 C.2   1 <1>  -0.2760 
 15 C        6.5380     3.4480     0.1680 C.3   1 <1>   0.1380 
 16 C        8.7990     1.6220    -0.6860 C.3   1 <1>  -0.0220 
 17 C        7.2090    -0.1500    -1.4540 C.3   1 <1>  -0.1020 
 18 C        8.0140     3.8850     0.0170 C.3   1 <1>  -0.1600 
 19 C        5.7020     4.5170    -0.5610 C.3   1 <1>  -0.2400 
 20 C        6.1560     3.4480     1.6560 C.3   1 <1>  -0.2400 
 21 C        9.0040     2.7590     0.3140 C.3   1 <1>  -0.1600 
 22 H       -1.0630     0.6230     0.0050 H     1 <1>   0.4000 
 23 H        0.8950     0.0260    -0.9860 H     1 <1>   0.0800 
 24 H        0.6270    -0.8620     0.5150 H     1 <1>   0.0800 
 25 H        1.9670     0.9120     1.7170 H     1 <1>   0.0800 
 26 H        2.2650     1.6700     0.1740 H     1 <1>   0.0800 
 27 H        3.2790    -0.5220    -0.5000 H     1 <1>   0.4500 
 28 H        2.5310    -1.3260     2.0480 H     1 <1>   0.0800 
 29 H        4.2350    -1.5900     1.7200 H     1 <1>   0.0800 
 30 H        5.4210    -0.1440     0.6190 H     1 <1>   0.0800 
 31 H        4.6460     1.0850     1.5790 H     1 <1>   0.0800 
 32 H        4.1710     2.3800    -0.4240 H     1 <1>   0.0800 
 33 H        4.6930     1.0970    -1.4520 H     1 <1>   0.0800 
 34 H        2.8420    -4.2240     1.6420 H     1 <1>   0.2700 
 35 H        2.3070    -3.7720    -2.4800 H     1 <1>   0.1500 
 36 H        2.2990    -5.5500    -0.4590 H     1 <1>   0.1500 
 37 H        9.1710     1.9170    -1.6520 H     1 <1>   0.0800 
 38 H        9.3800     0.7790    -0.3540 H     1 <1>   0.0800 
 39 H        7.6830    -0.1430    -2.4200 H     1 <1>   0.0800 
 40 H        6.1970    -0.4730    -1.5960 H     1 <1>   0.0800 
 41 H        7.7060    -0.8810    -0.8410 H     1 <1>   0.0800 
 42 H        8.2220     4.7250     0.6570 H     1 <1>   0.0800 
 43 H        8.1850     4.2080    -0.9950 H     1 <1>   0.0800 
 44 H        5.8260     4.4170    -1.6250 H     1 <1>   0.0800 
 45 H        6.0270     5.5020    -0.2760 H     1 <1>   0.0800 
 46 H        4.6580     4.4520    -0.3280 H     1 <1>   0.0800 
 47 H        6.6980     2.6840     2.1820 H     1 <1>   0.0800 
 48 H        5.1040     3.2760     1.7840 H     1 <1>   0.0800 
 49 H        6.3900     4.3980     2.1030 H     1 <1>   0.0800 
 50 H       10.0120     3.1270     0.2370 H     1 <1>   0.0800 
 51 H        8.8590     2.3930     1.3140 H     1 <1>   0.0800 
@<TRIPOS>BOND
  1   1   2  1   
  2   1  22  1   
  3   2   3  1   
  4   2  23  1   
  5   2  24  1   
  6   3   4  1   
  7   3  25  1   
  8   3  26  1   
  9   4   5  1   
 10   4   6  1   
 11   4  27  1   
 12   5   7  1   
 13   5  28  1   
 14   5  29  1   
 15   6   8  1   
 16   6  30  1   
 17   6  31  1   
 18   7   9  2   
 19   7  10  1   
 20   8  11  1   
 21   8  32  1   
 22   8  33  1   
 23   9  12  1   
 24  10  13  1   
 25  10  34  1   
 26  11  14  2   
 27  11  15  1   
 28  12  13  2   
 29  12  35  1   
 30  13  36  1   
 31  14  16  1   
 32  14  17  1   
 33  15  18  1   
 34  15  19  1   
 35  15  20  1   
 36  16  21  1   
 37  16  37  1   
 38  16  38  1   
 39  17  39  1   
 40  17  40  1   
 41  17  41  1   
 42  18  21  1   
 43  18  42  1   
 44  18  43  1   
 45  19  44  1   
 46  19  45  1   
 47  19  46  1   
 48  20  47  1   
 49  20  48  1   
 50  20  49  1   
 51  21  50  1   
 52  21  51  1   
@<TRIPOS>SUBSTRUCTURE
  1 ****   6 GROUP 4 **** **** 0

# MOE 2024.06 (io_trps.svl 2023.06)
