@<TRIPOS>MOLECULE
NONAME
48 49 1 0 0 
SMALL
USER_CHARGES


@<TRIPOS>ATOM
  1 O       -0.1540    -0.0260     1.4090 O.2   1 <1>  -0.5700 
  2 C       -0.9600     0.8490     1.1670 C.2   1 <1>   0.5690 
  3 N       -1.9900     0.5970     0.2770 N.am  1 <1>  -0.6600 
  4 C       -0.7580     2.2080     1.9220 C.3   1 <1>   0.3410 
  5 C       -1.9960    -0.7150    -0.4670 C.3   1 <1>   0.1400 
  6 C       -3.0640     1.5650    -0.1200 C.3   1 <1>   0.1400 
  7 O       -0.8800     3.3580     1.0890 O.3   1 <1>  -0.3630 
  8 C       -1.8430     2.3670     3.0000 C.3   1 <1>  -0.2400 
  9 C        0.6070     2.3340     2.6330 C.3   1 <1>  -0.2400 
 10 C       -3.2390    -0.8740    -1.3500 C.3   1 <1>  -0.1860 
 11 C       -3.1070     1.6740    -1.6430 C.3   1 <1>  -0.1600 
 12 C       -0.3300     3.5500    -0.1460 C.ar  1 <1>   0.0820 
 13 C       -3.2260    -2.1490    -2.1580 C.2   1 <1>   0.9060 
 14 C       -3.3870     0.3160    -2.3000 C.3   1 <1>   0.2000 
 15 C       -0.7580     4.6680    -0.8650 C.ar  1 <1>  -0.1440 
 16 C        0.6010     2.6830    -0.7100 C.ar  1 <1>  -0.1500 
 17 O       -2.2580    -2.9110    -2.1020 O.co2 1 <1>  -0.9000 
 18 O       -4.2080    -2.3740    -2.8790 O.co2 1 <1>  -0.9000 
 19 O       -4.6860     0.2960    -2.7600 O.3   1 <1>  -0.6800 
 20 C       -0.2700     4.8900    -2.1520 C.ar  1 <1>  -0.1440 
 21 C       -1.7720     5.6220    -0.2290 C.3   1 <1>  -0.0970 
 22 C        1.0870     2.9140    -1.9810 C.ar  1 <1>  -0.1500 
 23 C        0.6510     4.0100    -2.6980 C.ar  1 <1>  -0.1500 
 24 C       -0.7190     6.0720    -3.0010 C.3   1 <1>  -0.0970 
 25 H       -1.1130    -0.7700    -1.0820 H     1 <1>   0.0800 
 26 H       -1.9520    -1.5290     0.2370 H     1 <1>   0.0800 
 27 H       -4.0130     1.2070     0.2420 H     1 <1>   0.0800 
 28 H       -2.9070     2.5380     0.2960 H     1 <1>   0.0800 
 29 H       -1.7730     1.5590     3.7060 H     1 <1>   0.0800 
 30 H       -2.8230     2.3410     2.5640 H     1 <1>   0.0800 
 31 H       -1.7180     3.2960     3.5270 H     1 <1>   0.0800 
 32 H        0.7060     1.5620     3.3740 H     1 <1>   0.0800 
 33 H        0.6920     3.2890     3.1190 H     1 <1>   0.0800 
 34 H        1.4170     2.2230     1.9380 H     1 <1>   0.0800 
 35 H       -4.0910    -0.9350    -0.7020 H     1 <1>   0.0800 
 36 H       -2.1490     2.0300    -1.9760 H     1 <1>   0.0800 
 37 H       -3.8440     2.3970    -1.9440 H     1 <1>   0.0800 
 38 H       -2.7410     0.1880    -3.1540 H     1 <1>   0.0800 
 39 H        0.9620     1.8180    -0.1910 H     1 <1>   0.1500 
 40 H       -4.8610    -0.6550    -3.0100 H     1 <1>   0.4000 
 41 H       -1.7090     6.6100    -0.6420 H     1 <1>   0.0800 
 42 H       -1.5960     5.7140     0.8270 H     1 <1>   0.0800 
 43 H       -2.7650     5.2420    -0.3820 H     1 <1>   0.0800 
 44 H        1.8020     2.2350    -2.4130 H     1 <1>   0.1500 
 45 H        1.0370     4.1710    -3.6890 H     1 <1>   0.1500 
 46 H       -0.3470     5.9910    -4.0060 H     1 <1>   0.0800 
 47 H       -0.3500     6.9880    -2.5780 H     1 <1>   0.0800 
 48 H       -1.7920     6.1090    -3.0470 H     1 <1>   0.0800 
@<TRIPOS>BOND
  1   1   2  2   
  2   2   3  am  
  3   2   4  1   
  4   3   5  1   
  5   3   6  1   
  6   4   7  1   
  7   4   8  1   
  8   4   9  1   
  9   5  10  1   
 10   5  25  1   
 11   5  26  1   
 12   6  11  1   
 13   6  27  1   
 14   6  28  1   
 15   7  12  1   
 16   8  29  1   
 17   8  30  1   
 18   8  31  1   
 19   9  32  1   
 20   9  33  1   
 21   9  34  1   
 22  10  13  1   
 23  10  14  1   
 24  10  35  1   
 25  11  14  1   
 26  11  36  1   
 27  11  37  1   
 28  12  15  ar  
 29  12  16  ar  
 30  13  17  ar  
 31  13  18  ar  
 32  14  19  1   
 33  14  38  1   
 34  15  20  ar  
 35  15  21  1   
 36  16  22  ar  
 37  16  39  1   
 38  19  40  1   
 39  20  23  ar  
 40  20  24  1   
 41  21  41  1   
 42  21  42  1   
 43  21  43  1   
 44  22  23  ar  
 45  22  44  1   
 46  23  45  1   
 47  24  46  1   
 48  24  47  1   
 49  24  48  1   
@<TRIPOS>SUBSTRUCTURE
  1 ****   3 GROUP 4 **** **** 0

# MOE 2024.06 (io_trps.svl 2023.06)
