@<TRIPOS>MOLECULE
NONAME
44 46 1 0 0 
SMALL
USER_CHARGES


@<TRIPOS>ATOM
  1 O        0.3810     0.6370     0.8760 O.3   1 <1>  -0.0190 
  2 N        1.3420    -0.2180     1.0780 N.2   1 <1>  -0.4100 
  3 C        0.8250     1.7710     0.4040 C.2   1 <1>  -0.0400 
  4 C        2.4260     0.3760     0.7280 C.2   1 <1>   0.1080 
  5 C        2.1590     1.6670     0.2800 C.2   1 <1>  -0.1500 
  6 C       -0.1660     2.8850     0.1070 C.3   1 <1>   0.0200 
  7 C        3.8000    -0.2500     0.7970 C.3   1 <1>  -0.0590 
  8 C        0.5240     4.2080    -0.2660 C.3   1 <1>  -0.0800 
  9 C       -0.4120     5.3180    -0.7410 C.3   1 <1>   0.2000 
 10 C        1.2740     4.8560     0.8960 C.3   1 <1>   0.2090 
 11 O       -1.5660     5.3080     0.0560 O.3   1 <1>  -0.5600 
 12 C        0.4000     6.6010    -0.5030 C.3   1 <1>   0.2090 
 13 N        1.4520     6.2760     0.5040 N.pl3 1 <1>  -0.8380 
 14 C       -2.6610     5.9810    -0.4800 C.3   1 <1>   0.0400 
 15 C        2.7450     6.6730     0.1940 C.ar  1 <1>   0.4100 
 16 N        3.3130     6.0310    -0.8220 N.ar  1 <1>  -0.6200 
 17 C        3.4020     7.6990     0.9110 C.ar  1 <1>   0.1670 
 18 C        4.5330     6.4610    -1.0820 C.ar  1 <1>   0.1670 
 19 N        4.6210     8.1260     0.6440 N.ar  1 <1>  -0.6200 
 20 C        2.7010     8.3930     2.0660 C.3   1 <1>  -0.0970 
 21 C        5.1650     7.4750    -0.3730 C.ar  1 <1>   0.1600 
 22 C        5.2380     5.7730    -2.2330 C.3   1 <1>  -0.0970 
 23 H        2.8820     2.3780    -0.0750 H     1 <1>   0.1500 
 24 H       -0.7990     2.5700    -0.7030 H     1 <1>   0.0800 
 25 H       -0.7900     3.0300     0.9720 H     1 <1>   0.0800 
 26 H        4.2620    -0.2240    -0.1730 H     1 <1>   0.0800 
 27 H        3.7220    -1.2720     1.1190 H     1 <1>   0.0800 
 28 H        4.4110     0.2910     1.4960 H     1 <1>   0.0800 
 29 H        1.2340     4.0240    -1.0520 H     1 <1>   0.0800 
 30 H       -0.6900     5.1910    -1.7730 H     1 <1>   0.0800 
 31 H        2.2210     4.3780     1.0760 H     1 <1>   0.0800 
 32 H        0.6810     4.8180     1.7940 H     1 <1>   0.0800 
 33 H       -0.2230     7.4000    -0.1430 H     1 <1>   0.0800 
 34 H        0.8660     6.9060    -1.4240 H     1 <1>   0.0800 
 35 H       -3.4730     5.9070     0.2220 H     1 <1>   0.0800 
 36 H       -2.9450     5.5160    -1.4090 H     1 <1>   0.0800 
 37 H       -2.4120     7.0160    -0.6330 H     1 <1>   0.0800 
 38 H        2.1410     7.6830     2.6460 H     1 <1>   0.0800 
 39 H        2.0300     9.1370     1.6800 H     1 <1>   0.0800 
 40 H        3.4190     8.8680     2.7090 H     1 <1>   0.0800 
 41 H        6.1610     7.7670    -0.6510 H     1 <1>   0.1500 
 42 H        6.2220     6.1770    -2.3840 H     1 <1>   0.0800 
 43 H        4.6670     5.9050    -3.1340 H     1 <1>   0.0800 
 44 H        5.3210     4.7220    -2.0270 H     1 <1>   0.0800 
@<TRIPOS>BOND
  1   1   2  1   
  2   1   3  1   
  3   2   4  2   
  4   3   5  2   
  5   3   6  1   
  6   4   5  1   
  7   4   7  1   
  8   5  23  1   
  9   6   8  1   
 10   6  24  1   
 11   6  25  1   
 12   7  26  1   
 13   7  27  1   
 14   7  28  1   
 15   8   9  1   
 16   8  10  1   
 17   8  29  1   
 18   9  11  1   
 19   9  12  1   
 20   9  30  1   
 21  10  13  1   
 22  10  31  1   
 23  10  32  1   
 24  11  14  1   
 25  12  13  1   
 26  12  33  1   
 27  12  34  1   
 28  13  15  1   
 29  14  35  1   
 30  14  36  1   
 31  14  37  1   
 32  15  16  ar  
 33  15  17  ar  
 34  16  18  ar  
 35  17  19  ar  
 36  17  20  1   
 37  18  21  ar  
 38  18  22  1   
 39  19  21  ar  
 40  20  38  1   
 41  20  39  1   
 42  20  40  1   
 43  21  41  1   
 44  22  42  1   
 45  22  43  1   
 46  22  44  1   
@<TRIPOS>SUBSTRUCTURE
  1 ****  10 GROUP 4 **** **** 0

# MOE 2024.06 (io_trps.svl 2023.06)
