@<TRIPOS>MOLECULE
NONAME
52 55 1 0 0 
SMALL
USER_CHARGES


@<TRIPOS>ATOM
  1 O       -0.9090     0.0100     1.6730 O.2   1 <1>  -0.5700 
  2 C       -1.5630     0.6100     0.8520 C.2   1 <1>   0.5690 
  3 N       -2.4260    -0.0770     0.0340 N.am  1 <1>  -0.6600 
  4 C       -1.3730     2.1330     0.8080 C.3   1 <1>  -0.0190 
  5 C       -3.3340     0.4340    -1.0260 C.3   1 <1>   0.1400 
  6 C       -2.6010    -1.5480     0.1680 C.3   1 <1>   0.1400 
  7 C       -2.5680     2.9030     1.4100 C.3   1 <1>  -0.1600 
  8 C       -0.9670     2.6910    -0.5750 C.3   1 <1>  -0.1600 
  9 C       -4.4090    -0.6410    -1.1520 C.3   1 <1>   0.2000 
 10 C       -3.6450    -1.9430    -0.8860 C.3   1 <1>  -0.0800 
 11 C       -2.2980     4.4160     1.4520 C.3   1 <1>  -0.1600 
 12 C       -0.6980     4.2020    -0.5070 C.3   1 <1>  -0.1600 
 13 O       -5.3410    -0.4300    -0.1460 O.3   1 <1>  -0.6800 
 14 C       -4.5360    -3.1360    -0.4800 C.3   1 <1>  -0.0170 
 15 C       -1.9060     4.9450     0.0700 C.3   1 <1>   0.2000 
 16 C       -3.8500    -4.5030    -0.3570 C.ar  1 <1>  -0.1440 
 17 O       -1.5770     6.2750     0.1930 O.3   1 <1>  -0.6800 
 18 C       -4.5720    -5.6030     0.1720 C.ar  1 <1>   0.0000 
 19 C       -2.5600    -4.7420    -0.7440 C.ar  1 <1>  -0.1500 
 20 C       -3.9050    -6.8480     0.2820 C.ar  1 <1>   0.3100 
 21 C       -5.9220    -5.5420     0.5940 C.ar  1 <1>  -0.1500 
 22 C       -1.9960    -6.0140    -0.5950 C.ar  1 <1>   0.1600 
 23 N       -2.6190    -7.0360    -0.1040 N.ar  1 <1>  -0.6200 
 24 C       -4.5980    -7.9500     0.8090 C.ar  1 <1>  -0.1500 
 25 C       -6.5690    -6.6350     1.1020 C.ar  1 <1>  -0.1500 
 26 C       -5.9010    -7.8560     1.2140 C.ar  1 <1>  -0.1500 
 27 H       -0.5370     2.3300     1.4580 H     1 <1>   0.0800 
 28 H       -3.7650     1.3880    -0.7890 H     1 <1>   0.0800 
 29 H       -2.7860     0.5040    -1.9490 H     1 <1>   0.0800 
 30 H       -1.6610    -2.0500     0.0130 H     1 <1>   0.0800 
 31 H       -2.9530    -1.7700     1.1620 H     1 <1>   0.0800 
 32 H       -3.4580     2.7250     0.8370 H     1 <1>   0.0800 
 33 H       -2.7490     2.5480     2.4110 H     1 <1>   0.0800 
 34 H       -0.0820     2.1840    -0.9180 H     1 <1>   0.0800 
 35 H       -1.7440     2.5220    -1.2940 H     1 <1>   0.0800 
 36 H       -4.9180    -0.6260    -2.1010 H     1 <1>   0.0800 
 37 H       -3.1270    -2.1890    -1.7960 H     1 <1>   0.0800 
 38 H       -1.5030     4.6070     2.1520 H     1 <1>   0.0800 
 39 H       -3.1830     4.9260     1.7920 H     1 <1>   0.0800 
 40 H       -0.4910     4.5730    -1.4970 H     1 <1>   0.0800 
 41 H        0.1660     4.3760     0.1110 H     1 <1>   0.0800 
 42 H       -4.8650    -0.3130     0.7010 H     1 <1>   0.4000 
 43 H       -5.3280    -3.2270    -1.2030 H     1 <1>   0.0800 
 44 H       -4.9910    -2.9060     0.4670 H     1 <1>   0.0800 
 45 H       -2.7430     4.8770    -0.6060 H     1 <1>   0.0800 
 46 H       -0.8250     6.3760     0.8050 H     1 <1>   0.4000 
 47 H       -1.9300    -3.9870    -1.1710 H     1 <1>   0.1500 
 48 H       -6.4630    -4.6180     0.5140 H     1 <1>   0.1500 
 49 H       -0.9750    -6.1510    -0.9090 H     1 <1>   0.1500 
 50 H       -4.0630    -8.8780     0.8830 H     1 <1>   0.1500 
 51 H       -7.5960    -6.5710     1.4200 H     1 <1>   0.1500 
 52 H       -6.4190    -8.7100     1.6160 H     1 <1>   0.1500 
@<TRIPOS>BOND
  1   1   2  2   
  2   2   3  am  
  3   2   4  1   
  4   3   5  1   
  5   3   6  1   
  6   4   7  1   
  7   4   8  1   
  8   4  27  1   
  9   5   9  1   
 10   5  28  1   
 11   5  29  1   
 12   6  10  1   
 13   6  30  1   
 14   6  31  1   
 15   7  11  1   
 16   7  32  1   
 17   7  33  1   
 18   8  12  1   
 19   8  34  1   
 20   8  35  1   
 21   9  10  1   
 22   9  13  1   
 23   9  36  1   
 24  10  14  1   
 25  10  37  1   
 26  11  15  1   
 27  11  38  1   
 28  11  39  1   
 29  12  15  1   
 30  12  40  1   
 31  12  41  1   
 32  13  42  1   
 33  14  16  1   
 34  14  43  1   
 35  14  44  1   
 36  15  17  1   
 37  15  45  1   
 38  16  18  ar  
 39  16  19  ar  
 40  17  46  1   
 41  18  20  ar  
 42  18  21  ar  
 43  19  22  ar  
 44  19  47  1   
 45  20  23  ar  
 46  20  24  ar  
 47  21  25  ar  
 48  21  48  1   
 49  22  23  ar  
 50  22  49  1   
 51  24  26  ar  
 52  24  50  1   
 53  25  26  ar  
 54  25  51  1   
 55  26  52  1   
@<TRIPOS>SUBSTRUCTURE
  1 ****   6 GROUP 4 **** **** 0

# MOE 2024.06 (io_trps.svl 2023.06)
