@<TRIPOS>MOLECULE
NONAME
51 54 1 0 0 
SMALL
USER_CHARGES


@<TRIPOS>ATOM
  1 O       -1.4990     1.3640    -2.7610 O.2   1 <1>  -0.5700 
  2 C       -1.9110     1.3490    -1.6170 C.2   1 <1>   0.5440 
  3 N       -2.4810     0.1930    -1.1260 N.am  1 <1>  -0.6600 
  4 C       -1.7930     2.5470    -0.8130 C.ar  1 <1>   0.0860 
  5 C       -2.6680    -0.0890     0.3250 C.3   1 <1>   0.1400 
  6 C       -2.9030    -0.8810    -2.0750 C.3   1 <1>   0.1400 
  7 C       -0.5820     3.1800    -0.5980 C.ar  1 <1>  -0.1500 
  8 C       -2.8880     3.1520    -0.2120 C.ar  1 <1>  -0.1500 
  9 C       -4.1060    -0.5460     0.5850 C.3   1 <1>  -0.1600 
 10 C       -3.4630    -2.1070    -1.3480 C.3   1 <1>  -0.1600 
 11 C       -0.5130     4.3170     0.1860 C.ar  1 <1>   0.3930 
 12 C       -2.7220     4.2900     0.5530 C.ar  1 <1>   0.1600 
 13 C       -4.5470    -1.7200    -0.3250 C.3   1 <1>   0.4240 
 14 O        0.7070     4.8690     0.3550 O.3   1 <1>  -0.3630 
 15 N       -1.5620     4.8850     0.7730 N.ar  1 <1>  -0.6200 
 16 O       -5.5920    -1.2260    -1.1340 O.3   1 <1>  -0.5600 
 17 C       -4.9880    -2.9650     0.4950 C.ar  1 <1>  -0.1430 
 18 C        0.8730     6.0450     1.1240 C.3   1 <1>   0.0400 
 19 C       -6.8820    -1.2670    -0.6180 C.3   1 <1>   0.1200 
 20 C       -4.1040    -3.6280     1.3570 C.ar  1 <1>   0.0830 
 21 C       -6.2910    -3.4460     0.3880 C.ar  1 <1>  -0.1430 
 22 C       -7.2920    -2.7270    -0.4920 C.3   1 <1>  -0.0170 
 23 O       -2.8440    -3.1370     1.5040 O.3   1 <1>  -0.3630 
 24 C       -4.5250    -4.7590     2.0550 C.ar  1 <1>  -0.1500 
 25 C       -6.6970    -4.5710     1.0850 C.ar  1 <1>  -0.1500 
 26 C       -1.8530    -3.8080     2.2520 C.3   1 <1>   0.0400 
 27 C       -5.8140    -5.2300     1.9150 C.ar  1 <1>  -0.1500 
 28 H       -2.4480     0.7750     0.9250 H     1 <1>   0.0800 
 29 H       -1.9810    -0.8650     0.6160 H     1 <1>   0.0800 
 30 H       -2.0610    -1.1710    -2.6810 H     1 <1>   0.0800 
 31 H       -3.6580    -0.4770    -2.7290 H     1 <1>   0.0800 
 32 H        0.3130     2.7890    -1.0440 H     1 <1>   0.1500 
 33 H       -3.8660     2.7290    -0.3490 H     1 <1>   0.1500 
 34 H       -4.7560     0.2970     0.4470 H     1 <1>   0.0800 
 35 H       -4.1830    -0.8390     1.6150 H     1 <1>   0.0800 
 36 H       -2.6470    -2.6160    -0.8760 H     1 <1>   0.0800 
 37 H       -3.8820    -2.7920    -2.0610 H     1 <1>   0.0800 
 38 H       -3.5890     4.7390     1.0080 H     1 <1>   0.1500 
 39 H        1.9150     6.3080     1.1190 H     1 <1>   0.0800 
 40 H        0.5430     5.8530     2.1290 H     1 <1>   0.0800 
 41 H        0.2900     6.8340     0.6810 H     1 <1>   0.0800 
 42 H       -7.5290    -0.7480    -1.3030 H     1 <1>   0.0800 
 43 H       -6.8980    -0.7720     0.3370 H     1 <1>   0.0800 
 44 H       -7.3190    -3.1810    -1.4660 H     1 <1>   0.0800 
 45 H       -8.2760    -2.7820    -0.0620 H     1 <1>   0.0800 
 46 H       -3.8670    -5.2880     2.7160 H     1 <1>   0.1500 
 47 H       -7.7040    -4.9390     0.9850 H     1 <1>   0.1500 
 48 H       -0.9370    -3.2520     2.1680 H     1 <1>   0.0800 
 49 H       -1.7190    -4.7960     1.8480 H     1 <1>   0.0800 
 50 H       -2.1610    -3.8500     3.2820 H     1 <1>   0.0800 
 51 H       -6.1320    -6.1050     2.4550 H     1 <1>   0.1500 
@<TRIPOS>BOND
  1   1   2  2   
  2   2   3  am  
  3   2   4  1   
  4   3   5  1   
  5   3   6  1   
  6   4   7  ar  
  7   4   8  ar  
  8   5   9  1   
  9   5  28  1   
 10   5  29  1   
 11   6  10  1   
 12   6  30  1   
 13   6  31  1   
 14   7  11  ar  
 15   7  32  1   
 16   8  12  ar  
 17   8  33  1   
 18   9  13  1   
 19   9  34  1   
 20   9  35  1   
 21  10  13  1   
 22  10  36  1   
 23  10  37  1   
 24  11  14  1   
 25  11  15  ar  
 26  12  15  ar  
 27  12  38  1   
 28  13  16  1   
 29  13  17  1   
 30  14  18  1   
 31  16  19  1   
 32  17  20  ar  
 33  17  21  ar  
 34  18  39  1   
 35  18  40  1   
 36  18  41  1   
 37  19  22  1   
 38  19  42  1   
 39  19  43  1   
 40  20  23  1   
 41  20  24  ar  
 42  21  22  1   
 43  21  25  ar  
 44  22  44  1   
 45  22  45  1   
 46  23  26  1   
 47  24  27  ar  
 48  24  46  1   
 49  25  27  ar  
 50  25  47  1   
 51  26  48  1   
 52  26  49  1   
 53  26  50  1   
 54  27  51  1   
@<TRIPOS>SUBSTRUCTURE
  1 ****   5 GROUP 4 **** **** 0

# MOE 2024.06 (io_trps.svl 2023.06)
