@<TRIPOS>MOLECULE
NONAME
36 37 1 0 0 
SMALL
USER_CHARGES


@<TRIPOS>ATOM
  1 F        1.9550    -0.4180     0.4830 F     1 <1>  -0.3400 
  2 C        2.3340     0.5010    -0.4030 C.3   1 <1>   1.1640 
  3 F        3.5230     0.1030    -0.8440 F     1 <1>  -0.3400 
  4 F        1.4940     0.3760    -1.4270 F     1 <1>  -0.3400 
  5 C        2.3560     1.9360     0.1900 C.ar  1 <1>   0.1660 
  6 N        2.7530     2.9520    -0.5620 N.ar  1 <1>  -0.6200 
  7 C        1.9640     2.1620     1.4960 C.ar  1 <1>  -0.1500 
  8 C        2.7580     4.1660    -0.0180 C.ar  1 <1>   0.7200 
  9 C        2.0050     3.4490     1.9710 C.ar  1 <1>   0.1600 
 10 N        2.4000     4.4520     1.2310 N.ar  1 <1>  -0.6200 
 11 N        3.1760     5.2050    -0.8160 N.pl3 1 <1>  -0.8380 
 12 C        3.4120     6.5870    -0.2800 C.3   1 <1>   0.3530 
 13 C        3.7610     4.9710    -2.1680 C.3   1 <1>   0.1290 
 14 C        4.8990     6.8720    -0.0800 C.ar  1 <1>   0.1660 
 15 N        5.4390     7.8370    -0.8160 N.ar  1 <1>  -0.6200 
 16 C        5.6070     6.1220     0.8470 C.ar  1 <1>  -0.1500 
 17 C        6.7270     8.0590    -0.6220 C.ar  1 <1>   0.1670 
 18 C        6.9500     6.3600     1.0460 C.ar  1 <1>  -0.1430 
 19 C        7.5120     7.3590     0.2810 C.ar  1 <1>  -0.1500 
 20 C        7.3370     9.1580    -1.4650 C.3   1 <1>  -0.0970 
 21 C        7.7620     5.5580     2.0460 C.3   1 <1>  -0.0970 
 22 H        1.6330     1.3680     2.1410 H     1 <1>   0.1500 
 23 H        1.7060     3.6590     2.9840 H     1 <1>   0.1500 
 24 H        2.9000     6.7420     0.6520 H     1 <1>   0.0800 
 25 H        3.0100     7.3000    -0.9780 H     1 <1>   0.0800 
 26 H        3.1500     4.2830    -2.7260 H     1 <1>   0.0800 
 27 H        4.7510     4.5610    -2.0660 H     1 <1>   0.0800 
 28 H        3.8240     5.8960    -2.7170 H     1 <1>   0.0800 
 29 H        5.1010     5.3530     1.4020 H     1 <1>   0.1500 
 30 H        8.5550     7.5930     0.3840 H     1 <1>   0.1500 
 31 H        6.8310    10.0850    -1.2640 H     1 <1>   0.0800 
 32 H        7.2180     8.9180    -2.5060 H     1 <1>   0.0800 
 33 H        8.3830     9.2780    -1.2520 H     1 <1>   0.0800 
 34 H        7.1440     5.2620     2.8750 H     1 <1>   0.0800 
 35 H        8.5800     6.1450     2.4240 H     1 <1>   0.0800 
 36 H        8.1540     4.6770     1.5720 H     1 <1>   0.0800 
@<TRIPOS>BOND
  1   1   2  1   
  2   2   3  1   
  3   2   4  1   
  4   2   5  1   
  5   5   6  ar  
  6   5   7  ar  
  7   6   8  ar  
  8   7   9  ar  
  9   7  22  1   
 10   8  10  ar  
 11   8  11  1   
 12   9  10  ar  
 13   9  23  1   
 14  11  12  1   
 15  11  13  1   
 16  12  14  1   
 17  12  24  1   
 18  12  25  1   
 19  13  26  1   
 20  13  27  1   
 21  13  28  1   
 22  14  15  ar  
 23  14  16  ar  
 24  15  17  ar  
 25  16  18  ar  
 26  16  29  1   
 27  17  19  ar  
 28  17  20  1   
 29  18  19  ar  
 30  18  21  1   
 31  19  30  1   
 32  20  31  1   
 33  20  32  1   
 34  20  33  1   
 35  21  34  1   
 36  21  35  1   
 37  21  36  1   
@<TRIPOS>SUBSTRUCTURE
  1 ****   8 GROUP 4 **** **** 0

# MOE 2024.06 (io_trps.svl 2023.06)
