@<TRIPOS>MOLECULE
NONAME
47 50 1 0 0 
SMALL
USER_CHARGES


@<TRIPOS>ATOM
  1 O        1.2530    -0.4460     2.1790 O.2   1 <1>  -0.5700 
  2 C        1.8010    -0.6690     1.1150 C.2   1 <1>   0.7160 
  3 N        2.5900     0.3300     0.5810 N.am  1 <1>  -0.6600 
  4 C        1.7170    -1.9830     0.4910 C.2   1 <1>   0.2030 
  5 C        3.6110     0.9560     1.4840 C.3   1 <1>   0.2200 
  6 C        2.6800     0.5520    -0.8960 C.3   1 <1>   0.1400 
  7 N        2.6630    -2.5550    -0.2440 N.2   1 <1>  -0.7070 
  8 C        0.6170    -2.8340     0.6110 C.2   1 <1>  -0.1500 
  9 C        3.9060     2.4270     1.1500 C.3   1 <1>   0.1200 
 10 C        4.9060     0.1070     1.4820 C.3   1 <1>   0.3430 
 11 C        4.0920     0.8940    -1.4120 C.3   1 <1>  -0.0800 
 12 N        2.1430    -3.7490    -0.5910 N.pl3 1 <1>   0.3000 
 13 C        0.9060    -3.9570    -0.0890 C.2   1 <1>  -0.2050 
 14 O        4.8980     2.5250     0.1710 O.3   1 <1>  -0.5600 
 15 N        5.0390    -0.8010     0.2800 N.4   1 <1>  -0.9590 
 16 C        4.4690     2.3570    -1.1370 C.3   1 <1>   0.1200 
 17 C        5.2270    -0.0770    -1.0160 C.3   1 <1>   0.3430 
 18 C        0.1260    -5.1480    -0.3110 C.ar  1 <1>   0.0530 
 19 C        6.1070    -1.8150     0.4900 C.3   1 <1>   0.2630 
 20 C        0.7130    -6.4120    -0.3450 C.ar  1 <1>  -0.1500 
 21 C       -1.2510    -5.0660    -0.5010 C.ar  1 <1>  -0.1500 
 22 C       -0.0450    -7.5470    -0.5730 C.ar  1 <1>  -0.1500 
 23 C       -2.0130    -6.1970    -0.7280 C.ar  1 <1>  -0.1500 
 24 C       -1.4100    -7.4420    -0.7670 C.ar  1 <1>  -0.1500 
 25 H        3.2220     0.9570     2.4880 H     1 <1>   0.0800 
 26 H        2.3220    -0.3160    -1.4200 H     1 <1>   0.0800 
 27 H        2.0100     1.3570    -1.1520 H     1 <1>   0.0800 
 28 H       -0.2770    -2.6130     1.1680 H     1 <1>   0.1500 
 29 H        4.2960     2.9140     2.0260 H     1 <1>   0.0800 
 30 H        3.0190     2.9540     0.8410 H     1 <1>   0.0800 
 31 H        4.8980    -0.4960     2.3740 H     1 <1>   0.0800 
 32 H        5.7600     0.7620     1.5460 H     1 <1>   0.0800 
 33 H        4.0230     0.8380    -2.4840 H     1 <1>   0.0800 
 34 H        2.6300    -4.4290    -1.1890 H     1 <1>   0.2700 
 35 H        4.1310    -1.3090     0.1900 H     1 <1>   0.4500 
 36 H        3.6470     3.0280    -1.3280 H     1 <1>   0.0800 
 37 H        5.2890     2.6490    -1.7710 H     1 <1>   0.0800 
 38 H        6.1550     0.4720    -0.9880 H     1 <1>   0.0800 
 39 H        5.3120    -0.8130    -1.7980 H     1 <1>   0.0800 
 40 H        7.0670    -1.3350     0.5850 H     1 <1>   0.0800 
 41 H        6.1390    -2.4990    -0.3430 H     1 <1>   0.0800 
 42 H        5.9110    -2.3810     1.3870 H     1 <1>   0.0800 
 43 H        1.7690    -6.5180    -0.1830 H     1 <1>   0.1500 
 44 H       -1.7300    -4.1040    -0.4750 H     1 <1>   0.1500 
 45 H        0.4250    -8.5160    -0.5970 H     1 <1>   0.1500 
 46 H       -3.0760    -6.1110    -0.8750 H     1 <1>   0.1500 
 47 H       -2.0020    -8.3240    -0.9440 H     1 <1>   0.1500 
@<TRIPOS>BOND
  1   1   2  2   
  2   2   3  am  
  3   2   4  1   
  4   3   5  1   
  5   3   6  1   
  6   4   7  2   
  7   4   8  1   
  8   5   9  1   
  9   5  10  1   
 10   5  25  1   
 11   6  11  1   
 12   6  26  1   
 13   6  27  1   
 14   7  12  1   
 15   8  13  2   
 16   8  28  1   
 17   9  14  1   
 18   9  29  1   
 19   9  30  1   
 20  10  15  1   
 21  10  31  1   
 22  10  32  1   
 23  11  16  1   
 24  11  17  1   
 25  11  33  1   
 26  12  13  1   
 27  12  34  1   
 28  13  18  1   
 29  14  16  1   
 30  15  17  1   
 31  15  19  1   
 32  15  35  1   
 33  16  36  1   
 34  16  37  1   
 35  17  38  1   
 36  17  39  1   
 37  18  20  ar  
 38  18  21  ar  
 39  19  40  1   
 40  19  41  1   
 41  19  42  1   
 42  20  22  ar  
 43  20  43  1   
 44  21  23  ar  
 45  21  44  1   
 46  22  24  ar  
 47  22  45  1   
 48  23  24  ar  
 49  23  46  1   
 50  24  47  1   
@<TRIPOS>SUBSTRUCTURE
  1 ****   4 GROUP 4 **** **** 0

# MOE 2024.06 (io_trps.svl 2023.06)
