@<TRIPOS>MOLECULE
NONAME
45 48 1 0 0 
SMALL
USER_CHARGES


@<TRIPOS>ATOM
  1 O        0.0380     0.8390     0.4830 O.2   1 <1>  -0.5700 
  2 C       -0.0210     2.0420     0.4910 C.2   1 <1>   0.5690 
  3 N       -1.1530     2.6750     0.8680 N.am  1 <1>  -0.7300 
  4 C        1.1810     2.8700     0.0320 C.3   1 <1>   0.1810 
  5 C       -1.3060     4.1510     0.8830 C.3   1 <1>   0.3640 
  6 O        1.1170     4.2160     0.4490 O.3   1 <1>  -0.5600 
  7 C       -2.6250     4.5010     0.1950 C.ar  1 <1>  -0.1440 
  8 C       -0.1170     4.8710     0.1870 C.3   1 <1>   0.2610 
  9 C       -2.9930     3.9080    -1.0070 C.ar  1 <1>  -0.1500 
 10 C       -3.4760     5.4350     0.7690 C.ar  1 <1>  -0.1500 
 11 C       -0.0240     6.3600     0.5750 C.2   1 <1>   0.5690 
 12 C       -4.1880     4.2430    -1.6210 C.ar  1 <1>  -0.1500 
 13 C       -4.6700     5.7720     0.1560 C.ar  1 <1>  -0.1500 
 14 O       -0.7000     6.7650     1.4970 O.2   1 <1>  -0.5700 
 15 N        0.8010     7.2210    -0.1110 N.am  1 <1>  -0.6600 
 16 C       -5.0270     5.1760    -1.0400 C.ar  1 <1>  -0.1500 
 17 C        0.9430     8.6450     0.3340 C.3   1 <1>   0.3210 
 18 C        1.7130     6.8250    -1.2330 C.3   1 <1>   0.1400 
 19 C        2.4010     9.0810     0.3060 C.2   1 <1>  -0.1810 
 20 C        3.1750     6.9300    -0.7920 C.3   1 <1>   0.0210 
 21 C        3.4250     8.3020    -0.2140 C.2   1 <1>   0.1080 
 22 C        3.0100    10.2120     0.7260 C.2   1 <1>  -0.3320 
 23 N        4.5820     8.8790    -0.1420 N.2   1 <1>  -0.7070 
 24 N        4.3250    10.0630     0.4460 N.pl3 1 <1>   0.3000 
 25 C        2.4250    11.4460     1.3890 C.3   1 <1>  -0.0600 
 26 H       -1.9590     2.1210     1.1580 H     1 <1>   0.3700 
 27 H        1.2410     2.8480    -1.0400 H     1 <1>   0.0800 
 28 H        2.0800     2.4450     0.4390 H     1 <1>   0.0800 
 29 H       -1.3490     4.4600     1.9140 H     1 <1>   0.0800 
 30 H       -0.2840     4.8250    -0.8730 H     1 <1>   0.0800 
 31 H       -2.3560     3.1770    -1.4740 H     1 <1>   0.1500 
 32 H       -3.2110     5.9140     1.6970 H     1 <1>   0.1500 
 33 H       -4.4660     3.7770    -2.5500 H     1 <1>   0.1500 
 34 H       -5.3210     6.4990     0.6110 H     1 <1>   0.1500 
 35 H       -5.9560     5.4370    -1.5160 H     1 <1>   0.1500 
 36 H        0.3720     9.2750    -0.3240 H     1 <1>   0.0800 
 37 H        0.5660     8.7720     1.3340 H     1 <1>   0.0800 
 38 H        1.5160     5.8250    -1.5720 H     1 <1>   0.0800 
 39 H        1.5480     7.4920    -2.0620 H     1 <1>   0.0800 
 40 H        3.8260     6.7710    -1.6320 H     1 <1>   0.0800 
 41 H        3.3880     6.1860    -0.0470 H     1 <1>   0.0800 
 42 H        5.0670    10.7440     0.6420 H     1 <1>   0.2700 
 43 H        1.3630    11.3350     1.5170 H     1 <1>   0.0800 
 44 H        2.6070    12.3150     0.7830 H     1 <1>   0.0800 
 45 H        2.8700    11.5940     2.3570 H     1 <1>   0.0800 
@<TRIPOS>BOND
  1   1   2  2   
  2   2   3  am  
  3   2   4  1   
  4   3   5  1   
  5   3  26  1   
  6   4   6  1   
  7   4  27  1   
  8   4  28  1   
  9   5   7  1   
 10   5   8  1   
 11   5  29  1   
 12   6   8  1   
 13   7   9  ar  
 14   7  10  ar  
 15   8  11  1   
 16   8  30  1   
 17   9  12  ar  
 18   9  31  1   
 19  10  13  ar  
 20  10  32  1   
 21  11  14  2   
 22  11  15  am  
 23  12  16  ar  
 24  12  33  1   
 25  13  16  ar  
 26  13  34  1   
 27  15  17  1   
 28  15  18  1   
 29  16  35  1   
 30  17  19  1   
 31  17  36  1   
 32  17  37  1   
 33  18  20  1   
 34  18  38  1   
 35  18  39  1   
 36  19  21  1   
 37  19  22  2   
 38  20  21  1   
 39  20  40  1   
 40  20  41  1   
 41  21  23  2   
 42  22  24  1   
 43  22  25  1   
 44  23  24  1   
 45  24  42  1   
 46  25  43  1   
 47  25  44  1   
 48  25  45  1   
@<TRIPOS>SUBSTRUCTURE
  1 ****  11 GROUP 4 **** **** 0

# MOE 2024.06 (io_trps.svl 2023.06)
