@<TRIPOS>MOLECULE
NONAME
56 60 1 0 0 
SMALL
USER_CHARGES


@<TRIPOS>ATOM
  1 O       -3.0100     2.4710     1.7020 O.2   1 <1>  -0.5700 
  2 C       -2.4240     1.9290     0.7860 C.2   1 <1>   0.5440 
  3 N       -2.4760     0.5530     0.7270 N.am  1 <1>  -0.6600 
  4 C       -1.7270     2.7160    -0.2090 C.ar  1 <1>   0.0860 
  5 C       -2.8490    -0.2660     1.9180 C.3   1 <1>   0.1400 
  6 C       -2.3070    -0.2380    -0.5230 C.3   1 <1>   0.1400 
  7 C       -0.3530     2.5470    -0.4170 C.ar  1 <1>   0.0000 
  8 C       -2.4030     3.6520    -1.0020 C.ar  1 <1>   0.1660 
  9 C       -4.1450    -1.0550     1.6520 C.3   1 <1>   0.4230 
 10 C       -3.5820    -1.0570    -0.8060 C.3   1 <1>   0.3430 
 11 C        0.4580     1.6160     0.3360 C.ar  1 <1>   0.0000 
 12 C        0.2220     3.3280    -1.4040 C.ar  1 <1>  -0.1500 
 13 N       -1.8450     4.3780    -1.9540 N.ar  1 <1>  -0.6200 
 14 C       -3.8920     3.9080    -0.8170 C.3   1 <1>  -0.0970 
 15 N       -4.0430    -1.8820     0.3790 N.4   1 <1>  -0.9590 
 16 C       -5.3620    -0.1030     1.6040 C.3   1 <1>   0.1200 
 17 C        0.5550     1.6950     1.7230 C.ar  1 <1>  -0.1500 
 18 C        1.1660     0.6050    -0.3110 C.ar  1 <1>  -0.1500 
 19 C       -0.5480     4.2090    -2.1320 C.ar  1 <1>   0.1600 
 20 C       -5.3570    -2.5690     0.1320 C.3   1 <1>   0.5180 
 21 O       -6.5340    -0.8260     1.3470 O.3   1 <1>  -0.5600 
 22 C        1.3170     0.7920     2.4400 C.ar  1 <1>  -0.1500 
 23 C        1.9310    -0.3010     0.4010 C.ar  1 <1>  -0.1500 
 24 C       -5.2580    -3.4100    -1.1570 C.3   1 <1>  -0.1950 
 25 C       -6.5310    -1.5580     0.1520 C.3   1 <1>   0.1200 
 26 C        2.0060    -0.2100     1.7800 C.ar  1 <1>  -0.1500 
 27 C       -5.5500    -2.9000    -2.5390 C.3   1 <1>  -0.2000 
 28 C       -6.4630    -3.9070    -1.8990 C.3   1 <1>  -0.2000 
 29 H       -2.0460    -0.9490     2.1390 H     1 <1>   0.0800 
 30 H       -2.9780     0.3580     2.7870 H     1 <1>   0.0800 
 31 H       -2.1140     0.4130    -1.3590 H     1 <1>   0.0800 
 32 H       -1.4600    -0.8950    -0.4170 H     1 <1>   0.0800 
 33 H       -4.3000    -1.7160     2.4890 H     1 <1>   0.0800 
 34 H       -3.3980    -1.7010    -1.6500 H     1 <1>   0.0800 
 35 H       -4.3620    -0.3700    -1.0870 H     1 <1>   0.0800 
 36 H        1.2770     3.2520    -1.6030 H     1 <1>   0.1500 
 37 H       -4.4340     2.9860    -0.7210 H     1 <1>   0.0800 
 38 H       -4.2890     4.4460    -1.6590 H     1 <1>   0.0800 
 39 H       -4.0460     4.5000     0.0660 H     1 <1>   0.0800 
 40 H       -3.3440    -2.6140     0.5390 H     1 <1>   0.4500 
 41 H       -5.2450     0.6550     0.8490 H     1 <1>   0.0800 
 42 H       -5.4850     0.3900     2.5540 H     1 <1>   0.0800 
 43 H        0.0290     2.4760     2.2470 H     1 <1>   0.1500 
 44 H        1.1210     0.5290    -1.3830 H     1 <1>   0.1500 
 45 H       -0.0790     4.8060    -2.8970 H     1 <1>   0.1500 
 46 H       -5.5370    -3.2570     0.9420 H     1 <1>   0.0800 
 47 H        1.3810     0.8710     3.5120 H     1 <1>   0.1500 
 48 H        2.4750    -1.0740    -0.1140 H     1 <1>   0.1500 
 49 H       -4.4750    -4.1430    -1.0640 H     1 <1>   0.1000 
 50 H       -7.4700    -2.0810     0.0990 H     1 <1>   0.0800 
 51 H       -6.4790    -0.8690    -0.6720 H     1 <1>   0.0800 
 52 H        2.6050    -0.9110     2.3360 H     1 <1>   0.1500 
 53 H       -5.9560    -1.9180    -2.7120 H     1 <1>   0.1000 
 54 H       -4.9430    -3.2340    -3.3650 H     1 <1>   0.1000 
 55 H       -6.4580    -4.9140    -2.2850 H     1 <1>   0.1000 
 56 H       -7.4580    -3.5870    -1.6410 H     1 <1>   0.1000 
@<TRIPOS>BOND
  1   1   2  2   
  2   2   3  am  
  3   2   4  1   
  4   3   5  1   
  5   3   6  1   
  6   4   7  ar  
  7   4   8  ar  
  8   5   9  1   
  9   5  29  1   
 10   5  30  1   
 11   6  10  1   
 12   6  31  1   
 13   6  32  1   
 14   7  11  1   
 15   7  12  ar  
 16   8  13  ar  
 17   8  14  1   
 18   9  15  1   
 19   9  16  1   
 20   9  33  1   
 21  10  15  1   
 22  10  34  1   
 23  10  35  1   
 24  11  17  ar  
 25  11  18  ar  
 26  12  19  ar  
 27  12  36  1   
 28  13  19  ar  
 29  14  37  1   
 30  14  38  1   
 31  14  39  1   
 32  15  20  1   
 33  15  40  1   
 34  16  21  1   
 35  16  41  1   
 36  16  42  1   
 37  17  22  ar  
 38  17  43  1   
 39  18  23  ar  
 40  18  44  1   
 41  19  45  1   
 42  20  24  1   
 43  20  25  1   
 44  20  46  1   
 45  21  25  1   
 46  22  26  ar  
 47  22  47  1   
 48  23  26  ar  
 49  23  48  1   
 50  24  27  1   
 51  24  28  1   
 52  24  49  1   
 53  25  50  1   
 54  25  51  1   
 55  26  52  1   
 56  27  28  1   
 57  27  53  1   
 58  27  54  1   
 59  28  55  1   
 60  28  56  1   
@<TRIPOS>SUBSTRUCTURE
  1 ****   3 GROUP 4 **** **** 0

# MOE 2024.06 (io_trps.svl 2023.06)
