@<TRIPOS>MOLECULE
NONAME
47 49 1 0 0 
SMALL
USER_CHARGES


@<TRIPOS>ATOM
  1 S       -0.0760     0.1670    -0.5330 S.o2  1 <1>   1.3330 
  2 O        1.3610     0.1070    -0.6910 O.2   1 <1>  -0.6500 
  3 O       -0.9190     0.1290    -1.7070 O.2   1 <1>  -0.6500 
  4 N       -0.5380    -1.1020     0.4950 N.am  1 <1>  -0.8490 
  5 C       -0.5120     1.6320     0.4000 C.3   1 <1>  -0.0550 
  6 C       -0.8370    -2.3320    -0.2450 C.3   1 <1>   0.1160 
  7 C        0.4390    -1.3810     1.5520 C.3   1 <1>   0.1160 
  8 C       -0.2810     2.9370    -0.3880 C.3   1 <1>  -0.0800 
  9 C       -0.7790     4.1980     0.3140 C.3   1 <1>   0.2000 
 10 C        1.1970     3.2290    -0.7010 C.3   1 <1>   0.1100 
 11 O       -0.4340     4.1380     1.6520 O.3   1 <1>  -0.6800 
 12 C        0.0870     5.2750    -0.3250 C.3   1 <1>   0.1100 
 13 N        1.4190     4.6530    -0.4010 N.3   1 <1>  -0.8100 
 14 C        2.3220     5.3060    -1.3640 C.3   1 <1>   0.2900 
 15 C        2.5560     6.7620    -1.0010 C.2   1 <1>  -0.0400 
 16 O        1.7300     7.6800    -1.4210 O.3   1 <1>  -0.0190 
 17 C        3.5110     7.3710    -0.2880 C.2   1 <1>  -0.1500 
 18 N        2.0760     8.8670    -1.0270 N.2   1 <1>  -0.4100 
 19 C        3.1600     8.7280    -0.3250 C.2   1 <1>   0.2350 
 20 C        3.8800     9.8140     0.3090 C.ar  1 <1>   0.0540 
 21 C        3.6260    11.1440     0.0010 C.ar  1 <1>  -0.1500 
 22 C        4.8670     9.6240     1.2670 C.ar  1 <1>  -0.1500 
 23 C        4.3320    12.1570     0.6200 C.ar  1 <1>   0.1600 
 24 C        5.5170    10.7060     1.8290 C.ar  1 <1>   0.1600 
 25 N        5.2750    11.9710     1.5270 N.ar  1 <1>  -0.6200 
 26 H       -1.5490     1.5740     0.6660 H     1 <1>   0.0800 
 27 H        0.0550     1.6580     1.3090 H     1 <1>   0.0800 
 28 H       -1.1440    -3.1100     0.4320 H     1 <1>   0.0800 
 29 H        0.0320    -2.6590    -0.7930 H     1 <1>   0.0800 
 30 H       -1.6390    -2.1570    -0.9420 H     1 <1>   0.0800 
 31 H        0.0570    -2.1350     2.2190 H     1 <1>   0.0800 
 32 H        0.6330    -0.4900     2.1250 H     1 <1>   0.0800 
 33 H        1.3670    -1.7270     1.1270 H     1 <1>   0.0800 
 34 H       -0.8020     2.8610    -1.3270 H     1 <1>   0.0800 
 35 H       -1.8380     4.3690     0.2240 H     1 <1>   0.0800 
 36 H        1.4020     3.0050    -1.7360 H     1 <1>   0.0800 
 37 H        1.8540     2.6380    -0.0840 H     1 <1>   0.0800 
 38 H        0.5360     4.2860     1.6860 H     1 <1>   0.4000 
 39 H        0.0990     6.1790     0.2610 H     1 <1>   0.0800 
 40 H       -0.2790     5.4950    -1.3140 H     1 <1>   0.0800 
 41 H        3.2680     4.7910    -1.3490 H     1 <1>   0.0800 
 42 H        1.9190     5.2430    -2.3600 H     1 <1>   0.0800 
 43 H        4.3580     6.9390     0.2090 H     1 <1>   0.1500 
 44 H        2.8740    11.3880    -0.7270 H     1 <1>   0.1500 
 45 H        5.1330     8.6340     1.5840 H     1 <1>   0.1500 
 46 H        4.1090    13.1770     0.3550 H     1 <1>   0.1500 
 47 H        6.2790    10.5250     2.5690 H     1 <1>   0.1500 
@<TRIPOS>BOND
  1   1   2  2   
  2   1   3  2   
  3   1   4  am  
  4   1   5  1   
  5   4   6  1   
  6   4   7  1   
  7   5   8  1   
  8   5  26  1   
  9   5  27  1   
 10   6  28  1   
 11   6  29  1   
 12   6  30  1   
 13   7  31  1   
 14   7  32  1   
 15   7  33  1   
 16   8   9  1   
 17   8  10  1   
 18   8  34  1   
 19   9  11  1   
 20   9  12  1   
 21   9  35  1   
 22  10  13  1   
 23  10  36  1   
 24  10  37  1   
 25  11  38  1   
 26  12  13  1   
 27  12  39  1   
 28  12  40  1   
 29  13  14  1   
 30  14  15  1   
 31  14  41  1   
 32  14  42  1   
 33  15  16  1   
 34  15  17  2   
 35  16  18  1   
 36  17  19  1   
 37  17  43  1   
 38  18  19  2   
 39  19  20  1   
 40  20  21  ar  
 41  20  22  ar  
 42  21  23  ar  
 43  21  44  1   
 44  22  24  ar  
 45  22  45  1   
 46  23  25  ar  
 47  23  46  1   
 48  24  25  ar  
 49  24  47  1   
@<TRIPOS>SUBSTRUCTURE
  1 ****  13 GROUP 4 **** **** 0

# MOE 2024.06 (io_trps.svl 2023.06)
