@<TRIPOS>MOLECULE
NONAME
34 35 1 0 0 
SMALL
USER_CHARGES


@<TRIPOS>ATOM
  1 CL      -0.1490    -2.6650     2.6510 Cl    1 <1>  -0.1770 
  2 C       -1.3060    -2.3990     1.3690 C.ar  1 <1>   0.1770 
  3 C       -1.4020    -1.1720     0.7340 C.ar  1 <1>   0.1900 
  4 C       -2.1410    -3.4340     0.9880 C.ar  1 <1>  -0.1500 
  5 F       -0.6180    -0.1880     1.0900 F     1 <1>  -0.1900 
  6 C       -2.3170    -0.9550    -0.2790 C.ar  1 <1>  -0.1500 
  7 C       -3.0740    -3.2330    -0.0240 C.ar  1 <1>  -0.1440 
  8 C       -3.1540    -1.9950    -0.6570 C.ar  1 <1>  -0.1500 
  9 C       -3.9950    -4.3700    -0.4310 C.3   1 <1>   0.4870 
 10 N       -5.3260    -4.1420     0.2070 N.4   1 <1>  -0.9590 
 11 C       -5.2730    -4.4920     1.6780 C.3   1 <1>   0.3430 
 12 C       -6.3850    -4.8930    -0.5560 C.3   1 <1>   0.3430 
 13 C       -5.2330    -6.0120     1.9700 C.3   1 <1>   0.2000 
 14 C       -7.1650    -5.8750     0.3310 C.3   1 <1>  -0.1600 
 15 O       -3.9230    -6.4450     1.8700 O.3   1 <1>  -0.6800 
 16 C       -6.1750    -6.8250     1.0420 C.3   1 <1>  -0.1860 
 17 C       -5.4810    -7.6450    -0.0360 C.2   1 <1>   0.9060 
 18 O       -6.0530    -8.6350    -0.4740 O.co2 1 <1>  -0.9000 
 19 O       -4.4240    -7.2160    -0.5190 O.co2 1 <1>  -0.9000 
 20 H       -2.0540    -4.3880     1.4850 H     1 <1>   0.1500 
 21 H       -2.3650     0.0070    -0.7590 H     1 <1>   0.1500 
 22 H       -3.8610    -1.8300    -1.4530 H     1 <1>   0.1500 
 23 H       -3.5690    -5.3050    -0.1160 H     1 <1>   0.0800 
 24 H       -4.0920    -4.3950    -1.5040 H     1 <1>   0.0800 
 25 H       -5.5030    -3.1370     0.1250 H     1 <1>   0.4500 
 26 H       -4.4270    -4.0230     2.1500 H     1 <1>   0.0800 
 27 H       -6.1600    -4.1010     2.1450 H     1 <1>   0.0800 
 28 H       -7.0740    -4.1990    -1.0090 H     1 <1>   0.0800 
 29 H       -5.9210    -5.4590    -1.3500 H     1 <1>   0.0800 
 30 H       -5.5220    -6.1640     2.9960 H     1 <1>   0.0800 
 31 H       -7.7820    -5.3490     1.0380 H     1 <1>   0.0800 
 32 H       -7.8200    -6.4580    -0.2950 H     1 <1>   0.0800 
 33 H       -3.8230    -6.8760     0.9660 H     1 <1>   0.4000 
 34 H       -6.7340    -7.5170     1.6450 H     1 <1>   0.0800 
@<TRIPOS>BOND
  1   1   2  1   
  2   2   3  ar  
  3   2   4  ar  
  4   3   5  1   
  5   3   6  ar  
  6   4   7  ar  
  7   4  20  1   
  8   6   8  ar  
  9   6  21  1   
 10   7   8  ar  
 11   7   9  1   
 12   8  22  1   
 13   9  10  1   
 14   9  23  1   
 15   9  24  1   
 16  10  11  1   
 17  10  12  1   
 18  10  25  1   
 19  11  13  1   
 20  11  26  1   
 21  11  27  1   
 22  12  14  1   
 23  12  28  1   
 24  12  29  1   
 25  13  15  1   
 26  13  16  1   
 27  13  30  1   
 28  14  16  1   
 29  14  31  1   
 30  14  32  1   
 31  15  33  1   
 32  16  17  1   
 33  16  34  1   
 34  17  18  ar  
 35  17  19  ar  
@<TRIPOS>SUBSTRUCTURE
  1 ****   9 GROUP 4 **** **** 0

# MOE 2024.06 (io_trps.svl 2023.06)
