@<TRIPOS>MOLECULE
NONAME
47 48 1 0 0 
SMALL
USER_CHARGES


@<TRIPOS>ATOM
  1 O       -0.1810     0.4650    -0.1510 O.2   1 <1>  -0.5700 
  2 C       -0.2030     1.6570     0.0560 C.2   1 <1>   0.5690 
  3 N       -1.3850     2.3510     0.1190 N.am  1 <1>  -0.6600 
  4 C        1.1190     2.3820     0.2540 C.3   1 <1>  -0.0990 
  5 C       -1.4780     3.7990     0.4740 C.3   1 <1>   0.1400 
  6 C       -2.6730     1.6510    -0.1710 C.3   1 <1>   0.1400 
  7 C        2.3250     1.5120    -0.0950 C.3   1 <1>   0.1200 
  8 C       -2.8260     4.0840     1.1360 C.3   1 <1>  -0.1600 
  9 C       -3.6980     2.6240    -0.7580 C.3   1 <1>  -0.1600 
 10 O        3.4720     2.2750     0.0970 O.3   1 <1>  -0.5600 
 11 C       -3.9990     3.8310     0.1650 C.3   1 <1>   0.2800 
 12 C        4.6480     1.5930    -0.1790 C.3   1 <1>   0.1200 
 13 O       -4.1000     4.9340    -0.7050 O.3   1 <1>  -0.5600 
 14 C       -5.3280     3.6330     0.9390 C.3   1 <1>  -0.1600 
 15 C        5.8050     2.5510     0.0750 C.3   1 <1>  -0.2400 
 16 C       -4.7790     6.0730    -0.2560 C.3   1 <1>   0.1200 
 17 C       -6.5280     4.2720     0.2330 C.3   1 <1>   0.2800 
 18 C       -6.2600     5.7630     0.0130 C.3   1 <1>  -0.1600 
 19 O       -6.6480     3.7000    -1.0060 O.3   1 <1>  -0.6800 
 20 C       -7.8440     4.0180     0.9630 C.3   1 <1>  -0.2400 
 21 H        1.1950     2.6790     1.2830 H     1 <1>   0.0800 
 22 H        1.1340     3.2530    -0.3730 H     1 <1>   0.0800 
 23 H       -1.3790     4.3920    -0.4210 H     1 <1>   0.0800 
 24 H       -0.6890     4.0680     1.1540 H     1 <1>   0.0800 
 25 H       -3.0500     1.2200     0.7400 H     1 <1>   0.0800 
 26 H       -2.5020     0.8500    -0.8720 H     1 <1>   0.0800 
 27 H        2.2800     1.2010    -1.1260 H     1 <1>   0.0800 
 28 H        2.3660     0.6480     0.5470 H     1 <1>   0.0800 
 29 H       -2.8420     5.0920     1.5030 H     1 <1>   0.0800 
 30 H       -2.9120     3.4370     1.9910 H     1 <1>   0.0800 
 31 H       -4.5970     2.0760    -0.9740 H     1 <1>   0.0800 
 32 H       -3.3060     2.9710    -1.6980 H     1 <1>   0.0800 
 33 H        4.6350     1.2770    -1.2080 H     1 <1>   0.0800 
 34 H        4.7150     0.7360     0.4710 H     1 <1>   0.0800 
 35 H       -5.2420     4.0890     1.9090 H     1 <1>   0.0800 
 36 H       -5.5110     2.5890     1.1160 H     1 <1>   0.0800 
 37 H        5.7200     3.4080    -0.5680 H     1 <1>   0.0800 
 38 H        6.7380     2.0590    -0.1280 H     1 <1>   0.0800 
 39 H        5.7990     2.8700     1.1020 H     1 <1>   0.0800 
 40 H       -4.6890     6.8290    -1.0170 H     1 <1>   0.0800 
 41 H       -4.2990     6.4330     0.6360 H     1 <1>   0.0800 
 42 H       -6.8690     6.1320    -0.7940 H     1 <1>   0.0800 
 43 H       -6.5480     6.3120     0.8910 H     1 <1>   0.0800 
 44 H       -5.8360     3.9350    -1.5020 H     1 <1>   0.4000 
 45 H       -7.8110     4.4380     1.9510 H     1 <1>   0.0800 
 46 H       -8.0240     2.9610     1.0480 H     1 <1>   0.0800 
 47 H       -8.6590     4.4700     0.4260 H     1 <1>   0.0800 
@<TRIPOS>BOND
  1   1   2  2   
  2   2   3  am  
  3   2   4  1   
  4   3   5  1   
  5   3   6  1   
  6   4   7  1   
  7   4  21  1   
  8   4  22  1   
  9   5   8  1   
 10   5  23  1   
 11   5  24  1   
 12   6   9  1   
 13   6  25  1   
 14   6  26  1   
 15   7  10  1   
 16   7  27  1   
 17   7  28  1   
 18   8  11  1   
 19   8  29  1   
 20   8  30  1   
 21   9  11  1   
 22   9  31  1   
 23   9  32  1   
 24  10  12  1   
 25  11  13  1   
 26  11  14  1   
 27  12  15  1   
 28  12  33  1   
 29  12  34  1   
 30  13  16  1   
 31  14  17  1   
 32  14  35  1   
 33  14  36  1   
 34  15  37  1   
 35  15  38  1   
 36  15  39  1   
 37  16  18  1   
 38  16  40  1   
 39  16  41  1   
 40  17  18  1   
 41  17  19  1   
 42  17  20  1   
 43  18  42  1   
 44  18  43  1   
 45  19  44  1   
 46  20  45  1   
 47  20  46  1   
 48  20  47  1   
@<TRIPOS>SUBSTRUCTURE
  1 ****   5 GROUP 4 **** **** 0

# MOE 2024.06 (io_trps.svl 2023.06)
