@<TRIPOS>MOLECULE
NONAME
51 54 1 0 0 
SMALL
USER_CHARGES


@<TRIPOS>ATOM
  1 O       -2.2190     0.6430    -1.7530 O.2   1 <1>  -0.5700 
  2 C       -1.7600     0.5570    -0.6250 C.2   1 <1>   0.7160 
  3 N       -1.7890    -0.6590    -0.0080 N.am  1 <1>  -0.7300 
  4 C       -1.2100     1.7040     0.0800 C.2   1 <1>   0.2030 
  5 C       -2.3430    -1.9160    -0.5550 C.3   1 <1>   0.2200 
  6 N       -0.7500     1.6940     1.3200 N.2   1 <1>  -0.7070 
  7 C       -1.0950     2.9890    -0.4660 C.2   1 <1>  -0.1500 
  8 C       -3.6980    -2.2370     0.0590 C.3   1 <1>  -0.0800 
  9 C       -1.5160    -3.0920    -0.0520 C.3   1 <1>   0.1200 
 10 N       -0.3460     2.9510     1.5570 N.pl3 1 <1>   0.3000 
 11 C       -0.5460     3.7560     0.4950 C.2   1 <1>  -0.3320 
 12 C       -3.3270    -2.9650     1.3550 C.3   1 <1>   0.1200 
 13 C       -4.6470    -1.0380     0.2650 C.3   1 <1>  -0.0160 
 14 O       -1.9930    -3.3630     1.2310 O.3   1 <1>  -0.5600 
 15 C       -0.1900     5.2320     0.4630 C.3   1 <1>   0.0200 
 16 C       -6.0080    -1.5000     0.7750 C.ar  1 <1>  -0.1430 
 17 C       -1.0770     6.0250     1.4290 C.3   1 <1>  -0.1600 
 18 C       -6.9810    -2.0760    -0.0760 C.ar  1 <1>   0.0000 
 19 C       -6.3220    -1.3720     2.0960 C.ar  1 <1>  -0.1500 
 20 C       -0.7540     7.5220     1.3880 C.3   1 <1>  -0.2400 
 21 C       -8.1990    -2.4970     0.5100 C.ar  1 <1>   0.3100 
 22 C       -6.8190    -2.2560    -1.4700 C.ar  1 <1>  -0.1500 
 23 C       -7.5620    -1.8140     2.5720 C.ar  1 <1>   0.1600 
 24 N       -8.4740    -2.3600     1.8320 N.ar  1 <1>  -0.6200 
 25 C       -9.1780    -3.0860    -0.3060 C.ar  1 <1>  -0.1500 
 26 C       -7.7950    -2.8310    -2.2380 C.ar  1 <1>  -0.1500 
 27 C       -8.9890    -3.2540    -1.6510 C.ar  1 <1>  -0.1500 
 28 H       -1.4210    -0.7000     0.9480 H     1 <1>   0.3700 
 29 H       -2.3760    -1.8760    -1.6310 H     1 <1>   0.0800 
 30 H       -1.4000     3.2610    -1.4610 H     1 <1>   0.1500 
 31 H       -4.1830    -2.9540    -0.5780 H     1 <1>   0.0800 
 32 H       -0.4640    -2.8760    -0.0120 H     1 <1>   0.0800 
 33 H       -1.6900    -3.9650    -0.6570 H     1 <1>   0.0800 
 34 H        0.0630     3.2390     2.4550 H     1 <1>   0.2700 
 35 H       -3.9410    -3.8360     1.5140 H     1 <1>   0.0800 
 36 H       -3.3920    -2.3140     2.2090 H     1 <1>   0.0800 
 37 H       -4.7630    -0.4950    -0.6560 H     1 <1>   0.0800 
 38 H       -4.2180    -0.3530     0.9750 H     1 <1>   0.0800 
 39 H        0.8470     5.3590     0.7220 H     1 <1>   0.0800 
 40 H       -0.3290     5.6050    -0.5370 H     1 <1>   0.0800 
 41 H       -2.1100     5.8760     1.1600 H     1 <1>   0.0800 
 42 H       -0.9400     5.6610     2.4320 H     1 <1>   0.0800 
 43 H       -5.6350    -0.9370     2.7990 H     1 <1>   0.1500 
 44 H       -0.9130     7.9150     0.3990 H     1 <1>   0.0800 
 45 H        0.2690     7.6970     1.6720 H     1 <1>   0.0800 
 46 H       -1.3930     8.0540     2.0710 H     1 <1>   0.0800 
 47 H       -5.9120    -1.9320    -1.9430 H     1 <1>   0.1500 
 48 H       -7.7680    -1.6930     3.6220 H     1 <1>   0.1500 
 49 H      -10.0900    -3.4000     0.1660 H     1 <1>   0.1500 
 50 H       -7.6590    -2.9630    -3.2980 H     1 <1>   0.1500 
 51 H       -9.7490    -3.7070    -2.2650 H     1 <1>   0.1500 
@<TRIPOS>BOND
  1   1   2  2   
  2   2   3  am  
  3   2   4  1   
  4   3   5  1   
  5   3  28  1   
  6   4   6  2   
  7   4   7  1   
  8   5   8  1   
  9   5   9  1   
 10   5  29  1   
 11   6  10  1   
 12   7  11  2   
 13   7  30  1   
 14   8  12  1   
 15   8  13  1   
 16   8  31  1   
 17   9  14  1   
 18   9  32  1   
 19   9  33  1   
 20  10  11  1   
 21  10  34  1   
 22  11  15  1   
 23  12  14  1   
 24  12  35  1   
 25  12  36  1   
 26  13  16  1   
 27  13  37  1   
 28  13  38  1   
 29  15  17  1   
 30  15  39  1   
 31  15  40  1   
 32  16  18  ar  
 33  16  19  ar  
 34  17  20  1   
 35  17  41  1   
 36  17  42  1   
 37  18  21  ar  
 38  18  22  ar  
 39  19  23  ar  
 40  19  43  1   
 41  20  44  1   
 42  20  45  1   
 43  20  46  1   
 44  21  24  ar  
 45  21  25  ar  
 46  22  26  ar  
 47  22  47  1   
 48  23  24  ar  
 49  23  48  1   
 50  25  27  ar  
 51  25  49  1   
 52  26  27  ar  
 53  26  50  1   
 54  27  51  1   
@<TRIPOS>SUBSTRUCTURE
  1 ****  13 GROUP 4 **** **** 0

# MOE 2024.06 (io_trps.svl 2023.06)
