@<TRIPOS>MOLECULE
NONAME
44 46 1 0 0 
SMALL
USER_CHARGES


@<TRIPOS>ATOM
  1 CL      -0.5820     0.2870    -0.1220 Cl    1 <1>  -0.1770 
  2 C       -2.0320    -0.6800    -0.3080 C.ar  1 <1>   0.1770 
  3 C       -2.7810    -1.0970     0.7870 C.ar  1 <1>   0.1660 
  4 C       -2.4150    -1.0310    -1.5840 C.ar  1 <1>  -0.1500 
  5 N       -3.8740    -1.8400     0.6830 N.ar  1 <1>  -0.6200 
  6 C       -2.3890    -0.7260     2.2060 C.3   1 <1>  -0.0960 
  7 C       -3.5550    -1.7940    -1.6890 C.ar  1 <1>  -0.1500 
  8 C       -4.2610    -2.1690    -0.5470 C.ar  1 <1>   0.4100 
  9 N       -5.4170    -2.9260    -0.6670 N.pl3 1 <1>  -0.8380 
 10 C       -5.9230    -3.6690     0.5280 C.3   1 <1>   0.2090 
 11 C       -6.5280    -2.3940    -1.5070 C.3   1 <1>   0.2090 
 12 C       -6.7780    -4.8700     0.0610 C.3   1 <1>   0.4230 
 13 C       -7.4010    -3.5660    -1.9810 C.3   1 <1>  -0.1600 
 14 N       -7.2700    -5.7730     1.1610 N.4   1 <1>  -0.9590 
 15 C       -7.9750    -4.3910    -0.7920 C.3   1 <1>  -0.1060 
 16 C       -8.0250    -6.9690     0.6820 C.3   1 <1>   0.3430 
 17 C       -6.2940    -6.0870     2.2370 C.3   1 <1>   0.2630 
 18 C       -8.8800    -3.5140     0.0930 C.2   1 <1>   0.9060 
 19 C       -8.7920    -5.6000    -1.3350 C.3   1 <1>  -0.1600 
 20 C       -8.2620    -6.9550    -0.8350 C.3   1 <1>  -0.1600 
 21 O       -9.0350    -3.8340     1.2830 O.co2 1 <1>  -0.9000 
 22 O       -9.4430    -2.5330    -0.3880 O.co2 1 <1>  -0.9000 
 23 H       -1.8450    -0.7230    -2.4410 H     1 <1>   0.1500 
 24 H       -1.8340     0.1920     2.2350 H     1 <1>   0.0800 
 25 H       -1.7930    -1.5130     2.6300 H     1 <1>   0.0800 
 26 H       -3.2720    -0.6000     2.8060 H     1 <1>   0.0800 
 27 H       -3.9080    -2.1140    -2.6500 H     1 <1>   0.1500 
 28 H       -5.0800    -4.0270     1.0910 H     1 <1>   0.0800 
 29 H       -6.4990    -3.0020     1.1470 H     1 <1>   0.0800 
 30 H       -7.1140    -1.6960    -0.9290 H     1 <1>   0.0800 
 31 H       -6.1420    -1.8650    -2.3600 H     1 <1>   0.0800 
 32 H       -6.1360    -5.4530    -0.5760 H     1 <1>   0.0800 
 33 H       -8.2130    -3.1680    -2.5650 H     1 <1>   0.0800 
 34 H       -6.8120    -4.1930    -2.6250 H     1 <1>   0.0800 
 35 H       -8.0150    -5.1470     1.5730 H     1 <1>   0.4500 
 36 H       -7.4920    -7.8680     0.9430 H     1 <1>   0.0800 
 37 H       -8.9800    -6.9910     1.1820 H     1 <1>   0.0800 
 38 H       -5.4620    -6.6420     1.8360 H     1 <1>   0.0800 
 39 H       -6.7690    -6.6710     3.0070 H     1 <1>   0.0800 
 40 H       -5.9270    -5.1760     2.6820 H     1 <1>   0.0800 
 41 H       -9.8190    -5.4960    -1.0230 H     1 <1>   0.0800 
 42 H       -8.8030    -5.6030    -2.4120 H     1 <1>   0.0800 
 43 H       -7.3410    -7.1930    -1.3380 H     1 <1>   0.0800 
 44 H       -8.9670    -7.7280    -1.0860 H     1 <1>   0.0800 
@<TRIPOS>BOND
  1   1   2  1   
  2   2   3  ar  
  3   2   4  ar  
  4   3   5  ar  
  5   3   6  1   
  6   4   7  ar  
  7   4  23  1   
  8   5   8  ar  
  9   6  24  1   
 10   6  25  1   
 11   6  26  1   
 12   7   8  ar  
 13   7  27  1   
 14   8   9  1   
 15   9  10  1   
 16   9  11  1   
 17  10  12  1   
 18  10  28  1   
 19  10  29  1   
 20  11  13  1   
 21  11  30  1   
 22  11  31  1   
 23  12  14  1   
 24  12  15  1   
 25  12  32  1   
 26  13  15  1   
 27  13  33  1   
 28  13  34  1   
 29  14  16  1   
 30  14  17  1   
 31  14  35  1   
 32  15  18  1   
 33  15  19  1   
 34  16  20  1   
 35  16  36  1   
 36  16  37  1   
 37  17  38  1   
 38  17  39  1   
 39  17  40  1   
 40  18  21  ar  
 41  18  22  ar  
 42  19  20  1   
 43  19  41  1   
 44  19  42  1   
 45  20  43  1   
 46  20  44  1   
@<TRIPOS>SUBSTRUCTURE
  1 ****  10 GROUP 4 **** **** 0

# MOE 2024.06 (io_trps.svl 2023.06)
