@<TRIPOS>MOLECULE
NONAME
49 51 1 0 0 
SMALL
USER_CHARGES


@<TRIPOS>ATOM
  1 CL       0.5520    -0.1400    -0.2150 Cl    1 <1>  -0.1770 
  2 C        2.2330    -0.5860    -0.3590 C.ar  1 <1>   0.1770 
  3 C        3.1070    -0.2650     0.6620 C.ar  1 <1>  -0.1500 
  4 C        2.6630    -1.2530    -1.4890 C.ar  1 <1>  -0.1500 
  5 C        4.4460    -0.6130     0.5610 C.ar  1 <1>  -0.1440 
  6 C        3.9980    -1.5990    -1.6020 C.ar  1 <1>  -0.1500 
  7 C        4.8910    -1.2780    -0.5810 C.ar  1 <1>   0.0820 
  8 C        5.3870    -0.2730     1.7110 C.3   1 <1>   0.3530 
  9 O        6.2130    -1.5690    -0.6720 O.3   1 <1>  -0.3630 
 10 N        5.6860     1.1920     1.7120 N.pl3 1 <1>  -0.8380 
 11 C        6.6240    -2.7400    -1.3560 C.3   1 <1>   0.0400 
 12 C        6.3890     1.8480     0.7470 C.ar  1 <1>   0.7710 
 13 C        5.1940     1.8910     2.9470 C.3   1 <1>   0.1290 
 14 N        6.7100     3.1210     0.9290 N.ar  1 <1>  -0.6200 
 15 N        6.7490     1.1920    -0.3720 N.ar  1 <1>  -0.1790 
 16 C        7.4040     3.7470    -0.0030 C.ar  1 <1>   0.4100 
 17 C        7.4380     1.7950    -1.3650 C.ar  1 <1>   0.2110 
 18 N        7.7420     5.0440     0.2230 N.pl3 1 <1>  -0.8380 
 19 C        7.7760     3.0930    -1.1940 C.ar  1 <1>  -0.1500 
 20 C        8.9760     5.7090    -0.3110 C.3   1 <1>   0.2090 
 21 C        6.9420     5.9390     1.1140 C.3   1 <1>   0.2090 
 22 C        8.5990     6.9740    -1.1000 C.3   1 <1>   0.2000 
 23 C        6.5410     7.2030     0.3410 C.3   1 <1>  -0.1600 
 24 O        9.7470     7.6350    -1.5000 O.3   1 <1>  -0.6800 
 25 C        7.7550     7.9360    -0.2570 C.3   1 <1>  -0.1600 
 26 H        2.7280     0.2540     1.5260 H     1 <1>   0.1500 
 27 H        1.9580    -1.4920    -2.2660 H     1 <1>   0.1500 
 28 H        4.3220    -2.1100    -2.4910 H     1 <1>   0.1500 
 29 H        6.3050    -0.8320     1.6500 H     1 <1>   0.0800 
 30 H        4.9160    -0.5540     2.6390 H     1 <1>   0.0800 
 31 H        7.6550    -2.9310    -1.1170 H     1 <1>   0.0800 
 32 H        6.5200    -2.5910    -2.4160 H     1 <1>   0.0800 
 33 H        6.0190    -3.5700    -1.0300 H     1 <1>   0.0800 
 34 H        4.1830     1.5910     3.1660 H     1 <1>   0.0800 
 35 H        5.1950     2.9620     2.8310 H     1 <1>   0.0800 
 36 H        5.8220     1.6400     3.7850 H     1 <1>   0.0800 
 37 H        6.4340     0.2210    -0.4380 H     1 <1>   0.4570 
 38 H        7.6860     1.2320    -2.2510 H     1 <1>   0.1500 
 39 H        8.3060     3.6360    -1.9520 H     1 <1>   0.1500 
 40 H        9.5390     5.0450    -0.9390 H     1 <1>   0.0800 
 41 H        9.5990     5.9840     0.5230 H     1 <1>   0.0800 
 42 H        7.5320     6.2030     1.9750 H     1 <1>   0.0800 
 43 H        6.0510     5.4440     1.4600 H     1 <1>   0.0800 
 44 H        8.0640     6.6890    -1.9900 H     1 <1>   0.0800 
 45 H        6.0100     7.8670     1.0010 H     1 <1>   0.0800 
 46 H        5.8650     6.9210    -0.4480 H     1 <1>   0.0800 
 47 H       10.1500     8.1060    -0.7460 H     1 <1>   0.4000 
 48 H        7.4150     8.7520    -0.8710 H     1 <1>   0.0800 
 49 H        8.3490     8.3320     0.5490 H     1 <1>   0.0800 
@<TRIPOS>BOND
  1   1   2  1   
  2   2   3  ar  
  3   2   4  ar  
  4   3   5  ar  
  5   3  26  1   
  6   4   6  ar  
  7   4  27  1   
  8   5   7  ar  
  9   5   8  1   
 10   6   7  ar  
 11   6  28  1   
 12   7   9  1   
 13   8  10  1   
 14   8  29  1   
 15   8  30  1   
 16   9  11  1   
 17  10  12  1   
 18  10  13  1   
 19  11  31  1   
 20  11  32  1   
 21  11  33  1   
 22  12  14  ar  
 23  12  15  ar  
 24  13  34  1   
 25  13  35  1   
 26  13  36  1   
 27  14  16  ar  
 28  15  17  ar  
 29  15  37  1   
 30  16  18  1   
 31  16  19  ar  
 32  17  19  ar  
 33  17  38  1   
 34  18  20  1   
 35  18  21  1   
 36  19  39  1   
 37  20  22  1   
 38  20  40  1   
 39  20  41  1   
 40  21  23  1   
 41  21  42  1   
 42  21  43  1   
 43  22  24  1   
 44  22  25  1   
 45  22  44  1   
 46  23  25  1   
 47  23  45  1   
 48  23  46  1   
 49  24  47  1   
 50  25  48  1   
 51  25  49  1   
@<TRIPOS>SUBSTRUCTURE
  1 ****  12 GROUP 4 **** **** 0

# MOE 2024.06 (io_trps.svl 2023.06)
