@<TRIPOS>MOLECULE
NONAME
47 50 1 0 0 
SMALL
USER_CHARGES


@<TRIPOS>ATOM
  1 CL      -0.8400     1.2100     0.3850 Cl    1 <1>  -0.1770 
  2 C       -2.0100    -0.0950     0.3860 C.ar  1 <1>   0.1770 
  3 C       -3.3470     0.1150     0.0520 C.ar  1 <1>   0.1310 
  4 C       -1.5470    -1.3450     0.7370 C.ar  1 <1>  -0.1500 
  5 N       -4.2380    -0.9070     0.0620 N.ar  1 <1>  -0.6200 
  6 C       -3.7440     1.4740    -0.3060 C.2   1 <1>   0.9790 
  7 C       -2.4670    -2.3640     0.7420 C.ar  1 <1>  -0.1500 
  8 C       -3.7890    -2.1040     0.4030 C.ar  1 <1>   0.4100 
  9 O       -3.6210     1.8910    -1.4770 O.co2 1 <1>  -0.9000 
 10 O       -4.1750     2.2660     0.5580 O.co2 1 <1>  -0.9000 
 11 N       -4.6980    -3.1420     0.4080 N.pl3 1 <1>  -0.8380 
 12 C       -5.9910    -2.8540     1.0820 C.3   1 <1>   0.2090 
 13 C       -4.9120    -3.7750    -0.9150 C.3   1 <1>   0.2090 
 14 C       -6.7090    -4.1760     1.3480 C.3   1 <1>  -0.1600 
 15 C       -5.6000    -5.1240    -0.7080 C.3   1 <1>  -0.1600 
 16 C       -6.9280    -4.9710     0.0490 C.3   1 <1>   0.4230 
 17 O       -7.7500    -4.2120    -0.8060 O.3   1 <1>  -0.5600 
 18 C       -7.5480    -6.3560     0.3440 C.ar  1 <1>  -0.1440 
 19 C       -9.1250    -4.2660    -0.5980 C.3   1 <1>   0.1200 
 20 C       -8.8190    -6.6900    -0.1150 C.ar  1 <1>  -0.1440 
 21 C       -6.8460    -7.2980     1.0890 C.ar  1 <1>  -0.1500 
 22 C       -9.6130    -5.6760    -0.9160 C.3   1 <1>  -0.0170 
 23 C       -9.3650    -7.9350     0.1520 C.ar  1 <1>  -0.1500 
 24 C       -7.3910    -8.5400     1.3590 C.ar  1 <1>  -0.1500 
 25 C       -8.6500    -8.8700     0.8930 C.ar  1 <1>   0.0820 
 26 O       -9.1110   -10.1090     1.1980 O.3   1 <1>  -0.3630 
 27 C      -10.3730   -10.5530     0.7520 C.3   1 <1>   0.0400 
 28 H       -0.5150    -1.4980     0.9930 H     1 <1>   0.1500 
 29 H       -2.1920    -3.3670     1.0050 H     1 <1>   0.1500 
 30 H       -6.5920    -2.2170     0.4530 H     1 <1>   0.0800 
 31 H       -5.8060    -2.3360     2.0070 H     1 <1>   0.0800 
 32 H       -3.9660    -3.9140    -1.4080 H     1 <1>   0.0800 
 33 H       -5.5210    -3.1280    -1.5270 H     1 <1>   0.0800 
 34 H       -7.6440    -3.9940     1.8400 H     1 <1>   0.0800 
 35 H       -6.1020    -4.7480     2.0240 H     1 <1>   0.0800 
 36 H       -4.9280    -5.7560    -0.1600 H     1 <1>   0.0800 
 37 H       -5.7870    -5.5890    -1.6580 H     1 <1>   0.0800 
 38 H       -9.5850    -3.5490    -1.2550 H     1 <1>   0.0800 
 39 H       -9.3420    -3.9990     0.4210 H     1 <1>   0.0800 
 40 H       -5.8650    -7.0740     1.4690 H     1 <1>   0.1500 
 41 H       -9.4880    -5.8670    -1.9670 H     1 <1>   0.0800 
 42 H      -10.6580    -5.7490    -0.6790 H     1 <1>   0.0800 
 43 H      -10.3440    -8.1640    -0.2210 H     1 <1>   0.1500 
 44 H       -6.8410    -9.2630     1.9330 H     1 <1>   0.1500 
 45 H      -10.5170   -11.5580     1.1040 H     1 <1>   0.0800 
 46 H      -10.3890   -10.5360    -0.3230 H     1 <1>   0.0800 
 47 H      -11.1330    -9.9100     1.1600 H     1 <1>   0.0800 
@<TRIPOS>BOND
  1   1   2  1   
  2   2   3  ar  
  3   2   4  ar  
  4   3   5  ar  
  5   3   6  1   
  6   4   7  ar  
  7   4  28  1   
  8   5   8  ar  
  9   6   9  ar  
 10   6  10  ar  
 11   7   8  ar  
 12   7  29  1   
 13   8  11  1   
 14  11  12  1   
 15  11  13  1   
 16  12  14  1   
 17  12  30  1   
 18  12  31  1   
 19  13  15  1   
 20  13  32  1   
 21  13  33  1   
 22  14  16  1   
 23  14  34  1   
 24  14  35  1   
 25  15  16  1   
 26  15  36  1   
 27  15  37  1   
 28  16  17  1   
 29  16  18  1   
 30  17  19  1   
 31  18  20  ar  
 32  18  21  ar  
 33  19  22  1   
 34  19  38  1   
 35  19  39  1   
 36  20  22  1   
 37  20  23  ar  
 38  21  24  ar  
 39  21  40  1   
 40  22  41  1   
 41  22  42  1   
 42  23  25  ar  
 43  23  43  1   
 44  24  25  ar  
 45  24  44  1   
 46  25  26  1   
 47  26  27  1   
 48  27  45  1   
 49  27  46  1   
 50  27  47  1   
@<TRIPOS>SUBSTRUCTURE
  1 ****  12 GROUP 4 **** **** 0

# MOE 2024.06 (io_trps.svl 2023.06)
