@<TRIPOS>MOLECULE
NONAME
52 54 1 0 0 
SMALL
USER_CHARGES


@<TRIPOS>ATOM
  1 O       -0.2510     0.7810     2.3980 O.2   1 <1>  -0.5700 
  2 C       -1.0810     1.5390     1.9490 C.2   1 <1>   0.5690 
  3 N       -2.4010     1.1570     1.8120 N.am  1 <1>  -0.6600 
  4 C       -0.5910     2.9420     1.5910 C.3   1 <1>   0.1810 
  5 C       -3.4680     2.0860     1.3260 C.3   1 <1>   0.2200 
  6 C       -2.7880    -0.2550     2.1240 C.3   1 <1>   0.0600 
  7 O       -0.8780     3.2730     0.2390 O.3   1 <1>  -0.3620 
  8 C       -4.7770     2.0280     2.1160 C.3   1 <1>  -0.1600 
  9 C       -3.8790     1.8010    -0.1160 C.3   1 <1>  -0.1600 
 10 C       -0.6050     4.5030    -0.2580 C.ar  1 <1>   0.0820 
 11 C       -5.8190     2.6240     1.1590 C.3   1 <1>  -0.0800 
 12 C       -5.2530     2.4680    -0.2580 C.3   1 <1>  -0.0800 
 13 C       -0.0180     5.5270     0.4810 C.ar  1 <1>  -0.1500 
 14 C       -0.9420     4.7270    -1.5840 C.ar  1 <1>  -0.1500 
 15 C       -7.1830     1.9160     1.1450 C.3   1 <1>  -0.1600 
 16 C       -6.2980     1.6610    -1.0410 C.3   1 <1>  -0.1600 
 17 C        0.2170     6.7580    -0.1070 C.ar  1 <1>  -0.1500 
 18 C       -0.7070     5.9580    -2.1700 C.ar  1 <1>  -0.1500 
 19 C       -7.6280     1.9130    -0.3220 C.3   1 <1>   0.4230 
 20 C       -0.1280     6.9750    -1.4300 C.ar  1 <1>  -0.1500 
 21 N       -8.2000     3.2450    -0.7060 N.4   1 <1>  -0.9590 
 22 C       -9.4400     3.5860     0.0650 C.3   1 <1>   0.2630 
 23 C       -8.5110     3.3430    -2.1690 C.3   1 <1>   0.2630 
 24 H        0.4750     2.9920     1.7240 H     1 <1>   0.0800 
 25 H       -1.0690     3.6580     2.2310 H     1 <1>   0.0800 
 26 H       -3.1220     3.1040     1.3740 H     1 <1>   0.0800 
 27 H       -3.5380    -0.6070     1.4400 H     1 <1>   0.0800 
 28 H       -3.1670    -0.3110     3.1290 H     1 <1>   0.0800 
 29 H       -1.9350    -0.9080     2.0460 H     1 <1>   0.0800 
 30 H       -5.0340     1.0130     2.3530 H     1 <1>   0.0800 
 31 H       -4.7050     2.5970     3.0260 H     1 <1>   0.0800 
 32 H       -3.1670     2.2140    -0.8080 H     1 <1>   0.0800 
 33 H       -3.9480     0.7410    -0.2750 H     1 <1>   0.0800 
 34 H       -5.9420     3.6730     1.3710 H     1 <1>   0.0800 
 35 H       -5.1310     3.4460    -0.6950 H     1 <1>   0.0800 
 36 H        0.2660     5.3900     1.5070 H     1 <1>   0.1500 
 37 H       -1.3850     3.9310    -2.1540 H     1 <1>   0.1500 
 38 H       -7.8800     2.3590     1.8310 H     1 <1>   0.0800 
 39 H       -7.0570     0.8880     1.4390 H     1 <1>   0.0800 
 40 H       -6.0820     0.6100    -0.9470 H     1 <1>   0.0800 
 41 H       -6.2950     1.8920    -2.0890 H     1 <1>   0.0800 
 42 H        0.6700     7.5500     0.4640 H     1 <1>   0.1500 
 43 H       -0.9700     6.1240    -3.2000 H     1 <1>   0.1500 
 44 H       -8.3390     1.1260    -0.5180 H     1 <1>   0.0800 
 45 H        0.0570     7.9330    -1.8850 H     1 <1>   0.1500 
 46 H       -7.4740     3.9400    -0.4810 H     1 <1>   0.4500 
 47 H      -10.1910     2.8260    -0.0780 H     1 <1>   0.0800 
 48 H       -9.8380     4.5300    -0.2700 H     1 <1>   0.0800 
 49 H       -9.2260     3.6680     1.1170 H     1 <1>   0.0800 
 50 H       -9.1970     2.5640    -2.4600 H     1 <1>   0.0800 
 51 H       -7.6140     3.2530    -2.7580 H     1 <1>   0.0800 
 52 H       -8.9610     4.2970    -2.3910 H     1 <1>   0.0800 
@<TRIPOS>BOND
  1   1   2  2   
  2   2   3  am  
  3   2   4  1   
  4   3   5  1   
  5   3   6  1   
  6   4   7  1   
  7   4  24  1   
  8   4  25  1   
  9   5   8  1   
 10   5   9  1   
 11   5  26  1   
 12   6  27  1   
 13   6  28  1   
 14   6  29  1   
 15   7  10  1   
 16   8  11  1   
 17   8  30  1   
 18   8  31  1   
 19   9  12  1   
 20   9  32  1   
 21   9  33  1   
 22  10  13  ar  
 23  10  14  ar  
 24  11  12  1   
 25  11  15  1   
 26  11  34  1   
 27  12  16  1   
 28  12  35  1   
 29  13  17  ar  
 30  13  36  1   
 31  14  18  ar  
 32  14  37  1   
 33  15  19  1   
 34  15  38  1   
 35  15  39  1   
 36  16  19  1   
 37  16  40  1   
 38  16  41  1   
 39  17  20  ar  
 40  17  42  1   
 41  18  20  ar  
 42  18  43  1   
 43  19  21  1   
 44  19  44  1   
 45  20  45  1   
 46  21  22  1   
 47  21  23  1   
 48  21  46  1   
 49  22  47  1   
 50  22  48  1   
 51  22  49  1   
 52  23  50  1   
 53  23  51  1   
 54  23  52  1   
@<TRIPOS>SUBSTRUCTURE
  1 ****   9 GROUP 4 **** **** 0

# MOE 2024.06 (io_trps.svl 2023.06)
