@<TRIPOS>MOLECULE
NONAME
54 57 1 0 0 
SMALL
USER_CHARGES


@<TRIPOS>ATOM
  1 CL      -2.9970     2.7900     2.0930 Cl    1 <1>  -0.1770 
  2 C       -3.6930     1.6420     0.9740 C.ar  1 <1>   0.1770 
  3 C       -4.6620     0.7720     1.4090 C.ar  1 <1>  -0.1500 
  4 C       -3.2370     1.6430    -0.3480 C.ar  1 <1>  -0.1500 
  5 C       -5.2050    -0.1380     0.4960 C.ar  1 <1>   0.0000 
  6 C       -3.7650     0.7500    -1.2530 C.ar  1 <1>  -0.1500 
  7 C       -4.7530    -0.1400    -0.8200 C.ar  1 <1>  -0.1520 
  8 C       -6.1880    -1.1480     0.5850 C.2   1 <1>  -0.1810 
  9 N       -5.4300    -1.1120    -1.5060 N.pl3 1 <1>   0.0330 
 10 C       -6.3120    -1.7120    -0.6440 C.2   1 <1>  -0.3320 
 11 C       -6.9120    -1.4640     1.8830 C.3   1 <1>  -0.0590 
 12 C       -7.2400    -2.8160    -1.0940 C.3   1 <1>   0.5230 
 13 N       -8.6130    -2.3150    -0.9040 N.4   1 <1>  -0.9590 
 14 C       -9.6670    -3.3460    -1.0260 C.3   1 <1>   0.3430 
 15 C       -8.9240    -1.0840    -1.6810 C.3   1 <1>   0.3430 
 16 C      -10.9710    -2.8310    -0.4070 C.3   1 <1>  -0.1600 
 17 C      -10.3660    -0.6260    -1.4340 C.3   1 <1>  -0.1600 
 18 C      -11.0350    -1.3000    -0.2180 C.3   1 <1>   0.2800 
 19 O      -10.2100    -1.0120     0.8990 O.3   1 <1>  -0.5600 
 20 C      -12.5120    -0.8480     0.0040 C.3   1 <1>   0.2000 
 21 C      -10.7440    -0.2950     1.9800 C.3   1 <1>   0.1200 
 22 O      -13.2670    -1.0100    -1.1630 O.3   1 <1>  -0.6800 
 23 C      -12.6600     0.5870     0.5970 C.3   1 <1>   0.2800 
 24 C      -11.4440     0.9600     1.4590 C.3   1 <1>  -0.1600 
 25 O      -13.7560     0.5470     1.4360 O.3   1 <1>  -0.6800 
 26 C      -12.9690     1.7030    -0.4120 C.3   1 <1>  -0.2400 
 27 H       -4.9980     0.7860     2.4280 H     1 <1>   0.1500 
 28 H       -2.4760     2.3450    -0.6350 H     1 <1>   0.1500 
 29 H       -3.4250     0.7340    -2.2740 H     1 <1>   0.1500 
 30 H       -5.2520    -1.3360    -2.4920 H     1 <1>   0.2700 
 31 H       -6.1930    -1.6630     2.6570 H     1 <1>   0.0800 
 32 H       -7.5460    -2.3250     1.7820 H     1 <1>   0.0800 
 33 H       -7.5110    -0.6220     2.1800 H     1 <1>   0.0800 
 34 H       -7.0760    -3.6920    -0.4880 H     1 <1>   0.0800 
 35 H       -7.0680    -3.0670    -2.1280 H     1 <1>   0.0800 
 36 H       -8.6630    -1.9780     0.0750 H     1 <1>   0.4500 
 37 H       -9.8280    -3.5720    -2.0680 H     1 <1>   0.0800 
 38 H       -9.3680    -4.2520    -0.5230 H     1 <1>   0.0800 
 39 H       -8.2530    -0.2970    -1.3710 H     1 <1>   0.0800 
 40 H       -8.7750    -1.2570    -2.7350 H     1 <1>   0.0800 
 41 H      -11.1360    -3.3120     0.5410 H     1 <1>   0.0800 
 42 H      -11.7700    -3.1480    -1.0530 H     1 <1>   0.0800 
 43 H      -10.9400    -0.8420    -2.3170 H     1 <1>   0.0800 
 44 H      -10.3690     0.4410    -1.3200 H     1 <1>   0.0800 
 45 H      -12.9320    -1.5350     0.7190 H     1 <1>   0.0800 
 46 H      -11.4280    -0.9290     2.5200 H     1 <1>   0.0800 
 47 H       -9.9300    -0.0280     2.6330 H     1 <1>   0.0800 
 48 H      -14.1930    -0.7530    -0.9710 H     1 <1>   0.4000 
 49 H      -10.7290     1.5150     0.8780 H     1 <1>   0.0800 
 50 H      -11.7390     1.5870     2.2820 H     1 <1>   0.0800 
 51 H      -13.9680     1.4480     1.7480 H     1 <1>   0.4000 
 52 H      -12.2050     1.7560    -1.1630 H     1 <1>   0.0800 
 53 H      -13.0150     2.6580     0.0800 H     1 <1>   0.0800 
 54 H      -13.9060     1.5240    -0.9080 H     1 <1>   0.0800 
@<TRIPOS>BOND
  1   1   2  1   
  2   2   3  ar  
  3   2   4  ar  
  4   3   5  ar  
  5   3  27  1   
  6   4   6  ar  
  7   4  28  1   
  8   5   7  ar  
  9   5   8  1   
 10   6   7  ar  
 11   6  29  1   
 12   7   9  1   
 13   8  10  2   
 14   8  11  1   
 15   9  10  1   
 16   9  30  1   
 17  10  12  1   
 18  11  31  1   
 19  11  32  1   
 20  11  33  1   
 21  12  13  1   
 22  12  34  1   
 23  12  35  1   
 24  13  14  1   
 25  13  15  1   
 26  13  36  1   
 27  14  16  1   
 28  14  37  1   
 29  14  38  1   
 30  15  17  1   
 31  15  39  1   
 32  15  40  1   
 33  16  18  1   
 34  16  41  1   
 35  16  42  1   
 36  17  18  1   
 37  17  43  1   
 38  17  44  1   
 39  18  19  1   
 40  18  20  1   
 41  19  21  1   
 42  20  22  1   
 43  20  23  1   
 44  20  45  1   
 45  21  24  1   
 46  21  46  1   
 47  21  47  1   
 48  22  48  1   
 49  23  24  1   
 50  23  25  1   
 51  23  26  1   
 52  24  49  1   
 53  24  50  1   
 54  25  51  1   
 55  26  52  1   
 56  26  53  1   
 57  26  54  1   
@<TRIPOS>SUBSTRUCTURE
  1 ****  15 GROUP 4 **** **** 0

# MOE 2024.06 (io_trps.svl 2023.06)
