@<TRIPOS>MOLECULE
NONAME
44 46 1 0 0 
SMALL
USER_CHARGES


@<TRIPOS>ATOM
  1 O       -0.7760    -0.0390    -0.7340 O.2   1 <1>  -0.5700 
  2 C       -1.7580     0.5870    -0.3790 C.2   1 <1>   0.5440 
  3 N       -1.6160     1.9270    -0.0660 N.am  1 <1>  -0.6600 
  4 C       -3.0260    -0.0960    -0.2870 C.ar  1 <1>   0.0860 
  5 C       -2.5550     2.6730     0.8160 C.3   1 <1>   0.0600 
  6 C       -0.3760     2.6740    -0.4170 C.3   1 <1>   0.0600 
  7 C       -3.1010    -1.3600     0.2920 C.ar  1 <1>   0.1600 
  8 C       -4.2160     0.4450    -0.7660 C.ar  1 <1>  -0.1500 
  9 N       -4.1990    -2.0800     0.4520 N.ar  1 <1>  -0.6200 
 10 C       -5.3660    -0.2890    -0.6140 C.ar  1 <1>  -0.1500 
 11 C       -5.3210    -1.5380    -0.0020 C.ar  1 <1>   0.4100 
 12 N       -6.4690    -2.2600     0.1510 N.pl3 1 <1>  -0.8690 
 13 C       -6.4600    -3.7250     0.4330 C.3   1 <1>   0.3900 
 14 C       -7.7130    -4.4240    -0.1010 C.2   1 <1>   0.3350 
 15 N       -8.6530    -3.8670    -0.7620 N.2   1 <1>  -0.4100 
 16 N       -7.9130    -5.7220     0.0970 N.2   1 <1>  -0.5650 
 17 O       -9.5290    -4.7860    -1.0330 O.3   1 <1>  -0.0190 
 18 C       -9.0330    -5.8720    -0.4930 C.2   1 <1>   0.2980 
 19 C       -9.8300    -7.1650    -0.6330 C.3   1 <1>   0.1000 
 20 C      -11.2110    -7.0960     0.0200 C.3   1 <1>  -0.1600 
 21 C       -9.1980    -8.3940     0.0240 C.3   1 <1>  -0.1600 
 22 C      -11.6290    -8.5510     0.2580 C.3   1 <1>  -0.1600 
 23 C      -10.3480    -9.3900     0.1820 C.3   1 <1>  -0.1600 
 24 H       -3.2450     2.0040     1.2980 H     1 <1>   0.0800 
 25 H       -3.1060     3.3910     0.2340 H     1 <1>   0.0800 
 26 H       -2.0020     3.1920     1.5800 H     1 <1>   0.0800 
 27 H        0.1620     2.1680    -1.2020 H     1 <1>   0.0800 
 28 H        0.2610     2.7450     0.4470 H     1 <1>   0.0800 
 29 H       -0.6270     3.6620    -0.7600 H     1 <1>   0.0800 
 30 H       -2.1810    -1.7950     0.6460 H     1 <1>   0.1500 
 31 H       -4.2210     1.4090    -1.2430 H     1 <1>   0.1500 
 32 H       -6.3090     0.0880    -0.9620 H     1 <1>   0.1500 
 33 H       -7.2920    -1.9870    -0.3940 H     1 <1>   0.4000 
 34 H       -6.3990    -3.8760     1.4960 H     1 <1>   0.0800 
 35 H       -5.5990    -4.1810    -0.0220 H     1 <1>   0.0800 
 36 H       -9.9580    -7.3710    -1.6810 H     1 <1>   0.0800 
 37 H      -11.9190    -6.5680    -0.5950 H     1 <1>   0.0800 
 38 H      -11.1290    -6.5920     0.9690 H     1 <1>   0.0800 
 39 H       -8.8250    -8.1300     0.9990 H     1 <1>   0.0800 
 40 H       -8.3890    -8.7920    -0.5640 H     1 <1>   0.0800 
 41 H      -12.3190    -8.8700    -0.5040 H     1 <1>   0.0800 
 42 H      -12.1040    -8.6540     1.2190 H     1 <1>   0.0800 
 43 H      -10.2170    -9.9980     1.0610 H     1 <1>   0.0800 
 44 H      -10.3910   -10.0330    -0.6810 H     1 <1>   0.0800 
@<TRIPOS>BOND
  1   1   2  2   
  2   2   3  am  
  3   2   4  1   
  4   3   5  1   
  5   3   6  1   
  6   4   7  ar  
  7   4   8  ar  
  8   5  24  1   
  9   5  25  1   
 10   5  26  1   
 11   6  27  1   
 12   6  28  1   
 13   6  29  1   
 14   7   9  ar  
 15   7  30  1   
 16   8  10  ar  
 17   8  31  1   
 18   9  11  ar  
 19  10  11  ar  
 20  10  32  1   
 21  11  12  1   
 22  12  13  1   
 23  12  33  1   
 24  13  14  1   
 25  13  34  1   
 26  13  35  1   
 27  14  15  2   
 28  14  16  1   
 29  15  17  1   
 30  16  18  2   
 31  17  18  1   
 32  18  19  1   
 33  19  20  1   
 34  19  21  1   
 35  19  36  1   
 36  20  22  1   
 37  20  37  1   
 38  20  38  1   
 39  21  23  1   
 40  21  39  1   
 41  21  40  1   
 42  22  23  1   
 43  22  41  1   
 44  22  42  1   
 45  23  43  1   
 46  23  44  1   
@<TRIPOS>SUBSTRUCTURE
  1 ****  12 GROUP 4 **** **** 0

# MOE 2024.06 (io_trps.svl 2023.06)
