@<TRIPOS>MOLECULE
NONAME
51 54 1 0 0 
SMALL
USER_CHARGES


@<TRIPOS>ATOM
  1 O       -1.4280     0.0790    -3.6370 O.2   1 <1>  -0.5700 
  2 C       -1.3170     0.4710    -2.5000 C.2   1 <1>   0.5690 
  3 N       -1.4530    -0.3520    -1.4350 N.am  1 <1>  -0.7300 
  4 C       -1.0000     1.9440    -2.2170 C.3   1 <1>   0.1710 
  5 C       -1.6380    -1.8160    -1.4460 C.3   1 <1>   0.2200 
  6 N       -0.5660     2.1980    -0.8090 N.3   1 <1>  -0.8100 
  7 C       -2.6510    -2.2420    -0.3920 C.3   1 <1>  -0.0800 
  8 C       -0.3760    -2.4740    -0.9040 C.3   1 <1>   0.1200 
  9 C       -0.7260     3.6130    -0.4330 C.3   1 <1>   0.2530 
 10 C        0.8210     1.7660    -0.5690 C.3   1 <1>   0.1100 
 11 C       -1.8070    -2.3110     0.8850 C.3   1 <1>   0.1200 
 12 C       -3.9070    -1.3580    -0.2700 C.3   1 <1>  -0.0160 
 13 O       -0.4680    -2.3750     0.4870 O.3   1 <1>  -0.5600 
 14 C       -0.2280     3.8850     0.9850 C.ar  1 <1>  -0.1440 
 15 C        1.0840     1.7250     0.9390 C.3   1 <1>  -0.0170 
 16 C       -4.8520    -1.9000     0.7920 C.ar  1 <1>  -0.1440 
 17 C        0.6370     3.0060     1.6290 C.ar  1 <1>  -0.1440 
 18 C       -0.6350     5.0390     1.6370 C.ar  1 <1>  -0.1500 
 19 C       -5.6960    -2.9630     0.5430 C.ar  1 <1>  -0.1500 
 20 C       -4.9120    -1.3590     2.0600 C.ar  1 <1>  -0.1500 
 21 C        1.0820     3.2890     2.9100 C.ar  1 <1>  -0.1500 
 22 C       -0.1880     5.3180     2.9170 C.ar  1 <1>  -0.1500 
 23 C       -6.5320    -3.4240     1.5470 C.ar  1 <1>   0.1600 
 24 C       -5.7850    -1.8950     2.9930 C.ar  1 <1>   0.1600 
 25 C        0.6720     4.4430     3.5540 C.ar  1 <1>  -0.1500 
 26 N       -6.5950    -2.9160     2.7670 N.ar  1 <1>  -0.6200 
 27 H       -1.2390     0.0700    -0.5230 H     1 <1>   0.3700 
 28 H       -1.9000     2.4980    -2.4170 H     1 <1>   0.0800 
 29 H       -0.2440     2.2790    -2.9040 H     1 <1>   0.0800 
 30 H       -1.8870    -2.1600    -2.4360 H     1 <1>   0.0800 
 31 H       -2.9650    -3.2440    -0.6230 H     1 <1>   0.0800 
 32 H        0.5230    -1.9920    -1.2450 H     1 <1>   0.0800 
 33 H       -0.3530    -3.5190    -1.1580 H     1 <1>   0.0800 
 34 H       -0.1770     4.2360    -1.1190 H     1 <1>   0.0800 
 35 H       -1.7680     3.8760    -0.4940 H     1 <1>   0.0800 
 36 H        0.9890     0.7850    -0.9790 H     1 <1>   0.0800 
 37 H        1.5060     2.4520    -1.0400 H     1 <1>   0.0800 
 38 H       -2.0410    -3.1810     1.4740 H     1 <1>   0.0800 
 39 H       -1.9220    -1.4240     1.4850 H     1 <1>   0.0800 
 40 H       -4.4160    -1.3260    -1.2180 H     1 <1>   0.0800 
 41 H       -3.6360    -0.3480    -0.0170 H     1 <1>   0.0800 
 42 H        0.5480     0.8940     1.3630 H     1 <1>   0.0800 
 43 H        2.1320     1.5640     1.1090 H     1 <1>   0.0800 
 44 H       -1.3030     5.7270     1.1510 H     1 <1>   0.1500 
 45 H       -5.7120    -3.4370    -0.4210 H     1 <1>   0.1500 
 46 H       -4.2900    -0.5260     2.3340 H     1 <1>   0.1500 
 47 H        1.7480     2.6100     3.4120 H     1 <1>   0.1500 
 48 H       -0.5090     6.2150     3.4160 H     1 <1>   0.1500 
 49 H       -7.1840    -4.2540     1.3340 H     1 <1>   0.1500 
 50 H       -5.8180    -1.4590     3.9770 H     1 <1>   0.1500 
 51 H        1.0210     4.6580     4.5490 H     1 <1>   0.1500 
@<TRIPOS>BOND
  1   1   2  2   
  2   2   3  am  
  3   2   4  1   
  4   3   5  1   
  5   3  27  1   
  6   4   6  1   
  7   4  28  1   
  8   4  29  1   
  9   5   7  1   
 10   5   8  1   
 11   5  30  1   
 12   6   9  1   
 13   6  10  1   
 14   7  11  1   
 15   7  12  1   
 16   7  31  1   
 17   8  13  1   
 18   8  32  1   
 19   8  33  1   
 20   9  14  1   
 21   9  34  1   
 22   9  35  1   
 23  10  15  1   
 24  10  36  1   
 25  10  37  1   
 26  11  13  1   
 27  11  38  1   
 28  11  39  1   
 29  12  16  1   
 30  12  40  1   
 31  12  41  1   
 32  14  17  ar  
 33  14  18  ar  
 34  15  17  1   
 35  15  42  1   
 36  15  43  1   
 37  16  19  ar  
 38  16  20  ar  
 39  17  21  ar  
 40  18  22  ar  
 41  18  44  1   
 42  19  23  ar  
 43  19  45  1   
 44  20  24  ar  
 45  20  46  1   
 46  21  25  ar  
 47  21  47  1   
 48  22  25  ar  
 49  22  48  1   
 50  23  26  ar  
 51  23  49  1   
 52  24  26  ar  
 53  24  50  1   
 54  25  51  1   
@<TRIPOS>SUBSTRUCTURE
  1 ****   3 GROUP 4 **** **** 0

# MOE 2024.06 (io_trps.svl 2023.06)
