@<TRIPOS>MOLECULE
NONAME
49 52 1 0 0 
SMALL
USER_CHARGES


@<TRIPOS>ATOM
  1 F        0.0390    -0.3910     0.5110 F     1 <1>  -0.1900 
  2 C       -0.6300    -1.5130     0.4210 C.ar  1 <1>   0.1900 
  3 C        0.0110    -2.7540     0.3360 C.ar  1 <1>   0.0820 
  4 C       -2.0060    -1.4100     0.4100 C.ar  1 <1>  -0.1500 
  5 O        1.3560    -2.9860     0.3390 O.3   1 <1>  -0.3630 
  6 C       -0.7870    -3.8830     0.2390 C.ar  1 <1>  -0.1500 
  7 C       -2.7710    -2.5570     0.3100 C.ar  1 <1>  -0.1500 
  8 C        2.3110    -1.9630     0.5190 C.3   1 <1>   0.0400 
  9 C       -2.1840    -3.8220     0.2220 C.ar  1 <1>   0.0530 
 10 C       -2.9740    -5.0300     0.1120 C.2   1 <1>   0.0870 
 11 O       -2.4160    -6.1380    -0.3150 O.3   1 <1>  -0.0190 
 12 C       -4.2770    -5.3240     0.3580 C.2   1 <1>  -0.2330 
 13 N       -3.2500    -7.1410    -0.3710 N.2   1 <1>  -0.4100 
 14 C       -4.3870    -6.6800     0.0310 C.2   1 <1>   0.3720 
 15 C       -5.2980    -4.4590     0.8520 C.2   1 <1>   1.0330 
 16 N       -5.5410    -7.4820     0.1180 N.pl3 1 <1>  -0.8210 
 17 O       -6.1930    -4.0370     0.0950 O.co2 1 <1>  -0.9000 
 18 O       -5.2490    -4.0160     2.0120 O.co2 1 <1>  -0.9000 
 19 C       -5.3600    -8.9420    -0.1090 C.3   1 <1>   0.2090 
 20 C       -6.7840    -6.8840    -0.4590 C.3   1 <1>   0.2090 
 21 C       -6.5880    -9.7370     0.3710 C.3   1 <1>  -0.0800 
 22 C       -7.7280    -7.9370    -1.0510 C.3   1 <1>  -0.1600 
 23 C       -7.9370    -9.1040    -0.0750 C.3   1 <1>  -0.0800 
 24 C       -6.4550   -11.2100    -0.0580 C.3   1 <1>  -0.1600 
 25 C       -8.9320   -10.1260    -0.6550 C.3   1 <1>  -0.1600 
 26 C       -7.6460   -12.0630     0.4140 C.3   1 <1>  -0.1600 
 27 C       -9.0100   -11.3710     0.2370 C.3   1 <1>  -0.1600 
 28 H       -2.4780    -0.4470     0.4800 H     1 <1>   0.1500 
 29 H       -0.3040    -4.8410     0.1770 H     1 <1>   0.1500 
 30 H       -3.8430    -2.4600     0.3010 H     1 <1>   0.1500 
 31 H        3.2860    -2.4150     0.5290 H     1 <1>   0.0800 
 32 H        2.1260    -1.4740     1.4590 H     1 <1>   0.0800 
 33 H        2.2390    -1.2690    -0.2990 H     1 <1>   0.0800 
 34 H       -5.1930    -9.1100    -1.1590 H     1 <1>   0.0800 
 35 H       -4.4890    -9.2820     0.4260 H     1 <1>   0.0800 
 36 H       -7.2970    -6.3560     0.3280 H     1 <1>   0.0800 
 37 H       -6.5260    -6.1660    -1.2200 H     1 <1>   0.0800 
 38 H       -6.5640    -9.7150     1.4470 H     1 <1>   0.0800 
 39 H       -8.6690    -7.4650    -1.2690 H     1 <1>   0.0800 
 40 H       -7.3180    -8.2920    -1.9800 H     1 <1>   0.0800 
 41 H       -8.3860    -8.6880     0.8120 H     1 <1>   0.0800 
 42 H       -6.3950   -11.2580    -1.1320 H     1 <1>   0.0800 
 43 H       -5.5440   -11.6260     0.3350 H     1 <1>   0.0800 
 44 H       -9.9070    -9.6750    -0.7300 H     1 <1>   0.0800 
 45 H       -8.6270   -10.4160    -1.6450 H     1 <1>   0.0800 
 46 H       -7.6410   -12.9900    -0.1320 H     1 <1>   0.0800 
 47 H       -7.5150   -12.3030     1.4550 H     1 <1>   0.0800 
 48 H       -9.3770   -11.0730     1.2050 H     1 <1>   0.0800 
 49 H       -9.7180   -12.0690    -0.1750 H     1 <1>   0.0800 
@<TRIPOS>BOND
  1   1   2  1   
  2   2   3  ar  
  3   2   4  ar  
  4   3   5  1   
  5   3   6  ar  
  6   4   7  ar  
  7   4  28  1   
  8   5   8  1   
  9   6   9  ar  
 10   6  29  1   
 11   7   9  ar  
 12   7  30  1   
 13   8  31  1   
 14   8  32  1   
 15   8  33  1   
 16   9  10  1   
 17  10  11  1   
 18  10  12  2   
 19  11  13  1   
 20  12  14  1   
 21  12  15  1   
 22  13  14  2   
 23  14  16  1   
 24  15  17  ar  
 25  15  18  ar  
 26  16  19  1   
 27  16  20  1   
 28  19  21  1   
 29  19  34  1   
 30  19  35  1   
 31  20  22  1   
 32  20  36  1   
 33  20  37  1   
 34  21  23  1   
 35  21  24  1   
 36  21  38  1   
 37  22  23  1   
 38  22  39  1   
 39  22  40  1   
 40  23  25  1   
 41  23  41  1   
 42  24  26  1   
 43  24  42  1   
 44  24  43  1   
 45  25  27  1   
 46  25  44  1   
 47  25  45  1   
 48  26  27  1   
 49  26  46  1   
 50  26  47  1   
 51  27  48  1   
 52  27  49  1   
@<TRIPOS>SUBSTRUCTURE
  1 ****  12 GROUP 4 **** **** 0

# MOE 2024.06 (io_trps.svl 2023.06)
