@<TRIPOS>MOLECULE
NONAME
47 48 1 0 0 
SMALL
USER_CHARGES


@<TRIPOS>ATOM
  1 F       -0.0780     1.1580     0.3810 F     1 <1>  -0.1900 
  2 C       -1.3820     1.2570     0.3250 C.ar  1 <1>   0.1900 
  3 C       -2.0190     2.2550    -0.4210 C.ar  1 <1>   0.0830 
  4 C       -2.1000     0.3220     1.0450 C.ar  1 <1>  -0.1500 
  5 O       -1.4240     3.2290    -1.1680 O.3   1 <1>  -0.3630 
  6 C       -3.4040     2.2750    -0.4150 C.ar  1 <1>  -0.1500 
  7 C       -3.4820     0.3720     1.0290 C.ar  1 <1>  -0.1500 
  8 C       -0.0260     3.3350    -1.3220 C.3   1 <1>   0.0400 
  9 C       -4.1640     1.3440     0.2960 C.ar  1 <1>   0.0530 
 10 C       -5.6030     1.4120     0.2780 C.2   1 <1>   0.0870 
 11 O       -6.1870     2.5790     0.3830 O.3   1 <1>  -0.0190 
 12 C       -6.5930     0.4810     0.1730 C.2   1 <1>  -0.0860 
 13 N       -7.4890     2.5040     0.3700 N.2   1 <1>  -0.4100 
 14 C       -7.7610     1.2540     0.2470 C.2   1 <1>   0.3720 
 15 C       -6.5320    -0.9410     0.0030 C.2   1 <1>   0.7160 
 16 N       -9.0780     0.7700     0.1900 N.pl3 1 <1>  -0.8210 
 17 O       -5.4800    -1.5230    -0.1800 O.2   1 <1>  -0.5700 
 18 N       -7.6710    -1.6810     0.0310 N.am  1 <1>  -0.7300 
 19 C       -9.7850     1.1900    -1.0520 C.3   1 <1>   0.1290 
 20 C       -9.8740     1.1170     1.4010 C.3   1 <1>   0.1290 
 21 C       -7.7830    -3.1430    -0.1160 C.3   1 <1>   0.2200 
 22 C       -7.8520    -3.4810    -1.6200 C.3   1 <1>   0.1200 
 23 C       -9.0100    -3.5870     0.7000 C.3   1 <1>  -0.1600 
 24 O       -7.5760    -4.8230    -1.8540 O.3   1 <1>  -0.6800 
 25 C       -9.1470    -5.1080     0.8500 C.3   1 <1>  -0.2400 
 26 H       -1.5840    -0.4340     1.6080 H     1 <1>   0.1500 
 27 H       -3.9070     3.0370    -0.9830 H     1 <1>   0.1500 
 28 H       -4.0410    -0.3550     1.5920 H     1 <1>   0.1500 
 29 H        0.1770     4.1660    -1.9720 H     1 <1>   0.0800 
 30 H        0.3480     2.4280    -1.7630 H     1 <1>   0.0800 
 31 H        0.4200     3.5090    -0.3580 H     1 <1>   0.0800 
 32 H       -8.5440    -1.1390     0.1130 H     1 <1>   0.3700 
 33 H      -10.7290     0.6800    -1.1300 H     1 <1>   0.0800 
 34 H       -9.1860     0.9450    -1.9130 H     1 <1>   0.0800 
 35 H       -9.9550     2.2540    -1.0420 H     1 <1>   0.0800 
 36 H      -10.8030     0.5740     1.4000 H     1 <1>   0.0800 
 37 H      -10.0820     2.1740     1.4210 H     1 <1>   0.0800 
 38 H       -9.3220     0.8580     2.2880 H     1 <1>   0.0800 
 39 H       -6.8940    -3.5870     0.3000 H     1 <1>   0.0800 
 40 H       -7.1210    -2.9060    -2.1620 H     1 <1>   0.0800 
 41 H       -8.8320    -3.2710    -2.0090 H     1 <1>   0.0800 
 42 H       -8.9290    -3.1680     1.6890 H     1 <1>   0.0800 
 43 H       -9.9040    -3.1990     0.2450 H     1 <1>   0.0800 
 44 H       -6.6500    -5.0260    -1.6160 H     1 <1>   0.4000 
 45 H       -8.2440    -5.5310     1.2540 H     1 <1>   0.0800 
 46 H       -9.3510    -5.5700    -0.1000 H     1 <1>   0.0800 
 47 H       -9.9600    -5.3400     1.5160 H     1 <1>   0.0800 
@<TRIPOS>BOND
  1   1   2  1   
  2   2   3  ar  
  3   2   4  ar  
  4   3   5  1   
  5   3   6  ar  
  6   4   7  ar  
  7   4  26  1   
  8   5   8  1   
  9   6   9  ar  
 10   6  27  1   
 11   7   9  ar  
 12   7  28  1   
 13   8  29  1   
 14   8  30  1   
 15   8  31  1   
 16   9  10  1   
 17  10  11  1   
 18  10  12  2   
 19  11  13  1   
 20  12  14  1   
 21  12  15  1   
 22  13  14  2   
 23  14  16  1   
 24  15  17  2   
 25  15  18  am  
 26  16  19  1   
 27  16  20  1   
 28  18  21  1   
 29  18  32  1   
 30  19  33  1   
 31  19  34  1   
 32  19  35  1   
 33  20  36  1   
 34  20  37  1   
 35  20  38  1   
 36  21  22  1   
 37  21  23  1   
 38  21  39  1   
 39  22  24  1   
 40  22  40  1   
 41  22  41  1   
 42  23  25  1   
 43  23  42  1   
 44  23  43  1   
 45  24  44  1   
 46  25  45  1   
 47  25  46  1   
 48  25  47  1   
@<TRIPOS>SUBSTRUCTURE
  1 ****  12 GROUP 4 **** **** 0

# MOE 2024.06 (io_trps.svl 2023.06)
