@<TRIPOS>MOLECULE
NONAME
39 40 1 0 0 
SMALL
USER_CHARGES


@<TRIPOS>ATOM
  1 F        0.8400    -1.1070     1.0770 F     1 <1>  -0.1900 
  2 C        0.4060    -2.1760     0.4590 C.ar  1 <1>   0.1900 
  3 C        1.1940    -3.3120     0.4590 C.ar  1 <1>  -0.1500 
  4 C       -0.8230    -2.1290    -0.1710 C.ar  1 <1>  -0.1500 
  5 C        0.7280    -4.4390    -0.1950 C.ar  1 <1>  -0.1500 
  6 C       -1.2750    -3.2640    -0.8210 C.ar  1 <1>  -0.1500 
  7 C       -0.5080    -4.4260    -0.8340 C.ar  1 <1>   0.1000 
  8 N       -0.9650    -5.5640    -1.4790 N.pl3 1 <1>  -0.8690 
  9 C       -2.1330    -6.2700    -0.8640 C.3   1 <1>   0.2700 
 10 C       -1.8240    -7.7180    -0.4360 C.2   1 <1>   0.5690 
 11 O       -0.7270    -8.1650    -0.6950 O.2   1 <1>  -0.5700 
 12 N       -2.7660    -8.4850     0.2100 N.am  1 <1>  -0.6600 
 13 C       -2.4480    -9.8690     0.6940 C.3   1 <1>   0.1400 
 14 C       -4.1660    -8.0640     0.5030 C.3   1 <1>   0.1400 
 15 C       -3.3950   -10.8970     0.0520 C.3   1 <1>   0.2000 
 16 C       -5.1470    -9.0540    -0.1340 C.3   1 <1>  -0.1600 
 17 O       -3.1420   -10.9240    -1.3090 O.3   1 <1>  -0.6800 
 18 C       -4.8710   -10.5160     0.2910 C.3   1 <1>  -0.0800 
 19 C       -5.8120   -11.5020    -0.4210 C.3   1 <1>   0.1200 
 20 O       -7.1240   -11.2470    -0.0490 O.3   1 <1>  -0.6800 
 21 H        2.1460    -3.3090     0.9580 H     1 <1>   0.1500 
 22 H       -1.4040    -1.2250    -0.1530 H     1 <1>   0.1500 
 23 H        1.3200    -5.3370    -0.2100 H     1 <1>   0.1500 
 24 H       -2.2200    -3.2580    -1.3310 H     1 <1>   0.1500 
 25 H       -0.2270    -6.2770    -1.5970 H     1 <1>   0.4000 
 26 H       -2.4650    -5.7240     0.0010 H     1 <1>   0.0800 
 27 H       -2.9320    -6.2890    -1.5820 H     1 <1>   0.0800 
 28 H       -1.4290   -10.1380     0.4720 H     1 <1>   0.0800 
 29 H       -2.5630    -9.8980     1.7630 H     1 <1>   0.0800 
 30 H       -4.3090    -8.0490     1.5710 H     1 <1>   0.0800 
 31 H       -4.3670    -7.0760     0.1290 H     1 <1>   0.0800 
 32 H       -3.1940   -11.8820     0.4370 H     1 <1>   0.0800 
 33 H       -6.1480    -8.7800     0.1490 H     1 <1>   0.0800 
 34 H       -5.0860    -8.9690    -1.2050 H     1 <1>   0.0800 
 35 H       -2.9040   -10.0170    -1.5920 H     1 <1>   0.4000 
 36 H       -5.0450   -10.6000     1.3490 H     1 <1>   0.0800 
 37 H       -5.5790   -12.5210    -0.1610 H     1 <1>   0.0800 
 38 H       -5.7420   -11.3910    -1.4900 H     1 <1>   0.0800 
 39 H       -7.2730   -11.4840     0.8860 H     1 <1>   0.4000 
@<TRIPOS>BOND
  1   1   2  1   
  2   2   3  ar  
  3   2   4  ar  
  4   3   5  ar  
  5   3  21  1   
  6   4   6  ar  
  7   4  22  1   
  8   5   7  ar  
  9   5  23  1   
 10   6   7  ar  
 11   6  24  1   
 12   7   8  1   
 13   8   9  1   
 14   8  25  1   
 15   9  10  1   
 16   9  26  1   
 17   9  27  1   
 18  10  11  2   
 19  10  12  am  
 20  12  13  1   
 21  12  14  1   
 22  13  15  1   
 23  13  28  1   
 24  13  29  1   
 25  14  16  1   
 26  14  30  1   
 27  14  31  1   
 28  15  17  1   
 29  15  18  1   
 30  15  32  1   
 31  16  18  1   
 32  16  33  1   
 33  16  34  1   
 34  17  35  1   
 35  18  19  1   
 36  18  36  1   
 37  19  20  1   
 38  19  37  1   
 39  19  38  1   
 40  20  39  1   
@<TRIPOS>SUBSTRUCTURE
  1 ****  10 GROUP 4 **** **** 0

# MOE 2024.06 (io_trps.svl 2023.06)
