@<TRIPOS>MOLECULE
NONAME
47 48 1 0 0 
SMALL
USER_CHARGES


@<TRIPOS>ATOM
  1 O       -0.8390    -1.4120    -0.3800 O.co2 1 <1>  -0.9000 
  2 C       -1.9870    -1.4290     0.1010 C.2   1 <1>   0.9790 
  3 O       -2.3890    -2.4470     0.6870 O.co2 1 <1>  -0.9000 
  4 C       -2.8280    -0.2460    -0.0060 C.ar  1 <1>  -0.1790 
  5 C       -2.4320     0.8340    -0.7900 C.ar  1 <1>  -0.1500 
  6 C       -4.0410    -0.1290     0.6750 C.ar  1 <1>  -0.1500 
  7 C       -3.1810     1.9920    -0.8630 C.ar  1 <1>  -0.1440 
  8 C       -4.8070     1.0200     0.6030 C.ar  1 <1>  -0.1500 
  9 C       -4.3730     2.1010    -0.1590 C.ar  1 <1>   0.0830 
 10 C       -2.6660     3.1510    -1.6760 C.3   1 <1>   0.4870 
 11 O       -5.0430     3.2800    -0.2400 O.3   1 <1>  -0.3630 
 12 N       -2.2550     4.1970    -0.7100 N.4   1 <1>  -0.9590 
 13 C       -6.3400     3.4150     0.3050 C.3   1 <1>   0.0400 
 14 C       -2.0080     5.5110    -1.3790 C.3   1 <1>   0.3430 
 15 C       -1.1140     3.7470     0.1380 C.3   1 <1>   0.3430 
 16 C       -1.7440     6.6460    -0.3650 C.3   1 <1>   0.0610 
 17 C       -0.8000     4.8180     1.1850 C.3   1 <1>  -0.1600 
 18 C       -1.3570     7.8730    -1.2080 C.2   1 <1>   0.5690 
 19 C       -0.5700     6.2030     0.5520 C.3   1 <1>  -0.1600 
 20 C       -3.0560     6.9230     0.4270 C.3   1 <1>  -0.1600 
 21 O       -1.7280     7.9400    -2.3510 O.2   1 <1>  -0.5700 
 22 N       -0.6010     8.8680    -0.7030 N.am  1 <1>  -0.8000 
 23 C       -2.9760     8.0330     1.4880 C.3   1 <1>  -0.2400 
 24 H       -1.5050     0.7400    -1.3340 H     1 <1>   0.1500 
 25 H       -4.3700    -0.9660     1.2710 H     1 <1>   0.1500 
 26 H       -5.7270     1.0480     1.1550 H     1 <1>   0.1500 
 27 H       -3.4560     3.5160    -2.3120 H     1 <1>   0.0800 
 28 H       -1.8330     2.8440    -2.2860 H     1 <1>   0.0800 
 29 H       -3.0800     4.2810    -0.0960 H     1 <1>   0.4500 
 30 H       -6.7080     4.3970     0.0650 H     1 <1>   0.0800 
 31 H       -6.2880     3.2950     1.3730 H     1 <1>   0.0800 
 32 H       -6.9820     2.6700    -0.1310 H     1 <1>   0.0800 
 33 H       -2.8590     5.7810    -1.9840 H     1 <1>   0.0800 
 34 H       -1.1560     5.4260    -2.0340 H     1 <1>   0.0800 
 35 H       -0.2460     3.5780    -0.4790 H     1 <1>   0.0800 
 36 H       -1.3590     2.8190     0.6330 H     1 <1>   0.0800 
 37 H        0.0850     4.5210     1.7220 H     1 <1>   0.0800 
 38 H       -1.6010     4.8590     1.9020 H     1 <1>   0.0800 
 39 H       -0.3960     6.9250     1.3300 H     1 <1>   0.0800 
 40 H        0.3310     6.1580    -0.0380 H     1 <1>   0.0800 
 41 H       -3.3960     6.0290     0.9180 H     1 <1>   0.0800 
 42 H       -3.8240     7.2020    -0.2760 H     1 <1>   0.0800 
 43 H       -0.3830     9.6750    -1.2930 H     1 <1>   0.3700 
 44 H       -0.2910     8.9290     0.2660 H     1 <1>   0.3700 
 45 H       -2.2730     7.7890     2.2640 H     1 <1>   0.0800 
 46 H       -3.9400     8.1570     1.9490 H     1 <1>   0.0800 
 47 H       -2.7040     8.9760     1.0470 H     1 <1>   0.0800 
@<TRIPOS>BOND
  1   1   2  ar  
  2   2   3  ar  
  3   2   4  1   
  4   4   5  ar  
  5   4   6  ar  
  6   5   7  ar  
  7   5  24  1   
  8   6   8  ar  
  9   6  25  1   
 10   7   9  ar  
 11   7  10  1   
 12   8   9  ar  
 13   8  26  1   
 14   9  11  1   
 15  10  12  1   
 16  10  27  1   
 17  10  28  1   
 18  11  13  1   
 19  12  14  1   
 20  12  15  1   
 21  12  29  1   
 22  13  30  1   
 23  13  31  1   
 24  13  32  1   
 25  14  16  1   
 26  14  33  1   
 27  14  34  1   
 28  15  17  1   
 29  15  35  1   
 30  15  36  1   
 31  16  18  1   
 32  16  19  1   
 33  16  20  1   
 34  17  19  1   
 35  17  37  1   
 36  17  38  1   
 37  18  21  2   
 38  18  22  am  
 39  19  39  1   
 40  19  40  1   
 41  20  23  1   
 42  20  41  1   
 43  20  42  1   
 44  22  43  1   
 45  22  44  1   
 46  23  45  1   
 47  23  46  1   
 48  23  47  1   
@<TRIPOS>SUBSTRUCTURE
  1 ****  12 GROUP 4 **** **** 0

# MOE 2024.06 (io_trps.svl 2023.06)
