@<TRIPOS>MOLECULE
NONAME
54 56 1 0 0 
SMALL
USER_CHARGES


@<TRIPOS>ATOM
  1 S        0.1460     0.6870    -0.0340 S.3   1 <1>  -0.4600 
  2 C        0.5020     1.7030     1.4580 C.3   1 <1>   0.1310 
  3 C       -0.3870    -0.9050     0.6470 C.3   1 <1>   0.0700 
  4 C        1.0210     3.0960     1.1190 C.2   1 <1>   0.5690 
  5 C       -0.7200    -1.8120    -0.5430 C.3   1 <1>   0.3430 
  6 O        1.3400     3.8070     2.0390 O.2   1 <1>  -0.5700 
  7 N        1.1030     3.4810    -0.1840 N.am  1 <1>  -0.7300 
  8 N       -1.1800    -3.1700    -0.1120 N.4   1 <1>  -0.9590 
  9 C        1.5540     4.7750    -0.7430 C.3   1 <1>   0.2200 
 10 C       -0.1350    -3.9850     0.5590 C.3   1 <1>   0.3430 
 11 C       -1.6490    -3.9890    -1.2580 C.3   1 <1>   0.3430 
 12 C        2.9960     5.0840    -0.3470 C.3   1 <1>  -0.1600 
 13 C        0.6300     5.9130    -0.3180 C.3   1 <1>  -0.1600 
 14 C       -0.6350    -5.4180     0.4350 C.3   1 <1>  -0.1600 
 15 C       -1.6210    -5.4190    -0.7360 C.3   1 <1>  -0.1600 
 16 C        3.4610     6.3800    -1.0110 C.3   1 <1>   0.2090 
 17 C        1.0660     7.2200    -0.9830 C.3   1 <1>   0.2090 
 18 N        2.5100     7.4930    -0.7230 N.pl3 1 <1>  -0.8380 
 19 C        2.8710     8.4950     0.1680 C.ar  1 <1>   0.4100 
 20 N        2.1540     8.5460     1.2870 N.ar  1 <1>  -0.6200 
 21 C        3.9220     9.3860    -0.1090 C.ar  1 <1>   0.0730 
 22 C        2.4850     9.4690     2.1680 C.ar  1 <1>   0.1600 
 23 C        4.6450     9.3200    -1.3410 C.1   1 <1>   0.4840 
 24 C        4.2460    10.3450     0.8320 C.ar  1 <1>  -0.1500 
 25 C        3.5090    10.3810     1.9960 C.ar  1 <1>  -0.1500 
 26 N        5.2580     9.2750    -2.3030 N.1   1 <1>  -0.5570 
 27 H        1.2390     1.1780     2.0380 H     1 <1>   0.0800 
 28 H       -0.4100     1.7860     2.0180 H     1 <1>   0.0800 
 29 H       -1.2500    -0.7150     1.2600 H     1 <1>   0.0800 
 30 H        0.4310    -1.2850     1.2320 H     1 <1>   0.0800 
 31 H        0.1530    -1.9060    -1.1670 H     1 <1>   0.0800 
 32 H       -1.4950    -1.3380    -1.1240 H     1 <1>   0.0800 
 33 H        0.8080     2.7930    -0.8810 H     1 <1>   0.3700 
 34 H       -1.9750    -3.0800     0.5350 H     1 <1>   0.4500 
 35 H        1.5130     4.6940    -1.8170 H     1 <1>   0.0800 
 36 H        0.0000    -3.6990     1.5900 H     1 <1>   0.0800 
 37 H        0.8010    -3.8860     0.0320 H     1 <1>   0.0800 
 38 H       -0.9590    -3.8950    -2.0820 H     1 <1>   0.0800 
 39 H       -2.6360    -3.7000    -1.5820 H     1 <1>   0.0800 
 40 H        3.6410     4.2800    -0.6480 H     1 <1>   0.0800 
 41 H        3.0720     5.2050     0.7190 H     1 <1>   0.0800 
 42 H        0.6670     6.0450     0.7490 H     1 <1>   0.0800 
 43 H       -0.3820     5.6930    -0.6010 H     1 <1>   0.0800 
 44 H       -1.1300    -5.7140     1.3440 H     1 <1>   0.0800 
 45 H        0.1900    -6.0890     0.2630 H     1 <1>   0.0800 
 46 H       -1.3180    -6.0970    -1.5150 H     1 <1>   0.0800 
 47 H       -2.6040    -5.7040    -0.4000 H     1 <1>   0.0800 
 48 H        3.5270     6.2460    -2.0780 H     1 <1>   0.0800 
 49 H        4.4430     6.6270    -0.6450 H     1 <1>   0.0800 
 50 H        0.4640     8.0330    -0.6100 H     1 <1>   0.0800 
 51 H        0.9130     7.1580    -2.0460 H     1 <1>   0.0800 
 52 H        1.9080     9.5000     3.0770 H     1 <1>   0.1500 
 53 H        5.0480    11.0440     0.6630 H     1 <1>   0.1500 
 54 H        3.7210    11.1050     2.7620 H     1 <1>   0.1500 
@<TRIPOS>BOND
  1   1   2  1   
  2   1   3  1   
  3   2   4  1   
  4   2  27  1   
  5   2  28  1   
  6   3   5  1   
  7   3  29  1   
  8   3  30  1   
  9   4   6  2   
 10   4   7  am  
 11   5   8  1   
 12   5  31  1   
 13   5  32  1   
 14   7   9  1   
 15   7  33  1   
 16   8  10  1   
 17   8  11  1   
 18   8  34  1   
 19   9  12  1   
 20   9  13  1   
 21   9  35  1   
 22  10  14  1   
 23  10  36  1   
 24  10  37  1   
 25  11  15  1   
 26  11  38  1   
 27  11  39  1   
 28  12  16  1   
 29  12  40  1   
 30  12  41  1   
 31  13  17  1   
 32  13  42  1   
 33  13  43  1   
 34  14  15  1   
 35  14  44  1   
 36  14  45  1   
 37  15  46  1   
 38  15  47  1   
 39  16  18  1   
 40  16  48  1   
 41  16  49  1   
 42  17  18  1   
 43  17  50  1   
 44  17  51  1   
 45  18  19  1   
 46  19  20  ar  
 47  19  21  ar  
 48  20  22  ar  
 49  21  23  1   
 50  21  24  ar  
 51  22  25  ar  
 52  22  52  1   
 53  23  26  3   
 54  24  25  ar  
 55  24  53  1   
 56  25  54  1   
@<TRIPOS>SUBSTRUCTURE
  1 ****   7 GROUP 4 **** **** 0

# MOE 2024.06 (io_trps.svl 2023.06)
