@<TRIPOS>MOLECULE
NONAME
36 38 1 0 0 
SMALL
USER_CHARGES


@<TRIPOS>ATOM
  1 CL      -0.0530    -0.6350    -1.5440 Cl    1 <1>  -0.1240 
  2 C       -1.1900    -1.6110    -0.6550 C.2   1 <1>   0.2640 
  3 O       -0.9580    -2.8950    -0.5370 O.3   1 <1>  -0.2800 
  4 C       -2.3300    -1.2450    -0.0380 C.2   1 <1>  -0.1500 
  5 C       -1.9540    -3.4270     0.1730 C.2   1 <1>   0.0550 
  6 C       -2.8290    -2.4300     0.5060 C.2   1 <1>  -0.1500 
  7 C       -1.9730    -4.8430     0.4700 C.2   1 <1>   0.7150 
  8 O       -0.9570    -5.4170     0.8220 O.2   1 <1>  -0.5700 
  9 N       -3.1340    -5.5830     0.3680 N.am  1 <1>  -0.6600 
 10 C       -4.3050    -5.1880    -0.4580 C.3   1 <1>   0.1400 
 11 C       -3.1610    -7.0490     0.6190 C.3   1 <1>   0.1400 
 12 C       -5.2540    -6.3830    -0.3840 C.3   1 <1>   0.2000 
 13 C       -4.3160    -7.5840    -0.2360 C.3   1 <1>  -0.0800 
 14 O       -6.0250    -6.2500     0.7620 O.3   1 <1>  -0.6800 
 15 C       -4.9710    -8.8590     0.3270 C.3   1 <1>   0.0200 
 16 C       -4.0350   -10.0560     0.3330 C.2   1 <1>  -0.0400 
 17 O       -4.4240   -11.1510     0.9310 O.3   1 <1>  -0.0190 
 18 C       -2.8090   -10.2800    -0.1680 C.2   1 <1>  -0.1500 
 19 N       -3.5260   -12.0910     0.8600 N.2   1 <1>  -0.4100 
 20 C       -2.5410   -11.5940     0.2030 C.2   1 <1>   0.1080 
 21 C       -1.2680   -12.3440    -0.1170 C.3   1 <1>  -0.0590 
 22 H       -2.7670    -0.2650     0.0320 H     1 <1>   0.1500 
 23 H       -3.7320    -2.5130     1.0850 H     1 <1>   0.1500 
 24 H       -4.7770    -4.2930    -0.0920 H     1 <1>   0.0800 
 25 H       -3.9840    -5.0370    -1.4740 H     1 <1>   0.0800 
 26 H       -2.2250    -7.5080     0.3470 H     1 <1>   0.0800 
 27 H       -3.3440    -7.2210     1.6660 H     1 <1>   0.0800 
 28 H       -5.9130    -6.4540    -1.2330 H     1 <1>   0.0800 
 29 H       -3.9230    -7.8080    -1.2120 H     1 <1>   0.0800 
 30 H       -5.4390    -6.0650     1.5230 H     1 <1>   0.4000 
 31 H       -5.8360    -9.1080    -0.2630 H     1 <1>   0.0800 
 32 H       -5.3060    -8.6880     1.3350 H     1 <1>   0.0800 
 33 H       -2.1540    -9.6400    -0.7280 H     1 <1>   0.1500 
 34 H       -0.4230   -11.8190     0.2890 H     1 <1>   0.0800 
 35 H       -1.1540   -12.4320    -1.1810 H     1 <1>   0.0800 
 36 H       -1.3050   -13.3290     0.3120 H     1 <1>   0.0800 
@<TRIPOS>BOND
  1   1   2  1   
  2   2   3  1   
  3   2   4  2   
  4   3   5  1   
  5   4   6  1   
  6   4  22  1   
  7   5   6  2   
  8   5   7  1   
  9   6  23  1   
 10   7   8  2   
 11   7   9  am  
 12   9  10  1   
 13   9  11  1   
 14  10  12  1   
 15  10  24  1   
 16  10  25  1   
 17  11  13  1   
 18  11  26  1   
 19  11  27  1   
 20  12  13  1   
 21  12  14  1   
 22  12  28  1   
 23  13  15  1   
 24  13  29  1   
 25  14  30  1   
 26  15  16  1   
 27  15  31  1   
 28  15  32  1   
 29  16  17  1   
 30  16  18  2   
 31  17  19  1   
 32  18  20  1   
 33  18  33  1   
 34  19  20  2   
 35  20  21  1   
 36  21  34  1   
 37  21  35  1   
 38  21  36  1   
@<TRIPOS>SUBSTRUCTURE
  1 ****  11 GROUP 4 **** **** 0

# MOE 2024.06 (io_trps.svl 2023.06)
