@<TRIPOS>MOLECULE
NONAME
37 38 1 0 0 
SMALL
USER_CHARGES


@<TRIPOS>ATOM
  1 O        0.3430     0.7760     0.0690 O.co2 1 <1>  -0.9000 
  2 C       -0.8580     1.0400     0.2280 C.2   1 <1>   0.9060 
  3 O       -1.7480     0.1870     0.1440 O.co2 1 <1>  -0.9000 
  4 C       -1.2640     2.4880     0.5400 C.3   1 <1>   0.1030 
  5 N       -0.1480     3.5000     0.3960 N.pl3 1 <1>  -0.8690 
  6 C       -0.1870     4.8040     0.1100 C.ar  1 <1>   0.4100 
  7 N        0.9610     5.3660    -0.1900 N.ar  1 <1>  -0.6200 
  8 C       -1.3920     5.5260     0.1330 C.ar  1 <1>  -0.1500 
  9 C        0.9730     6.6550    -0.4930 C.ar  1 <1>   0.7710 
 10 C       -1.3620     6.8410    -0.1800 C.ar  1 <1>   0.2110 
 11 N       -0.1600     7.3840    -0.4930 N.ar  1 <1>  -0.1790 
 12 N        2.1510     7.2610    -0.8110 N.pl3 1 <1>  -0.8380 
 13 C        2.3810     8.7240    -1.0800 C.3   1 <1>   0.2090 
 14 C        3.4340     6.4830    -0.9170 C.3   1 <1>   0.2090 
 15 C        3.3810     9.3160    -0.0740 C.3   1 <1>   0.2000 
 16 C        4.4560     7.0340     0.0840 C.3   1 <1>  -0.1600 
 17 O        3.5850    10.6430    -0.4450 O.3   1 <1>  -0.5600 
 18 C        4.7070     8.5400    -0.1030 C.3   1 <1>  -0.1600 
 19 C        4.1820    11.4610     0.5160 C.3   1 <1>   0.0400 
 20 H       -1.6260     2.5010     1.5510 H     1 <1>   0.0800 
 21 H       -2.0730     2.7360    -0.1190 H     1 <1>   0.0800 
 22 H        0.7440     2.9860     0.2790 H     1 <1>   0.4000 
 23 H       -2.2980     5.0140     0.3970 H     1 <1>   0.1500 
 24 H       -2.2450     7.4600    -0.1880 H     1 <1>   0.1500 
 25 H       -0.0530     8.3550    -0.7540 H     1 <1>   0.4570 
 26 H        1.4720     9.2920    -1.0260 H     1 <1>   0.0800 
 27 H        2.7870     8.8340    -2.0720 H     1 <1>   0.0800 
 28 H        3.8220     6.5780    -1.9170 H     1 <1>   0.0800 
 29 H        3.2920     5.4310    -0.7300 H     1 <1>   0.0800 
 30 H        2.9480     9.2960     0.9120 H     1 <1>   0.0800 
 31 H        5.3840     6.5010    -0.0350 H     1 <1>   0.0800 
 32 H        4.1000     6.8410     1.0810 H     1 <1>   0.0800 
 33 H        5.3580     8.8830     0.6810 H     1 <1>   0.0800 
 34 H        5.1920     8.7040    -1.0500 H     1 <1>   0.0800 
 35 H        4.1890    12.4690     0.1370 H     1 <1>   0.0800 
 36 H        5.1940    11.1410     0.6860 H     1 <1>   0.0800 
 37 H        3.6120    11.4230     1.4280 H     1 <1>   0.0800 
@<TRIPOS>BOND
  1   1   2  ar  
  2   2   3  ar  
  3   2   4  1   
  4   4   5  1   
  5   4  20  1   
  6   4  21  1   
  7   5   6  1   
  8   5  22  1   
  9   6   7  ar  
 10   6   8  ar  
 11   7   9  ar  
 12   8  10  ar  
 13   8  23  1   
 14   9  11  ar  
 15   9  12  1   
 16  10  11  ar  
 17  10  24  1   
 18  11  25  1   
 19  12  13  1   
 20  12  14  1   
 21  13  15  1   
 22  13  26  1   
 23  13  27  1   
 24  14  16  1   
 25  14  28  1   
 26  14  29  1   
 27  15  17  1   
 28  15  18  1   
 29  15  30  1   
 30  16  18  1   
 31  16  31  1   
 32  16  32  1   
 33  17  19  1   
 34  18  33  1   
 35  18  34  1   
 36  19  35  1   
 37  19  36  1   
 38  19  37  1   
@<TRIPOS>SUBSTRUCTURE
  1 ****   7 GROUP 4 **** **** 0

# MOE 2024.06 (io_trps.svl 2023.06)
