@<TRIPOS>MOLECULE
NONAME
53 55 1 0 0 
SMALL
USER_CHARGES


@<TRIPOS>ATOM
  1 O        0.6510     0.3800    -1.2710 O.3   1 <1>  -0.6800 
  2 C        0.0950    -0.7230    -0.6260 C.3   1 <1>   0.1200 
  3 C        1.2750    -1.6720    -0.0970 C.3   1 <1>   0.0000 
  4 C        2.4240    -2.6100     0.5240 C.3   1 <1>   0.4230 
  5 C        1.5460    -0.6500     1.1250 C.3   1 <1>  -0.1600 
  6 C        1.0200    -2.6270    -1.3760 C.3   1 <1>  -0.1600 
  7 N        2.2280    -4.1150     0.4410 N.4   1 <1>  -0.9590 
  8 C        3.8370    -2.0780     0.1320 C.3   1 <1>   0.3430 
  9 C        2.9180     0.0700     1.0780 C.3   1 <1>   0.3430 
 10 C        2.0480    -3.6440    -1.9260 C.3   1 <1>  -0.1600 
 11 C        2.4790    -4.6780    -0.9040 C.3   1 <1>   0.3430 
 12 C        2.9680    -4.8930     1.4900 C.3   1 <1>   0.2630 
 13 N        3.9090    -0.5790     0.1570 N.4   1 <1>  -0.9590 
 14 C        3.8240     0.0150    -1.2100 C.3   1 <1>   0.5240 
 15 C        4.3640     1.4230    -1.1010 C.2   1 <1>  -0.1810 
 16 C        5.6530     1.8420    -0.9620 C.2   1 <1>  -0.3320 
 17 C        3.5650     2.5670    -1.1260 C.2   1 <1>  -0.1500 
 18 N        5.6730     3.2060    -0.8910 N.pl3 1 <1>   0.0480 
 19 C        6.9260     1.0060    -0.9150 C.3   1 <1>  -0.0600 
 20 C        4.3830     3.6490    -0.9960 C.2   1 <1>  -0.1320 
 21 C        6.8700     4.0750    -0.7750 C.3   1 <1>   0.0160 
 22 C        4.0150     5.0320    -0.9720 C.1   1 <1>   0.5370 
 23 N        3.7430     6.1380    -0.9380 N.1   1 <1>  -0.5570 
 24 H       -0.0560     0.9520    -1.6460 H     1 <1>   0.4000 
 25 H       -0.5690    -0.3730     0.1490 H     1 <1>   0.0800 
 26 H       -0.6230    -1.1490    -1.3130 H     1 <1>   0.0800 
 27 H        2.4280    -2.4790     1.5890 H     1 <1>   0.0800 
 28 H        1.4090    -1.1160     2.0890 H     1 <1>   0.0800 
 29 H        0.8900     0.1950     1.2610 H     1 <1>   0.0800 
 30 H        0.1080    -3.1810    -1.2060 H     1 <1>   0.0800 
 31 H        0.8660    -2.0460    -2.2780 H     1 <1>   0.0800 
 32 H        1.2210    -4.2680     0.6140 H     1 <1>   0.4500 
 33 H        4.1070    -2.4290    -0.8480 H     1 <1>   0.0800 
 34 H        4.5510    -2.4730     0.8350 H     1 <1>   0.0800 
 35 H        3.3230     0.1080     2.0770 H     1 <1>   0.0800 
 36 H        2.7600     1.0920     0.7680 H     1 <1>   0.0800 
 37 H        2.9100    -3.1320    -2.3160 H     1 <1>   0.0800 
 38 H        1.6170    -4.1660    -2.7640 H     1 <1>   0.0800 
 39 H        3.5220    -4.9160    -1.0400 H     1 <1>   0.0800 
 40 H        1.9040    -5.5840    -1.0320 H     1 <1>   0.0800 
 41 H        4.0330    -4.8030     1.3540 H     1 <1>   0.0800 
 42 H        2.7060    -5.9380     1.4330 H     1 <1>   0.0800 
 43 H        2.7120    -4.5370     2.4760 H     1 <1>   0.0800 
 44 H        4.8430    -0.2600     0.4610 H     1 <1>   0.4500 
 45 H        4.4410    -0.5370    -1.9000 H     1 <1>   0.0800 
 46 H        2.8150     0.0220    -1.5790 H     1 <1>   0.0800 
 47 H        2.4920     2.5860    -1.2370 H     1 <1>   0.1500 
 48 H        6.7180    -0.0370    -1.0630 H     1 <1>   0.0800 
 49 H        7.4200     1.1290     0.0330 H     1 <1>   0.0800 
 50 H        7.6000     1.3220    -1.6940 H     1 <1>   0.0800 
 51 H        7.6870     3.5280    -0.3430 H     1 <1>   0.0800 
 52 H        6.6490     4.9190    -0.1470 H     1 <1>   0.0800 
 53 H        7.1500     4.4240    -1.7530 H     1 <1>   0.0800 
@<TRIPOS>BOND
  1   1   2  1   
  2   1  24  1   
  3   2   3  1   
  4   2  25  1   
  5   2  26  1   
  6   3   4  1   
  7   3   5  1   
  8   3   6  1   
  9   4   7  1   
 10   4   8  1   
 11   4  27  1   
 12   5   9  1   
 13   5  28  1   
 14   5  29  1   
 15   6  10  1   
 16   6  30  1   
 17   6  31  1   
 18   7  11  1   
 19   7  12  1   
 20   7  32  1   
 21   8  13  1   
 22   8  33  1   
 23   8  34  1   
 24   9  13  1   
 25   9  35  1   
 26   9  36  1   
 27  10  11  1   
 28  10  37  1   
 29  10  38  1   
 30  11  39  1   
 31  11  40  1   
 32  12  41  1   
 33  12  42  1   
 34  12  43  1   
 35  13  14  1   
 36  13  44  1   
 37  14  15  1   
 38  14  45  1   
 39  14  46  1   
 40  15  16  2   
 41  15  17  1   
 42  16  18  1   
 43  16  19  1   
 44  17  20  2   
 45  17  47  1   
 46  18  20  1   
 47  18  21  1   
 48  19  48  1   
 49  19  49  1   
 50  19  50  1   
 51  20  22  1   
 52  21  51  1   
 53  21  52  1   
 54  21  53  1   
 55  22  23  3   
@<TRIPOS>SUBSTRUCTURE
  1 ****  14 GROUP 4 **** **** 0

# MOE 2024.06 (io_trps.svl 2023.06)
