@<TRIPOS>MOLECULE
NONAME
23 24 1 0 0 
SMALL
USER_CHARGES


@<TRIPOS>ATOM
  1 N        0.4260    -0.2250    -0.8990 N.1   1 <1>  -0.5570 
  2 C        1.3990    -0.7900    -0.7160 C.1   1 <1>   0.4840 
  3 C        2.6450    -1.4640    -0.4850 C.ar  1 <1>   0.0730 
  4 C        3.7770    -0.7490    -0.1050 C.ar  1 <1>  -0.1500 
  5 C        2.7520    -2.8410    -0.6360 C.ar  1 <1>  -0.1500 
  6 C        4.9880    -1.3850     0.1180 C.ar  1 <1>  -0.0320 
  7 C        3.9540    -3.4860    -0.4100 C.ar  1 <1>  -0.1500 
  8 C        5.0690    -2.7600    -0.0320 C.ar  1 <1>  -0.1500 
  9 C        6.2150    -0.5910     0.5310 C.3   1 <1>  -0.0680 
 10 C        6.7330     0.4920    -0.3600 C.3   1 <1>   0.2960 
 11 C        7.5050    -0.7720    -0.2200 C.3   1 <1>  -0.2000 
 12 N        7.2950     1.7140     0.2370 N.4   1 <1>  -0.7460 
 13 H        3.6930     0.3160     0.0210 H     1 <1>   0.1500 
 14 H        1.8890    -3.4150    -0.9300 H     1 <1>   0.1500 
 15 H        4.0220    -4.5560    -0.5270 H     1 <1>   0.1500 
 16 H        5.9970    -3.2760     0.1460 H     1 <1>   0.1500 
 17 H        6.2830    -0.4730     1.5990 H     1 <1>   0.1000 
 18 H        6.2130     0.6640    -1.2920 H     1 <1>   0.1000 
 19 H        7.5160    -1.4630    -1.0460 H     1 <1>   0.1000 
 20 H        8.4180    -0.8030     0.3490 H     1 <1>   0.1000 
 21 H        7.7880     1.4930     1.1080 H     1 <1>   0.4500 
 22 H        6.5560     2.3940     0.4470 H     1 <1>   0.4500 
 23 H        7.9650     2.1520    -0.4050 H     1 <1>   0.4500 
@<TRIPOS>BOND
  1   1   2  3   
  2   2   3  1   
  3   3   4  ar  
  4   3   5  ar  
  5   4   6  ar  
  6   4  13  1   
  7   5   7  ar  
  8   5  14  1   
  9   6   8  ar  
 10   6   9  1   
 11   7   8  ar  
 12   7  15  1   
 13   8  16  1   
 14   9  10  1   
 15   9  11  1   
 16   9  17  1   
 17  10  11  1   
 18  10  12  1   
 19  10  18  1   
 20  11  19  1   
 21  11  20  1   
 22  12  21  1   
 23  12  22  1   
 24  12  23  1   
@<TRIPOS>SUBSTRUCTURE
  1 ****   4 GROUP 4 **** **** 0

# MOE 2024.06 (io_trps.svl 2023.06)
