@<TRIPOS>MOLECULE
NONAME
58 61 1 0 0 
SMALL
USER_CHARGES


@<TRIPOS>ATOM
  1 O       -0.9990     6.0210     0.8340 O.2   1 <1>  -0.5700 
  2 C       -0.7740     4.8430     0.5890 C.2   1 <1>   0.7150 
  3 N       -1.6650     3.8950     1.0660 N.am  1 <1>  -0.6600 
  4 C        0.4200     4.5380    -0.1880 C.2   1 <1>   0.1010 
  5 C       -1.6100     2.4680     0.6380 C.3   1 <1>   0.1400 
  6 C       -2.8070     4.2580     1.9470 C.3   1 <1>   0.1400 
  7 N        0.9920     3.3780    -0.4540 N.2   1 <1>  -0.5650 
  8 N        1.1170     5.5600    -0.7470 N.pl3 1 <1>   0.0330 
  9 C       -2.9250     1.7230     0.9030 C.3   1 <1>  -0.1600 
 10 C       -4.1460     3.8860     1.2960 C.3   1 <1>  -0.1600 
 11 C        2.0640     3.6850    -1.1970 C.2   1 <1>   0.0770 
 12 C        2.1590     5.0170    -1.3890 C.2   1 <1>  -0.3020 
 13 C       -4.1590     2.5610     0.4890 C.3   1 <1>   0.2800 
 14 O       -3.9770     2.9420    -0.8600 O.3   1 <1>  -0.5600 
 15 C       -5.5420     1.8230     0.6560 C.3   1 <1>   0.2000 
 16 C       -4.2930     2.0150    -1.8550 C.3   1 <1>   0.1200 
 17 O       -5.3660     0.4350     0.7920 O.3   1 <1>  -0.6800 
 18 C       -6.5030     2.1090    -0.5410 C.3   1 <1>   0.3000 
 19 C       -5.7980     1.7000    -1.8470 C.3   1 <1>  -0.1600 
 20 N       -6.7740     3.5580    -0.6550 N.am  1 <1>  -0.7300 
 21 C       -7.8430     1.3630    -0.4170 C.3   1 <1>  -0.2400 
 22 C       -7.6240     4.2280     0.1650 C.2   1 <1>   0.7160 
 23 O       -7.1960     4.5910     1.2410 O.2   1 <1>  -0.5700 
 24 C       -8.9850     4.4870    -0.2270 C.2   1 <1>  -0.0860 
 25 C       -9.9650     5.0570     0.5860 C.2   1 <1>   0.1390 
 26 C       -9.6460     4.2700    -1.3990 C.2   1 <1>  -0.3020 
 27 N      -11.1100     5.1780    -0.0080 N.2   1 <1>  -0.7070 
 28 N      -10.9110     4.6880    -1.2430 N.pl3 1 <1>   0.3140 
 29 C      -11.9900     4.6500    -2.2490 C.3   1 <1>   0.0960 
 30 C      -12.6150     3.2520    -2.3400 C.3   1 <1>  -0.2400 
 31 H       -1.4140     2.4370    -0.4210 H     1 <1>   0.0800 
 32 H       -0.7980     1.9740     1.1430 H     1 <1>   0.0800 
 33 H       -2.6980     3.7230     2.8740 H     1 <1>   0.0800 
 34 H       -2.8030     5.3090     2.1820 H     1 <1>   0.0800 
 35 H        0.8520     6.5470    -0.6510 H     1 <1>   0.2700 
 36 H       -2.9930     1.4840     1.9500 H     1 <1>   0.0800 
 37 H       -2.8910     0.7880     0.3770 H     1 <1>   0.0800 
 38 H       -4.4580     4.7000     0.6670 H     1 <1>   0.0800 
 39 H       -4.8540     3.8350     2.1020 H     1 <1>   0.0800 
 40 H        2.7300     2.9210    -1.5650 H     1 <1>   0.1500 
 41 H        2.8930     5.5860    -1.9300 H     1 <1>   0.1500 
 42 H       -6.0200     2.1330     1.5680 H     1 <1>   0.0800 
 43 H       -4.0070     2.4440    -2.8000 H     1 <1>   0.0800 
 44 H       -3.7060     1.1280    -1.6960 H     1 <1>   0.0800 
 45 H       -4.9190     0.0760     0.0030 H     1 <1>   0.4000 
 46 H       -6.2740     2.1800    -2.6830 H     1 <1>   0.0800 
 47 H       -5.9060     0.6420    -2.0040 H     1 <1>   0.0800 
 48 H       -5.8640     4.0230    -0.7410 H     1 <1>   0.3700 
 49 H       -7.6870     0.3000    -0.4250 H     1 <1>   0.0800 
 50 H       -8.4910     1.6100    -1.2370 H     1 <1>   0.0800 
 51 H       -8.3310     1.6090     0.5090 H     1 <1>   0.0800 
 52 H       -9.7850     5.3650     1.6040 H     1 <1>   0.1500 
 53 H       -9.2700     3.8460    -2.3100 H     1 <1>   0.1500 
 54 H      -12.7380     5.3690    -1.9650 H     1 <1>   0.0800 
 55 H      -11.5810     4.9400    -3.2000 H     1 <1>   0.0800 
 56 H      -13.0240     2.9710    -1.3850 H     1 <1>   0.0800 
 57 H      -11.8770     2.5290    -2.6380 H     1 <1>   0.0800 
 58 H      -13.4080     3.2530    -3.0650 H     1 <1>   0.0800 
@<TRIPOS>BOND
  1   1   2  2   
  2   2   3  am  
  3   2   4  1   
  4   3   5  1   
  5   3   6  1   
  6   4   7  2   
  7   4   8  1   
  8   5   9  1   
  9   5  31  1   
 10   5  32  1   
 11   6  10  1   
 12   6  33  1   
 13   6  34  1   
 14   7  11  1   
 15   8  12  1   
 16   8  35  1   
 17   9  13  1   
 18   9  36  1   
 19   9  37  1   
 20  10  13  1   
 21  10  38  1   
 22  10  39  1   
 23  11  12  2   
 24  11  40  1   
 25  12  41  1   
 26  13  14  1   
 27  13  15  1   
 28  14  16  1   
 29  15  17  1   
 30  15  18  1   
 31  15  42  1   
 32  16  19  1   
 33  16  43  1   
 34  16  44  1   
 35  17  45  1   
 36  18  19  1   
 37  18  20  1   
 38  18  21  1   
 39  19  46  1   
 40  19  47  1   
 41  20  22  am  
 42  20  48  1   
 43  21  49  1   
 44  21  50  1   
 45  21  51  1   
 46  22  23  2   
 47  22  24  1   
 48  24  25  1   
 49  24  26  2   
 50  25  27  2   
 51  25  52  1   
 52  26  28  1   
 53  26  53  1   
 54  27  28  1   
 55  28  29  1   
 56  29  30  1   
 57  29  54  1   
 58  29  55  1   
 59  30  56  1   
 60  30  57  1   
 61  30  58  1   
@<TRIPOS>SUBSTRUCTURE
  1 ****  14 GROUP 4 **** **** 0

# MOE 2024.06 (io_trps.svl 2023.06)
