@<TRIPOS>MOLECULE
NONAME
50 52 1 0 0 
SMALL
USER_CHARGES


@<TRIPOS>ATOM
  1 CL       0.9850     0.0070    -2.9540 Cl    1 <1>  -0.1770 
  2 C        1.1760    -1.3920    -1.9310 C.ar  1 <1>   0.1770 
  3 C        2.0500    -1.3350    -0.8650 C.ar  1 <1>  -0.1500 
  4 C        0.4400    -2.5270    -2.2040 C.ar  1 <1>  -0.1500 
  5 C        2.2060    -2.4470    -0.0420 C.ar  1 <1>   0.0830 
  6 C        0.5860    -3.6450    -1.3960 C.ar  1 <1>  -0.1440 
  7 O        3.0210    -2.4110     1.0490 O.3   1 <1>  -0.3620 
  8 C        1.4830    -3.6190    -0.3280 C.ar  1 <1>   0.0830 
  9 C       -0.2380    -4.8880    -1.6790 C.3   1 <1>   0.4870 
 10 C        3.7730    -1.2650     1.3930 C.3   1 <1>   0.0400 
 11 O        1.5830    -4.7750     0.3980 O.3   1 <1>  -0.3630 
 12 N       -1.0450    -5.2000    -0.4720 N.4   1 <1>  -0.9590 
 13 C        2.8410    -5.2090     0.8810 C.3   1 <1>   0.0400 
 14 C       -1.5570    -6.6120    -0.5090 C.3   1 <1>   0.3430 
 15 C       -2.0750    -4.1430    -0.2130 C.3   1 <1>   0.3430 
 16 C       -2.3290    -7.0420     0.7530 C.3   1 <1>   0.1400 
 17 C       -2.3360    -4.0280     1.2900 C.3   1 <1>  -0.1600 
 18 N       -3.5390    -6.1950     0.9360 N.am  1 <1>  -0.6600 
 19 C       -3.3750    -5.0180     1.8310 C.3   1 <1>   0.1400 
 20 C       -4.6800    -6.3470     0.1870 C.2   1 <1>   0.6300 
 21 O       -5.4340    -5.4230     0.0050 O.2   1 <1>  -0.5700 
 22 C       -4.9890    -7.6730    -0.5000 C.3   1 <1>  -0.1000 
 23 C       -6.3450    -8.3000    -0.3390 C.3   1 <1>  -0.2000 
 24 C       -5.1480    -8.9530     0.2740 C.3   1 <1>  -0.2000 
 25 H        2.5850    -0.4190    -0.7030 H     1 <1>   0.1500 
 26 H       -0.2340    -2.5140    -3.0440 H     1 <1>   0.1500 
 27 H        0.4320    -5.7040    -1.8950 H     1 <1>   0.0800 
 28 H       -0.8800    -4.7320    -2.5310 H     1 <1>   0.0800 
 29 H        4.3360    -1.4880     2.2820 H     1 <1>   0.0800 
 30 H        3.1010    -0.4470     1.5860 H     1 <1>   0.0800 
 31 H        4.4470    -1.0310     0.5880 H     1 <1>   0.0800 
 32 H       -0.3490    -5.1220     0.2900 H     1 <1>   0.4500 
 33 H        2.8070    -6.2750     1.0140 H     1 <1>   0.0800 
 34 H        3.0350    -4.7360     1.8280 H     1 <1>   0.0800 
 35 H        3.6060    -4.9520     0.1700 H     1 <1>   0.0800 
 36 H       -0.7230    -7.2830    -0.6370 H     1 <1>   0.0800 
 37 H       -2.2070    -6.7350    -1.3600 H     1 <1>   0.0800 
 38 H       -2.9920    -4.3570    -0.7400 H     1 <1>   0.0800 
 39 H       -1.7060    -3.1900    -0.5590 H     1 <1>   0.0800 
 40 H       -1.6930    -6.9690     1.6180 H     1 <1>   0.0800 
 41 H       -2.6180    -8.0740     0.6570 H     1 <1>   0.0800 
 42 H       -2.7110    -3.0400     1.4880 H     1 <1>   0.0800 
 43 H       -1.4150    -4.1170     1.8380 H     1 <1>   0.0800 
 44 H       -4.3210    -4.5130     1.9350 H     1 <1>   0.0800 
 45 H       -3.0910    -5.3520     2.8150 H     1 <1>   0.0800 
 46 H       -4.5750    -7.7140    -1.4900 H     1 <1>   0.1000 
 47 H       -6.8080    -8.7560    -1.1970 H     1 <1>   0.1000 
 48 H       -7.0610    -7.8120     0.3010 H     1 <1>   0.1000 
 49 H       -5.0660    -8.9370     1.3480 H     1 <1>   0.1000 
 50 H       -4.8000    -9.8770    -0.1540 H     1 <1>   0.1000 
@<TRIPOS>BOND
  1   1   2  1   
  2   2   3  ar  
  3   2   4  ar  
  4   3   5  ar  
  5   3  25  1   
  6   4   6  ar  
  7   4  26  1   
  8   5   7  1   
  9   5   8  ar  
 10   6   8  ar  
 11   6   9  1   
 12   7  10  1   
 13   8  11  1   
 14   9  12  1   
 15   9  27  1   
 16   9  28  1   
 17  10  29  1   
 18  10  30  1   
 19  10  31  1   
 20  11  13  1   
 21  12  14  1   
 22  12  15  1   
 23  12  32  1   
 24  13  33  1   
 25  13  34  1   
 26  13  35  1   
 27  14  16  1   
 28  14  36  1   
 29  14  37  1   
 30  15  17  1   
 31  15  38  1   
 32  15  39  1   
 33  16  18  1   
 34  16  40  1   
 35  16  41  1   
 36  17  19  1   
 37  17  42  1   
 38  17  43  1   
 39  18  19  1   
 40  18  20  am  
 41  19  44  1   
 42  19  45  1   
 43  20  21  2   
 44  20  22  1   
 45  22  23  1   
 46  22  24  1   
 47  22  46  1   
 48  23  24  1   
 49  23  47  1   
 50  23  48  1   
 51  24  49  1   
 52  24  50  1   
@<TRIPOS>SUBSTRUCTURE
  1 ****  12 GROUP 4 **** **** 0

# MOE 2024.06 (io_trps.svl 2023.06)
