@<TRIPOS>MOLECULE
NONAME
53 55 1 0 0 
SMALL
USER_CHARGES


@<TRIPOS>ATOM
  1 O       -0.4620     1.4870    -2.3640 O.2   1 <1>  -0.5700 
  2 C       -0.5480     2.6010    -1.9150 C.2   1 <1>   0.5690 
  3 N       -0.4170     2.8270    -0.5910 N.am  1 <1>  -0.7300 
  4 C       -0.8440     3.7830    -2.8370 C.3   1 <1>   0.1810 
  5 C       -0.6060     4.1500     0.0490 C.3   1 <1>   0.3640 
  6 O       -0.4470     5.0130    -2.2720 O.3   1 <1>  -0.5600 
  7 C       -1.6880     4.0030     1.1160 C.ar  1 <1>  -0.1440 
  8 C       -0.9680     5.2690    -0.9700 C.3   1 <1>   0.2610 
  9 C       -2.9010     3.3880     0.8280 C.ar  1 <1>  -0.1500 
 10 C       -1.4700     4.4860     2.3990 C.ar  1 <1>  -0.1500 
 11 C       -0.4460     6.6260    -0.4790 C.2   1 <1>   0.5690 
 12 C       -3.8750     3.2610     1.8030 C.ar  1 <1>  -0.1500 
 13 C       -2.4430     4.3600     3.3740 C.ar  1 <1>  -0.1500 
 14 O       -0.6880     7.0030     0.6450 O.2   1 <1>  -0.5700 
 15 N        0.2950     7.3790    -1.3430 N.am  1 <1>  -0.5790 
 16 C       -3.6470     3.7470     3.0770 C.ar  1 <1>  -0.1500 
 17 C        0.9170     8.7140    -1.1800 C.3   1 <1>   0.0540 
 18 C        2.2490     8.8670    -1.8460 C.3   1 <1>  -0.2000 
 19 C        1.0250     9.5020    -2.4470 C.3   1 <1>  -0.2000 
 20 C        0.5550     9.4120     0.1600 C.3   1 <1>   0.4380 
 21 N        1.2520    10.7230     0.3440 N.4   1 <1>  -0.9590 
 22 C        2.4950    10.5280     1.1340 C.3   1 <1>   0.3430 
 23 C        0.3460    11.7270     0.9630 C.3   1 <1>   0.3430 
 24 C        3.4330    11.7070     0.9090 C.3   1 <1>  -0.2400 
 25 C       -0.6390    12.2320    -0.0840 C.3   1 <1>  -0.2400 
 26 H       -0.2910     2.0260     0.0300 H     1 <1>   0.3700 
 27 H       -1.8980     3.8230    -3.0460 H     1 <1>   0.0800 
 28 H       -0.3100     3.6550    -3.7610 H     1 <1>   0.0800 
 29 H        0.3220     4.4120     0.5290 H     1 <1>   0.0800 
 30 H       -2.0370     5.3370    -1.0580 H     1 <1>   0.0800 
 31 H       -3.0970     2.9980    -0.1550 H     1 <1>   0.1500 
 32 H       -0.5420     4.9710     2.6500 H     1 <1>   0.1500 
 33 H       -4.8110     2.7820     1.5710 H     1 <1>   0.1500 
 34 H       -2.2650     4.7390     4.3660 H     1 <1>   0.1500 
 35 H        0.4550     6.9370    -2.2590 H     1 <1>   0.3700 
 36 H       -4.4040     3.6490     3.8360 H     1 <1>   0.1500 
 37 H        3.0070     9.5290    -1.4690 H     1 <1>   0.1000 
 38 H        2.6810     8.0140    -2.3440 H     1 <1>   0.1000 
 39 H        0.6260     9.0840    -3.3560 H     1 <1>   0.1000 
 40 H        0.9600    10.5750    -2.4420 H     1 <1>   0.1000 
 41 H        0.8040     8.7560     0.9770 H     1 <1>   0.0800 
 42 H       -0.5120     9.5580     0.1750 H     1 <1>   0.0800 
 43 H        1.5130    11.0540    -0.5920 H     1 <1>   0.4500 
 44 H        2.2610    10.4280     2.1820 H     1 <1>   0.0800 
 45 H        2.9910     9.6240     0.8140 H     1 <1>   0.0800 
 46 H       -0.1830    11.2890     1.7960 H     1 <1>   0.0800 
 47 H        0.9180    12.5630     1.3310 H     1 <1>   0.0800 
 48 H        3.0160    12.6230     1.2860 H     1 <1>   0.0800 
 49 H        3.6670    11.8180    -0.1350 H     1 <1>   0.0800 
 50 H        4.3540    11.5280     1.4350 H     1 <1>   0.0800 
 51 H       -1.2770    11.4450    -0.4440 H     1 <1>   0.0800 
 52 H       -0.1190    12.6840    -0.9100 H     1 <1>   0.0800 
 53 H       -1.2670    12.9840     0.3600 H     1 <1>   0.0800 
@<TRIPOS>BOND
  1   1   2  2   
  2   2   3  am  
  3   2   4  1   
  4   3   5  1   
  5   3  26  1   
  6   4   6  1   
  7   4  27  1   
  8   4  28  1   
  9   5   7  1   
 10   5   8  1   
 11   5  29  1   
 12   6   8  1   
 13   7   9  ar  
 14   7  10  ar  
 15   8  11  1   
 16   8  30  1   
 17   9  12  ar  
 18   9  31  1   
 19  10  13  ar  
 20  10  32  1   
 21  11  14  2   
 22  11  15  am  
 23  12  16  ar  
 24  12  33  1   
 25  13  16  ar  
 26  13  34  1   
 27  15  17  1   
 28  15  35  1   
 29  16  36  1   
 30  17  18  1   
 31  17  19  1   
 32  17  20  1   
 33  18  19  1   
 34  18  37  1   
 35  18  38  1   
 36  19  39  1   
 37  19  40  1   
 38  20  21  1   
 39  20  41  1   
 40  20  42  1   
 41  21  22  1   
 42  21  23  1   
 43  21  43  1   
 44  22  24  1   
 45  22  44  1   
 46  22  45  1   
 47  23  25  1   
 48  23  46  1   
 49  23  47  1   
 50  24  48  1   
 51  24  49  1   
 52  24  50  1   
 53  25  51  1   
 54  25  52  1   
 55  25  53  1   
@<TRIPOS>SUBSTRUCTURE
  1 ****  11 GROUP 4 **** **** 0

# MOE 2024.06 (io_trps.svl 2023.06)
