@<TRIPOS>MOLECULE
NONAME
46 48 1 0 0 
SMALL
USER_CHARGES


@<TRIPOS>ATOM
  1 O       -0.5780     0.0630     0.0340 O.2   1 <1>  -0.5700 
  2 C       -1.6320     0.4750     0.4410 C.2   1 <1>   0.4230 
  3 C       -2.8890    -0.0690     0.0030 C.ar  1 <1>   0.0860 
  4 C       -1.5730     1.5550     1.5040 C.3   1 <1>  -0.1790 
  5 C       -4.0440     0.6490    -0.3030 C.ar  1 <1>   0.1660 
  6 C       -3.0070    -1.4410    -0.1440 C.ar  1 <1>   0.1600 
  7 N       -5.1640     0.0630    -0.6450 N.ar  1 <1>  -0.6200 
  8 C       -4.0940     2.1680    -0.2950 C.3   1 <1>  -0.0960 
  9 N       -4.1140    -2.0460    -0.4960 N.ar  1 <1>  -0.6200 
 10 C       -5.1590    -1.2630    -0.7410 C.ar  1 <1>   0.7200 
 11 N       -6.3310    -1.8740    -1.1130 N.pl3 1 <1>  -0.8380 
 12 C       -6.4060    -3.3120    -1.5170 C.3   1 <1>   0.2090 
 13 C       -7.6600    -1.1960    -1.0250 C.3   1 <1>   0.2090 
 14 C       -7.3440    -4.0830    -0.5670 C.3   1 <1>   0.3430 
 15 C       -8.6000    -1.9860    -0.0900 C.3   1 <1>   0.3430 
 16 N       -8.7160    -3.4490    -0.4580 N.4   1 <1>  -0.9590 
 17 C       -9.6030    -4.1600     0.5150 C.3   1 <1>   0.3430 
 18 C      -10.0580    -5.5260    -0.0140 C.3   1 <1>   0.0000 
 19 C      -10.9980    -6.2750     0.9660 C.3   1 <1>   0.0000 
 20 C       -9.0630    -6.7040     0.1690 C.3   1 <1>   0.0000 
 21 C      -10.2880    -7.5820     0.5300 C.3   1 <1>   0.0000 
 22 H       -2.4830     1.5860     2.0720 H     1 <1>   0.0800 
 23 H       -1.3950     2.5100     1.0450 H     1 <1>   0.0800 
 24 H       -0.7600     1.3460     2.1760 H     1 <1>   0.0800 
 25 H       -2.1390    -2.0520     0.0470 H     1 <1>   0.1500 
 26 H       -3.1640     2.5850    -0.6370 H     1 <1>   0.0800 
 27 H       -4.3110     2.5270     0.6940 H     1 <1>   0.0800 
 28 H       -4.8670     2.5150    -0.9580 H     1 <1>   0.0800 
 29 H       -5.4360    -3.7800    -1.5080 H     1 <1>   0.0800 
 30 H       -6.7760    -3.3770    -2.5250 H     1 <1>   0.0800 
 31 H       -8.0900    -1.1270    -2.0100 H     1 <1>   0.0800 
 32 H       -7.5660    -0.1930    -0.6460 H     1 <1>   0.0800 
 33 H       -6.8800    -4.1130     0.4050 H     1 <1>   0.0800 
 34 H       -7.4320    -5.0950    -0.9220 H     1 <1>   0.0800 
 35 H       -9.5750    -1.5260    -0.1080 H     1 <1>   0.0800 
 36 H       -8.2140    -1.8980     0.9120 H     1 <1>   0.0800 
 37 H       -9.1550    -3.5000    -1.3870 H     1 <1>   0.4500 
 38 H      -10.4830    -3.5640     0.6930 H     1 <1>   0.0800 
 39 H       -9.0940    -4.2870     1.4580 H     1 <1>   0.0800 
 40 H      -10.4830    -5.4830    -1.0030 H     1 <1>   0.0000 
 41 H      -12.0370    -6.2320     0.6920 H     1 <1>   0.0000 
 42 H      -10.8150    -6.0340     2.0000 H     1 <1>   0.0000 
 43 H       -8.3930    -6.5690     1.0020 H     1 <1>   0.0000 
 44 H       -8.5690    -7.0050    -0.7380 H     1 <1>   0.0000 
 45 H      -10.7440    -8.0340    -0.3350 H     1 <1>   0.0000 
 46 H      -10.1090    -8.2710     1.3350 H     1 <1>   0.0000 
@<TRIPOS>BOND
  1   1   2  2   
  2   2   3  1   
  3   2   4  1   
  4   3   5  ar  
  5   3   6  ar  
  6   4  22  1   
  7   4  23  1   
  8   4  24  1   
  9   5   7  ar  
 10   5   8  1   
 11   6   9  ar  
 12   6  25  1   
 13   7  10  ar  
 14   8  26  1   
 15   8  27  1   
 16   8  28  1   
 17   9  10  ar  
 18  10  11  1   
 19  11  12  1   
 20  11  13  1   
 21  12  14  1   
 22  12  29  1   
 23  12  30  1   
 24  13  15  1   
 25  13  31  1   
 26  13  32  1   
 27  14  16  1   
 28  14  33  1   
 29  14  34  1   
 30  15  16  1   
 31  15  35  1   
 32  15  36  1   
 33  16  17  1   
 34  16  37  1   
 35  17  18  1   
 36  17  38  1   
 37  17  39  1   
 38  18  19  1   
 39  18  20  1   
 40  18  40  1   
 41  19  21  1   
 42  19  41  1   
 43  19  42  1   
 44  20  21  1   
 45  20  43  1   
 46  20  44  1   
 47  21  45  1   
 48  21  46  1   
@<TRIPOS>SUBSTRUCTURE
  1 ****  11 GROUP 4 **** **** 0

# MOE 2024.06 (io_trps.svl 2023.06)
