@<TRIPOS>MOLECULE
NONAME
51 53 1 0 0 
SMALL
USER_CHARGES


@<TRIPOS>ATOM
  1 S       -0.5620     0.7630    -1.3220 S.o2  1 <1>   1.3330 
  2 O       -1.5900     1.7810    -1.3420 O.2   1 <1>  -0.6500 
  3 O        0.2280     0.5150    -2.5070 O.2   1 <1>  -0.6500 
  4 N       -1.2820    -0.6970    -0.8450 N.am  1 <1>  -0.8490 
  5 C        0.5710     1.0950     0.0320 C.3   1 <1>  -0.0550 
  6 C       -2.4030    -0.4870     0.0790 C.3   1 <1>   0.1960 
  7 C       -1.7260    -1.4840    -2.0030 C.3   1 <1>   0.1960 
  8 C        1.3840     2.3880    -0.1450 C.3   1 <1>  -0.1600 
  9 C       -2.8850    -1.8310     0.6240 C.3   1 <1>  -0.1600 
 10 C       -2.2010    -2.8650    -1.5460 C.3   1 <1>  -0.1600 
 11 C        2.3300     2.6180     1.0400 C.3   1 <1>  -0.1600 
 12 C       -3.3280    -2.7620    -0.5130 C.3   1 <1>   0.4240 
 13 C        3.1350     3.9070     0.8550 C.3   1 <1>  -0.2400 
 14 O       -4.3940    -2.1440    -1.1940 O.3   1 <1>  -0.5600 
 15 C       -3.7170    -4.1610     0.0160 C.ar  1 <1>  -0.1440 
 16 C       -5.6760    -2.3110    -0.6720 C.3   1 <1>   0.1200 
 17 C       -5.0150    -4.6440    -0.1160 C.ar  1 <1>  -0.1440 
 18 C       -2.7720    -4.9660     0.6450 C.ar  1 <1>  -0.1500 
 19 C       -6.0660    -3.7810    -0.7860 C.3   1 <1>  -0.0170 
 20 C       -5.3550    -5.9010     0.3580 C.ar  1 <1>  -0.1500 
 21 C       -3.1110    -6.2190     1.1210 C.ar  1 <1>  -0.1500 
 22 C       -4.4010    -6.6980     0.9810 C.ar  1 <1>   0.0820 
 23 O       -4.6510    -7.9380     1.4720 O.3   1 <1>  -0.3630 
 24 C       -5.9280    -8.5270     1.3610 C.3   1 <1>   0.0400 
 25 H        1.2500     0.2690     0.1200 H     1 <1>   0.0800 
 26 H        0.0150     1.1610     0.9460 H     1 <1>   0.0800 
 27 H       -3.2110     0.0170    -0.4290 H     1 <1>   0.0800 
 28 H       -2.0890     0.1320     0.9010 H     1 <1>   0.0800 
 29 H       -0.9100    -1.6190    -2.6920 H     1 <1>   0.0800 
 30 H       -2.5180    -0.9650    -2.5200 H     1 <1>   0.0800 
 31 H        0.7060     3.2210    -0.2360 H     1 <1>   0.0800 
 32 H        1.9540     2.3240    -1.0570 H     1 <1>   0.0800 
 33 H       -3.6920    -1.6830     1.3160 H     1 <1>   0.0800 
 34 H       -2.0780    -2.2830     1.1700 H     1 <1>   0.0800 
 35 H       -1.3590    -3.3860    -1.1320 H     1 <1>   0.0800 
 36 H       -2.5490    -3.4310    -2.3910 H     1 <1>   0.0800 
 37 H        3.0100     1.7880     1.1290 H     1 <1>   0.0800 
 38 H        1.7610     2.6850     1.9520 H     1 <1>   0.0800 
 39 H        3.7280     3.8550    -0.0400 H     1 <1>   0.0800 
 40 H        3.7930     4.0540     1.6930 H     1 <1>   0.0800 
 41 H        2.4770     4.7560     0.7860 H     1 <1>   0.0800 
 42 H       -6.3480    -1.6980    -1.2460 H     1 <1>   0.0800 
 43 H       -5.6890    -1.9850     0.3530 H     1 <1>   0.0800 
 44 H       -1.7600    -4.6250     0.7710 H     1 <1>   0.1500 
 45 H       -6.1480    -4.0500    -1.8240 H     1 <1>   0.0800 
 46 H       -7.0230    -3.9300    -0.3200 H     1 <1>   0.0800 
 47 H       -6.3630    -6.2470     0.2360 H     1 <1>   0.1500 
 48 H       -2.3760    -6.8370     1.6040 H     1 <1>   0.1500 
 49 H       -5.8840    -9.5030     1.8090 H     1 <1>   0.0800 
 50 H       -6.1830    -8.6130     0.3200 H     1 <1>   0.0800 
 51 H       -6.6410    -7.9160     1.8850 H     1 <1>   0.0800 
@<TRIPOS>BOND
  1   1   2  2   
  2   1   3  2   
  3   1   4  am  
  4   1   5  1   
  5   4   6  1   
  6   4   7  1   
  7   5   8  1   
  8   5  25  1   
  9   5  26  1   
 10   6   9  1   
 11   6  27  1   
 12   6  28  1   
 13   7  10  1   
 14   7  29  1   
 15   7  30  1   
 16   8  11  1   
 17   8  31  1   
 18   8  32  1   
 19   9  12  1   
 20   9  33  1   
 21   9  34  1   
 22  10  12  1   
 23  10  35  1   
 24  10  36  1   
 25  11  13  1   
 26  11  37  1   
 27  11  38  1   
 28  12  14  1   
 29  12  15  1   
 30  13  39  1   
 31  13  40  1   
 32  13  41  1   
 33  14  16  1   
 34  15  17  ar  
 35  15  18  ar  
 36  16  19  1   
 37  16  42  1   
 38  16  43  1   
 39  17  19  1   
 40  17  20  ar  
 41  18  21  ar  
 42  18  44  1   
 43  19  45  1   
 44  19  46  1   
 45  20  22  ar  
 46  20  47  1   
 47  21  22  ar  
 48  21  48  1   
 49  22  23  1   
 50  23  24  1   
 51  24  49  1   
 52  24  50  1   
 53  24  51  1   
@<TRIPOS>SUBSTRUCTURE
  1 ****   9 GROUP 4 **** **** 0

# MOE 2024.06 (io_trps.svl 2023.06)
