@<TRIPOS>MOLECULE
NONAME
61 63 1 0 0 
SMALL
USER_CHARGES


@<TRIPOS>ATOM
  1 CL      -2.2130     1.1810    -1.5710 Cl    1 <1>  -0.1770 
  2 C       -1.3230     2.3260    -0.5960 C.ar  1 <1>   0.1770 
  3 C       -1.8040     2.6770     0.6530 C.ar  1 <1>  -0.1440 
  4 C       -0.1620     2.8710    -1.1080 C.ar  1 <1>  -0.1500 
  5 C       -1.0850     3.5970     1.3990 C.ar  1 <1>  -0.1500 
  6 C       -3.0830     2.0750     1.1960 C.3   1 <1>   0.4870 
  7 C        0.5560     3.8030    -0.3640 C.ar  1 <1>   0.0820 
  8 C        0.0830     4.1640     0.9130 C.ar  1 <1>   0.0820 
  9 N       -4.1800     3.0780     1.0740 N.4   1 <1>  -0.9590 
 10 O        1.6920     4.3690    -0.8610 O.3   1 <1>  -0.3620 
 11 O        0.6550     5.0510     1.7760 O.3   1 <1>  -0.3620 
 12 C       -5.3800     2.6580     1.8460 C.3   1 <1>   0.3430 
 13 C       -4.5040     3.3700    -0.3530 C.3   1 <1>   0.3430 
 14 C        2.2790     3.9690    -2.0790 C.3   1 <1>   0.1200 
 15 C        1.9740     5.5270     1.6380 C.3   1 <1>   0.1200 
 16 C       -6.4390     3.7560     1.7910 C.3   1 <1>  -0.1600 
 17 C       -5.5350     4.4930    -0.4270 C.3   1 <1>  -0.1600 
 18 C        3.5680     4.7630    -2.2590 C.3   1 <1>  -0.2400 
 19 C        2.3370     6.2860     2.9110 C.3   1 <1>  -0.2400 
 20 C       -6.8150     4.1550     0.3560 C.3   1 <1>   0.2800 
 21 O       -7.5390     5.3300     0.5210 O.3   1 <1>  -0.5600 
 22 C       -7.7020     3.0750    -0.3440 C.3   1 <1>  -0.1600 
 23 C       -8.2100     5.8570    -0.5930 C.3   1 <1>   0.1200 
 24 C       -9.2380     3.5000    -0.4950 C.3   1 <1>   0.2800 
 25 C       -8.8030     4.7300    -1.4460 C.3   1 <1>   0.2000 
 26 O      -10.5840     3.8700    -0.5520 O.3   1 <1>  -0.6800 
 27 C       -9.7090     2.2740     0.3870 C.3   1 <1>  -0.2400 
 28 O       -9.7740     5.2910    -2.2830 O.3   1 <1>  -0.6800 
 29 H        0.1520     2.5570    -2.0850 H     1 <1>   0.1500 
 30 H       -1.4100     3.8930     2.3820 H     1 <1>   0.1500 
 31 H       -2.9330     1.8180     2.2320 H     1 <1>   0.0800 
 32 H       -3.3350     1.1750     0.6590 H     1 <1>   0.0800 
 33 H       -3.8230     3.9520     1.4850 H     1 <1>   0.4500 
 34 H       -5.7800     1.7450     1.4350 H     1 <1>   0.0800 
 35 H       -5.1130     2.4750     2.8760 H     1 <1>   0.0800 
 36 H       -3.6140     3.6760    -0.8800 H     1 <1>   0.0800 
 37 H       -4.8920     2.4850    -0.8320 H     1 <1>   0.0800 
 38 H        2.4880     2.9140    -2.0300 H     1 <1>   0.0800 
 39 H        1.5900     4.1800    -2.8780 H     1 <1>   0.0800 
 40 H        2.6300     4.6860     1.4950 H     1 <1>   0.0800 
 41 H        2.0140     6.1800     0.7840 H     1 <1>   0.0800 
 42 H       -6.0620     4.6170     2.3150 H     1 <1>   0.0800 
 43 H       -7.3180     3.4250     2.3150 H     1 <1>   0.0800 
 44 H       -5.7660     4.6760    -1.4610 H     1 <1>   0.0800 
 45 H       -5.0950     5.3910    -0.0300 H     1 <1>   0.0800 
 46 H        4.2460     4.5580    -1.4500 H     1 <1>   0.0800 
 47 H        3.3530     5.8170    -2.2900 H     1 <1>   0.0800 
 48 H        4.0430     4.4840    -3.1820 H     1 <1>   0.0800 
 49 H        2.2830     5.6300     3.7610 H     1 <1>   0.0800 
 50 H        1.6680     7.1150     3.0510 H     1 <1>   0.0800 
 51 H        3.3400     6.6640     2.8330 H     1 <1>   0.0800 
 52 H       -7.3000     2.8350    -1.3130 H     1 <1>   0.0800 
 53 H       -7.4890     2.1530     0.1680 H     1 <1>   0.0800 
 54 H       -8.9950     6.4910    -0.2180 H     1 <1>   0.0800 
 55 H       -7.5200     6.4480    -1.1690 H     1 <1>   0.0800 
 56 H       -8.0480     4.4490    -2.1560 H     1 <1>   0.0800 
 57 H      -10.8870     4.1110     0.3450 H     1 <1>   0.4000 
 58 H       -9.4070     1.3500    -0.0780 H     1 <1>   0.0800 
 59 H      -10.7650     2.1040     0.5750 H     1 <1>   0.0800 
 60 H       -9.2760     2.3270     1.3710 H     1 <1>   0.0800 
 61 H      -10.6250     4.9200    -1.9480 H     1 <1>   0.4000 
@<TRIPOS>BOND
  1   1   2  1   
  2   2   3  ar  
  3   2   4  ar  
  4   3   5  ar  
  5   3   6  1   
  6   4   7  ar  
  7   4  29  1   
  8   5   8  ar  
  9   5  30  1   
 10   6   9  1   
 11   6  31  1   
 12   6  32  1   
 13   7   8  ar  
 14   7  10  1   
 15   8  11  1   
 16   9  12  1   
 17   9  13  1   
 18   9  33  1   
 19  10  14  1   
 20  11  15  1   
 21  12  16  1   
 22  12  34  1   
 23  12  35  1   
 24  13  17  1   
 25  13  36  1   
 26  13  37  1   
 27  14  18  1   
 28  14  38  1   
 29  14  39  1   
 30  15  19  1   
 31  15  40  1   
 32  15  41  1   
 33  16  20  1   
 34  16  42  1   
 35  16  43  1   
 36  17  20  1   
 37  17  44  1   
 38  17  45  1   
 39  18  46  1   
 40  18  47  1   
 41  18  48  1   
 42  19  49  1   
 43  19  50  1   
 44  19  51  1   
 45  20  21  1   
 46  20  22  1   
 47  21  23  1   
 48  22  24  1   
 49  22  52  1   
 50  22  53  1   
 51  23  25  1   
 52  23  54  1   
 53  23  55  1   
 54  24  25  1   
 55  24  26  1   
 56  24  27  1   
 57  25  28  1   
 58  25  56  1   
 59  26  57  1   
 60  27  58  1   
 61  27  59  1   
 62  27  60  1   
 63  28  61  1   
@<TRIPOS>SUBSTRUCTURE
  1 ****  13 GROUP 4 **** **** 0

# MOE 2024.06 (io_trps.svl 2023.06)
