@<TRIPOS>MOLECULE
NONAME
43 45 1 0 0 
SMALL
USER_CHARGES


@<TRIPOS>ATOM
  1 O       -3.9520     2.6830    -1.0600 O.2   1 <1>  -0.5700 
  2 C       -3.3540     1.7200    -0.6210 C.2   1 <1>   0.5440 
  3 N       -3.8810     0.4690    -0.8200 N.am  1 <1>  -0.6600 
  4 C       -2.1170     1.8990     0.1000 C.ar  1 <1>   0.0860 
  5 C       -5.1710     0.2300    -1.5120 C.3   1 <1>   0.1400 
  6 C       -3.3420    -0.7920    -0.2580 C.3   1 <1>   0.1400 
  7 C       -0.8750     1.6540    -0.4710 C.ar  1 <1>   0.1660 
  8 C       -2.1050     2.3110     1.4250 C.ar  1 <1>   0.1660 
  9 C       -5.4260    -1.2730    -1.3720 C.3   1 <1>   0.2000 
 10 C       -4.5390    -1.7430    -0.2190 C.3   1 <1>  -0.0800 
 11 N        0.2470     1.7770     0.2030 N.ar  1 <1>  -0.6200 
 12 C       -0.7190     1.2160    -1.9180 C.3   1 <1>  -0.0960 
 13 N       -0.9930     2.4430     2.1150 N.ar  1 <1>  -0.6200 
 14 C       -3.3950     2.6280     2.1620 C.3   1 <1>  -0.0970 
 15 O       -6.7550    -1.5410    -1.0810 O.3   1 <1>  -0.6800 
 16 C       -4.1580    -3.2290    -0.3300 C.3   1 <1>  -0.0160 
 17 C        0.1200     2.1670     1.4600 C.ar  1 <1>   0.4700 
 18 C       -3.2690    -3.6720     0.8220 C.ar  1 <1>   0.1670 
 19 N       -1.9830    -3.3710     0.7230 N.ar  1 <1>  -0.6200 
 20 C       -3.8260    -4.3520     1.8960 C.ar  1 <1>  -0.1500 
 21 C       -1.2220    -3.7620     1.7330 C.ar  1 <1>   0.1600 
 22 C       -3.0210    -4.7520     2.9410 C.ar  1 <1>  -0.1500 
 23 C       -1.6820    -4.4430     2.8470 C.ar  1 <1>  -0.1500 
 24 H       -5.9430     0.8090    -1.0350 H     1 <1>   0.0800 
 25 H       -5.0890     0.5120    -2.5480 H     1 <1>   0.0800 
 26 H       -2.5770    -1.1720    -0.9140 H     1 <1>   0.0800 
 27 H       -2.9280    -0.6460     0.7260 H     1 <1>   0.0800 
 28 H       -5.1730    -1.7720    -2.2910 H     1 <1>   0.0800 
 29 H       -5.0450    -1.5760     0.7160 H     1 <1>   0.0800 
 30 H       -1.5710     1.4880    -2.5140 H     1 <1>   0.0800 
 31 H       -0.5850     0.1510    -1.9590 H     1 <1>   0.0800 
 32 H        0.1480     1.6870    -2.3460 H     1 <1>   0.0800 
 33 H       -3.9080     3.4340     1.6690 H     1 <1>   0.0800 
 34 H       -3.1890     2.9230     3.1750 H     1 <1>   0.0800 
 35 H       -4.0320     1.7630     2.1790 H     1 <1>   0.0800 
 36 H       -7.0300    -1.0580    -0.2780 H     1 <1>   0.4000 
 37 H       -3.6400    -3.4090    -1.2550 H     1 <1>   0.0800 
 38 H       -5.0550    -3.8230    -0.3420 H     1 <1>   0.0800 
 39 H        1.0360     2.2730     2.0170 H     1 <1>   0.1500 
 40 H       -4.8780    -4.5670     1.9180 H     1 <1>   0.1500 
 41 H       -0.1730    -3.5270     1.6690 H     1 <1>   0.1500 
 42 H       -3.4190    -5.2820     3.7900 H     1 <1>   0.1500 
 43 H       -0.9980    -4.7270     3.6260 H     1 <1>   0.1500 
@<TRIPOS>BOND
  1   1   2  2   
  2   2   3  am  
  3   2   4  1   
  4   3   5  1   
  5   3   6  1   
  6   4   7  ar  
  7   4   8  ar  
  8   5   9  1   
  9   5  24  1   
 10   5  25  1   
 11   6  10  1   
 12   6  26  1   
 13   6  27  1   
 14   7  11  ar  
 15   7  12  1   
 16   8  13  ar  
 17   8  14  1   
 18   9  10  1   
 19   9  15  1   
 20   9  28  1   
 21  10  16  1   
 22  10  29  1   
 23  11  17  ar  
 24  12  30  1   
 25  12  31  1   
 26  12  32  1   
 27  13  17  ar  
 28  14  33  1   
 29  14  34  1   
 30  14  35  1   
 31  15  36  1   
 32  16  18  1   
 33  16  37  1   
 34  16  38  1   
 35  17  39  1   
 36  18  19  ar  
 37  18  20  ar  
 38  19  21  ar  
 39  20  22  ar  
 40  20  40  1   
 41  21  23  ar  
 42  21  41  1   
 43  22  23  ar  
 44  22  42  1   
 45  23  43  1   
@<TRIPOS>SUBSTRUCTURE
  1 ****   6 GROUP 4 **** **** 0

# MOE 2024.06 (io_trps.svl 2023.06)
