@<TRIPOS>MOLECULE
NONAME
52 56 1 0 0 
SMALL
USER_CHARGES


@<TRIPOS>ATOM
  1 O        0.0560     0.3400     1.5770 O.2   1 <1>  -0.5700 
  2 C       -0.4230     1.3610     1.1090 C.2   1 <1>   0.7150 
  3 N       -1.7150     1.3040     0.6110 N.am  1 <1>  -0.6600 
  4 C        0.3840     2.5640     1.0680 C.2   1 <1>   0.1020 
  5 C       -2.3210     2.3640    -0.2580 C.3   1 <1>   0.1400 
  6 C       -2.6100     0.1360     0.8500 C.3   1 <1>   0.1400 
  7 N       -0.0050     3.7650     1.4120 N.2   1 <1>  -0.3380 
  8 N        1.6710     2.6040     0.6690 N.pl3 1 <1>   0.0480 
  9 C       -3.6470     2.8820     0.3320 C.3   1 <1>   0.1440 
 10 C       -3.9440     0.6090     1.4430 C.3   1 <1>  -0.1600 
 11 N        1.0120     4.5920     1.2350 N.2   1 <1>  -0.3380 
 12 C        1.9980     3.8870     0.7970 C.2   1 <1>   0.0060 
 13 C        2.5380     1.5090     0.1710 C.3   1 <1>   0.0960 
 14 C       -4.2150     3.9160    -0.6240 C.ar  1 <1>   0.1670 
 15 C       -4.6050     1.6970     0.5780 C.3   1 <1>  -0.1600 
 16 C       -3.4190     3.7220     1.6170 C.3   1 <1>  -0.1600 
 17 C        3.3610     4.4660     0.4650 C.3   1 <1>   0.0200 
 18 C        3.0310     1.7790    -1.2580 C.3   1 <1>  -0.1600 
 19 N       -4.8110     3.6590    -1.7650 N.ar  1 <1>  -0.6200 
 20 C       -4.0110     5.1830    -0.1610 C.ar  1 <1>  -0.1440 
 21 C       -3.2920     5.1870     1.1660 C.3   1 <1>  -0.0170 
 22 C        3.7340     4.2580    -1.0090 C.3   1 <1>  -0.1600 
 23 C        4.1580     2.8210    -1.3500 C.3   1 <1>  -0.1600 
 24 C       -5.1970     4.7410    -2.4240 C.ar  1 <1>   0.7200 
 25 C       -4.4630     6.2270    -0.9310 C.ar  1 <1>   0.1600 
 26 N       -5.0720     6.0150    -2.0770 N.ar  1 <1>  -0.6200 
 27 N       -5.8200     4.5190    -3.5820 N.pl3 1 <1>  -0.9000 
 28 H       -2.5210     1.9370    -1.2260 H     1 <1>   0.0800 
 29 H       -1.6460     3.1860    -0.4100 H     1 <1>   0.0800 
 30 H       -2.1510    -0.5670     1.5240 H     1 <1>   0.0800 
 31 H       -2.7840    -0.3660    -0.0870 H     1 <1>   0.0800 
 32 H       -3.7670     0.9840     2.4370 H     1 <1>   0.0800 
 33 H       -4.6080    -0.2330     1.5290 H     1 <1>   0.0800 
 34 H        1.9870     0.5870     0.1730 H     1 <1>   0.0800 
 35 H        3.3720     1.3940     0.8410 H     1 <1>   0.0800 
 36 H       -4.8750     1.2670    -0.3710 H     1 <1>   0.0800 
 37 H       -5.5110     2.0440     1.0430 H     1 <1>   0.0800 
 38 H       -2.5640     3.4000     2.1830 H     1 <1>   0.0800 
 39 H       -4.2850     3.6460     2.2500 H     1 <1>   0.0800 
 40 H        4.1060     4.0340     1.1090 H     1 <1>   0.0800 
 41 H        3.3330     5.5230     0.6680 H     1 <1>   0.0800 
 42 H        2.2010     2.0660    -1.8820 H     1 <1>   0.0800 
 43 H        3.4140     0.8520    -1.6490 H     1 <1>   0.0800 
 44 H       -2.2580     5.4510     1.0200 H     1 <1>   0.0800 
 45 H       -3.7450     5.8610     1.8720 H     1 <1>   0.0800 
 46 H        4.5590     4.9110    -1.2370 H     1 <1>   0.0800 
 47 H        2.9090     4.5580    -1.6320 H     1 <1>   0.0800 
 48 H        4.5270     2.8190    -2.3620 H     1 <1>   0.0800 
 49 H        4.9780     2.5250    -0.7170 H     1 <1>   0.0800 
 50 H       -4.3230     7.2430    -0.6050 H     1 <1>   0.1500 
 51 H       -6.3780     5.2960    -3.9240 H     1 <1>   0.4000 
 52 H       -6.2090     3.5880    -3.6900 H     1 <1>   0.4000 
@<TRIPOS>BOND
  1   1   2  2   
  2   2   3  am  
  3   2   4  1   
  4   3   5  1   
  5   3   6  1   
  6   4   7  2   
  7   4   8  1   
  8   5   9  1   
  9   5  28  1   
 10   5  29  1   
 11   6  10  1   
 12   6  30  1   
 13   6  31  1   
 14   7  11  1   
 15   8  12  1   
 16   8  13  1   
 17   9  14  1   
 18   9  15  1   
 19   9  16  1   
 20  10  15  1   
 21  10  32  1   
 22  10  33  1   
 23  11  12  2   
 24  12  17  1   
 25  13  18  1   
 26  13  34  1   
 27  13  35  1   
 28  14  19  ar  
 29  14  20  ar  
 30  15  36  1   
 31  15  37  1   
 32  16  21  1   
 33  16  38  1   
 34  16  39  1   
 35  17  22  1   
 36  17  40  1   
 37  17  41  1   
 38  18  23  1   
 39  18  42  1   
 40  18  43  1   
 41  19  24  ar  
 42  20  21  1   
 43  20  25  ar  
 44  21  44  1   
 45  21  45  1   
 46  22  23  1   
 47  22  46  1   
 48  22  47  1   
 49  23  48  1   
 50  23  49  1   
 51  24  26  ar  
 52  24  27  1   
 53  25  26  ar  
 54  25  50  1   
 55  27  51  1   
 56  27  52  1   
@<TRIPOS>SUBSTRUCTURE
  1 ****   5 GROUP 4 **** **** 0

# MOE 2024.06 (io_trps.svl 2023.06)
