@<TRIPOS>MOLECULE
NONAME
52 53 1 0 0 
SMALL
USER_CHARGES


@<TRIPOS>ATOM
  1 S       -0.5240     0.7570    -1.9350 S.o2  1 <1>   1.4470 
  2 O       -1.1690     2.0550    -1.9690 O.2   1 <1>  -0.6500 
  3 O       -0.0680     0.2090    -3.1950 O.2   1 <1>  -0.6500 
  4 N       -1.6250    -0.3600    -1.2860 N.am  1 <1>  -0.8490 
  5 C        0.8820     0.7620    -0.7840 C.ar  1 <1>  -0.0090 
  6 C       -1.1010    -1.7480    -1.2270 C.3   1 <1>   0.1960 
  7 C       -2.3570     0.1080    -0.1160 C.3   1 <1>   0.1960 
  8 C        0.8620     1.4540     0.4250 C.ar  1 <1>   0.0820 
  9 C        2.0290     0.0320    -1.0820 C.ar  1 <1>  -0.1500 
 10 C       -1.7070    -2.6490    -0.1210 C.3   1 <1>  -0.1060 
 11 C       -3.5150    -0.8390     0.2250 C.3   1 <1>  -0.1600 
 12 O       -0.2180     2.1690     0.7940 O.3   1 <1>  -0.3630 
 13 C        1.9370     1.4040     1.3000 C.ar  1 <1>  -0.1500 
 14 C        3.1110    -0.0230    -0.2180 C.ar  1 <1>  -0.1440 
 15 C       -1.5340    -4.1040    -0.5740 C.2   1 <1>   0.9060 
 16 C       -3.2130    -2.3120    -0.0840 C.3   1 <1>   0.2000 
 17 C       -1.0400    -2.4910     1.2890 C.3   1 <1>  -0.1600 
 18 C       -0.1440     3.5640     0.6200 C.3   1 <1>   0.1200 
 19 C        3.0600     0.6680     0.9800 C.ar  1 <1>  -0.1500 
 20 C        4.3270    -0.8520    -0.5860 C.3   1 <1>  -0.0960 
 21 O       -0.6070    -4.4010    -1.3370 O.co2 1 <1>  -0.9000 
 22 O       -2.3190    -4.9670    -0.1490 O.co2 1 <1>  -0.9000 
 23 O       -3.8580    -3.0960     0.8520 O.3   1 <1>  -0.6800 
 24 C        0.4930    -2.6120     1.3120 C.3   1 <1>  -0.1600 
 25 C       -1.5210     4.1440     0.9250 C.3   1 <1>  -0.2400 
 26 C        1.0270    -2.5720     2.7460 C.3   1 <1>  -0.2400 
 27 H       -1.3210    -2.1920    -2.1840 H     1 <1>   0.0800 
 28 H       -0.0310    -1.7580    -1.1480 H     1 <1>   0.0800 
 29 H       -1.6860     0.1880     0.7180 H     1 <1>   0.0800 
 30 H       -2.7580     1.0900    -0.3020 H     1 <1>   0.0800 
 31 H        2.0720    -0.5160    -2.0090 H     1 <1>   0.1500 
 32 H       -4.3780    -0.5450    -0.3430 H     1 <1>   0.0800 
 33 H       -3.7490    -0.7180     1.2680 H     1 <1>   0.0800 
 34 H        1.8860     1.9350     2.2330 H     1 <1>   0.1500 
 35 H       -3.6340    -2.5590    -1.0450 H     1 <1>   0.0800 
 36 H       -1.3150    -1.5660     1.7530 H     1 <1>   0.0800 
 37 H       -1.4390    -3.2680     1.9210 H     1 <1>   0.0800 
 38 H        0.6000     3.9560     1.2910 H     1 <1>   0.0800 
 39 H        0.1370     3.7680    -0.4000 H     1 <1>   0.0800 
 40 H        3.8880     0.6310     1.6660 H     1 <1>   0.1500 
 41 H        5.1710    -0.5900     0.0260 H     1 <1>   0.0800 
 42 H        4.5890    -0.6900    -1.6160 H     1 <1>   0.0800 
 43 H        4.1080    -1.8960    -0.4460 H     1 <1>   0.0800 
 44 H       -3.5060    -4.0210     0.6910 H     1 <1>   0.4000 
 45 H        0.7930    -3.5370     0.8470 H     1 <1>   0.0800 
 46 H        0.9380    -1.8030     0.7660 H     1 <1>   0.0800 
 47 H       -1.8060     3.9190     1.9360 H     1 <1>   0.0800 
 48 H       -2.2470     3.7360     0.2430 H     1 <1>   0.0800 
 49 H       -1.5000     5.2120     0.8010 H     1 <1>   0.0800 
 50 H        0.6220    -3.3890     3.3160 H     1 <1>   0.0800 
 51 H        0.7570    -1.6450     3.2200 H     1 <1>   0.0800 
 52 H        2.0990    -2.6560     2.7380 H     1 <1>   0.0800 
@<TRIPOS>BOND
  1   1   2  2   
  2   1   3  2   
  3   1   4  am  
  4   1   5  1   
  5   4   6  1   
  6   4   7  1   
  7   5   8  ar  
  8   5   9  ar  
  9   6  10  1   
 10   6  27  1   
 11   6  28  1   
 12   7  11  1   
 13   7  29  1   
 14   7  30  1   
 15   8  12  1   
 16   8  13  ar  
 17   9  14  ar  
 18   9  31  1   
 19  10  15  1   
 20  10  16  1   
 21  10  17  1   
 22  11  16  1   
 23  11  32  1   
 24  11  33  1   
 25  12  18  1   
 26  13  19  ar  
 27  13  34  1   
 28  14  19  ar  
 29  14  20  1   
 30  15  21  ar  
 31  15  22  ar  
 32  16  23  1   
 33  16  35  1   
 34  17  24  1   
 35  17  36  1   
 36  17  37  1   
 37  18  25  1   
 38  18  38  1   
 39  18  39  1   
 40  19  40  1   
 41  20  41  1   
 42  20  42  1   
 43  20  43  1   
 44  23  44  1   
 45  24  26  1   
 46  24  45  1   
 47  24  46  1   
 48  25  47  1   
 49  25  48  1   
 50  25  49  1   
 51  26  50  1   
 52  26  51  1   
 53  26  52  1   
@<TRIPOS>SUBSTRUCTURE
  1 ****   4 GROUP 4 **** **** 0

# MOE 2024.06 (io_trps.svl 2023.06)
