@<TRIPOS>MOLECULE
NONAME
64 68 1 0 0 
SMALL
USER_CHARGES


@<TRIPOS>ATOM
  1 O       -0.7840     0.0330     0.0840 O.2   1 <1>  -0.5700 
  2 C       -1.7990     0.6910    -0.0200 C.2   1 <1>   0.5690 
  3 N       -2.9660    -0.0090    -0.3020 N.am  1 <1>  -0.6600 
  4 C       -1.7150     2.2610     0.2060 C.3   1 <1>   0.3310 
  5 C       -4.3860     0.4370    -0.3930 C.3   1 <1>   0.1400 
  6 C       -2.9370    -1.4990    -0.3950 C.3   1 <1>   0.1400 
  7 N       -0.2600     2.7080     0.2930 N.3   1 <1>  -0.8100 
  8 C       -2.4280     2.5580     1.5630 C.3   1 <1>  -0.1600 
  9 C       -2.4140     3.0240    -0.9640 C.3   1 <1>  -0.1600 
 10 C       -5.1910    -0.7700     0.0730 C.3   1 <1>   0.2000 
 11 C       -4.4010    -1.9540    -0.4910 C.3   1 <1>  -0.0800 
 12 C        0.5410     2.5700    -0.9480 C.3   1 <1>   0.1100 
 13 C        0.1860     3.8890     1.0660 C.3   1 <1>   0.1100 
 14 C       -2.9670     3.9900     1.7920 C.3   1 <1>  -0.1600 
 15 C       -2.7990     4.4790    -0.6710 C.3   1 <1>  -0.1600 
 16 O       -5.1570    -0.7970     1.4590 O.3   1 <1>  -0.6800 
 17 C       -4.6940    -3.3030     0.2010 C.3   1 <1>  -0.0160 
 18 C        2.0460     2.5990    -0.6460 C.3   1 <1>   0.1200 
 19 C        1.7160     3.9010     1.2520 C.3   1 <1>   0.1200 
 20 C       -3.6950     4.5480     0.5680 C.3   1 <1>  -0.1600 
 21 C       -4.0710    -4.5560    -0.4270 C.ar  1 <1>  -0.1440 
 22 O        2.3790     3.7770     0.0280 O.3   1 <1>  -0.5600 
 23 C       -4.1810    -5.8010     0.2410 C.ar  1 <1>   0.0000 
 24 C       -3.4090    -4.5550    -1.6240 C.ar  1 <1>  -0.1500 
 25 C       -3.5870    -6.9370    -0.3620 C.ar  1 <1>   0.3100 
 26 C       -4.8530    -5.9880     1.4740 C.ar  1 <1>  -0.1500 
 27 C       -2.8600    -5.7380    -2.1340 C.ar  1 <1>   0.1600 
 28 N       -2.9310    -6.8890    -1.5470 N.ar  1 <1>  -0.6200 
 29 C       -3.6780    -8.1800     0.2840 C.ar  1 <1>  -0.1500 
 30 C       -4.9250    -7.2140     2.0770 C.ar  1 <1>  -0.1500 
 31 C       -4.3300    -8.3270     1.4780 C.ar  1 <1>  -0.1500 
 32 H       -4.6100     1.3050     0.1980 H     1 <1>   0.0800 
 33 H       -4.6190     0.6410    -1.4230 H     1 <1>   0.0800 
 34 H       -2.3650    -1.8050    -1.2540 H     1 <1>   0.0800 
 35 H       -2.4700    -1.8970     0.4910 H     1 <1>   0.0800 
 36 H       -3.2730     1.9090     1.6590 H     1 <1>   0.0800 
 37 H       -1.7730     2.2780     2.3680 H     1 <1>   0.0800 
 38 H       -1.8240     2.9780    -1.8580 H     1 <1>   0.0800 
 39 H       -3.3270     2.5370    -1.2190 H     1 <1>   0.0800 
 40 H       -6.2190    -0.7460    -0.2470 H     1 <1>   0.0800 
 41 H       -4.6610    -2.0340    -1.5310 H     1 <1>   0.0800 
 42 H        0.3090     1.6450    -1.4430 H     1 <1>   0.0800 
 43 H        0.3180     3.3800    -1.6200 H     1 <1>   0.0800 
 44 H       -0.1120     4.7960     0.5740 H     1 <1>   0.0800 
 45 H       -0.2340     3.8700     2.0510 H     1 <1>   0.0800 
 46 H       -3.6410     3.9800     2.6310 H     1 <1>   0.0800 
 47 H       -2.1730     4.6650     2.0460 H     1 <1>   0.0800 
 48 H       -1.9200     5.0790    -0.5290 H     1 <1>   0.0800 
 49 H       -3.3300     4.8830    -1.5160 H     1 <1>   0.0800 
 50 H       -4.2250    -0.7060     1.7480 H     1 <1>   0.4000 
 51 H       -5.7610    -3.4420     0.2270 H     1 <1>   0.0800 
 52 H       -4.3540    -3.2370     1.2200 H     1 <1>   0.0800 
 53 H        2.6110     2.5720    -1.5610 H     1 <1>   0.0800 
 54 H        2.3230     1.7550    -0.0380 H     1 <1>   0.0800 
 55 H        2.0180     3.0870     1.8880 H     1 <1>   0.0800 
 56 H        2.0280     4.8260     1.7020 H     1 <1>   0.0800 
 57 H       -3.9740     5.5710     0.7530 H     1 <1>   0.0800 
 58 H       -4.5970     3.9870     0.3960 H     1 <1>   0.0800 
 59 H       -3.2800    -3.6740    -2.2200 H     1 <1>   0.1500 
 60 H       -5.3240    -5.1520     1.9550 H     1 <1>   0.1500 
 61 H       -2.3450    -5.6870    -3.0790 H     1 <1>   0.1500 
 62 H       -3.2140    -9.0210    -0.1970 H     1 <1>   0.1500 
 63 H       -5.4390    -7.3380     3.0150 H     1 <1>   0.1500 
 64 H       -4.3920    -9.2860     1.9620 H     1 <1>   0.1500 
@<TRIPOS>BOND
  1   1   2  2   
  2   2   3  am  
  3   2   4  1   
  4   3   5  1   
  5   3   6  1   
  6   4   7  1   
  7   4   8  1   
  8   4   9  1   
  9   5  10  1   
 10   5  32  1   
 11   5  33  1   
 12   6  11  1   
 13   6  34  1   
 14   6  35  1   
 15   7  12  1   
 16   7  13  1   
 17   8  14  1   
 18   8  36  1   
 19   8  37  1   
 20   9  15  1   
 21   9  38  1   
 22   9  39  1   
 23  10  11  1   
 24  10  16  1   
 25  10  40  1   
 26  11  17  1   
 27  11  41  1   
 28  12  18  1   
 29  12  42  1   
 30  12  43  1   
 31  13  19  1   
 32  13  44  1   
 33  13  45  1   
 34  14  20  1   
 35  14  46  1   
 36  14  47  1   
 37  15  20  1   
 38  15  48  1   
 39  15  49  1   
 40  16  50  1   
 41  17  21  1   
 42  17  51  1   
 43  17  52  1   
 44  18  22  1   
 45  18  53  1   
 46  18  54  1   
 47  19  22  1   
 48  19  55  1   
 49  19  56  1   
 50  20  57  1   
 51  20  58  1   
 52  21  23  ar  
 53  21  24  ar  
 54  23  25  ar  
 55  23  26  ar  
 56  24  27  ar  
 57  24  59  1   
 58  25  28  ar  
 59  25  29  ar  
 60  26  30  ar  
 61  26  60  1   
 62  27  28  ar  
 63  27  61  1   
 64  29  31  ar  
 65  29  62  1   
 66  30  31  ar  
 67  30  63  1   
 68  31  64  1   
@<TRIPOS>SUBSTRUCTURE
  1 ****   6 GROUP 4 **** **** 0

# MOE 2024.06 (io_trps.svl 2023.06)
