@<TRIPOS>MOLECULE
NONAME
55 56 1 0 0 
SMALL
USER_CHARGES


@<TRIPOS>ATOM
  1 S        0.4010     0.0240     1.3340 S.o2  1 <1>   1.5760 
  2 O        1.7770    -0.4100     1.3600 O.2   1 <1>  -0.6500 
  3 O       -0.2250     0.6370     2.4830 O.2   1 <1>  -0.6500 
  4 N       -0.5740    -1.2960     0.9190 N.am  1 <1>  -0.8490 
  5 N        0.1520     0.9810    -0.0320 N.am  1 <1>  -0.8490 
  6 C       -1.9990    -0.8970     0.9360 C.3   1 <1>   0.1960 
  7 C       -0.3260    -2.4210     1.8240 C.3   1 <1>   0.1960 
  8 C        0.4730     2.3840     0.2460 C.3   1 <1>   0.1960 
  9 C        0.9260     0.4930    -1.1780 C.3   1 <1>   0.1960 
 10 C       -2.9150    -1.7990     0.0820 C.3   1 <1>   0.3430 
 11 C       -0.4580    -3.7510     1.0770 C.3   1 <1>  -0.1600 
 12 C        0.1000     3.2590    -0.9570 C.3   1 <1>  -0.1600 
 13 C        0.5580     1.2850    -2.4370 C.3   1 <1>  -0.1600 
 14 N       -2.7850    -3.2750     0.3490 N.4   1 <1>  -0.9590 
 15 C       -1.4410    -3.7520    -0.0910 C.3   1 <1>   0.3430 
 16 C        0.8000     2.7850    -2.2360 C.3   1 <1>  -0.1600 
 17 C       -3.8890    -4.0080    -0.3540 C.3   1 <1>   0.3430 
 18 C       -4.0160    -5.4680     0.0950 C.3   1 <1>   0.1200 
 19 O       -5.0690    -6.0230    -0.6150 O.3   1 <1>  -0.5600 
 20 C       -5.3180    -7.3650    -0.3120 C.3   1 <1>   0.1200 
 21 C       -6.4900    -7.8540    -1.1580 C.3   1 <1>   0.1200 
 22 O       -6.7120    -9.1920    -0.8470 O.3   1 <1>  -0.5600 
 23 C       -7.7640    -9.7670    -1.5530 C.3   1 <1>   0.0400 
 24 H       -2.1030     0.0980     0.5380 H     1 <1>   0.0800 
 25 H       -2.3630    -0.8530     1.9490 H     1 <1>   0.0800 
 26 H       -1.0000    -2.3840     2.6640 H     1 <1>   0.0800 
 27 H        0.6730    -2.3780     2.2300 H     1 <1>   0.0800 
 28 H        1.5240     2.4850     0.4660 H     1 <1>   0.0800 
 29 H       -0.0840     2.7250     1.1040 H     1 <1>   0.0800 
 30 H        0.7140    -0.5500    -1.3420 H     1 <1>   0.0800 
 31 H        1.9820     0.5930    -0.9820 H     1 <1>   0.0800 
 32 H       -2.6960    -1.6060    -0.9550 H     1 <1>   0.0800 
 33 H       -3.9330    -1.4920     0.2550 H     1 <1>   0.0800 
 34 H       -0.7060    -4.5310     1.7730 H     1 <1>   0.0800 
 35 H        0.5110    -3.9960     0.6780 H     1 <1>   0.0800 
 36 H        0.3730     4.2790    -0.7520 H     1 <1>   0.0800 
 37 H       -0.9660     3.2260    -1.0910 H     1 <1>   0.0800 
 38 H       -0.4780     1.1110    -2.6700 H     1 <1>   0.0800 
 39 H        1.1470     0.9330    -3.2650 H     1 <1>   0.0800 
 40 H       -2.8720    -3.4300     1.3600 H     1 <1>   0.4500 
 41 H       -1.5060    -4.7510    -0.4890 H     1 <1>   0.0800 
 42 H       -1.0650    -3.1090    -0.8720 H     1 <1>   0.0800 
 43 H        1.8580     2.9680    -2.1520 H     1 <1>   0.0800 
 44 H        0.4320     3.3370    -3.0840 H     1 <1>   0.0800 
 45 H       -3.7210    -3.9840    -1.4180 H     1 <1>   0.0800 
 46 H       -4.8280    -3.5190    -0.1510 H     1 <1>   0.0800 
 47 H       -4.2450    -5.5280     1.1450 H     1 <1>   0.0800 
 48 H       -3.1260    -6.0280    -0.1320 H     1 <1>   0.0800 
 49 H       -5.5640    -7.4490     0.7330 H     1 <1>   0.0800 
 50 H       -4.4400    -7.9440    -0.5400 H     1 <1>   0.0800 
 51 H       -6.2540    -7.7790    -2.2050 H     1 <1>   0.0800 
 52 H       -7.3800    -7.2940    -0.9270 H     1 <1>   0.0800 
 53 H       -7.8530   -10.7940    -1.2430 H     1 <1>   0.0800 
 54 H       -7.5510    -9.7240    -2.6070 H     1 <1>   0.0800 
 55 H       -8.6740    -9.2400    -1.3270 H     1 <1>   0.0800 
@<TRIPOS>BOND
  1   1   2  2   
  2   1   3  2   
  3   1   4  am  
  4   1   5  am  
  5   4   6  1   
  6   4   7  1   
  7   5   8  1   
  8   5   9  1   
  9   6  10  1   
 10   6  24  1   
 11   6  25  1   
 12   7  11  1   
 13   7  26  1   
 14   7  27  1   
 15   8  12  1   
 16   8  28  1   
 17   8  29  1   
 18   9  13  1   
 19   9  30  1   
 20   9  31  1   
 21  10  14  1   
 22  10  32  1   
 23  10  33  1   
 24  11  15  1   
 25  11  34  1   
 26  11  35  1   
 27  12  16  1   
 28  12  36  1   
 29  12  37  1   
 30  13  16  1   
 31  13  38  1   
 32  13  39  1   
 33  14  15  1   
 34  14  17  1   
 35  14  40  1   
 36  15  41  1   
 37  15  42  1   
 38  16  43  1   
 39  16  44  1   
 40  17  18  1   
 41  17  45  1   
 42  17  46  1   
 43  18  19  1   
 44  18  47  1   
 45  18  48  1   
 46  19  20  1   
 47  20  21  1   
 48  20  49  1   
 49  20  50  1   
 50  21  22  1   
 51  21  51  1   
 52  21  52  1   
 53  22  23  1   
 54  23  53  1   
 55  23  54  1   
 56  23  55  1   
@<TRIPOS>SUBSTRUCTURE
  1 ****  10 GROUP 4 **** **** 0

# MOE 2024.06 (io_trps.svl 2023.06)
