@<TRIPOS>MOLECULE
NONAME
36 38 1 0 0 
SMALL
USER_CHARGES


@<TRIPOS>ATOM
  1 S        0.8690     0.2580     1.4930 S.3   1 <1>  -0.0800 
  2 C        1.2020    -0.7470     0.1020 C.2   1 <1>   0.2280 
  3 C        1.9680     1.4460     0.8570 C.2   1 <1>  -0.1100 
  4 N        2.0300    -0.2490    -0.7270 N.2   1 <1>  -0.5650 
  5 C        2.4740     1.0010    -0.3070 C.2   1 <1>   0.0460 
  6 C        3.4770     1.7240    -1.2030 C.3   1 <1>   0.3900 
  7 N        3.6860     3.1280    -0.7590 N.pl3 1 <1>  -0.8690 
  8 C        4.8060     3.5720    -0.0960 C.ar  1 <1>   0.4100 
  9 N        5.9140     2.8580    -0.2760 N.ar  1 <1>  -0.6200 
 10 C        4.7420     4.7250     0.7090 C.ar  1 <1>   0.0860 
 11 C        6.9900     3.2610     0.3700 C.ar  1 <1>   0.1600 
 12 C        3.5150     5.4730     0.8300 C.2   1 <1>   0.5440 
 13 C        5.8940     5.1130     1.3810 C.ar  1 <1>  -0.1500 
 14 C        7.0340     4.3650     1.2030 C.ar  1 <1>  -0.1500 
 15 O        2.4930     4.9130     1.1900 O.2   1 <1>  -0.5700 
 16 N        3.4620     6.8180     0.5370 N.am  1 <1>  -0.6600 
 17 C        2.2140     7.6090     0.6390 C.3   1 <1>   0.1400 
 18 C        4.4660     7.5240    -0.2920 C.3   1 <1>   0.1400 
 19 C        2.3610     8.7050    -0.4090 C.3   1 <1>  -0.1600 
 20 C        3.8680     8.9020    -0.5500 C.3   1 <1>  -0.1600 
 21 H        0.6940    -1.6940     0.0500 H     1 <1>   0.1500 
 22 H        2.1200     2.3480     1.4220 H     1 <1>   0.1500 
 23 H        3.0960     1.7360    -2.2090 H     1 <1>   0.0800 
 24 H        4.4000     1.1720    -1.2100 H     1 <1>   0.0800 
 25 H        2.8090     3.5650    -0.4440 H     1 <1>   0.4000 
 26 H        7.8870     2.6820     0.2310 H     1 <1>   0.1500 
 27 H        5.8840     5.9760     2.0240 H     1 <1>   0.1500 
 28 H        7.9500     4.6270     1.7020 H     1 <1>   0.1500 
 29 H        2.1500     8.0330     1.6260 H     1 <1>   0.0800 
 30 H        1.3450     7.0010     0.4510 H     1 <1>   0.0800 
 31 H        4.5960     6.9910    -1.2200 H     1 <1>   0.0800 
 32 H        5.4090     7.6010     0.2190 H     1 <1>   0.0800 
 33 H        1.8530     9.6070    -0.1180 H     1 <1>   0.0800 
 34 H        1.9500     8.3540    -1.3390 H     1 <1>   0.0800 
 35 H        4.1430     9.2840    -1.5170 H     1 <1>   0.0800 
 36 H        4.2180     9.5820     0.2070 H     1 <1>   0.0800 
@<TRIPOS>BOND
  1   1   2  1   
  2   1   3  1   
  3   2   4  2   
  4   2  21  1   
  5   3   5  2   
  6   3  22  1   
  7   4   5  1   
  8   5   6  1   
  9   6   7  1   
 10   6  23  1   
 11   6  24  1   
 12   7   8  1   
 13   7  25  1   
 14   8   9  ar  
 15   8  10  ar  
 16   9  11  ar  
 17  10  12  1   
 18  10  13  ar  
 19  11  14  ar  
 20  11  26  1   
 21  12  15  2   
 22  12  16  am  
 23  13  14  ar  
 24  13  27  1   
 25  14  28  1   
 26  16  17  1   
 27  16  18  1   
 28  17  19  1   
 29  17  29  1   
 30  17  30  1   
 31  18  20  1   
 32  18  31  1   
 33  18  32  1   
 34  19  20  1   
 35  19  33  1   
 36  19  34  1   
 37  20  35  1   
 38  20  36  1   
@<TRIPOS>SUBSTRUCTURE
  1 ****   8 GROUP 4 **** **** 0

# MOE 2024.06 (io_trps.svl 2023.06)
