@<TRIPOS>MOLECULE
NONAME
48 49 1 0 0 
SMALL
USER_CHARGES


@<TRIPOS>ATOM
  1 O       -1.7110    -0.1610    -1.5050 O.2   1 <1>  -0.5700 
  2 C       -2.6400     0.5960    -1.3260 C.2   1 <1>   0.5690 
  3 N       -3.9160     0.2350    -1.6900 N.am  1 <1>  -0.6600 
  4 C       -2.3500     1.9540    -0.6660 C.3   1 <1>  -0.0190 
  5 C       -4.1590    -1.0860    -2.3310 C.3   1 <1>   0.3200 
  6 C       -5.1480     1.0410    -1.4340 C.3   1 <1>   0.1400 
  7 C       -2.1210     3.0420    -1.7310 C.3   1 <1>  -0.1600 
  8 C       -1.1460     1.9070     0.2970 C.3   1 <1>  -0.1600 
  9 C       -4.2360    -2.1460    -1.2550 C.2   1 <1>  -0.3320 
 10 C       -5.8020     0.6270    -0.1110 C.3   1 <1>   0.1200 
 11 C       -1.8640     4.4130    -1.0880 C.3   1 <1>  -0.1600 
 12 C       -0.8840     3.2740     0.9460 C.3   1 <1>  -0.1600 
 13 N       -3.1850    -2.4340    -0.4690 N.pl3 1 <1>   0.0330 
 14 C       -5.2370    -2.9650    -0.8630 C.2   1 <1>   0.0770 
 15 O       -6.8550     1.4880     0.1640 O.3   1 <1>  -0.6800 
 16 C       -0.6740     4.3730    -0.1130 C.3   1 <1>  -0.0800 
 17 C       -3.6140    -3.4090     0.3590 C.2   1 <1>   0.0060 
 18 N       -4.8430    -3.7560     0.1530 N.2   1 <1>  -0.5650 
 19 C       -0.4790     5.7630     0.5210 C.3   1 <1>  -0.1600 
 20 C       -2.7310    -4.0260     1.4210 C.3   1 <1>  -0.0600 
 21 C        0.7900     5.8720     1.3760 C.3   1 <1>  -0.2400 
 22 H       -3.1980     2.2310    -0.0700 H     1 <1>   0.0800 
 23 H       -3.3540    -1.3160    -3.0090 H     1 <1>   0.0800 
 24 H       -5.0730    -1.0660    -2.8980 H     1 <1>   0.0800 
 25 H       -5.8500     0.8900    -2.2360 H     1 <1>   0.0800 
 26 H       -4.9060     2.0870    -1.4090 H     1 <1>   0.0800 
 27 H       -2.9770     3.1070    -2.3790 H     1 <1>   0.0800 
 28 H       -1.2740     2.7680    -2.3370 H     1 <1>   0.0800 
 29 H       -0.2650     1.6020    -0.2430 H     1 <1>   0.0800 
 30 H       -1.3270     1.1740     1.0640 H     1 <1>   0.0800 
 31 H       -5.1020     0.6730     0.7050 H     1 <1>   0.0800 
 32 H       -6.2030    -0.3690    -0.1840 H     1 <1>   0.0800 
 33 H       -2.7480     4.7290    -0.5630 H     1 <1>   0.0800 
 34 H       -1.6680     5.1320    -1.8650 H     1 <1>   0.0800 
 35 H       -0.0110     3.1910     1.5680 H     1 <1>   0.0800 
 36 H       -1.7160     3.5360     1.5770 H     1 <1>   0.0800 
 37 H       -2.2670    -1.9720    -0.5110 H     1 <1>   0.2700 
 38 H       -6.2360    -3.0310    -1.2600 H     1 <1>   0.1500 
 39 H       -6.5320     2.3460     0.5020 H     1 <1>   0.4000 
 40 H        0.2110     4.1330    -0.6790 H     1 <1>   0.0800 
 41 H       -1.3350     6.0120     1.1250 H     1 <1>   0.0800 
 42 H       -0.4140     6.4970    -0.2640 H     1 <1>   0.0800 
 43 H       -1.8740    -4.4870     0.9640 H     1 <1>   0.0800 
 44 H       -3.2810    -4.7760     1.9600 H     1 <1>   0.0800 
 45 H       -2.4050    -3.2710     2.1120 H     1 <1>   0.0800 
 46 H        0.7210     5.2520     2.2520 H     1 <1>   0.0800 
 47 H        0.9260     6.8890     1.6980 H     1 <1>   0.0800 
 48 H        1.6540     5.5780     0.8060 H     1 <1>   0.0800 
@<TRIPOS>BOND
  1   1   2  2   
  2   2   3  am  
  3   2   4  1   
  4   3   5  1   
  5   3   6  1   
  6   4   7  1   
  7   4   8  1   
  8   4  22  1   
  9   5   9  1   
 10   5  23  1   
 11   5  24  1   
 12   6  10  1   
 13   6  25  1   
 14   6  26  1   
 15   7  11  1   
 16   7  27  1   
 17   7  28  1   
 18   8  12  1   
 19   8  29  1   
 20   8  30  1   
 21   9  13  1   
 22   9  14  2   
 23  10  15  1   
 24  10  31  1   
 25  10  32  1   
 26  11  16  1   
 27  11  33  1   
 28  11  34  1   
 29  12  16  1   
 30  12  35  1   
 31  12  36  1   
 32  13  17  1   
 33  13  37  1   
 34  14  18  1   
 35  14  38  1   
 36  15  39  1   
 37  16  19  1   
 38  16  40  1   
 39  17  18  2   
 40  17  20  1   
 41  19  21  1   
 42  19  41  1   
 43  19  42  1   
 44  20  43  1   
 45  20  44  1   
 46  20  45  1   
 47  21  46  1   
 48  21  47  1   
 49  21  48  1   
@<TRIPOS>SUBSTRUCTURE
  1 ****   2 GROUP 4 **** **** 0

# MOE 2024.06 (io_trps.svl 2023.06)
