@<TRIPOS>MOLECULE
NONAME
41 42 1 0 0 
SMALL
USER_CHARGES


@<TRIPOS>ATOM
  1 S       -0.9210     0.2760     0.1440 S.o2  1 <1>   1.0900 
  2 O       -2.0540     0.6400    -0.6740 O.2   1 <1>  -0.6500 
  3 O       -0.7530     0.8630     1.4500 O.2   1 <1>  -0.6500 
  4 C       -0.9410    -1.5040     0.3430 C.3   1 <1>  -0.0550 
  5 C        0.5640     0.5990    -0.7900 C.3   1 <1>  -0.1350 
  6 C       -1.1560    -2.2680    -0.9720 C.3   1 <1>  -0.0990 
  7 C       -1.2390    -3.7560    -0.7090 C.2   1 <1>   0.5690 
  8 O       -0.2000    -4.3640    -0.6380 O.2   1 <1>  -0.5700 
  9 N       -2.4460    -4.3700    -0.5380 N.am  1 <1>  -0.6600 
 10 C       -3.7830    -3.7270    -0.4370 C.3   1 <1>   0.1400 
 11 C       -2.5670    -5.8340    -0.3190 C.3   1 <1>   0.1400 
 12 C       -4.6250    -4.7360     0.3410 C.3   1 <1>   0.2000 
 13 C       -4.0650    -6.0900    -0.1090 C.3   1 <1>  -0.0800 
 14 O       -4.3720    -4.5550     1.6920 O.3   1 <1>  -0.6800 
 15 C       -4.3700    -7.2750     0.8280 C.3   1 <1>  -0.0170 
 16 C       -3.8510    -8.5780     0.2410 C.ar  1 <1>  -0.1430 
 17 C       -2.6410    -9.1240     0.6210 C.ar  1 <1>  -0.1500 
 18 C       -4.5660    -9.2840    -0.7050 C.ar  1 <1>  -0.1500 
 19 C       -2.2150   -10.3110     0.0480 C.ar  1 <1>   0.1600 
 20 C       -4.0510   -10.4640    -1.2150 C.ar  1 <1>   0.1600 
 21 N       -2.8910   -10.9940    -0.8620 N.ar  1 <1>  -0.6200 
 22 H       -0.0230    -1.8310     0.7960 H     1 <1>   0.0800 
 23 H       -1.7360    -1.7610     1.0180 H     1 <1>   0.0800 
 24 H        0.5160     0.1380    -1.7560 H     1 <1>   0.0800 
 25 H        1.4250     0.2300    -0.2680 H     1 <1>   0.0800 
 26 H        0.6810     1.6570    -0.9280 H     1 <1>   0.0800 
 27 H       -2.0490    -1.9290    -1.4640 H     1 <1>   0.0800 
 28 H       -0.3310    -2.0930    -1.6380 H     1 <1>   0.0800 
 29 H       -3.7470    -2.7740     0.0630 H     1 <1>   0.0800 
 30 H       -4.1860    -3.6010    -1.4270 H     1 <1>   0.0800 
 31 H       -2.1900    -6.3790    -1.1690 H     1 <1>   0.0800 
 32 H       -2.0000    -6.1060     0.5540 H     1 <1>   0.0800 
 33 H       -5.6830    -4.6290     0.1710 H     1 <1>   0.0800 
 34 H       -4.4870    -6.3100    -1.0740 H     1 <1>   0.0800 
 35 H       -3.4040    -4.5490     1.8330 H     1 <1>   0.4000 
 36 H       -5.4330    -7.3500     0.9740 H     1 <1>   0.0800 
 37 H       -3.9250    -7.1150     1.7940 H     1 <1>   0.0800 
 38 H       -2.0230    -8.6410     1.3550 H     1 <1>   0.1500 
 39 H       -5.5190    -8.9280    -1.0510 H     1 <1>   0.1500 
 40 H       -1.2680   -10.7210     0.3550 H     1 <1>   0.1500 
 41 H       -4.6230   -11.0000    -1.9520 H     1 <1>   0.1500 
@<TRIPOS>BOND
  1   1   2  2   
  2   1   3  2   
  3   1   4  1   
  4   1   5  1   
  5   4   6  1   
  6   4  22  1   
  7   4  23  1   
  8   5  24  1   
  9   5  25  1   
 10   5  26  1   
 11   6   7  1   
 12   6  27  1   
 13   6  28  1   
 14   7   8  2   
 15   7   9  am  
 16   9  10  1   
 17   9  11  1   
 18  10  12  1   
 19  10  29  1   
 20  10  30  1   
 21  11  13  1   
 22  11  31  1   
 23  11  32  1   
 24  12  13  1   
 25  12  14  1   
 26  12  33  1   
 27  13  15  1   
 28  13  34  1   
 29  14  35  1   
 30  15  16  1   
 31  15  36  1   
 32  15  37  1   
 33  16  17  ar  
 34  16  18  ar  
 35  17  19  ar  
 36  17  38  1   
 37  18  20  ar  
 38  18  39  1   
 39  19  21  ar  
 40  19  40  1   
 41  20  21  ar  
 42  20  41  1   
@<TRIPOS>SUBSTRUCTURE
  1 ****   9 GROUP 4 **** **** 0

# MOE 2024.06 (io_trps.svl 2023.06)
