@<TRIPOS>MOLECULE
NONAME
41 43 1 0 0 
SMALL
USER_CHARGES


@<TRIPOS>ATOM
  1 O        0.5610     0.6220     1.6720 O.3   1 <1>  -0.8500 
  2 C        1.5940     1.1100     1.1920 C.2   1 <1>  -0.1500 
  3 C        1.8670     2.4660     1.2460 C.2   1 <1>  -0.1360 
  4 C        2.5530     0.2720     0.5660 C.2   1 <1>  -0.1500 
  5 C        3.0430     2.9910     0.7220 C.2   1 <1>   0.6160 
  6 C        3.7050     0.7660     0.0470 C.2   1 <1>  -0.0290 
  7 O        3.3140     4.2080     0.7940 O.2   1 <1>  -0.5700 
  8 N        3.9810     2.1370     0.1140 N.am  1 <1>  -0.4690 
  9 C        4.7010    -0.1770    -0.6090 C.3   1 <1>  -0.1020 
 10 C        5.2700     2.7270    -0.3350 C.3   1 <1>   0.1400 
 11 C        6.1860     2.8870     0.8770 C.3   1 <1>   0.0960 
 12 N        7.4810     3.4570     0.4580 N.pl3 1 <1>   0.0480 
 13 C        7.6930     4.7720     0.1860 C.ar  1 <1>  -0.1520 
 14 C        8.6820     2.8430     0.2540 C.2   1 <1>   0.0060 
 15 C        9.0250     4.8720    -0.1650 C.ar  1 <1>   0.2270 
 16 C        6.8640     5.8970     0.2050 C.ar  1 <1>  -0.1500 
 17 N        9.6240     3.6510    -0.1150 N.2   1 <1>  -0.5650 
 18 C        8.8890     1.3400     0.4410 C.3   1 <1>   0.3800 
 19 C        9.5650     6.1100    -0.5080 C.ar  1 <1>  -0.1500 
 20 C        7.4050     7.1170    -0.1350 C.ar  1 <1>  -0.1500 
 21 O       10.1970     1.1580     0.8100 O.3   1 <1>  -0.6800 
 22 C        8.6800     0.5730    -0.8600 C.3   1 <1>  -0.2400 
 23 C        8.7550     7.2250    -0.4920 C.ar  1 <1>  -0.1500 
 24 H        1.1560     3.1150     1.7100 H     1 <1>   0.1500 
 25 H        2.2910    -0.7690     0.5410 H     1 <1>   0.1500 
 26 H        4.8450     0.0950    -1.6390 H     1 <1>   0.0800 
 27 H        4.3300    -1.1860    -0.5810 H     1 <1>   0.0800 
 28 H        5.6370    -0.1500    -0.0860 H     1 <1>   0.0800 
 29 H        5.0830     3.6880    -0.7850 H     1 <1>   0.0800 
 30 H        5.7320     2.1060    -1.0780 H     1 <1>   0.0800 
 31 H        6.3380     1.9360     1.3490 H     1 <1>   0.0800 
 32 H        5.7350     3.5550     1.5890 H     1 <1>   0.0800 
 33 H        5.8260     5.8060     0.4800 H     1 <1>   0.1500 
 34 H        8.2740     0.9450     1.2300 H     1 <1>   0.0800 
 35 H       10.6030     6.1630    -0.7760 H     1 <1>   0.1500 
 36 H        6.7910     8.0010    -0.1300 H     1 <1>   0.1500 
 37 H       10.6520     1.9860     0.5330 H     1 <1>   0.4000 
 38 H        9.3460     0.9460    -1.6180 H     1 <1>   0.0800 
 39 H        7.6720     0.6990    -1.2050 H     1 <1>   0.0800 
 40 H        8.8640    -0.4740    -0.7030 H     1 <1>   0.0800 
 41 H        9.1550     8.1900    -0.7530 H     1 <1>   0.1500 
@<TRIPOS>BOND
  1   1   2  1   
  2   2   3  2   
  3   2   4  1   
  4   3   5  1   
  5   3  24  1   
  6   4   6  2   
  7   4  25  1   
  8   5   7  2   
  9   5   8  am  
 10   6   8  1   
 11   6   9  1   
 12   8  10  1   
 13   9  26  1   
 14   9  27  1   
 15   9  28  1   
 16  10  11  1   
 17  10  29  1   
 18  10  30  1   
 19  11  12  1   
 20  11  31  1   
 21  11  32  1   
 22  12  13  1   
 23  12  14  1   
 24  13  15  ar  
 25  13  16  ar  
 26  14  17  2   
 27  14  18  1   
 28  15  17  1   
 29  15  19  ar  
 30  16  20  ar  
 31  16  33  1   
 32  18  21  1   
 33  18  22  1   
 34  18  34  1   
 35  19  23  ar  
 36  19  35  1   
 37  20  23  ar  
 38  20  36  1   
 39  21  37  1   
 40  22  38  1   
 41  22  39  1   
 42  22  40  1   
 43  23  41  1   
@<TRIPOS>SUBSTRUCTURE
  1 ****  11 GROUP 4 **** **** 0

# MOE 2024.06 (io_trps.svl 2023.06)
