@<TRIPOS>MOLECULE
NONAME
45 48 1 0 0 
SMALL
USER_CHARGES


@<TRIPOS>ATOM
  1 O        0.8230    -0.1450    -1.0430 O.3   1 <1>  -0.0190 
  2 N        0.8910     1.0980    -0.6640 N.2   1 <1>  -0.4100 
  3 C        1.1730    -0.9660    -0.0880 C.2   1 <1>  -0.0400 
  4 C        1.2920     1.0770     0.5560 C.2   1 <1>   0.1080 
  5 C        1.4950    -0.2320     0.9880 C.2   1 <1>  -0.1500 
  6 C        1.1670    -2.4640    -0.3330 C.3   1 <1>   0.2900 
  7 C        1.5090     2.3110     1.4020 C.3   1 <1>  -0.0590 
  8 N       -0.1590    -3.0510    -0.0730 N.3   1 <1>  -0.8100 
  9 C       -1.2350    -2.4750    -0.8950 C.3   1 <1>   0.1100 
 10 C       -0.2030    -4.5060    -0.2920 C.3   1 <1>   0.1100 
 11 C       -2.3510    -3.5050    -0.8040 C.3   1 <1>   0.2000 
 12 C       -1.5780    -4.8240    -0.9070 C.3   1 <1>  -0.0800 
 13 O       -2.9090    -3.3880     0.4560 O.3   1 <1>  -0.6800 
 14 C       -2.2810    -6.0400    -0.2670 C.3   1 <1>  -0.0170 
 15 C       -1.6000    -7.4030    -0.4540 C.ar  1 <1>  -0.1440 
 16 C       -2.0360    -8.5170     0.3060 C.ar  1 <1>   0.0000 
 17 C       -0.5770    -7.6200    -1.3360 C.ar  1 <1>  -0.1500 
 18 C       -1.3660    -9.7520     0.1220 C.ar  1 <1>   0.3100 
 19 C       -3.1030    -8.4820     1.2350 C.ar  1 <1>  -0.1500 
 20 C        0.0100    -8.8850    -1.4470 C.ar  1 <1>   0.1600 
 21 N       -0.3460    -9.9190    -0.7560 N.ar  1 <1>  -0.6200 
 22 C       -1.7700   -10.8670     0.8730 C.ar  1 <1>  -0.1500 
 23 C       -3.4750    -9.5880     1.9490 C.ar  1 <1>  -0.1500 
 24 C       -2.8000   -10.7980     1.7700 C.ar  1 <1>  -0.1500 
 25 H        1.8270    -0.5450     1.9600 H     1 <1>   0.1500 
 26 H        1.8800    -2.9230     0.3300 H     1 <1>   0.0800 
 27 H        1.4720    -2.6600    -1.3460 H     1 <1>   0.0800 
 28 H        2.5330     2.3570     1.7240 H     1 <1>   0.0800 
 29 H        0.8660     2.2800     2.2620 H     1 <1>   0.0800 
 30 H        1.2830     3.1920     0.8300 H     1 <1>   0.0800 
 31 H       -1.5470    -1.5120    -0.5260 H     1 <1>   0.0800 
 32 H       -0.9110    -2.3780    -1.9170 H     1 <1>   0.0800 
 33 H        0.5800    -4.8220    -0.9610 H     1 <1>   0.0800 
 34 H       -0.0760    -5.0080     0.6530 H     1 <1>   0.0800 
 35 H       -3.1220    -3.3870    -1.5460 H     1 <1>   0.0800 
 36 H       -1.4410    -5.0150    -1.9560 H     1 <1>   0.0800 
 37 H       -2.1590    -3.2220     1.0680 H     1 <1>   0.4000 
 38 H       -3.2810    -6.1060    -0.6610 H     1 <1>   0.0800 
 39 H       -2.3630    -5.8510     0.7890 H     1 <1>   0.0800 
 40 H       -0.1860    -6.8520    -1.9730 H     1 <1>   0.1500 
 41 H       -3.6450    -7.5680     1.3880 H     1 <1>   0.1500 
 42 H        0.8140    -9.0060    -2.1540 H     1 <1>   0.1500 
 43 H       -1.2380   -11.7870     0.7150 H     1 <1>   0.1500 
 44 H       -4.2880    -9.5430     2.6540 H     1 <1>   0.1500 
 45 H       -3.1000   -11.6610     2.3390 H     1 <1>   0.1500 
@<TRIPOS>BOND
  1   1   2  1   
  2   1   3  1   
  3   2   4  2   
  4   3   5  2   
  5   3   6  1   
  6   4   5  1   
  7   4   7  1   
  8   5  25  1   
  9   6   8  1   
 10   6  26  1   
 11   6  27  1   
 12   7  28  1   
 13   7  29  1   
 14   7  30  1   
 15   8   9  1   
 16   8  10  1   
 17   9  11  1   
 18   9  31  1   
 19   9  32  1   
 20  10  12  1   
 21  10  33  1   
 22  10  34  1   
 23  11  12  1   
 24  11  13  1   
 25  11  35  1   
 26  12  14  1   
 27  12  36  1   
 28  13  37  1   
 29  14  15  1   
 30  14  38  1   
 31  14  39  1   
 32  15  16  ar  
 33  15  17  ar  
 34  16  18  ar  
 35  16  19  ar  
 36  17  20  ar  
 37  17  40  1   
 38  18  21  ar  
 39  18  22  ar  
 40  19  23  ar  
 41  19  41  1   
 42  20  21  ar  
 43  20  42  1   
 44  22  24  ar  
 45  22  43  1   
 46  23  24  ar  
 47  23  44  1   
 48  24  45  1   
@<TRIPOS>SUBSTRUCTURE
  1 ****  10 GROUP 4 **** **** 0

# MOE 2024.06 (io_trps.svl 2023.06)
