@<TRIPOS>MOLECULE
NONAME
52 54 1 0 0 
SMALL
USER_CHARGES


@<TRIPOS>ATOM
  1 O        0.2780     2.9770    -1.7960 O.co2 1 <1>  -0.9000 
  2 C       -0.4150     2.4790    -0.9020 C.2   1 <1>   0.9060 
  3 O       -1.3860     1.7540    -1.1720 O.co2 1 <1>  -0.9000 
  4 C       -0.1680     2.8000     0.5680 C.3   1 <1>  -0.1060 
  5 C       -1.4250     3.5970     0.9850 C.3   1 <1>   0.2000 
  6 C        1.1070     3.6580     0.7850 C.3   1 <1>   0.1400 
  7 C       -0.0110     1.4780     1.3790 C.3   1 <1>  -0.0170 
  8 O       -2.4730     2.7450     1.2700 O.3   1 <1>  -0.6800 
  9 C       -1.1690     4.5210     2.1700 C.3   1 <1>  -0.1600 
 10 N        0.8300     5.1270     0.7740 N.am  1 <1>  -0.6600 
 11 C        1.3400     0.7850     1.2120 C.ar  1 <1>  -0.1430 
 12 C       -0.2130     5.6320     1.7220 C.3   1 <1>   0.1400 
 13 C        1.5910     5.9360    -0.0360 C.2   1 <1>   0.5690 
 14 C        1.6760     0.1840     0.0090 C.ar  1 <1>  -0.1500 
 15 C        2.2450     0.7450     2.2630 C.ar  1 <1>  -0.1500 
 16 O        2.7930     5.7700    -0.0890 O.2   1 <1>  -0.5700 
 17 C        0.9490     7.0540    -0.9020 C.3   1 <1>   0.3170 
 18 C        2.9000    -0.4430    -0.1450 C.ar  1 <1>  -0.1500 
 19 C        3.4690     0.1170     2.1120 C.ar  1 <1>  -0.1500 
 20 N        0.5330     8.1940    -0.0160 N.pl3 1 <1>   0.0480 
 21 C       -0.2570     6.4910    -1.6910 C.3   1 <1>  -0.2400 
 22 C        1.9410     7.6240    -1.9410 C.3   1 <1>  -0.2400 
 23 C        3.7980    -0.4780     0.9070 C.ar  1 <1>  -0.1500 
 24 C        1.2730     8.7080     1.0100 C.2   1 <1>  -0.3020 
 25 C       -0.6180     8.9300    -0.0590 C.2   1 <1>  -0.3020 
 26 C        0.6060     9.7330     1.6000 C.2   1 <1>  -0.1500 
 27 C       -0.6040     9.8740     0.9160 C.2   1 <1>  -0.1500 
 28 H       -1.7480     4.2040     0.1540 H     1 <1>   0.0800 
 29 H        1.8460     3.4100     0.0390 H     1 <1>   0.0800 
 30 H        1.5410     3.4290     1.7410 H     1 <1>   0.0800 
 31 H       -0.1640     1.6890     2.4210 H     1 <1>   0.0800 
 32 H       -0.7790     0.7780     1.0950 H     1 <1>   0.0800 
 33 H       -2.5450     2.1460     0.4820 H     1 <1>   0.4000 
 34 H       -2.0910     4.9610     2.5030 H     1 <1>   0.0800 
 35 H       -0.7360     3.9710     2.9850 H     1 <1>   0.0800 
 36 H        0.2680     6.0700     2.5790 H     1 <1>   0.0800 
 37 H       -0.7930     6.3970     1.2410 H     1 <1>   0.0800 
 38 H        0.9840     0.2070    -0.8190 H     1 <1>   0.1500 
 39 H        2.0000     1.2060     3.2030 H     1 <1>   0.1500 
 40 H        3.1470    -0.8970    -1.0880 H     1 <1>   0.1500 
 41 H        4.1650     0.0920     2.9320 H     1 <1>   0.1500 
 42 H        0.0570     5.6270    -2.2530 H     1 <1>   0.0800 
 43 H       -0.6460     7.2150    -2.3820 H     1 <1>   0.0800 
 44 H       -1.0410     6.1750    -1.0300 H     1 <1>   0.0800 
 45 H        2.2720     6.8370    -2.5960 H     1 <1>   0.0800 
 46 H        2.8050     8.0320    -1.4470 H     1 <1>   0.0800 
 47 H        1.4770     8.3930    -2.5300 H     1 <1>   0.0800 
 48 H        4.7500    -0.9640     0.7850 H     1 <1>   0.1500 
 49 H        2.2430     8.3140     1.2660 H     1 <1>   0.1500 
 50 H       -1.3960     8.7510    -0.7800 H     1 <1>   0.1500 
 51 H        0.9240    10.3370     2.4320 H     1 <1>   0.1500 
 52 H       -1.3600    10.6060     1.1420 H     1 <1>   0.1500 
@<TRIPOS>BOND
  1   1   2  ar  
  2   2   3  ar  
  3   2   4  1   
  4   4   5  1   
  5   4   6  1   
  6   4   7  1   
  7   5   8  1   
  8   5   9  1   
  9   5  28  1   
 10   6  10  1   
 11   6  29  1   
 12   6  30  1   
 13   7  11  1   
 14   7  31  1   
 15   7  32  1   
 16   8  33  1   
 17   9  12  1   
 18   9  34  1   
 19   9  35  1   
 20  10  12  1   
 21  10  13  am  
 22  11  14  ar  
 23  11  15  ar  
 24  12  36  1   
 25  12  37  1   
 26  13  16  2   
 27  13  17  1   
 28  14  18  ar  
 29  14  38  1   
 30  15  19  ar  
 31  15  39  1   
 32  17  20  1   
 33  17  21  1   
 34  17  22  1   
 35  18  23  ar  
 36  18  40  1   
 37  19  23  ar  
 38  19  41  1   
 39  20  24  1   
 40  20  25  1   
 41  21  42  1   
 42  21  43  1   
 43  21  44  1   
 44  22  45  1   
 45  22  46  1   
 46  22  47  1   
 47  23  48  1   
 48  24  26  2   
 49  24  49  1   
 50  25  27  2   
 51  25  50  1   
 52  26  27  1   
 53  26  51  1   
 54  27  52  1   
@<TRIPOS>SUBSTRUCTURE
  1 ****   6 GROUP 4 **** **** 0

# MOE 2024.06 (io_trps.svl 2023.06)
