@<TRIPOS>MOLECULE
NONAME
47 49 1 0 0 
SMALL
USER_CHARGES


@<TRIPOS>ATOM
  1 S        2.3650    -0.1940    -0.4620 S.3   1 <1>  -0.0800 
  2 C        0.9210    -1.1010    -0.7350 C.2   1 <1>   0.1980 
  3 C        1.3850     1.2270    -0.5760 C.2   1 <1>   0.1980 
  4 N       -0.1100    -0.3710    -0.8830 N.2   1 <1>  -0.3380 
  5 C        1.0090    -2.6180    -0.7680 C.3   1 <1>   0.5230 
  6 N        0.1590     0.9650    -0.7880 N.2   1 <1>  -0.3380 
  7 C        2.0550     2.5740    -0.4180 C.3   1 <1>  -0.0600 
  8 N       -0.3590    -3.2440    -0.6710 N.4   1 <1>  -0.9590 
  9 C       -0.3100    -4.6850    -1.1000 C.3   1 <1>   0.3430 
 10 C       -0.9680    -2.9930     0.6700 C.3   1 <1>   0.3430 
 11 C       -0.8900    -5.7040    -0.0910 C.3   1 <1>   0.0000 
 12 C       -2.3120    -3.7090     0.8010 C.3   1 <1>  -0.1600 
 13 C       -2.2940    -5.1610     0.2930 C.3   1 <1>   0.2000 
 14 C       -1.0480    -7.0220    -0.8900 C.3   1 <1>   0.1200 
 15 C        0.0370    -5.9420     1.1540 C.3   1 <1>  -0.0170 
 16 O       -2.9100    -5.9710     1.2340 O.3   1 <1>  -0.6800 
 17 O       -1.6070    -8.0160    -0.1110 O.3   1 <1>  -0.6800 
 18 C        1.4650    -5.4120     1.0330 C.ar  1 <1>  -0.1440 
 19 C        1.9190    -4.4250     1.8980 C.ar  1 <1>  -0.1500 
 20 C        2.3340    -5.9210     0.0770 C.ar  1 <1>  -0.1500 
 21 C        3.1990    -3.9150     1.7730 C.ar  1 <1>  -0.1500 
 22 C        3.6130    -5.4080    -0.0510 C.ar  1 <1>  -0.1500 
 23 C        4.0440    -4.4000     0.7910 C.ar  1 <1>  -0.1500 
 24 H        1.6310    -2.9540     0.0400 H     1 <1>   0.0800 
 25 H        1.4800    -2.9080    -1.6920 H     1 <1>   0.0800 
 26 H        1.3250     3.3570    -0.5140 H     1 <1>   0.0800 
 27 H        2.8030     2.7020    -1.1780 H     1 <1>   0.0800 
 28 H        2.5160     2.6440     0.5490 H     1 <1>   0.0800 
 29 H       -0.9360    -2.7120    -1.3430 H     1 <1>   0.4500 
 30 H       -0.8750    -4.7740    -2.0140 H     1 <1>   0.0800 
 31 H        0.7020    -4.9610    -1.3410 H     1 <1>   0.0800 
 32 H       -0.3050    -3.3510     1.4370 H     1 <1>   0.0800 
 33 H       -1.1090    -1.9340     0.8250 H     1 <1>   0.0800 
 34 H       -3.0450    -3.1570     0.2400 H     1 <1>   0.0800 
 35 H       -2.6140    -3.6670     1.8330 H     1 <1>   0.0800 
 36 H       -2.9210    -5.2060    -0.5840 H     1 <1>   0.0800 
 37 H       -0.0960    -7.3890    -1.2360 H     1 <1>   0.0800 
 38 H       -1.6930    -6.8860    -1.7420 H     1 <1>   0.0800 
 39 H       -0.4070    -5.5000     2.0270 H     1 <1>   0.0800 
 40 H        0.1060    -6.9930     1.3800 H     1 <1>   0.0800 
 41 H       -2.4900    -5.9070     2.1150 H     1 <1>   0.4000 
 42 H       -2.4070    -7.6720     0.3560 H     1 <1>   0.4000 
 43 H        1.2900    -4.0490     2.6870 H     1 <1>   0.1500 
 44 H        2.0310    -6.7280    -0.5670 H     1 <1>   0.1500 
 45 H        3.5480    -3.1510     2.4490 H     1 <1>   0.1500 
 46 H        4.2830    -5.8060    -0.7960 H     1 <1>   0.1500 
 47 H        5.0430    -4.0080     0.6960 H     1 <1>   0.1500 
@<TRIPOS>BOND
  1   1   2  1   
  2   1   3  1   
  3   2   4  2   
  4   2   5  1   
  5   3   6  2   
  6   3   7  1   
  7   4   6  1   
  8   5   8  1   
  9   5  24  1   
 10   5  25  1   
 11   7  26  1   
 12   7  27  1   
 13   7  28  1   
 14   8   9  1   
 15   8  10  1   
 16   8  29  1   
 17   9  11  1   
 18   9  30  1   
 19   9  31  1   
 20  10  12  1   
 21  10  32  1   
 22  10  33  1   
 23  11  13  1   
 24  11  14  1   
 25  11  15  1   
 26  12  13  1   
 27  12  34  1   
 28  12  35  1   
 29  13  16  1   
 30  13  36  1   
 31  14  17  1   
 32  14  37  1   
 33  14  38  1   
 34  15  18  1   
 35  15  39  1   
 36  15  40  1   
 37  16  41  1   
 38  17  42  1   
 39  18  19  ar  
 40  18  20  ar  
 41  19  21  ar  
 42  19  43  1   
 43  20  22  ar  
 44  20  44  1   
 45  21  23  ar  
 46  21  45  1   
 47  22  23  ar  
 48  22  46  1   
 49  23  47  1   
@<TRIPOS>SUBSTRUCTURE
  1 ****   8 GROUP 4 **** **** 0

# MOE 2024.06 (io_trps.svl 2023.06)
