@<TRIPOS>MOLECULE
NONAME
53 56 1 0 0 
SMALL
USER_CHARGES


@<TRIPOS>ATOM
  1 O       -4.8740     0.9930    -1.5170 O.3   1 <1>  -0.8290 
  2 C       -5.0820    -0.1990    -1.1960 C.ar  1 <1>   0.1390 
  3 N       -6.3440    -0.5920    -0.8980 N.ar  1 <1>  -0.3100 
  4 C       -4.0080    -1.0850    -1.1560 C.ar  1 <1>  -0.1500 
  5 N       -6.5760    -1.8340    -0.5570 N.ar  1 <1>  -0.3100 
  6 C       -4.2610    -2.3780    -0.7980 C.ar  1 <1>  -0.1500 
  7 C       -5.5750    -2.7040    -0.5040 C.ar  1 <1>   0.1670 
  8 C       -5.9460    -4.1140    -0.0880 C.3   1 <1>  -0.0160 
  9 C       -6.6710    -4.8590    -1.2190 C.3   1 <1>  -0.0990 
 10 C       -7.6550    -5.8610    -0.6470 C.2   1 <1>   0.5690 
 11 O       -7.2240    -6.9690    -0.4260 O.2   1 <1>  -0.5700 
 12 N       -8.9610    -5.5300    -0.3710 N.am  1 <1>  -0.6600 
 13 C       -9.6220    -4.2120    -0.6830 C.3   1 <1>   0.1400 
 14 C       -9.8670    -6.5850     0.1810 C.3   1 <1>   0.1400 
 15 C      -10.3720    -3.6050     0.5300 C.3   1 <1>   0.1430 
 16 C      -11.1560    -6.0090     0.7870 C.3   1 <1>  -0.1600 
 17 C      -11.5060    -2.7460    -0.0150 C.ar  1 <1>   0.1670 
 18 C      -10.8790    -4.6860     1.5140 C.3   1 <1>  -0.1600 
 19 C       -9.5080    -2.5470     1.2630 C.3   1 <1>  -0.1600 
 20 N      -12.6480    -3.1900    -0.4830 N.ar  1 <1>  -0.6200 
 21 C      -11.1930    -1.4210     0.0300 C.ar  1 <1>  -0.1430 
 22 C       -9.8220    -1.1880     0.6120 C.3   1 <1>  -0.0160 
 23 C      -13.4960    -2.2510    -0.9100 C.ar  1 <1>   0.7200 
 24 C      -12.1210    -0.5270    -0.4400 C.ar  1 <1>   0.1600 
 25 N      -13.2790    -0.9310    -0.9100 N.ar  1 <1>  -0.6200 
 26 N      -14.7140    -2.6850    -1.3980 N.pl3 1 <1>  -0.8380 
 27 C      -15.6240    -1.7900    -2.1640 C.3   1 <1>   0.1290 
 28 C      -15.2090    -4.0700    -1.1680 C.3   1 <1>   0.1290 
 29 H       -3.0350    -0.7130    -1.4050 H     1 <1>   0.1500 
 30 H       -3.4750    -3.1050    -0.7480 H     1 <1>   0.1500 
 31 H       -6.5830    -4.0470     0.7750 H     1 <1>   0.0800 
 32 H       -5.0710    -4.6660     0.2050 H     1 <1>   0.0800 
 33 H       -5.9450    -5.3840    -1.8120 H     1 <1>   0.0800 
 34 H       -7.1680    -4.1790    -1.8820 H     1 <1>   0.0800 
 35 H      -10.3330    -4.3910    -1.4720 H     1 <1>   0.0800 
 36 H       -8.9220    -3.4870    -1.0520 H     1 <1>   0.0800 
 37 H       -9.3350    -7.1200     0.9490 H     1 <1>   0.0800 
 38 H      -10.1110    -7.2860    -0.5990 H     1 <1>   0.0800 
 39 H      -11.5740    -6.7250     1.4710 H     1 <1>   0.0800 
 40 H      -11.8800    -5.8500     0.0060 H     1 <1>   0.0800 
 41 H      -11.7690    -4.3410     2.0110 H     1 <1>   0.0800 
 42 H      -10.1290    -4.8690     2.2640 H     1 <1>   0.0800 
 43 H       -8.4590    -2.7720     1.2290 H     1 <1>   0.0800 
 44 H       -9.8090    -2.4930     2.2940 H     1 <1>   0.0800 
 45 H       -9.1260    -0.9680    -0.1800 H     1 <1>   0.0800 
 46 H       -9.8130    -0.3890     1.3320 H     1 <1>   0.0800 
 47 H      -11.9090     0.5280    -0.4310 H     1 <1>   0.1500 
 48 H      -15.0600    -1.0430    -2.6940 H     1 <1>   0.0800 
 49 H      -16.3000    -1.3000    -1.4850 H     1 <1>   0.0800 
 50 H      -16.1880    -2.3590    -2.8810 H     1 <1>   0.0800 
 51 H      -14.8080    -4.4670    -0.2510 H     1 <1>   0.0800 
 52 H      -14.9050    -4.7010    -1.9850 H     1 <1>   0.0800 
 53 H      -16.2820    -4.0730    -1.0950 H     1 <1>   0.0800 
@<TRIPOS>BOND
  1   1   2  1   
  2   2   3  ar  
  3   2   4  ar  
  4   3   5  ar  
  5   4   6  ar  
  6   4  29  1   
  7   5   7  ar  
  8   6   7  ar  
  9   6  30  1   
 10   7   8  1   
 11   8   9  1   
 12   8  31  1   
 13   8  32  1   
 14   9  10  1   
 15   9  33  1   
 16   9  34  1   
 17  10  11  2   
 18  10  12  am  
 19  12  13  1   
 20  12  14  1   
 21  13  15  1   
 22  13  35  1   
 23  13  36  1   
 24  14  16  1   
 25  14  37  1   
 26  14  38  1   
 27  15  17  1   
 28  15  18  1   
 29  15  19  1   
 30  16  18  1   
 31  16  39  1   
 32  16  40  1   
 33  17  20  ar  
 34  17  21  ar  
 35  18  41  1   
 36  18  42  1   
 37  19  22  1   
 38  19  43  1   
 39  19  44  1   
 40  20  23  ar  
 41  21  22  1   
 42  21  24  ar  
 43  22  45  1   
 44  22  46  1   
 45  23  25  ar  
 46  23  26  1   
 47  24  25  ar  
 48  24  47  1   
 49  26  27  1   
 50  26  28  1   
 51  27  48  1   
 52  27  49  1   
 53  27  50  1   
 54  28  51  1   
 55  28  52  1   
 56  28  53  1   
@<TRIPOS>SUBSTRUCTURE
  1 ****  13 GROUP 4 **** **** 0

# MOE 2024.06 (io_trps.svl 2023.06)
