@<TRIPOS>MOLECULE
NONAME
53 55 1 0 0 
SMALL
USER_CHARGES


@<TRIPOS>ATOM
  1 O        1.8220    -0.3830     0.1560 O.3   1 <1>  -0.3630 
  2 C        2.2690     0.7910     0.6400 C.ar  1 <1>   0.0830 
  3 C        0.6020    -0.8680     0.6730 C.3   1 <1>   0.0400 
  4 C        1.9970     1.9850    -0.0130 C.ar  1 <1>  -0.1440 
  5 C        3.0350     0.8280     1.7930 C.ar  1 <1>  -0.1440 
  6 C        2.4940     3.1570     0.5450 C.ar  1 <1>   0.1660 
  7 C        1.1780     1.9990    -1.3070 C.3   1 <1>  -0.0960 
  8 C        3.4670     2.0590     2.2490 C.ar  1 <1>   0.1600 
  9 C        3.4090    -0.4400     2.5510 C.3   1 <1>  -0.0970 
 10 N        3.2220     3.2170     1.6550 N.ar  1 <1>  -0.6200 
 11 C        2.2500     4.5120    -0.1160 C.3   1 <1>   0.4860 
 12 N        3.5290     5.2800    -0.1810 N.4   1 <1>  -0.8520 
 13 C        3.4270     6.7300    -0.4780 C.3   1 <1>   0.2960 
 14 C        4.5310     4.5960    -1.0400 C.3   1 <1>   0.5240 
 15 C        2.2410     7.5330    -0.0570 C.3   1 <1>  -0.2000 
 16 C        2.4620     7.2140    -1.5090 C.3   1 <1>  -0.2000 
 17 C        5.8590     5.3020    -0.8880 C.2   1 <1>  -0.1810 
 18 C        6.4100     6.2190    -1.7790 C.2   1 <1>   0.1080 
 19 C        6.7570     5.2140     0.1210 C.2   1 <1>  -0.3320 
 20 N        7.5380     6.6800    -1.3540 N.2   1 <1>  -0.7070 
 21 C        5.8430     6.6890    -3.1020 C.3   1 <1>  -0.0590 
 22 N        7.7660     6.0600    -0.1880 N.pl3 1 <1>   0.3140 
 23 C        6.7340     4.3600     1.3810 C.3   1 <1>  -0.0600 
 24 C        8.9890     6.3230     0.5820 C.3   1 <1>   0.0160 
 25 H        0.3790    -1.8020     0.1880 H     1 <1>   0.0800 
 26 H       -0.1740    -0.1520     0.4700 H     1 <1>   0.0800 
 27 H        0.7020    -1.0200     1.7320 H     1 <1>   0.0800 
 28 H        0.9340     1.0060    -1.6390 H     1 <1>   0.0800 
 29 H        1.7310     2.4670    -2.1010 H     1 <1>   0.0800 
 30 H        0.2530     2.5270    -1.1570 H     1 <1>   0.0800 
 31 H        4.0510     2.0940     3.1540 H     1 <1>   0.1500 
 32 H        3.6240    -1.2390     1.8630 H     1 <1>   0.0800 
 33 H        2.5980    -0.7410     3.1890 H     1 <1>   0.0800 
 34 H        4.2820    -0.2810     3.1590 H     1 <1>   0.0800 
 35 H        1.5380     5.0450     0.4890 H     1 <1>   0.0800 
 36 H        1.8380     4.3910    -1.1020 H     1 <1>   0.0800 
 37 H        3.9200     5.1800     0.7690 H     1 <1>   0.4500 
 38 H        4.3860     7.2270    -0.4170 H     1 <1>   0.1000 
 39 H        4.2190     4.6120    -2.0700 H     1 <1>   0.0800 
 40 H        4.6450     3.5700    -0.7300 H     1 <1>   0.0800 
 41 H        2.4020     8.5500     0.2590 H     1 <1>   0.1000 
 42 H        1.4060     7.0860     0.4500 H     1 <1>   0.1000 
 43 H        1.7770     6.5410    -1.9910 H     1 <1>   0.1000 
 44 H        2.7600     8.0220    -2.1550 H     1 <1>   0.1000 
 45 H        4.9340     6.1790    -3.3530 H     1 <1>   0.0800 
 46 H        6.5660     6.5100    -3.8770 H     1 <1>   0.0800 
 47 H        5.6560     7.7460    -3.0540 H     1 <1>   0.0800 
 48 H        5.9000     3.6840     1.3740 H     1 <1>   0.0800 
 49 H        6.6650     4.9850     2.2540 H     1 <1>   0.0800 
 50 H        7.6340     3.7740     1.4460 H     1 <1>   0.0800 
 51 H        8.7250     6.6440     1.5720 H     1 <1>   0.0800 
 52 H        9.5530     7.0960     0.0930 H     1 <1>   0.0800 
 53 H        9.5770     5.4260     0.6290 H     1 <1>   0.0800 
@<TRIPOS>BOND
  1   1   2  1   
  2   1   3  1   
  3   2   4  ar  
  4   2   5  ar  
  5   3  25  1   
  6   3  26  1   
  7   3  27  1   
  8   4   6  ar  
  9   4   7  1   
 10   5   8  ar  
 11   5   9  1   
 12   6  10  ar  
 13   6  11  1   
 14   7  28  1   
 15   7  29  1   
 16   7  30  1   
 17   8  10  ar  
 18   8  31  1   
 19   9  32  1   
 20   9  33  1   
 21   9  34  1   
 22  11  12  1   
 23  11  35  1   
 24  11  36  1   
 25  12  13  1   
 26  12  14  1   
 27  12  37  1   
 28  13  15  1   
 29  13  16  1   
 30  13  38  1   
 31  14  17  1   
 32  14  39  1   
 33  14  40  1   
 34  15  16  1   
 35  15  41  1   
 36  15  42  1   
 37  16  43  1   
 38  16  44  1   
 39  17  18  1   
 40  17  19  2   
 41  18  20  2   
 42  18  21  1   
 43  19  22  1   
 44  19  23  1   
 45  20  22  1   
 46  21  45  1   
 47  21  46  1   
 48  21  47  1   
 49  22  24  1   
 50  23  48  1   
 51  23  49  1   
 52  23  50  1   
 53  24  51  1   
 54  24  52  1   
 55  24  53  1   
@<TRIPOS>SUBSTRUCTURE
  1 ****  14 GROUP 4 **** **** 0

# MOE 2024.06 (io_trps.svl 2023.06)
