@<TRIPOS>MOLECULE
NONAME
48 50 1 0 0 
SMALL
USER_CHARGES


@<TRIPOS>ATOM
  1 O       -0.1240    -0.2250    -0.4220 O.2   1 <1>  -0.5700 
  2 C       -1.0500     0.4900    -0.1150 C.2   1 <1>   0.5690 
  3 N       -2.3200    -0.0320    -0.0250 N.am  1 <1>  -0.6600 
  4 C       -0.7300     1.9930     0.1630 C.3   1 <1>   0.3410 
  5 C       -3.6060     0.6890     0.1880 C.3   1 <1>   0.1400 
  6 C       -2.5830    -1.4730    -0.2820 C.3   1 <1>   0.1400 
  7 O       -1.4540     2.4770     1.2610 O.3   1 <1>  -0.6800 
  8 C        0.7550     2.2180     0.5130 C.3   1 <1>  -0.1600 
  9 C       -1.0970     2.8720    -1.0510 C.3   1 <1>  -0.1600 
 10 C       -4.6960    -0.3550    -0.0590 C.3   1 <1>   0.2000 
 11 C       -4.0270    -1.7070     0.1650 C.3   1 <1>  -0.0800 
 12 C        1.1070     3.6820     0.8060 C.3   1 <1>   0.3430 
 13 C       -0.3370     4.2010    -1.1250 C.3   1 <1>   0.3430 
 14 O       -5.7600    -0.1980     0.8150 O.3   1 <1>  -0.6800 
 15 C       -4.7380    -2.8530    -0.5750 C.3   1 <1>  -0.0170 
 16 N        0.0840     4.6110     0.2380 N.4   1 <1>  -0.9590 
 17 C       -4.0620    -4.1900    -0.3180 C.ar  1 <1>   0.1670 
 18 C        0.5130     6.0380     0.3100 C.3   1 <1>   0.2630 
 19 N       -3.0020    -4.4670    -1.0600 N.ar  1 <1>  -0.6200 
 20 C       -4.5610    -5.0480     0.6610 C.ar  1 <1>   0.1600 
 21 C       -2.4770    -5.6430    -0.7590 C.ar  1 <1>   0.1600 
 22 N       -4.0370    -6.2230     0.9650 N.ar  1 <1>  -0.6200 
 23 C       -2.9780    -6.4920     0.2210 C.ar  1 <1>   0.1600 
 24 H       -3.6540     1.0490     1.2000 H     1 <1>   0.0800 
 25 H       -3.7090     1.5030    -0.5050 H     1 <1>   0.0800 
 26 H       -2.4710    -1.6690    -1.3360 H     1 <1>   0.0800 
 27 H       -1.8940    -2.0970     0.2640 H     1 <1>   0.0800 
 28 H       -1.5340     1.7580     1.9250 H     1 <1>   0.4000 
 29 H        1.0380     1.6030     1.3490 H     1 <1>   0.0800 
 30 H        1.3590     1.8920    -0.3160 H     1 <1>   0.0800 
 31 H       -0.8770     2.3300    -1.9530 H     1 <1>   0.0800 
 32 H       -2.1550     3.0630    -1.0590 H     1 <1>   0.0800 
 33 H       -5.0680    -0.2630    -1.0660 H     1 <1>   0.0800 
 34 H       -4.0000    -1.9250     1.2190 H     1 <1>   0.0800 
 35 H        2.0800     3.9030     0.3970 H     1 <1>   0.0800 
 36 H        1.1530     3.8250     1.8740 H     1 <1>   0.0800 
 37 H       -0.9720     4.9540    -1.5670 H     1 <1>   0.0800 
 38 H        0.5350     4.0860    -1.7480 H     1 <1>   0.0800 
 39 H       -5.4760    -0.3390     1.7390 H     1 <1>   0.4000 
 40 H       -4.7440    -2.6620    -1.6340 H     1 <1>   0.0800 
 41 H       -5.7630    -2.9010    -0.2520 H     1 <1>   0.0800 
 42 H       -0.7550     4.4670     0.8320 H     1 <1>   0.4500 
 43 H        1.3860     6.1990    -0.3020 H     1 <1>   0.0800 
 44 H        0.7490     6.3060     1.3270 H     1 <1>   0.0800 
 45 H       -0.2770     6.6840    -0.0390 H     1 <1>   0.0800 
 46 H       -5.4300    -4.7480     1.2190 H     1 <1>   0.1500 
 47 H       -1.6090    -5.9500    -1.3140 H     1 <1>   0.1500 
 48 H       -2.4810    -7.4300     0.3940 H     1 <1>   0.1500 
@<TRIPOS>BOND
  1   1   2  2   
  2   2   3  am  
  3   2   4  1   
  4   3   5  1   
  5   3   6  1   
  6   4   7  1   
  7   4   8  1   
  8   4   9  1   
  9   5  10  1   
 10   5  24  1   
 11   5  25  1   
 12   6  11  1   
 13   6  26  1   
 14   6  27  1   
 15   7  28  1   
 16   8  12  1   
 17   8  29  1   
 18   8  30  1   
 19   9  13  1   
 20   9  31  1   
 21   9  32  1   
 22  10  11  1   
 23  10  14  1   
 24  10  33  1   
 25  11  15  1   
 26  11  34  1   
 27  12  16  1   
 28  12  35  1   
 29  12  36  1   
 30  13  16  1   
 31  13  37  1   
 32  13  38  1   
 33  14  39  1   
 34  15  17  1   
 35  15  40  1   
 36  15  41  1   
 37  16  18  1   
 38  16  42  1   
 39  17  19  ar  
 40  17  20  ar  
 41  18  43  1   
 42  18  44  1   
 43  18  45  1   
 44  19  21  ar  
 45  20  22  ar  
 46  20  46  1   
 47  21  23  ar  
 48  21  47  1   
 49  22  23  ar  
 50  23  48  1   
@<TRIPOS>SUBSTRUCTURE
  1 ****   3 GROUP 4 **** **** 0

# MOE 2024.06 (io_trps.svl 2023.06)
