@<TRIPOS>MOLECULE
NONAME
58 60 1 0 0 
SMALL
USER_CHARGES


@<TRIPOS>ATOM
  1 O       -0.4740     0.4070    -1.4690 O.2   1 <1>  -0.5700 
  2 C       -1.5770     0.9120    -1.5610 C.2   1 <1>   0.5440 
  3 N       -1.6880     2.2130    -2.0150 N.am  1 <1>  -0.6600 
  4 C       -2.7360     0.1380    -1.1680 C.ar  1 <1>   0.0860 
  5 C       -2.9220     3.0340    -1.8670 C.3   1 <1>   0.1400 
  6 C       -0.4990     2.9740    -2.4890 C.3   1 <1>   0.1400 
  7 C       -2.8710    -0.3190     0.1400 C.ar  1 <1>  -0.1500 
  8 C       -3.7480    -0.1720    -2.0720 C.ar  1 <1>  -0.1500 
  9 C       -2.6530     4.1820    -0.8910 C.3   1 <1>  -0.1600 
 10 C       -0.2060     4.1190    -1.5150 C.3   1 <1>  -0.1600 
 11 C       -3.9810    -1.0460     0.5610 C.ar  1 <1>   0.0820 
 12 C       -4.8570    -0.8930    -1.6750 C.ar  1 <1>  -0.1500 
 13 C       -1.4340     5.0260    -1.3180 C.3   1 <1>  -0.0190 
 14 O       -4.0880    -1.4670     1.8560 O.3   1 <1>  -0.3630 
 15 C       -4.9970    -1.3360    -0.3700 C.ar  1 <1>   0.0820 
 16 C       -1.1290     6.1490    -0.3260 C.2   1 <1>   0.5690 
 17 C       -3.0490    -1.2940     2.7960 C.3   1 <1>   0.0400 
 18 O       -6.1480    -2.0280    -0.1420 O.3   1 <1>  -0.3620 
 19 O       -1.2130     5.9310     0.8600 O.2   1 <1>  -0.5700 
 20 N       -0.7600     7.3610    -0.8300 N.am  1 <1>  -0.4930 
 21 C       -6.4660    -2.6510     1.0810 C.3   1 <1>   0.0400 
 22 C       -0.4180     8.5450    -0.1300 C.2   1 <1>   0.0630 
 23 C       -0.3810     8.7860     1.2450 C.2   1 <1>   0.1390 
 24 C       -0.0430     9.7140    -0.6880 C.2   1 <1>  -0.3020 
 25 N       -0.0110    10.0020     1.5240 N.2   1 <1>  -0.7070 
 26 N        0.1960    10.5790     0.3230 N.pl3 1 <1>   0.3140 
 27 C        0.6440    11.9740     0.2040 C.3   1 <1>   0.1570 
 28 C        2.1350    12.0610     0.4430 C.2   1 <1>   0.5690 
 29 O        2.7950    12.7360    -0.3100 O.2   1 <1>  -0.5700 
 30 N        2.6870    11.3960     1.4940 N.am  1 <1>  -0.7300 
 31 C        4.1230    11.3790     1.8620 C.3   1 <1>   0.0600 
 32 H       -3.7420     2.4440    -1.4960 H     1 <1>   0.0800 
 33 H       -3.2010     3.4250    -2.8300 H     1 <1>   0.0800 
 34 H       -0.7020     3.3650    -3.4710 H     1 <1>   0.0800 
 35 H        0.3630     2.3330    -2.5630 H     1 <1>   0.0800 
 36 H       -2.0700    -0.0780     0.8120 H     1 <1>   0.1500 
 37 H       -3.6570     0.1570    -3.0920 H     1 <1>   0.1500 
 38 H       -2.4830     3.7660     0.0880 H     1 <1>   0.0800 
 39 H       -3.5250     4.8090    -0.8280 H     1 <1>   0.0800 
 40 H        0.6230     4.6950    -1.8860 H     1 <1>   0.0800 
 41 H        0.0890     3.6970    -0.5680 H     1 <1>   0.0800 
 42 H       -5.6310    -1.1240    -2.3850 H     1 <1>   0.1500 
 43 H       -1.6710     5.4760    -2.2660 H     1 <1>   0.0800 
 44 H       -3.3550    -1.7490     3.7200 H     1 <1>   0.0800 
 45 H       -2.8830    -0.2420     2.9460 H     1 <1>   0.0800 
 46 H       -2.1600    -1.7770     2.4290 H     1 <1>   0.0800 
 47 H       -0.7000     7.4380    -1.8430 H     1 <1>   0.3700 
 48 H       -7.4020    -3.1640     0.9620 H     1 <1>   0.0800 
 49 H       -6.5550    -1.8980     1.8430 H     1 <1>   0.0800 
 50 H       -5.6900    -3.3560     1.3240 H     1 <1>   0.0800 
 51 H       -0.6290     8.0520     1.9940 H     1 <1>   0.1500 
 52 H        0.0710     9.9770    -1.7220 H     1 <1>   0.1500 
 53 H        0.1310    12.5670     0.9360 H     1 <1>   0.0800 
 54 H        0.4110    12.3390    -0.7770 H     1 <1>   0.0800 
 55 H        2.0650    10.7710     2.0330 H     1 <1>   0.3700 
 56 H        4.6810    12.0380     1.2180 H     1 <1>   0.0800 
 57 H        4.5120    10.3810     1.7600 H     1 <1>   0.0800 
 58 H        4.2410    11.7050     2.8800 H     1 <1>   0.0800 
@<TRIPOS>BOND
  1   1   2  2   
  2   2   3  am  
  3   2   4  1   
  4   3   5  1   
  5   3   6  1   
  6   4   7  ar  
  7   4   8  ar  
  8   5   9  1   
  9   5  32  1   
 10   5  33  1   
 11   6  10  1   
 12   6  34  1   
 13   6  35  1   
 14   7  11  ar  
 15   7  36  1   
 16   8  12  ar  
 17   8  37  1   
 18   9  13  1   
 19   9  38  1   
 20   9  39  1   
 21  10  13  1   
 22  10  40  1   
 23  10  41  1   
 24  11  14  1   
 25  11  15  ar  
 26  12  15  ar  
 27  12  42  1   
 28  13  16  1   
 29  13  43  1   
 30  14  17  1   
 31  15  18  1   
 32  16  19  2   
 33  16  20  am  
 34  17  44  1   
 35  17  45  1   
 36  17  46  1   
 37  18  21  1   
 38  20  22  1   
 39  20  47  1   
 40  21  48  1   
 41  21  49  1   
 42  21  50  1   
 43  22  23  1   
 44  22  24  2   
 45  23  25  2   
 46  23  51  1   
 47  24  26  1   
 48  24  52  1   
 49  25  26  1   
 50  26  27  1   
 51  27  28  1   
 52  27  53  1   
 53  27  54  1   
 54  28  29  2   
 55  28  30  am  
 56  30  31  1   
 57  30  55  1   
 58  31  56  1   
 59  31  57  1   
 60  31  58  1   
@<TRIPOS>SUBSTRUCTURE
  1 ****  13 GROUP 4 **** **** 0

# MOE 2024.06 (io_trps.svl 2023.06)
