@<TRIPOS>MOLECULE
NONAME
47 49 1 0 0 
SMALL
USER_CHARGES


@<TRIPOS>ATOM
  1 O       -2.1950     0.7250    -1.8480 O.2   1 <1>  -0.5700 
  2 C       -1.9720     0.7640    -0.6520 C.2   1 <1>   0.5440 
  3 N       -1.8190    -0.4140     0.0210 N.am  1 <1>  -0.7300 
  4 C       -1.8980     2.0170     0.0570 C.ar  1 <1>   0.0860 
  5 C       -1.9410    -1.7600    -0.5810 C.3   1 <1>   0.2200 
  6 C       -3.0630     2.6400     0.5210 C.ar  1 <1>   0.0830 
  7 C       -0.6650     2.6340     0.2980 C.ar  1 <1>   0.0830 
  8 C       -3.2860    -2.3920    -0.2500 C.3   1 <1>  -0.0800 
  9 C       -0.9940    -2.7140     0.1350 C.3   1 <1>   0.1200 
 10 O       -4.2440     2.0070     0.3100 O.3   1 <1>  -0.3630 
 11 C       -2.9910     3.8630     1.1810 C.ar  1 <1>  -0.1500 
 12 O        0.4520     1.9960    -0.1320 O.3   1 <1>  -0.3630 
 13 C       -0.6080     3.8570     0.9600 C.ar  1 <1>  -0.1500 
 14 C       -3.0430    -3.0210     1.1250 C.3   1 <1>   0.1200 
 15 C       -4.5020    -1.4480    -0.3050 C.3   1 <1>  -0.0170 
 16 O       -1.6570    -3.0910     1.3050 O.3   1 <1>  -0.5600 
 17 C       -5.4920     2.6250     0.5310 C.3   1 <1>   0.0400 
 18 C       -1.7680     4.4680     1.3970 C.ar  1 <1>  -0.1500 
 19 C        1.7320     2.5860    -0.0860 C.3   1 <1>   0.0400 
 20 C       -5.7980    -2.2110    -0.0750 C.ar  1 <1>  -0.1430 
 21 C       -6.4060    -2.2670     1.1630 C.ar  1 <1>  -0.1500 
 22 C       -6.4310    -2.8870    -1.0970 C.ar  1 <1>  -0.1500 
 23 C       -7.5830    -2.9810     1.3150 C.ar  1 <1>   0.1600 
 24 C       -7.6070    -3.5720    -0.8390 C.ar  1 <1>   0.1600 
 25 N       -8.1980    -3.6370     0.3440 N.ar  1 <1>  -0.6200 
 26 H       -1.6390    -0.4070     1.0260 H     1 <1>   0.3700 
 27 H       -1.7500    -1.7190    -1.6400 H     1 <1>   0.0800 
 28 H       -3.4510    -3.1940    -0.9480 H     1 <1>   0.0800 
 29 H       -0.0510    -2.2580     0.3800 H     1 <1>   0.0800 
 30 H       -0.8330    -3.6010    -0.4520 H     1 <1>   0.0800 
 31 H       -3.8750     4.3580     1.5380 H     1 <1>   0.1500 
 32 H        0.3280     4.3470     1.1490 H     1 <1>   0.1500 
 33 H       -3.4570    -4.0120     1.1900 H     1 <1>   0.0800 
 34 H       -3.4390    -2.4080     1.9160 H     1 <1>   0.0800 
 35 H       -4.5360    -0.9640    -1.2660 H     1 <1>   0.0800 
 36 H       -4.4100    -0.6760     0.4380 H     1 <1>   0.0800 
 37 H       -6.2610     1.9490     0.2030 H     1 <1>   0.0800 
 38 H       -5.5370     3.5340    -0.0430 H     1 <1>   0.0800 
 39 H       -5.6040     2.8240     1.5820 H     1 <1>   0.0800 
 40 H       -1.7180     5.4150     1.9080 H     1 <1>   0.1500 
 41 H        2.4290     1.9060    -0.5430 H     1 <1>   0.0800 
 42 H        2.0050     2.7510     0.9410 H     1 <1>   0.0800 
 43 H        1.7110     3.5100    -0.6350 H     1 <1>   0.0800 
 44 H       -5.9770    -1.7620     2.0080 H     1 <1>   0.1500 
 45 H       -6.0210    -2.8860    -2.0900 H     1 <1>   0.1500 
 46 H       -8.0430    -3.0150     2.2880 H     1 <1>   0.1500 
 47 H       -8.0880    -4.0940    -1.6490 H     1 <1>   0.1500 
@<TRIPOS>BOND
  1   1   2  2   
  2   2   3  am  
  3   2   4  1   
  4   3   5  1   
  5   3  26  1   
  6   4   6  ar  
  7   4   7  ar  
  8   5   8  1   
  9   5   9  1   
 10   5  27  1   
 11   6  10  1   
 12   6  11  ar  
 13   7  12  1   
 14   7  13  ar  
 15   8  14  1   
 16   8  15  1   
 17   8  28  1   
 18   9  16  1   
 19   9  29  1   
 20   9  30  1   
 21  10  17  1   
 22  11  18  ar  
 23  11  31  1   
 24  12  19  1   
 25  13  18  ar  
 26  13  32  1   
 27  14  16  1   
 28  14  33  1   
 29  14  34  1   
 30  15  20  1   
 31  15  35  1   
 32  15  36  1   
 33  17  37  1   
 34  17  38  1   
 35  17  39  1   
 36  18  40  1   
 37  19  41  1   
 38  19  42  1   
 39  19  43  1   
 40  20  21  ar  
 41  20  22  ar  
 42  21  23  ar  
 43  21  44  1   
 44  22  24  ar  
 45  22  45  1   
 46  23  25  ar  
 47  23  46  1   
 48  24  25  ar  
 49  24  47  1   
@<TRIPOS>SUBSTRUCTURE
  1 ****   3 GROUP 4 **** **** 0

# MOE 2024.06 (io_trps.svl 2023.06)
