@<TRIPOS>MOLECULE
NONAME
48 49 1 0 0 
SMALL
USER_CHARGES


@<TRIPOS>ATOM
  1 CL       0.1860    -0.0190     0.5890 Cl    1 <1>  -0.1770 
  2 C       -0.0050    -1.7470     0.3910 C.ar  1 <1>   0.1770 
  3 C        1.0920    -2.5470     0.1060 C.ar  1 <1>  -0.1440 
  4 C       -1.2690    -2.2870     0.5260 C.ar  1 <1>  -0.1500 
  5 C        0.8950    -3.9110    -0.0420 C.ar  1 <1>  -0.1500 
  6 C        2.4820    -1.9450    -0.0410 C.3   1 <1>  -0.0960 
  7 C       -1.4490    -3.6500     0.3740 C.ar  1 <1>  -0.1500 
  8 C       -0.3680    -4.4820     0.0910 C.ar  1 <1>   0.1170 
  9 N       -0.4930    -5.8710    -0.0850 N.am  1 <1>  -0.5470 
 10 C       -1.4480    -6.7360     0.3880 C.2   1 <1>   0.5690 
 11 O       -2.3730    -6.3990     1.0900 O.2   1 <1>  -0.5700 
 12 C       -1.3750    -8.2320     0.0310 C.3   1 <1>   0.4040 
 13 N       -2.6950    -8.9470     0.2300 N.4   1 <1>  -0.9590 
 14 C       -2.5600   -10.4300     0.3990 C.3   1 <1>   0.3430 
 15 C       -3.7060    -8.5670    -0.7930 C.3   1 <1>   0.3430 
 16 C       -3.9070   -11.1690     0.2580 C.3   1 <1>  -0.0800 
 17 C       -5.0960    -8.9910    -0.3050 C.3   1 <1>  -0.1600 
 18 C       -5.0990   -10.2460     0.5900 C.3   1 <1>  -0.1600 
 19 C       -3.8940   -12.4420     1.1210 C.3   1 <1>   0.1400 
 20 N       -5.1220   -13.2290     0.8840 N.am  1 <1>  -0.7300 
 21 C       -5.2850   -14.4130     0.2510 C.2   1 <1>   0.5690 
 22 O       -6.3860   -14.8810     0.1430 O.2   1 <1>  -0.5700 
 23 C       -4.1080   -15.1560    -0.3320 C.3   1 <1>  -0.1790 
 24 H       -2.1010    -1.6420     0.7480 H     1 <1>   0.1500 
 25 H        1.7390    -4.5400    -0.2610 H     1 <1>   0.1500 
 26 H        2.4880    -1.2240    -0.8400 H     1 <1>   0.0800 
 27 H        3.2140    -2.7010    -0.2610 H     1 <1>   0.0800 
 28 H        2.7660    -1.4510     0.8710 H     1 <1>   0.0800 
 29 H       -2.4400    -4.0520     0.4760 H     1 <1>   0.1500 
 30 H        0.2920    -6.2710    -0.5990 H     1 <1>   0.3700 
 31 H       -0.6300    -8.6790     0.6670 H     1 <1>   0.0800 
 32 H       -1.0550    -8.3380    -0.9910 H     1 <1>   0.0800 
 33 H       -3.0730    -8.5500     1.1100 H     1 <1>   0.4500 
 34 H       -2.1470   -10.6300     1.3750 H     1 <1>   0.0800 
 35 H       -1.8750   -10.8240    -0.3350 H     1 <1>   0.0800 
 36 H       -3.4830    -9.0630    -1.7240 H     1 <1>   0.0800 
 37 H       -3.6990    -7.5000    -0.9610 H     1 <1>   0.0800 
 38 H       -3.9960   -11.4830    -0.7680 H     1 <1>   0.0800 
 39 H       -5.7090    -9.1690    -1.1720 H     1 <1>   0.0800 
 40 H       -5.5490    -8.1730     0.2300 H     1 <1>   0.0800 
 41 H       -5.0400    -9.9470     1.6240 H     1 <1>   0.0800 
 42 H       -6.0350   -10.7630     0.4570 H     1 <1>   0.0800 
 43 H       -3.8440   -12.1870     2.1670 H     1 <1>   0.0800 
 44 H       -3.0310   -13.0410     0.8840 H     1 <1>   0.0800 
 45 H       -5.9920   -12.8430     1.2620 H     1 <1>   0.3700 
 46 H       -3.6090   -14.5430    -1.0570 H     1 <1>   0.0800 
 47 H       -4.4540   -16.0510    -0.8160 H     1 <1>   0.0800 
 48 H       -3.4270   -15.4300     0.4510 H     1 <1>   0.0800 
@<TRIPOS>BOND
  1   1   2  1   
  2   2   3  ar  
  3   2   4  ar  
  4   3   5  ar  
  5   3   6  1   
  6   4   7  ar  
  7   4  24  1   
  8   5   8  ar  
  9   5  25  1   
 10   6  26  1   
 11   6  27  1   
 12   6  28  1   
 13   7   8  ar  
 14   7  29  1   
 15   8   9  1   
 16   9  10  am  
 17   9  30  1   
 18  10  11  2   
 19  10  12  1   
 20  12  13  1   
 21  12  31  1   
 22  12  32  1   
 23  13  14  1   
 24  13  15  1   
 25  13  33  1   
 26  14  16  1   
 27  14  34  1   
 28  14  35  1   
 29  15  17  1   
 30  15  36  1   
 31  15  37  1   
 32  16  18  1   
 33  16  19  1   
 34  16  38  1   
 35  17  18  1   
 36  17  39  1   
 37  17  40  1   
 38  18  41  1   
 39  18  42  1   
 40  19  20  1   
 41  19  43  1   
 42  19  44  1   
 43  20  21  am  
 44  20  45  1   
 45  21  22  2   
 46  21  23  1   
 47  23  46  1   
 48  23  47  1   
 49  23  48  1   
@<TRIPOS>SUBSTRUCTURE
  1 ****  12 GROUP 4 **** **** 0

# MOE 2024.06 (io_trps.svl 2023.06)
