@<TRIPOS>MOLECULE
NONAME
48 50 1 0 0 
SMALL
USER_CHARGES


@<TRIPOS>ATOM
  1 S       -0.1740    -0.0930    -0.0980 S.o2  1 <1>   1.3330 
  2 O       -0.5240    -0.4020     1.2700 O.2   1 <1>  -0.6500 
  3 O       -0.8180     1.0150    -0.7650 O.2   1 <1>  -0.6500 
  4 N       -0.4310    -1.4930    -1.0250 N.am  1 <1>  -0.8490 
  5 C        1.5980     0.1470    -0.2390 C.3   1 <1>  -0.0550 
  6 C       -1.7630    -1.5180    -1.6370 C.3   1 <1>   0.1160 
  7 C       -0.2020    -2.7350    -0.2780 C.3   1 <1>   0.1160 
  8 C        2.1120     1.4120     0.4800 C.3   1 <1>  -0.0800 
  9 C        3.5640     1.6890     0.1300 C.3   1 <1>   0.2200 
 10 C        2.1930     1.2120     1.9970 C.3   1 <1>   0.1200 
 11 N        3.8640     3.1160     0.3830 N.am  1 <1>  -0.7300 
 12 C        4.3050     0.8250     1.1450 C.3   1 <1>   0.1200 
 13 O        3.4770     0.7330     2.2680 O.3   1 <1>  -0.5600 
 14 C        4.3620     4.0020    -0.5180 C.2   1 <1>   0.7150 
 15 O        4.5620     3.6220    -1.6550 O.2   1 <1>  -0.5700 
 16 C        4.6410     5.3500    -0.0840 C.2   1 <1>  -0.2370 
 17 N        5.3410     6.2910    -0.8200 N.pl3 1 <1>   0.0480 
 18 C        4.2790     5.9380     1.0960 C.2   1 <1>  -0.1500 
 19 C        5.4100     7.4570    -0.0930 C.ar  1 <1>  -0.1520 
 20 C        5.9420     6.0950    -2.1580 C.3   1 <1>   0.0160 
 21 C        4.7510     7.2580     1.1140 C.ar  1 <1>   0.0000 
 22 C        5.9960     8.6970    -0.3770 C.ar  1 <1>  -0.1500 
 23 C        4.6720     8.2950     2.0520 C.ar  1 <1>  -0.1500 
 24 C        5.9130     9.7090     0.5500 C.ar  1 <1>  -0.1500 
 25 C        5.2500     9.5090     1.7680 C.ar  1 <1>  -0.1500 
 26 H        2.1070    -0.7160     0.1440 H     1 <1>   0.0800 
 27 H        1.8340     0.2290    -1.2820 H     1 <1>   0.0800 
 28 H       -1.8860    -2.4090    -2.2280 H     1 <1>   0.0800 
 29 H       -1.8880    -0.6670    -2.2850 H     1 <1>   0.0800 
 30 H       -2.5250    -1.4880    -0.8760 H     1 <1>   0.0800 
 31 H       -0.2870    -3.5830    -0.9360 H     1 <1>   0.0800 
 32 H       -0.9240    -2.8360     0.5170 H     1 <1>   0.0800 
 33 H        0.7850    -2.7360     0.1510 H     1 <1>   0.0800 
 34 H        1.4810     2.2450     0.2210 H     1 <1>   0.0800 
 35 H        3.8150     1.4250    -0.8840 H     1 <1>   0.0800 
 36 H        1.4730     0.5130     2.3840 H     1 <1>   0.0800 
 37 H        2.0830     2.1520     2.5090 H     1 <1>   0.0800 
 38 H        3.8040     3.4080     1.3580 H     1 <1>   0.3700 
 39 H        5.2550     1.2430     1.4290 H     1 <1>   0.0800 
 40 H        4.4460    -0.1710     0.7640 H     1 <1>   0.0800 
 41 H        3.7190     5.5080     1.9060 H     1 <1>   0.1500 
 42 H        6.5780     5.2300    -2.1380 H     1 <1>   0.0800 
 43 H        6.5220     6.9530    -2.4370 H     1 <1>   0.0800 
 44 H        5.1580     5.9450    -2.8770 H     1 <1>   0.0800 
 45 H        6.5040     8.8580    -1.3100 H     1 <1>   0.1500 
 46 H        4.1590     8.1230     2.9800 H     1 <1>   0.1500 
 47 H        6.3570    10.6690     0.3500 H     1 <1>   0.1500 
 48 H        5.1990    10.3170     2.4760 H     1 <1>   0.1500 
@<TRIPOS>BOND
  1   1   2  2   
  2   1   3  2   
  3   1   4  am  
  4   1   5  1   
  5   4   6  1   
  6   4   7  1   
  7   5   8  1   
  8   5  26  1   
  9   5  27  1   
 10   6  28  1   
 11   6  29  1   
 12   6  30  1   
 13   7  31  1   
 14   7  32  1   
 15   7  33  1   
 16   8   9  1   
 17   8  10  1   
 18   8  34  1   
 19   9  11  1   
 20   9  12  1   
 21   9  35  1   
 22  10  13  1   
 23  10  36  1   
 24  10  37  1   
 25  11  14  am  
 26  11  38  1   
 27  12  13  1   
 28  12  39  1   
 29  12  40  1   
 30  14  15  2   
 31  14  16  1   
 32  16  17  1   
 33  16  18  2   
 34  17  19  1   
 35  17  20  1   
 36  18  21  1   
 37  18  41  1   
 38  19  21  ar  
 39  19  22  ar  
 40  20  42  1   
 41  20  43  1   
 42  20  44  1   
 43  21  23  ar  
 44  22  24  ar  
 45  22  45  1   
 46  23  25  ar  
 47  23  46  1   
 48  24  25  ar  
 49  24  47  1   
 50  25  48  1   
@<TRIPOS>SUBSTRUCTURE
  1 ****  11 GROUP 4 **** **** 0

# MOE 2024.06 (io_trps.svl 2023.06)
