@<TRIPOS>MOLECULE
NONAME
42 43 1 0 0 
SMALL
USER_CHARGES


@<TRIPOS>ATOM
  1 S       -0.8280    -0.2070     1.1870 S.3   1 <1>  -0.0800 
  2 C       -1.3190    -1.0120    -0.2690 C.2   1 <1>   0.4420 
  3 C       -0.6350     1.2260     0.2410 C.2   1 <1>   0.1980 
  4 N       -1.3070    -0.2210    -1.2820 N.2   1 <1>  -0.3380 
  5 N       -1.6450    -2.3440    -0.1540 N.am  1 <1>  -0.4940 
  6 N       -0.9170     1.0530    -0.9840 N.2   1 <1>  -0.3380 
  7 C       -0.1710     2.4920     0.9240 C.3   1 <1>   0.0200 
  8 C       -2.0630    -3.2590    -1.0900 C.2   1 <1>   0.6160 
  9 C       -0.0480     3.6010    -0.1270 C.3   1 <1>   0.3430 
 10 O       -2.1850    -2.8910    -2.2420 O.2   1 <1>  -0.5700 
 11 C       -2.3600    -4.6350    -0.7500 C.2   1 <1>   0.0290 
 12 N        0.4690     4.8940     0.4350 N.4   1 <1>  -0.9590 
 13 C       -2.2300    -5.1240     0.5980 C.2   1 <1>   0.6160 
 14 C       -2.7800    -5.5240    -1.7110 C.2   1 <1>  -0.1500 
 15 C       -0.5120     5.5530     1.3560 C.3   1 <1>   0.2630 
 16 C        0.8180     5.8220    -0.6860 C.3   1 <1>   0.2630 
 17 O       -1.8600    -4.3930     1.5150 O.2   1 <1>  -0.5700 
 18 N       -2.5260    -6.4600     0.8850 N.am  1 <1>  -0.4690 
 19 C       -3.0710    -6.8600    -1.3920 C.2   1 <1>  -0.1500 
 20 C       -2.9450    -7.3140    -0.1160 C.2   1 <1>  -0.0290 
 21 C       -2.3890    -6.9650     2.2890 C.3   1 <1>   0.0600 
 22 C       -3.2650    -8.7670     0.2110 C.3   1 <1>  -0.1020 
 23 H       -1.5670    -2.7390     0.7890 H     1 <1>   0.3700 
 24 H        0.7830     2.3070     1.3830 H     1 <1>   0.0800 
 25 H       -0.8910     2.7560     1.6760 H     1 <1>   0.0800 
 26 H       -1.0110     3.7600    -0.5860 H     1 <1>   0.0800 
 27 H        0.6210     3.2550    -0.9000 H     1 <1>   0.0800 
 28 H        1.3380     4.7000     0.9590 H     1 <1>   0.4500 
 29 H       -2.8960    -5.2140    -2.7380 H     1 <1>   0.1500 
 30 H       -1.4360     5.7550     0.8380 H     1 <1>   0.0800 
 31 H       -0.1130     6.4860     1.7220 H     1 <1>   0.0800 
 32 H       -0.7240     4.9200     2.2020 H     1 <1>   0.0800 
 33 H       -0.0600     6.0510    -1.2700 H     1 <1>   0.0800 
 34 H        1.5510     5.3690    -1.3340 H     1 <1>   0.0800 
 35 H        1.2250     6.7420    -0.3000 H     1 <1>   0.0800 
 36 H       -3.3950    -7.5080    -2.1890 H     1 <1>   0.1500 
 37 H       -2.0580    -6.1960     2.9640 H     1 <1>   0.0800 
 38 H       -1.6710    -7.7650     2.3160 H     1 <1>   0.0800 
 39 H       -3.3400    -7.3270     2.6370 H     1 <1>   0.0800 
 40 H       -4.0640    -8.8220     0.9280 H     1 <1>   0.0800 
 41 H       -2.3960    -9.2610     0.6070 H     1 <1>   0.0800 
 42 H       -3.5740    -9.2970    -0.6720 H     1 <1>   0.0800 
@<TRIPOS>BOND
  1   1   2  1   
  2   1   3  1   
  3   2   4  2   
  4   2   5  1   
  5   3   6  2   
  6   3   7  1   
  7   4   6  1   
  8   5   8  am  
  9   5  23  1   
 10   7   9  1   
 11   7  24  1   
 12   7  25  1   
 13   8  10  2   
 14   8  11  1   
 15   9  12  1   
 16   9  26  1   
 17   9  27  1   
 18  11  13  1   
 19  11  14  2   
 20  12  15  1   
 21  12  16  1   
 22  12  28  1   
 23  13  17  2   
 24  13  18  am  
 25  14  19  1   
 26  14  29  1   
 27  15  30  1   
 28  15  31  1   
 29  15  32  1   
 30  16  33  1   
 31  16  34  1   
 32  16  35  1   
 33  18  20  1   
 34  18  21  1   
 35  19  20  2   
 36  19  36  1   
 37  20  22  1   
 38  21  37  1   
 39  21  38  1   
 40  21  39  1   
 41  22  40  1   
 42  22  41  1   
 43  22  42  1   
@<TRIPOS>SUBSTRUCTURE
  1 ****   5 GROUP 4 **** **** 0

# MOE 2024.06 (io_trps.svl 2023.06)
