@<TRIPOS>MOLECULE
NONAME
45 47 1 0 0 
SMALL
USER_CHARGES


@<TRIPOS>ATOM
  1 O        0.3650    -3.9020    -1.8350 O.2   1 <1>  -0.5700 
  2 C        0.1620    -3.0260    -1.0040 C.2   1 <1>   0.6900 
  3 N        0.1800    -3.2030     0.3520 N.am  1 <1>  -0.4690 
  4 N       -0.1890    -1.7540    -1.2810 N.am  1 <1>  -0.5390 
  5 C       -0.1460    -1.9700     0.9170 C.2   1 <1>  -0.0410 
  6 C        0.7360    -4.3660     1.0900 C.3   1 <1>   0.1400 
  7 C       -0.3750    -1.0930    -0.0750 C.2   1 <1>  -0.0410 
  8 C        0.4160    -5.7410     0.4570 C.3   1 <1>   0.3430 
  9 N       -1.0300    -6.1650     0.5180 N.4   1 <1>  -0.9590 
 10 C       -1.1300    -7.6190     0.1990 C.3   1 <1>   0.3430 
 11 C       -1.8980    -5.3590    -0.3970 C.3   1 <1>   0.3430 
 12 C       -2.5690    -8.1000     0.3540 C.3   1 <1>  -0.1600 
 13 C       -3.3530    -5.7890    -0.2590 C.3   1 <1>  -0.1600 
 14 C       -3.5170    -7.2820    -0.5250 C.3   1 <1>   0.2000 
 15 O       -4.8170    -7.6020    -0.1780 O.3   1 <1>  -0.5600 
 16 C       -5.3890    -8.6720    -0.8880 C.3   1 <1>   0.2630 
 17 C       -6.7510    -9.0730    -0.3290 C.ar  1 <1>   0.1670 
 18 N       -7.1990   -10.2540    -0.7350 N.ar  1 <1>  -0.6200 
 19 C       -7.4520    -8.2400     0.5350 C.ar  1 <1>  -0.1500 
 20 C       -8.3810   -10.6170    -0.2610 C.ar  1 <1>   0.1600 
 21 C       -8.6810    -8.6320     1.0200 C.ar  1 <1>  -0.1500 
 22 C       -9.1500    -9.8580     0.6040 C.ar  1 <1>  -0.1500 
 23 H       -0.2340    -1.3830    -2.2310 H     1 <1>   0.3700 
 24 H       -0.1820    -1.8140     1.9830 H     1 <1>   0.1500 
 25 H        0.3840    -4.3450     2.1060 H     1 <1>   0.0800 
 26 H        1.8060    -4.2490     1.1160 H     1 <1>   0.0800 
 27 H       -0.6480    -0.0500    -0.0290 H     1 <1>   0.1500 
 28 H        1.0060    -6.4730     0.9840 H     1 <1>   0.0800 
 29 H        0.7560    -5.7450    -0.5660 H     1 <1>   0.0800 
 30 H       -1.3840    -6.0250     1.4740 H     1 <1>   0.4500 
 31 H       -0.4940    -8.1860     0.8590 H     1 <1>   0.0800 
 32 H       -0.8020    -7.7900    -0.8140 H     1 <1>   0.0800 
 33 H       -1.5700    -5.4820    -1.4180 H     1 <1>   0.0800 
 34 H       -1.8310    -4.3130    -0.1490 H     1 <1>   0.0800 
 35 H       -2.8630    -8.0190     1.3860 H     1 <1>   0.0800 
 36 H       -2.6170    -9.1360     0.0730 H     1 <1>   0.0800 
 37 H       -3.9480    -5.2370    -0.9650 H     1 <1>   0.0800 
 38 H       -3.7010    -5.5500     0.7300 H     1 <1>   0.0800 
 39 H       -3.3590    -7.4870    -1.5720 H     1 <1>   0.0800 
 40 H       -4.7310    -9.5210    -0.8280 H     1 <1>   0.0800 
 41 H       -5.5010    -8.3810    -1.9180 H     1 <1>   0.0800 
 42 H       -7.0430    -7.2900     0.8280 H     1 <1>   0.1500 
 43 H       -8.7580   -11.5740    -0.5800 H     1 <1>   0.1500 
 44 H       -9.2460    -8.0090     1.6920 H     1 <1>   0.1500 
 45 H      -10.1000   -10.2250     0.9450 H     1 <1>   0.1500 
@<TRIPOS>BOND
  1   1   2  2   
  2   2   3  am  
  3   2   4  am  
  4   3   5  1   
  5   3   6  1   
  6   4   7  1   
  7   4  23  1   
  8   5   7  2   
  9   5  24  1   
 10   6   8  1   
 11   6  25  1   
 12   6  26  1   
 13   7  27  1   
 14   8   9  1   
 15   8  28  1   
 16   8  29  1   
 17   9  10  1   
 18   9  11  1   
 19   9  30  1   
 20  10  12  1   
 21  10  31  1   
 22  10  32  1   
 23  11  13  1   
 24  11  33  1   
 25  11  34  1   
 26  12  14  1   
 27  12  35  1   
 28  12  36  1   
 29  13  14  1   
 30  13  37  1   
 31  13  38  1   
 32  14  15  1   
 33  14  39  1   
 34  15  16  1   
 35  16  17  1   
 36  16  40  1   
 37  16  41  1   
 38  17  18  ar  
 39  17  19  ar  
 40  18  20  ar  
 41  19  21  ar  
 42  19  42  1   
 43  20  22  ar  
 44  20  43  1   
 45  21  22  ar  
 46  21  44  1   
 47  22  45  1   
@<TRIPOS>SUBSTRUCTURE
  1 ****  13 GROUP 4 **** **** 0

# MOE 2024.06 (io_trps.svl 2023.06)
