@<TRIPOS>MOLECULE
NONAME
51 53 1 0 0 
SMALL
USER_CHARGES


@<TRIPOS>ATOM
  1 O        1.6170    -0.3890     1.6760 O.2   1 <1>  -0.5700 
  2 C        1.9550    -0.7620     0.5670 C.2   1 <1>   0.5440 
  3 N        2.4150     0.1520    -0.3460 N.am  1 <1>  -0.4930 
  4 C        1.8560    -2.1590     0.2030 C.ar  1 <1>   0.0860 
  5 C        2.6430     1.5430    -0.1910 C.2   1 <1>   0.0630 
  6 C        0.8530    -2.9710     0.7380 C.ar  1 <1>  -0.1500 
  7 C        2.7450    -2.7610    -0.6930 C.ar  1 <1>  -0.1500 
  8 C        2.5090     2.3470     0.9430 C.2   1 <1>   0.1390 
  9 C        3.0590     2.3880    -1.1560 C.2   1 <1>  -0.3020 
 10 C        0.7330    -4.3020     0.3900 C.ar  1 <1>  -0.1500 
 11 C        2.6240    -4.0910    -1.0440 C.ar  1 <1>  -0.1500 
 12 N        2.8190     3.5890     0.7080 N.2   1 <1>  -0.7070 
 13 N        3.1570     3.6150    -0.5970 N.pl3 1 <1>   0.3140 
 14 C        1.6170    -4.8860    -0.5110 C.ar  1 <1>   0.1000 
 15 C        3.5830     4.8560    -1.2590 C.3   1 <1>   0.1570 
 16 N        1.5190    -6.2220    -0.8730 N.pl3 1 <1>  -0.8380 
 17 C        5.0290     5.1500    -0.9300 C.2   1 <1>   0.5690 
 18 C        2.6630    -7.1470    -0.6140 C.3   1 <1>   0.2090 
 19 C        0.2040    -6.8540    -1.1960 C.3   1 <1>   0.2090 
 20 O        5.7620     5.4920    -1.8270 O.2   1 <1>  -0.5700 
 21 N        5.4620     5.0350     0.3550 N.am  1 <1>  -0.7300 
 22 C        2.2630    -8.2670     0.3720 C.3   1 <1>   0.3430 
 23 C       -0.1360    -7.9850    -0.2000 C.3   1 <1>   0.3430 
 24 C        6.8400     5.2880     0.8400 C.3   1 <1>   0.0600 
 25 N        0.9920    -8.9770    -0.0340 N.4   1 <1>  -0.9590 
 26 C        0.6340   -10.0460     0.9460 C.3   1 <1>   0.2630 
 27 H        2.5730    -0.2000    -1.2880 H     1 <1>   0.3700 
 28 H        0.1620    -2.5380     1.4420 H     1 <1>   0.1500 
 29 H        3.5480    -2.1840    -1.1160 H     1 <1>   0.1500 
 30 H        2.1870     1.9840     1.9050 H     1 <1>   0.1500 
 31 H        3.2900     2.1920    -2.1860 H     1 <1>   0.1500 
 32 H       -0.0490    -4.8890     0.8300 H     1 <1>   0.1500 
 33 H        3.3140    -4.5250    -1.7440 H     1 <1>   0.1500 
 34 H        2.9680     5.6630    -0.9120 H     1 <1>   0.0800 
 35 H        3.4660     4.7500    -2.3200 H     1 <1>   0.0800 
 36 H        3.4900    -6.5950    -0.2000 H     1 <1>   0.0800 
 37 H        2.9890    -7.5780    -1.5450 H     1 <1>   0.0800 
 38 H        0.2430    -7.2530    -2.1940 H     1 <1>   0.0800 
 39 H       -0.5750    -6.1110    -1.1790 H     1 <1>   0.0800 
 40 H        4.7940     4.6510     1.0430 H     1 <1>   0.3700 
 41 H        2.1290    -7.8200     1.3430 H     1 <1>   0.0800 
 42 H        3.0720    -8.9740     0.4440 H     1 <1>   0.0800 
 43 H       -1.0240    -8.4930    -0.5380 H     1 <1>   0.0800 
 44 H       -0.3580    -7.5340     0.7530 H     1 <1>   0.0800 
 45 H        7.4570     5.6570     0.0370 H     1 <1>   0.0800 
 46 H        7.2660     4.3740     1.2150 H     1 <1>   0.0800 
 47 H        6.8200     6.0200     1.6280 H     1 <1>   0.0800 
 48 H        1.1610    -9.4070    -0.9550 H     1 <1>   0.4500 
 49 H        0.4540    -9.6180     1.9190 H     1 <1>   0.0800 
 50 H        1.4360   -10.7630     1.0280 H     1 <1>   0.0800 
 51 H       -0.2560   -10.5650     0.6270 H     1 <1>   0.0800 
@<TRIPOS>BOND
  1   1   2  2   
  2   2   3  am  
  3   2   4  1   
  4   3   5  1   
  5   3  27  1   
  6   4   6  ar  
  7   4   7  ar  
  8   5   8  1   
  9   5   9  2   
 10   6  10  ar  
 11   6  28  1   
 12   7  11  ar  
 13   7  29  1   
 14   8  12  2   
 15   8  30  1   
 16   9  13  1   
 17   9  31  1   
 18  10  14  ar  
 19  10  32  1   
 20  11  14  ar  
 21  11  33  1   
 22  12  13  1   
 23  13  15  1   
 24  14  16  1   
 25  15  17  1   
 26  15  34  1   
 27  15  35  1   
 28  16  18  1   
 29  16  19  1   
 30  17  20  2   
 31  17  21  am  
 32  18  22  1   
 33  18  36  1   
 34  18  37  1   
 35  19  23  1   
 36  19  38  1   
 37  19  39  1   
 38  21  24  1   
 39  21  40  1   
 40  22  25  1   
 41  22  41  1   
 42  22  42  1   
 43  23  25  1   
 44  23  43  1   
 45  23  44  1   
 46  24  45  1   
 47  24  46  1   
 48  24  47  1   
 49  25  26  1   
 50  25  48  1   
 51  26  49  1   
 52  26  50  1   
 53  26  51  1   
@<TRIPOS>SUBSTRUCTURE
  1 ****   4 GROUP 4 **** **** 0

# MOE 2024.06 (io_trps.svl 2023.06)
