@<TRIPOS>MOLECULE
NONAME
56 58 1 0 0 
SMALL
USER_CHARGES


@<TRIPOS>ATOM
  1 S        1.1480    -0.9850    -0.7650 S.3   1 <1>  -0.4600 
  2 C       -0.6030    -1.4720    -0.9560 C.3   1 <1>   0.1310 
  3 C        1.2570    -0.5360     0.9870 C.3   1 <1>   0.0700 
  4 C       -0.9740    -2.6290    -0.0290 C.2   1 <1>   0.5690 
  5 C        2.7020    -0.1360     1.2690 C.3   1 <1>  -0.2400 
  6 O       -1.8160    -2.4020     0.8080 O.2   1 <1>  -0.5700 
  7 N       -0.3870    -3.8700    -0.1350 N.am  1 <1>  -0.6600 
  8 C       -0.7300    -4.9370     0.8580 C.3   1 <1>   0.2200 
  9 C        0.5870    -4.2080    -1.2080 C.3   1 <1>   0.1400 
 10 C        0.5110    -5.7130     1.3730 C.3   1 <1>   0.1200 
 11 C       -1.8890    -5.8100     0.3240 C.3   1 <1>   0.1100 
 12 C        0.5950    -5.6890    -1.6070 C.3   1 <1>  -0.0800 
 13 O        0.8810    -6.8170     0.5890 O.3   1 <1>  -0.5600 
 14 N       -1.5270    -6.7480    -0.7640 N.3   1 <1>  -0.8100 
 15 C        1.4650    -6.5420    -0.6530 C.3   1 <1>   0.1200 
 16 C       -0.8120    -6.2370    -1.9400 C.3   1 <1>   0.1100 
 17 C       -2.4360    -7.9030    -0.9570 C.3   1 <1>   0.2540 
 18 C       -1.9360    -9.1240    -0.1650 C.cat 1 <1>   0.6560 
 19 N       -0.7970    -9.1080     0.5000 N.pl3 1 <1>  -0.7000 
 20 N       -2.5200   -10.3170    -0.0250 N.pl3 1 <1>  -0.7640 
 21 C       -0.6160   -10.3160     1.0950 C.2   1 <1>   0.1820 
 22 C       -1.6890   -11.0760     0.7720 C.2   1 <1>   0.1820 
 23 C       -3.8140   -10.7750    -0.6010 C.3   1 <1>   0.2740 
 24 C        0.6190   -10.5830     1.9310 C.3   1 <1>  -0.0720 
 25 C       -2.0170   -12.5080     1.1580 C.3   1 <1>  -0.0720 
 26 H       -1.1940    -0.6060    -0.7200 H     1 <1>   0.0800 
 27 H       -0.7570    -1.7370    -1.9840 H     1 <1>   0.0800 
 28 H        0.5760     0.2800     1.1580 H     1 <1>   0.0800 
 29 H        0.9640    -1.3940     1.5670 H     1 <1>   0.0800 
 30 H        2.9800     0.7020     0.6540 H     1 <1>   0.0800 
 31 H        3.3620    -0.9590     1.0600 H     1 <1>   0.0800 
 32 H        2.8110     0.1410     2.3010 H     1 <1>   0.0800 
 33 H       -1.1160    -4.4400     1.7300 H     1 <1>   0.0800 
 34 H        0.3540    -3.6350    -2.0870 H     1 <1>   0.0800 
 35 H        1.5720    -3.9140    -0.8870 H     1 <1>   0.0800 
 36 H        0.2780    -6.1060     2.3460 H     1 <1>   0.0800 
 37 H        1.3550    -5.0530     1.4790 H     1 <1>   0.0800 
 38 H       -2.6820    -5.1620    -0.0090 H     1 <1>   0.0800 
 39 H       -2.2660    -6.3800     1.1540 H     1 <1>   0.0800 
 40 H        1.1290    -5.7000    -2.5400 H     1 <1>   0.0800 
 41 H        2.4110    -6.0600    -0.4740 H     1 <1>   0.0800 
 42 H        1.6630    -7.4930    -1.1160 H     1 <1>   0.0800 
 43 H       -0.6850    -7.0430    -2.6430 H     1 <1>   0.0800 
 44 H       -1.4040    -5.4750    -2.4200 H     1 <1>   0.0800 
 45 H       -3.4270    -7.6450    -0.6300 H     1 <1>   0.0800 
 46 H       -2.4820    -8.1670    -1.9980 H     1 <1>   0.0800 
 47 H       -0.1950    -8.2590     0.5130 H     1 <1>   0.4500 
 48 H       -3.6490   -11.6320    -1.2320 H     1 <1>   0.0800 
 49 H       -4.2690    -9.9970    -1.1890 H     1 <1>   0.0800 
 50 H       -4.4890   -11.0490     0.1910 H     1 <1>   0.0800 
 51 H        0.6090   -11.5810     2.3280 H     1 <1>   0.0800 
 52 H        0.6630    -9.8860     2.7480 H     1 <1>   0.0800 
 53 H        1.5000   -10.4610     1.3260 H     1 <1>   0.0800 
 54 H       -1.2460   -12.9220     1.7800 H     1 <1>   0.0800 
 55 H       -2.1050   -13.1160     0.2760 H     1 <1>   0.0800 
 56 H       -2.9440   -12.5390     1.7010 H     1 <1>   0.0800 
@<TRIPOS>BOND
  1   1   2  1   
  2   1   3  1   
  3   2   4  1   
  4   2  26  1   
  5   2  27  1   
  6   3   5  1   
  7   3  28  1   
  8   3  29  1   
  9   4   6  2   
 10   4   7  am  
 11   5  30  1   
 12   5  31  1   
 13   5  32  1   
 14   7   8  1   
 15   7   9  1   
 16   8  10  1   
 17   8  11  1   
 18   8  33  1   
 19   9  12  1   
 20   9  34  1   
 21   9  35  1   
 22  10  13  1   
 23  10  36  1   
 24  10  37  1   
 25  11  14  1   
 26  11  38  1   
 27  11  39  1   
 28  12  15  1   
 29  12  16  1   
 30  12  40  1   
 31  13  15  1   
 32  14  16  1   
 33  14  17  1   
 34  15  41  1   
 35  15  42  1   
 36  16  43  1   
 37  16  44  1   
 38  17  18  1   
 39  17  45  1   
 40  17  46  1   
 41  18  19  ar  
 42  18  20  ar  
 43  19  21  1   
 44  19  47  1   
 45  20  22  1   
 46  20  23  1   
 47  21  22  2   
 48  21  24  1   
 49  22  25  1   
 50  23  48  1   
 51  23  49  1   
 52  23  50  1   
 53  24  51  1   
 54  24  52  1   
 55  24  53  1   
 56  25  54  1   
 57  25  55  1   
 58  25  56  1   
@<TRIPOS>SUBSTRUCTURE
  1 ****  14 GROUP 4 **** **** 0

# MOE 2024.06 (io_trps.svl 2023.06)
