@<TRIPOS>MOLECULE
NONAME
50 51 1 0 0 
SMALL
USER_CHARGES


@<TRIPOS>ATOM
  1 F       -1.1030     1.2090    -0.3280 F     1 <1>  -0.1900 
  2 C       -1.7070     2.2180     0.2440 C.ar  1 <1>   0.1900 
  3 C       -1.2740     3.5120    -0.0080 C.ar  1 <1>  -0.1440 
  4 C       -2.7740     1.9410     1.0780 C.ar  1 <1>  -0.1500 
  5 C       -1.9580     4.5540     0.6040 C.ar  1 <1>  -0.1500 
  6 C       -0.0960     3.7930    -0.9310 C.3   1 <1>   0.2540 
  7 C       -3.4410     2.9920     1.6830 C.ar  1 <1>  -0.1500 
  8 C       -3.0320     4.2950     1.4430 C.ar  1 <1>  -0.1500 
  9 N        1.1950     3.6070    -0.2360 N.3   1 <1>  -0.8100 
 10 C        2.3230     3.6380    -1.2130 C.3   1 <1>   0.1710 
 11 C        1.3800     4.5640     0.8610 C.3   1 <1>   0.0300 
 12 C        2.5450     4.9670    -1.9660 C.2   1 <1>   0.5690 
 13 O        1.8710     5.1440    -2.9570 O.2   1 <1>  -0.5700 
 14 N        3.4670     5.9100    -1.5570 N.am  1 <1>  -0.6600 
 15 C        3.6390     7.1830    -2.3120 C.3   1 <1>   0.1400 
 16 C        4.3990     5.7790    -0.4020 C.3   1 <1>   0.1400 
 17 C        3.4400     8.3780    -1.3740 C.3   1 <1>  -0.1600 
 18 C        4.2210     6.9630     0.5530 C.3   1 <1>  -0.1600 
 19 C        4.3850     8.3160    -0.1600 C.3   1 <1>  -0.0800 
 20 C        4.1300     9.4630     0.8360 C.3   1 <1>  -0.1600 
 21 C        4.4110    10.8470     0.2500 C.3   1 <1>   0.1200 
 22 O        4.2510    11.7750     1.2700 O.3   1 <1>  -0.5600 
 23 C        4.4820    13.0900     0.8810 C.3   1 <1>   0.0400 
 24 H       -3.0720     0.9220     1.2460 H     1 <1>   0.1500 
 25 H       -1.6540     5.5710     0.4300 H     1 <1>   0.1500 
 26 H       -0.1650     4.7970    -1.3140 H     1 <1>   0.0800 
 27 H       -0.1480     3.1210    -1.7710 H     1 <1>   0.0800 
 28 H       -4.2740     2.7990     2.3360 H     1 <1>   0.1500 
 29 H       -3.5520     5.1130     1.9120 H     1 <1>   0.1500 
 30 H        2.1370     2.8840    -1.9570 H     1 <1>   0.0800 
 31 H        3.2240     3.3390    -0.7160 H     1 <1>   0.0800 
 32 H        0.6190     4.4200     1.6080 H     1 <1>   0.0800 
 33 H        1.3250     5.5750     0.4950 H     1 <1>   0.0800 
 34 H        2.3340     4.4040     1.3310 H     1 <1>   0.0800 
 35 H        2.9350     7.2490    -3.1230 H     1 <1>   0.0800 
 36 H        4.6290     7.2090    -2.7330 H     1 <1>   0.0800 
 37 H        5.4100     5.7650    -0.7740 H     1 <1>   0.0800 
 38 H        4.2360     4.8670     0.1390 H     1 <1>   0.0800 
 39 H        2.4150     8.3870    -1.0440 H     1 <1>   0.0800 
 40 H        3.6120     9.2770    -1.9360 H     1 <1>   0.0800 
 41 H        4.9460     6.8830     1.3440 H     1 <1>   0.0800 
 42 H        3.2460     6.9060     1.0010 H     1 <1>   0.0800 
 43 H        5.4010     8.3880    -0.5130 H     1 <1>   0.0800 
 44 H        4.7700     9.3300     1.6910 H     1 <1>   0.0800 
 45 H        3.1090     9.4300     1.1730 H     1 <1>   0.0800 
 46 H        3.7160    11.0830    -0.5380 H     1 <1>   0.0800 
 47 H        5.4220    10.9070    -0.1160 H     1 <1>   0.0800 
 48 H        4.3320    13.7220     1.7380 H     1 <1>   0.0800 
 49 H        3.7870    13.3590     0.1060 H     1 <1>   0.0800 
 50 H        5.4970    13.1850     0.5340 H     1 <1>   0.0800 
@<TRIPOS>BOND
  1   1   2  1   
  2   2   3  ar  
  3   2   4  ar  
  4   3   5  ar  
  5   3   6  1   
  6   4   7  ar  
  7   4  24  1   
  8   5   8  ar  
  9   5  25  1   
 10   6   9  1   
 11   6  26  1   
 12   6  27  1   
 13   7   8  ar  
 14   7  28  1   
 15   8  29  1   
 16   9  10  1   
 17   9  11  1   
 18  10  12  1   
 19  10  30  1   
 20  10  31  1   
 21  11  32  1   
 22  11  33  1   
 23  11  34  1   
 24  12  13  2   
 25  12  14  am  
 26  14  15  1   
 27  14  16  1   
 28  15  17  1   
 29  15  35  1   
 30  15  36  1   
 31  16  18  1   
 32  16  37  1   
 33  16  38  1   
 34  17  19  1   
 35  17  39  1   
 36  17  40  1   
 37  18  19  1   
 38  18  41  1   
 39  18  42  1   
 40  19  20  1   
 41  19  43  1   
 42  20  21  1   
 43  20  44  1   
 44  20  45  1   
 45  21  22  1   
 46  21  46  1   
 47  21  47  1   
 48  22  23  1   
 49  23  48  1   
 50  23  49  1   
 51  23  50  1   
@<TRIPOS>SUBSTRUCTURE
  1 ****  11 GROUP 4 **** **** 0

# MOE 2024.06 (io_trps.svl 2023.06)
