@<TRIPOS>MOLECULE
NONAME
53 54 1 0 0 
SMALL
USER_CHARGES


@<TRIPOS>ATOM
  1 O       -0.1680    -0.6750     0.8870 O.2   1 <1>  -0.5700 
  2 C        0.4790    -1.4770     0.2520 C.2   1 <1>   0.5690 
  3 N        1.5420    -1.0940    -0.5050 N.am  1 <1>  -0.7300 
  4 C        0.0320    -2.9630     0.3120 C.3   1 <1>   0.4840 
  5 C        2.0670     0.2790    -0.5710 C.3   1 <1>   0.2780 
  6 N       -1.4590    -3.0850     0.5580 N.4   1 <1>  -0.9590 
  7 C        0.8170    -3.6850     1.4130 C.3   1 <1>  -0.2400 
  8 C        3.5720     0.1610    -0.6440 C.2   1 <1>  -0.2880 
  9 C       -1.9660    -4.4670     0.8940 C.3   1 <1>   0.3430 
 10 C       -2.2200    -2.4940    -0.5870 C.3   1 <1>   0.3430 
 11 C        4.3220     0.4760    -1.7050 C.2   1 <1>  -0.3000 
 12 C       -3.3830    -4.4950     1.5120 C.3   1 <1>   0.1400 
 13 C       -3.3440    -1.5850    -0.0900 C.3   1 <1>  -0.1600 
 14 N       -4.3730    -3.6860     0.7320 N.am  1 <1>  -0.6600 
 15 C       -4.2740    -2.2170     0.9500 C.3   1 <1>   0.1400 
 16 C       -5.3270    -4.1910    -0.1160 C.2   1 <1>   0.5690 
 17 O       -5.9840    -3.4620    -0.8190 O.2   1 <1>  -0.5700 
 18 C       -5.5630    -5.6860    -0.2160 C.3   1 <1>  -0.0990 
 19 C       -6.5970    -6.0510    -1.2960 C.3   1 <1>   0.0960 
 20 N       -6.7930    -7.5130    -1.3560 N.pl3 1 <1>   0.3140 
 21 N       -5.7950    -8.3530    -1.5300 N.2   1 <1>  -0.4180 
 22 C       -7.9010    -8.2300    -1.2400 C.2   1 <1>   0.0060 
 23 N       -6.3060    -9.5310    -1.5150 N.2   1 <1>   0.0000 
 24 N       -7.6200    -9.4720    -1.3340 N.2   1 <1>  -0.3380 
 25 C       -9.2990    -7.6800    -1.0250 C.3   1 <1>  -0.0600 
 26 H        2.1220    -1.7540    -1.0300 H     1 <1>   0.3700 
 27 H        0.2720    -3.4160    -0.6350 H     1 <1>   0.0800 
 28 H        1.7750     0.8470     0.2970 H     1 <1>   0.0800 
 29 H        1.6850     0.7680    -1.4520 H     1 <1>   0.0800 
 30 H       -1.6280    -2.4480     1.3520 H     1 <1>   0.4500 
 31 H        0.5170    -3.3380     2.3870 H     1 <1>   0.0800 
 32 H        1.8670    -3.4730     1.3000 H     1 <1>   0.0800 
 33 H        0.7050    -4.7510     1.3470 H     1 <1>   0.0800 
 34 H        3.9980    -0.2100     0.2730 H     1 <1>   0.1500 
 35 H       -1.3050    -4.9380     1.6000 H     1 <1>   0.0800 
 36 H       -1.9660    -5.0730     0.0030 H     1 <1>   0.0800 
 37 H       -2.6430    -3.2810    -1.1910 H     1 <1>   0.0800 
 38 H       -1.5680    -1.9090    -1.2160 H     1 <1>   0.0800 
 39 H        5.3960     0.3850    -1.7280 H     1 <1>   0.1500 
 40 H        3.9370     0.8530    -2.6380 H     1 <1>   0.1500 
 41 H       -3.3360    -4.1170     2.5190 H     1 <1>   0.0800 
 42 H       -3.7070    -5.5170     1.5870 H     1 <1>   0.0800 
 43 H       -3.9410    -1.3090    -0.9410 H     1 <1>   0.0800 
 44 H       -2.9340    -0.6720     0.3040 H     1 <1>   0.0800 
 45 H       -5.2520    -1.7660     0.8790 H     1 <1>   0.0800 
 46 H       -3.9060    -2.0200     1.9430 H     1 <1>   0.0800 
 47 H       -5.9100    -6.0400     0.7370 H     1 <1>   0.0800 
 48 H       -4.6310    -6.1620    -0.4540 H     1 <1>   0.0800 
 49 H       -6.2570    -5.7170    -2.2600 H     1 <1>   0.0800 
 50 H       -7.5360    -5.5740    -1.0830 H     1 <1>   0.0800 
 51 H       -9.5760    -7.0380    -1.8420 H     1 <1>   0.0800 
 52 H       -9.3460    -7.1270    -0.1050 H     1 <1>   0.0800 
 53 H      -10.0050    -8.4900    -0.9740 H     1 <1>   0.0800 
@<TRIPOS>BOND
  1   1   2  2   
  2   2   3  am  
  3   2   4  1   
  4   3   5  1   
  5   3  26  1   
  6   4   6  1   
  7   4   7  1   
  8   4  27  1   
  9   5   8  1   
 10   5  28  1   
 11   5  29  1   
 12   6   9  1   
 13   6  10  1   
 14   6  30  1   
 15   7  31  1   
 16   7  32  1   
 17   7  33  1   
 18   8  11  2   
 19   8  34  1   
 20   9  12  1   
 21   9  35  1   
 22   9  36  1   
 23  10  13  1   
 24  10  37  1   
 25  10  38  1   
 26  11  39  1   
 27  11  40  1   
 28  12  14  1   
 29  12  41  1   
 30  12  42  1   
 31  13  15  1   
 32  13  43  1   
 33  13  44  1   
 34  14  15  1   
 35  14  16  am  
 36  15  45  1   
 37  15  46  1   
 38  16  17  2   
 39  16  18  1   
 40  18  19  1   
 41  18  47  1   
 42  18  48  1   
 43  19  20  1   
 44  19  49  1   
 45  19  50  1   
 46  20  21  1   
 47  20  22  1   
 48  21  23  2   
 49  22  24  2   
 50  22  25  1   
 51  23  24  1   
 52  25  51  1   
 53  25  52  1   
 54  25  53  1   
@<TRIPOS>SUBSTRUCTURE
  1 ****   9 GROUP 4 **** **** 0

# MOE 2024.06 (io_trps.svl 2023.06)
