@<TRIPOS>MOLECULE
NONAME
45 48 1 0 0 
SMALL
USER_CHARGES


@<TRIPOS>ATOM
  1 O       -2.5670    -0.0910    -3.0390 O.2   1 <1>  -0.5700 
  2 C       -2.1660     0.1310    -1.9230 C.2   1 <1>   0.5690 
  3 N       -1.8300    -0.8690    -1.0740 N.am  1 <1>  -0.7300 
  4 C       -2.0580     1.5640    -1.4350 C.3   1 <1>  -0.0040 
  5 C       -1.9610    -2.3170    -1.3560 C.3   1 <1>   0.2200 
  6 C       -2.9770     1.8350    -0.2330 C.3   1 <1>  -0.1950 
  7 C       -3.1820    -2.9060    -0.6570 C.3   1 <1>  -0.0800 
  8 C       -0.8440    -3.0550    -0.6340 C.3   1 <1>   0.1200 
  9 C       -2.6950     2.9590     0.7100 C.3   1 <1>  -0.2000 
 10 C       -2.5400     1.5350     1.1660 C.3   1 <1>  -0.2000 
 11 C       -2.6610    -3.1720     0.7610 C.3   1 <1>   0.1200 
 12 C       -4.4560    -2.0360    -0.7130 C.3   1 <1>  -0.0170 
 13 O       -1.2640    -3.1400     0.6940 O.3   1 <1>  -0.5600 
 14 C       -5.7280    -2.6370    -0.1040 C.ar  1 <1>  -0.1440 
 15 C       -6.8700    -1.8170     0.0770 C.ar  1 <1>   0.0000 
 16 C       -5.8390    -3.9440     0.2800 C.ar  1 <1>  -0.1500 
 17 C       -8.0180    -2.3960     0.6720 C.ar  1 <1>   0.3100 
 18 C       -6.9430    -0.4550    -0.3040 C.ar  1 <1>  -0.1500 
 19 C       -7.0270    -4.4200     0.8490 C.ar  1 <1>   0.1600 
 20 N       -8.0800    -3.6960     1.0520 N.ar  1 <1>  -0.6200 
 21 C       -9.1550    -1.5980     0.8800 C.ar  1 <1>  -0.1500 
 22 C       -8.0680     0.2940    -0.0910 C.ar  1 <1>  -0.1500 
 23 C       -9.1890    -0.2810     0.5120 C.ar  1 <1>  -0.1500 
 24 H       -1.5620    -0.6550    -0.1110 H     1 <1>   0.3700 
 25 H       -1.0340     1.7610    -1.1760 H     1 <1>   0.0800 
 26 H       -2.3270     2.2230    -2.2400 H     1 <1>   0.0800 
 27 H       -1.9570    -2.4990    -2.4180 H     1 <1>   0.0800 
 28 H       -4.0130     1.6550    -0.4720 H     1 <1>   0.1000 
 29 H       -3.3870    -3.8520    -1.1260 H     1 <1>   0.0800 
 30 H        0.1000    -2.5400    -0.6860 H     1 <1>   0.0800 
 31 H       -0.7390    -4.0570    -1.0130 H     1 <1>   0.0800 
 32 H       -1.8080     3.5540     0.5730 H     1 <1>   0.1000 
 33 H       -3.5210     3.5350     1.0910 H     1 <1>   0.1000 
 34 H       -3.2600     1.1350     1.8590 H     1 <1>   0.1000 
 35 H       -1.5430     1.1750     1.3560 H     1 <1>   0.1000 
 36 H       -2.9660    -4.1350     1.1320 H     1 <1>   0.0800 
 37 H       -2.9720    -2.4040     1.4490 H     1 <1>   0.0800 
 38 H       -4.6570    -1.7910    -1.7420 H     1 <1>   0.0800 
 39 H       -4.2520    -1.1170    -0.1950 H     1 <1>   0.0800 
 40 H       -5.0440    -4.6540     0.1670 H     1 <1>   0.1500 
 41 H       -6.1000     0.0100    -0.7790 H     1 <1>   0.1500 
 42 H       -7.0650    -5.4560     1.1380 H     1 <1>   0.1500 
 43 H      -10.0060    -2.0640     1.3410 H     1 <1>   0.1500 
 44 H       -8.1060     1.3290    -0.3850 H     1 <1>   0.1500 
 45 H      -10.0680     0.3180     0.6770 H     1 <1>   0.1500 
@<TRIPOS>BOND
  1   1   2  2   
  2   2   3  am  
  3   2   4  1   
  4   3   5  1   
  5   3  24  1   
  6   4   6  1   
  7   4  25  1   
  8   4  26  1   
  9   5   7  1   
 10   5   8  1   
 11   5  27  1   
 12   6   9  1   
 13   6  10  1   
 14   6  28  1   
 15   7  11  1   
 16   7  12  1   
 17   7  29  1   
 18   8  13  1   
 19   8  30  1   
 20   8  31  1   
 21   9  10  1   
 22   9  32  1   
 23   9  33  1   
 24  10  34  1   
 25  10  35  1   
 26  11  13  1   
 27  11  36  1   
 28  11  37  1   
 29  12  14  1   
 30  12  38  1   
 31  12  39  1   
 32  14  15  ar  
 33  14  16  ar  
 34  15  17  ar  
 35  15  18  ar  
 36  16  19  ar  
 37  16  40  1   
 38  17  20  ar  
 39  17  21  ar  
 40  18  22  ar  
 41  18  41  1   
 42  19  20  ar  
 43  19  42  1   
 44  21  23  ar  
 45  21  43  1   
 46  22  23  ar  
 47  22  44  1   
 48  23  45  1   
@<TRIPOS>SUBSTRUCTURE
  1 ****  12 GROUP 4 **** **** 0

# MOE 2024.06 (io_trps.svl 2023.06)
