@<TRIPOS>MOLECULE
NONAME
41 44 1 0 0 
SMALL
USER_CHARGES


@<TRIPOS>ATOM
  1 O        1.5970     0.0960    -1.5450 O.3   1 <1>  -0.0190 
  2 N        1.0260     1.2220    -1.8440 N.2   1 <1>  -0.4100 
  3 C        1.9970     0.2560    -0.3100 C.2   1 <1>   0.2980 
  4 C        1.0950     1.9860    -0.8120 C.2   1 <1>   0.4620 
  5 N        1.7340     1.3920     0.2010 N.2   1 <1>  -0.5650 
  6 C        2.7450    -0.8930     0.3750 C.3   1 <1>   0.4690 
  7 C        0.5610     3.3360    -0.7200 C.ar  1 <1>   0.0540 
  8 N        2.1700    -2.2460     0.0990 N.pl3 1 <1>  -0.8380 
  9 C        4.1940    -1.0070    -0.0970 C.3   1 <1>  -0.1600 
 10 C       -0.0870     3.9330    -1.8030 C.ar  1 <1>  -0.1500 
 11 C        0.6720     4.0930     0.4490 C.ar  1 <1>  -0.1500 
 12 C        0.9760    -2.6640     0.7000 C.ar  1 <1>   0.4100 
 13 C        3.2460    -3.2210    -0.1870 C.3   1 <1>   0.2090 
 14 C        4.5460    -2.4790     0.0980 C.3   1 <1>  -0.1600 
 15 C       -0.5980     5.2170    -1.7270 C.ar  1 <1>  -0.1500 
 16 C        0.1640     5.3770     0.5330 C.ar  1 <1>  -0.1500 
 17 N        0.5760    -1.9200     1.7240 N.ar  1 <1>  -0.6200 
 18 C        0.2300    -3.7990     0.2520 C.ar  1 <1>   0.3930 
 19 C       -0.4730     5.9420    -0.5560 C.ar  1 <1>  -0.1500 
 20 C       -0.5610    -2.3370     2.2570 C.ar  1 <1>   0.1600 
 21 O        0.6940    -4.5130    -0.8140 O.3   1 <1>  -0.3630 
 22 N       -0.9030    -4.2100     0.8070 N.ar  1 <1>  -0.6200 
 23 C       -1.2720    -3.4390     1.8180 C.ar  1 <1>   0.1600 
 24 C       -0.0440    -5.5950    -1.3480 C.3   1 <1>   0.0400 
 25 H        2.7480    -0.7200     1.4370 H     1 <1>   0.0800 
 26 H        4.2490    -0.7560    -1.1420 H     1 <1>   0.0800 
 27 H        4.8400    -0.3500     0.4570 H     1 <1>   0.0800 
 28 H       -0.1940     3.3820    -2.7210 H     1 <1>   0.1500 
 29 H        1.1630     3.6670     1.3060 H     1 <1>   0.1500 
 30 H        3.1510    -4.1010     0.4260 H     1 <1>   0.0800 
 31 H        3.1940    -3.5000    -1.2270 H     1 <1>   0.0800 
 32 H        4.8310    -2.6570     1.1210 H     1 <1>   0.0800 
 33 H        5.3400    -2.8030    -0.5500 H     1 <1>   0.0800 
 34 H       -1.0930     5.6500    -2.5780 H     1 <1>   0.1500 
 35 H        0.2640     5.9350     1.4470 H     1 <1>   0.1500 
 36 H       -0.8690     6.9410    -0.4930 H     1 <1>   0.1500 
 37 H       -0.9430    -1.7710     3.0860 H     1 <1>   0.1500 
 38 H       -2.1870    -3.7000     2.3200 H     1 <1>   0.1500 
 39 H        0.4970    -5.9920    -2.1870 H     1 <1>   0.0800 
 40 H       -1.0070    -5.2350    -1.6660 H     1 <1>   0.0800 
 41 H       -0.1570    -6.3490    -0.5880 H     1 <1>   0.0800 
@<TRIPOS>BOND
  1   1   2  1   
  2   1   3  1   
  3   2   4  2   
  4   3   5  2   
  5   3   6  1   
  6   4   5  1   
  7   4   7  1   
  8   6   8  1   
  9   6   9  1   
 10   6  25  1   
 11   7  10  ar  
 12   7  11  ar  
 13   8  12  1   
 14   8  13  1   
 15   9  14  1   
 16   9  26  1   
 17   9  27  1   
 18  10  15  ar  
 19  10  28  1   
 20  11  16  ar  
 21  11  29  1   
 22  12  17  ar  
 23  12  18  ar  
 24  13  14  1   
 25  13  30  1   
 26  13  31  1   
 27  14  32  1   
 28  14  33  1   
 29  15  19  ar  
 30  15  34  1   
 31  16  19  ar  
 32  16  35  1   
 33  17  20  ar  
 34  18  21  1   
 35  18  22  ar  
 36  19  36  1   
 37  20  23  ar  
 38  20  37  1   
 39  21  24  1   
 40  22  23  ar  
 41  23  38  1   
 42  24  39  1   
 43  24  40  1   
 44  24  41  1   
@<TRIPOS>SUBSTRUCTURE
  1 ****   3 GROUP 4 **** **** 0

# MOE 2024.06 (io_trps.svl 2023.06)
