@<TRIPOS>MOLECULE
NONAME
47 50 1 0 0 
SMALL
USER_CHARGES


@<TRIPOS>ATOM
  1 F        0.5380     0.1070     1.6100 F     1 <1>  -0.1900 
  2 C        1.4060     0.9060     1.0240 C.ar  1 <1>   0.1900 
  3 C        2.5090     0.4080     0.3310 C.ar  1 <1>   0.4100 
  4 C        1.2260     2.2580     1.1090 C.ar  1 <1>   0.1600 
  5 N        3.3650     1.2490    -0.2210 N.ar  1 <1>  -0.6200 
  6 N        2.7770    -0.9480     0.1830 N.pl3 1 <1>  -0.8380 
  7 N        2.0710     3.1010     0.5500 N.ar  1 <1>  -0.6200 
  8 C        3.0910     2.5350    -0.0850 C.ar  1 <1>   0.7200 
  9 C        1.7710    -1.8320    -0.4790 C.3   1 <1>   0.2090 
 10 C        4.1760    -1.4130    -0.0620 C.3   1 <1>   0.2090 
 11 N        3.9910     3.3480    -0.6830 N.pl3 1 <1>  -0.8690 
 12 C        2.0380    -3.3100    -0.1390 C.3   1 <1>   0.1200 
 13 C        4.3170    -2.9150     0.2470 C.3   1 <1>   0.1200 
 14 C        4.3150     4.6980    -0.1590 C.3   1 <1>   0.2890 
 15 O        3.3580    -3.6660    -0.4460 O.3   1 <1>  -0.5600 
 16 C        3.4650     5.7630    -0.8570 C.3   1 <1>   0.1200 
 17 C        5.7950     4.9940    -0.3980 C.3   1 <1>  -0.0170 
 18 O        3.7770     7.0520    -0.3600 O.3   1 <1>  -0.3630 
 19 C        6.0970     6.4670    -0.1690 C.ar  1 <1>  -0.1430 
 20 C        5.0770     7.4170    -0.1670 C.ar  1 <1>   0.0830 
 21 C        7.4070     6.8700     0.0360 C.ar  1 <1>  -0.1500 
 22 C        5.3710     8.7670     0.0480 C.ar  1 <1>   0.0830 
 23 C        7.7040     8.2050     0.2460 C.ar  1 <1>  -0.1500 
 24 O        4.3380     9.6580     0.0460 O.3   1 <1>  -0.3630 
 25 C        6.6930     9.1510     0.2530 C.ar  1 <1>  -0.1500 
 26 C        4.5420    11.0290     0.3000 C.3   1 <1>   0.0400 
 27 H        0.3800     2.6560     1.6410 H     1 <1>   0.1500 
 28 H        1.8310    -1.7000    -1.5450 H     1 <1>   0.0800 
 29 H        0.7760    -1.5710    -0.1670 H     1 <1>   0.0800 
 30 H        4.8560    -0.8550     0.5580 H     1 <1>   0.0800 
 31 H        4.4380    -1.2340    -1.0910 H     1 <1>   0.0800 
 32 H        4.7820     2.8100    -1.0310 H     1 <1>   0.4000 
 33 H        1.3850    -3.9440    -0.7100 H     1 <1>   0.0800 
 34 H        1.8670    -3.4880     0.9080 H     1 <1>   0.0800 
 35 H        4.1940    -3.0910     1.3010 H     1 <1>   0.0800 
 36 H        5.2880    -3.2650    -0.0520 H     1 <1>   0.0800 
 37 H        4.1080     4.7350     0.8980 H     1 <1>   0.0800 
 38 H        2.4200     5.5890    -0.6750 H     1 <1>   0.0800 
 39 H        3.6530     5.7650    -1.9150 H     1 <1>   0.0800 
 40 H        6.0510     4.7560    -1.4150 H     1 <1>   0.0800 
 41 H        6.3880     4.3920     0.2660 H     1 <1>   0.0800 
 42 H        8.2040     6.1460     0.0330 H     1 <1>   0.1500 
 43 H        8.7240     8.5080     0.4050 H     1 <1>   0.1500 
 44 H        6.9580    10.1770     0.4200 H     1 <1>   0.1500 
 45 H        3.5850    11.5180     0.2640 H     1 <1>   0.0800 
 46 H        5.1880    11.4330    -0.4590 H     1 <1>   0.0800 
 47 H        4.9730    11.1420     1.2790 H     1 <1>   0.0800 
@<TRIPOS>BOND
  1   1   2  1   
  2   2   3  ar  
  3   2   4  ar  
  4   3   5  ar  
  5   3   6  1   
  6   4   7  ar  
  7   4  27  1   
  8   5   8  ar  
  9   6   9  1   
 10   6  10  1   
 11   7   8  ar  
 12   8  11  1   
 13   9  12  1   
 14   9  28  1   
 15   9  29  1   
 16  10  13  1   
 17  10  30  1   
 18  10  31  1   
 19  11  14  1   
 20  11  32  1   
 21  12  15  1   
 22  12  33  1   
 23  12  34  1   
 24  13  15  1   
 25  13  35  1   
 26  13  36  1   
 27  14  16  1   
 28  14  17  1   
 29  14  37  1   
 30  16  18  1   
 31  16  38  1   
 32  16  39  1   
 33  17  19  1   
 34  17  40  1   
 35  17  41  1   
 36  18  20  1   
 37  19  20  ar  
 38  19  21  ar  
 39  20  22  ar  
 40  21  23  ar  
 41  21  42  1   
 42  22  24  1   
 43  22  25  ar  
 44  23  25  ar  
 45  23  43  1   
 46  24  26  1   
 47  25  44  1   
 48  26  45  1   
 49  26  46  1   
 50  26  47  1   
@<TRIPOS>SUBSTRUCTURE
  1 ****  11 GROUP 4 **** **** 0

# MOE 2024.06 (io_trps.svl 2023.06)
