@<TRIPOS>MOLECULE
NONAME
14 14 1 0 0 
SMALL
USER_CHARGES


@<TRIPOS>ATOM
  1 S       -8.6240    -0.5720     0.2740 S.3   1 <1>  -0.0800 
  2 C       -7.1620     0.3300    -0.0090 C.2   1 <1>  -0.1400 
  3 C       -7.6730    -2.0360     0.3530 C.2   1 <1>   0.2280 
  4 C       -6.1250    -0.5270    -0.0180 C.2   1 <1>   0.0460 
  5 C       -7.3110     1.8290    -0.1850 C.3   1 <1>  -0.0600 
  6 N       -6.4230    -1.8640     0.1880 N.2   1 <1>  -0.5650 
  7 C       -4.6620    -0.2020    -0.2280 C.3   1 <1>  -0.0590 
  8 H       -8.2020    -2.9550     0.5320 H     1 <1>   0.1500 
  9 H       -7.9480     2.0360    -1.0260 H     1 <1>   0.0800 
 10 H       -6.3570     2.2910    -0.3530 H     1 <1>   0.0800 
 11 H       -7.7510     2.2570     0.6980 H     1 <1>   0.0800 
 12 H       -4.5170     0.8500    -0.3790 H     1 <1>   0.0800 
 13 H       -4.2970    -0.7320    -1.0880 H     1 <1>   0.0800 
 14 H       -4.1000    -0.5110     0.6340 H     1 <1>   0.0800 
@<TRIPOS>BOND
  1   1   2  1   
  2   1   3  1   
  3   2   4  2   
  4   2   5  1   
  5   3   6  2   
  6   3   8  1   
  7   4   6  1   
  8   4   7  1   
  9   5   9  1   
 10   5  10  1   
 11   5  11  1   
 12   7  12  1   
 13   7  13  1   
 14   7  14  1   
@<TRIPOS>SUBSTRUCTURE
  1 ****   4 GROUP 4 **** **** 0

# MOE 2024.06 (io_trps.svl 2023.06)
