@<TRIPOS>MOLECULE
NONAME
55 57 1 0 0 
SMALL
USER_CHARGES


@<TRIPOS>ATOM
  1 O       -2.2260     0.3130    -2.6200 O.2   1 <1>  -0.5700 
  2 C       -2.1320     0.7150    -1.4770 C.2   1 <1>   0.5440 
  3 N       -2.0780    -0.2120    -0.4770 N.am  1 <1>  -0.7300 
  4 C       -2.0790     2.1380    -1.1810 C.ar  1 <1>   0.0860 
  5 C       -2.0710    -1.6820    -0.6660 C.3   1 <1>   0.2200 
  6 C       -2.4240     2.6500     0.0720 C.ar  1 <1>  -0.1500 
  7 C       -1.6750     3.0540    -2.1520 C.ar  1 <1>  -0.1500 
  8 C       -3.4230    -2.2900    -0.3190 C.3   1 <1>  -0.0800 
  9 C       -1.2010    -2.3080     0.4140 C.3   1 <1>   0.1200 
 10 C       -2.3530     4.0040     0.3440 C.ar  1 <1>  -0.1500 
 11 C       -1.6030     4.4080    -1.8860 C.ar  1 <1>  -0.1500 
 12 C       -3.3460    -2.4590     1.2030 C.3   1 <1>   0.1200 
 13 C       -4.6580    -1.5120    -0.8110 C.3   1 <1>  -0.0160 
 14 O       -2.0000    -2.3210     1.5580 O.3   1 <1>  -0.5600 
 15 C       -1.9400     4.8930    -0.6340 C.ar  1 <1>  -0.1430 
 16 C       -5.9380    -2.2700    -0.4930 C.ar  1 <1>  -0.1430 
 17 C       -1.8500     6.3810    -0.3400 C.3   1 <1>  -0.0170 
 18 C       -6.7170    -1.9690     0.6060 C.ar  1 <1>  -0.1500 
 19 C       -6.3840    -3.3030    -1.2910 C.ar  1 <1>  -0.1500 
 20 C       -0.4380     6.7350     0.1580 C.3   1 <1>  -0.1600 
 21 C       -7.8680    -2.6990     0.8500 C.ar  1 <1>   0.1600 
 22 C       -7.5510    -3.9710    -0.9580 C.ar  1 <1>   0.1600 
 23 C       -0.2000     8.2270     0.4480 C.3   1 <1>   0.2800 
 24 N       -8.3030    -3.6950     0.0950 N.ar  1 <1>  -0.6200 
 25 O       -0.4850     8.9350    -0.6900 O.3   1 <1>  -0.6800 
 26 C        1.2690     8.4890     0.7720 C.3   1 <1>  -0.2400 
 27 C       -1.1020     8.7780     1.5520 C.3   1 <1>  -0.2400 
 28 H       -1.9610     0.0780     0.4960 H     1 <1>   0.3700 
 29 H       -1.7400    -1.9390    -1.6580 H     1 <1>   0.0800 
 30 H       -2.7570     1.9860     0.8480 H     1 <1>   0.1500 
 31 H       -1.4110     2.6930    -3.1310 H     1 <1>   0.1500 
 32 H       -3.4570    -3.2760    -0.7490 H     1 <1>   0.0800 
 33 H       -0.3010    -1.7500     0.6030 H     1 <1>   0.0800 
 34 H       -0.9580    -3.3270     0.1680 H     1 <1>   0.0800 
 35 H       -2.6210     4.3670     1.3210 H     1 <1>   0.1500 
 36 H       -1.2820     5.0880    -2.6570 H     1 <1>   0.1500 
 37 H       -3.6940    -3.4290     1.5140 H     1 <1>   0.0800 
 38 H       -3.8980    -1.6920     1.7180 H     1 <1>   0.0800 
 39 H       -4.5850    -1.3650    -1.8750 H     1 <1>   0.0800 
 40 H       -4.6970    -0.5390    -0.3550 H     1 <1>   0.0800 
 41 H       -2.0730     6.9360    -1.2350 H     1 <1>   0.0800 
 42 H       -2.5860     6.6430     0.3990 H     1 <1>   0.0800 
 43 H       -6.4420    -1.1740     1.2750 H     1 <1>   0.1500 
 44 H       -5.8360    -3.5950    -2.1680 H     1 <1>   0.1500 
 45 H        0.2740     6.4130    -0.5810 H     1 <1>   0.0800 
 46 H       -0.2380     6.1730     1.0530 H     1 <1>   0.0800 
 47 H       -8.4640    -2.4510     1.7120 H     1 <1>   0.1500 
 48 H       -7.8840    -4.7740    -1.5930 H     1 <1>   0.1500 
 49 H       -0.3030     9.8790    -0.5350 H     1 <1>   0.4000 
 50 H        1.5510     7.9480     1.6560 H     1 <1>   0.0800 
 51 H        1.4440     9.5350     0.9490 H     1 <1>   0.0800 
 52 H        1.8950     8.1590    -0.0380 H     1 <1>   0.0800 
 53 H       -0.9660     8.2070     2.4530 H     1 <1>   0.0800 
 54 H       -2.1370     8.7230     1.2680 H     1 <1>   0.0800 
 55 H       -0.8580     9.8020     1.7670 H     1 <1>   0.0800 
@<TRIPOS>BOND
  1   1   2  2   
  2   2   3  am  
  3   2   4  1   
  4   3   5  1   
  5   3  28  1   
  6   4   6  ar  
  7   4   7  ar  
  8   5   8  1   
  9   5   9  1   
 10   5  29  1   
 11   6  10  ar  
 12   6  30  1   
 13   7  11  ar  
 14   7  31  1   
 15   8  12  1   
 16   8  13  1   
 17   8  32  1   
 18   9  14  1   
 19   9  33  1   
 20   9  34  1   
 21  10  15  ar  
 22  10  35  1   
 23  11  15  ar  
 24  11  36  1   
 25  12  14  1   
 26  12  37  1   
 27  12  38  1   
 28  13  16  1   
 29  13  39  1   
 30  13  40  1   
 31  15  17  1   
 32  16  18  ar  
 33  16  19  ar  
 34  17  20  1   
 35  17  41  1   
 36  17  42  1   
 37  18  21  ar  
 38  18  43  1   
 39  19  22  ar  
 40  19  44  1   
 41  20  23  1   
 42  20  45  1   
 43  20  46  1   
 44  21  24  ar  
 45  21  47  1   
 46  22  24  ar  
 47  22  48  1   
 48  23  25  1   
 49  23  26  1   
 50  23  27  1   
 51  25  49  1   
 52  26  50  1   
 53  26  51  1   
 54  26  52  1   
 55  27  53  1   
 56  27  54  1   
 57  27  55  1   
@<TRIPOS>SUBSTRUCTURE
  1 ****   6 GROUP 4 **** **** 0

# MOE 2024.06 (io_trps.svl 2023.06)
