@<TRIPOS>MOLECULE
NONAME
46 48 1 0 0 
SMALL
USER_CHARGES


@<TRIPOS>ATOM
  1 S       -0.2030     0.2340     1.5270 S.3   1 <1>  -0.0800 
  2 C       -0.8540    -1.1400     0.7010 C.2   1 <1>  -0.1400 
  3 C       -0.9890     1.2490     0.3130 C.2   1 <1>   0.1980 
  4 C       -1.5550    -0.7410    -0.3400 C.2   1 <1>   0.0460 
  5 C       -0.7810    -2.6150     0.9290 C.3   1 <1>   0.0200 
  6 N       -1.6450     0.6150    -0.5820 N.2   1 <1>  -0.5650 
  7 C       -0.8110     2.7450     0.4370 C.3   1 <1>   0.0200 
  8 C       -2.1420    -1.9030    -1.0870 C.3   1 <1>   0.0210 
  9 C       -1.6340    -3.1280    -0.2660 C.3   1 <1>  -0.1600 
 10 C        0.5580     3.1530    -0.1020 C.3   1 <1>   0.1400 
 11 N        0.6920     4.6300    -0.0880 N.am  1 <1>  -0.7300 
 12 C        1.2530     5.3470     0.9210 C.2   1 <1>   0.5690 
 13 O        1.6680     4.8170     1.9220 O.2   1 <1>  -0.5700 
 14 C        1.3510     6.8650     0.7930 C.3   1 <1>  -0.0190 
 15 C       -0.0250     7.5190     0.5600 C.3   1 <1>  -0.1600 
 16 C        2.3680     7.2880    -0.2960 C.3   1 <1>  -0.1600 
 17 C        0.0570     9.0560     0.6080 C.3   1 <1>   0.2000 
 18 C        2.1130     8.6970    -0.8690 C.3   1 <1>  -0.1600 
 19 O       -0.9600     9.5350    -0.2360 O.3   1 <1>  -0.5600 
 20 C        1.4360     9.6100     0.1550 C.3   1 <1>   0.2000 
 21 C       -1.8420    10.4340     0.3610 C.3   1 <1>   0.0400 
 22 O        1.2680    10.8490    -0.4310 O.3   1 <1>  -0.6800 
 23 H        0.2360    -2.9610     0.8730 H     1 <1>   0.0800 
 24 H       -1.2200    -2.8770     1.8760 H     1 <1>   0.0800 
 25 H       -1.5830     3.2290    -0.1320 H     1 <1>   0.0800 
 26 H       -0.9010     3.0320     1.4690 H     1 <1>   0.0800 
 27 H       -3.2150    -1.8390    -1.0850 H     1 <1>   0.0800 
 28 H       -1.7720    -1.9190    -2.0970 H     1 <1>   0.0800 
 29 H       -1.0370    -3.7650    -0.8940 H     1 <1>   0.0800 
 30 H       -2.4720    -3.6960     0.0990 H     1 <1>   0.0800 
 31 H        0.6780     2.7930    -1.1090 H     1 <1>   0.0800 
 32 H        1.3310     2.7140     0.5080 H     1 <1>   0.0800 
 33 H        0.3280     5.1210    -0.9060 H     1 <1>   0.3700 
 34 H        1.7170     7.2270     1.7390 H     1 <1>   0.0800 
 35 H       -0.7180     7.1820     1.3100 H     1 <1>   0.0800 
 36 H       -0.3960     7.2140    -0.4030 H     1 <1>   0.0800 
 37 H        3.3540     7.2510     0.1350 H     1 <1>   0.0800 
 38 H        2.3560     6.5870    -1.1120 H     1 <1>   0.0800 
 39 H       -0.1230     9.3840     1.6180 H     1 <1>   0.0800 
 40 H        1.4700     8.6120    -1.7290 H     1 <1>   0.0800 
 41 H        3.0460     9.1300    -1.1870 H     1 <1>   0.0800 
 42 H        2.0850     9.7320     1.0050 H     1 <1>   0.0800 
 43 H       -2.5540    10.7500    -0.3800 H     1 <1>   0.0800 
 44 H       -1.2910    11.2860     0.7230 H     1 <1>   0.0800 
 45 H       -2.3550     9.9430     1.1700 H     1 <1>   0.0800 
 46 H        0.4130    10.8090    -0.9120 H     1 <1>   0.4000 
@<TRIPOS>BOND
  1   1   2  1   
  2   1   3  1   
  3   2   4  2   
  4   2   5  1   
  5   3   6  2   
  6   3   7  1   
  7   4   6  1   
  8   4   8  1   
  9   5   9  1   
 10   5  23  1   
 11   5  24  1   
 12   7  10  1   
 13   7  25  1   
 14   7  26  1   
 15   8   9  1   
 16   8  27  1   
 17   8  28  1   
 18   9  29  1   
 19   9  30  1   
 20  10  11  1   
 21  10  31  1   
 22  10  32  1   
 23  11  12  am  
 24  11  33  1   
 25  12  13  2   
 26  12  14  1   
 27  14  15  1   
 28  14  16  1   
 29  14  34  1   
 30  15  17  1   
 31  15  35  1   
 32  15  36  1   
 33  16  18  1   
 34  16  37  1   
 35  16  38  1   
 36  17  19  1   
 37  17  20  1   
 38  17  39  1   
 39  18  20  1   
 40  18  40  1   
 41  18  41  1   
 42  19  21  1   
 43  20  22  1   
 44  20  42  1   
 45  21  43  1   
 46  21  44  1   
 47  21  45  1   
 48  22  46  1   
@<TRIPOS>SUBSTRUCTURE
  1 ****  11 GROUP 4 **** **** 0

# MOE 2024.06 (io_trps.svl 2023.06)
