@<TRIPOS>MOLECULE
NONAME
35 36 1 0 0 
SMALL
USER_CHARGES


@<TRIPOS>ATOM
  1 O        1.0700     1.3290    -1.4680 O.2   1 <1>  -0.5700 
  2 C        0.7100     2.3680    -0.9330 C.2   1 <1>   0.7670 
  3 N        1.6880     3.1960    -0.4910 N.2   1 <1>  -0.6610 
  4 C       -0.6670     2.6860    -0.7920 C.2   1 <1>  -0.1360 
  5 C        1.2970     4.2940     0.0710 C.2   1 <1>   0.5500 
  6 C       -1.0300     3.8490    -0.2030 C.2   1 <1>  -0.0380 
  7 N        0.0020     4.6470     0.2230 N.pl3 1 <1>  -0.5500 
  8 N        2.2340     5.1610     0.5160 N.pl3 1 <1>  -0.7880 
  9 C       -2.4540     4.3510     0.0340 C.3   1 <1>   0.0580 
 10 C        3.3200     4.6690     1.4040 C.3   1 <1>   0.2090 
 11 C        2.8300     6.1100    -0.4570 C.3   1 <1>   0.2090 
 12 C       -2.7850     4.3120     1.5310 C.3   1 <1>  -0.2400 
 13 C       -3.5070     3.5570    -0.7490 C.3   1 <1>  -0.2400 
 14 C        4.5540     4.6550     0.4940 C.3   1 <1>   0.4230 
 15 C        4.3480     5.9220    -0.3350 C.3   1 <1>  -0.1600 
 16 N        4.4990     3.4790    -0.4110 N.4   1 <1>  -0.8530 
 17 H       -1.3600     1.9620    -1.1710 H     1 <1>   0.1500 
 18 H       -0.1720     5.5300     0.7050 H     1 <1>   0.4000 
 19 H       -2.5070     5.3740    -0.3010 H     1 <1>   0.0800 
 20 H        3.0990     3.6970     1.8130 H     1 <1>   0.0800 
 21 H        3.4560     5.3680     2.2110 H     1 <1>   0.0800 
 22 H        2.5410     7.1210    -0.2140 H     1 <1>   0.0800 
 23 H        2.4920     5.8810    -1.4560 H     1 <1>   0.0800 
 24 H       -2.7280     3.3020     1.8990 H     1 <1>   0.0800 
 25 H       -3.7790     4.6850     1.7050 H     1 <1>   0.0800 
 26 H       -2.0950     4.9180     2.0880 H     1 <1>   0.0800 
 27 H       -3.5450     2.5350    -0.4130 H     1 <1>   0.0800 
 28 H       -3.2810     3.5730    -1.8000 H     1 <1>   0.0800 
 29 H       -4.4800     3.9940    -0.6090 H     1 <1>   0.0800 
 30 H        5.4780     4.6730     1.0500 H     1 <1>   0.0800 
 31 H        4.7450     6.7630     0.2070 H     1 <1>   0.0800 
 32 H        4.8310     5.8900    -1.2950 H     1 <1>   0.0800 
 33 H        3.5070     3.3770    -0.7100 H     1 <1>   0.4500 
 34 H        4.7240     2.6010     0.0640 H     1 <1>   0.4500 
 35 H        5.0740     3.5780    -1.2490 H     1 <1>   0.4500 
@<TRIPOS>BOND
  1   1   2  2   
  2   2   3  1   
  3   2   4  1   
  4   3   5  2   
  5   4   6  2   
  6   4  17  1   
  7   5   7  1   
  8   5   8  1   
  9   6   7  1   
 10   6   9  1   
 11   7  18  1   
 12   8  10  1   
 13   8  11  1   
 14   9  12  1   
 15   9  13  1   
 16   9  19  1   
 17  10  14  1   
 18  10  20  1   
 19  10  21  1   
 20  11  15  1   
 21  11  22  1   
 22  11  23  1   
 23  12  24  1   
 24  12  25  1   
 25  12  26  1   
 26  13  27  1   
 27  13  28  1   
 28  13  29  1   
 29  14  15  1   
 30  14  16  1   
 31  14  30  1   
 32  15  31  1   
 33  15  32  1   
 34  16  33  1   
 35  16  34  1   
 36  16  35  1   
@<TRIPOS>SUBSTRUCTURE
  1 ****   5 GROUP 4 **** **** 0

# MOE 2024.06 (io_trps.svl 2023.06)
