@<TRIPOS>MOLECULE
NONAME
42 44 1 0 0 
SMALL
USER_CHARGES


@<TRIPOS>ATOM
  1 O        1.0120     0.5860     0.9840 O.3   1 <1>  -0.3630 
  2 C        2.0470     1.2940     0.4440 C.ar  1 <1>   0.0830 
  3 C        0.9340    -0.8120     0.8030 C.3   1 <1>   0.0400 
  4 C        3.0970     0.7520    -0.2730 C.ar  1 <1>   0.1600 
  5 C        2.0700     2.6600     0.6140 C.ar  1 <1>   0.1600 
  6 N        4.0660     1.4860    -0.7690 N.ar  1 <1>  -0.6200 
  7 N        3.0260     3.4200     0.1300 N.ar  1 <1>  -0.6200 
  8 C        3.9890     2.8010    -0.5520 C.ar  1 <1>   0.7200 
  9 N        4.9990     3.5880    -1.0730 N.pl3 1 <1>  -0.8380 
 10 C        5.2850     4.9480    -0.5120 C.3   1 <1>   0.2090 
 11 C        6.2560     2.9830    -1.6180 C.3   1 <1>   0.2090 
 12 C        6.3370     4.8660     0.6130 C.3   1 <1>   0.2090 
 13 C        7.3170     2.8440    -0.5090 C.3   1 <1>   0.2090 
 14 N        7.5840     4.1470     0.1820 N.pl3 1 <1>  -0.8380 
 15 C        8.6740     4.8790    -0.2340 C.ar  1 <1>   0.4100 
 16 N        8.4270     5.8790    -1.0560 N.ar  1 <1>  -0.6200 
 17 C        9.9720     4.5710     0.1700 C.ar  1 <1>  -0.1430 
 18 C        9.4820     6.5440    -1.4730 C.ar  1 <1>   0.4700 
 19 C       10.9880     5.3400    -0.3560 C.ar  1 <1>   0.1670 
 20 C       10.2350     3.4350     1.1610 C.3   1 <1>  -0.0970 
 21 N       10.7510     6.3390    -1.1810 N.ar  1 <1>  -0.6200 
 22 C       12.4540     5.1090    -0.0320 C.3   1 <1>  -0.0970 
 23 H        0.0420    -1.1620     1.2910 H     1 <1>   0.0800 
 24 H        1.7970    -1.2740     1.2480 H     1 <1>   0.0800 
 25 H        0.8800    -1.0270    -0.2500 H     1 <1>   0.0800 
 26 H        3.1500    -0.3060    -0.4470 H     1 <1>   0.1500 
 27 H        1.2750     3.1300     1.1650 H     1 <1>   0.1500 
 28 H        4.3920     5.4140    -0.1370 H     1 <1>   0.0800 
 29 H        5.6650     5.5780    -1.2970 H     1 <1>   0.0800 
 30 H        6.6450     3.6230    -2.3910 H     1 <1>   0.0800 
 31 H        6.0650     2.0240    -2.0640 H     1 <1>   0.0800 
 32 H        5.9080     4.3500     1.4520 H     1 <1>   0.0800 
 33 H        6.5890     5.8620     0.9330 H     1 <1>   0.0800 
 34 H        8.2280     2.4710    -0.9430 H     1 <1>   0.0800 
 35 H        6.9740     2.1250     0.2140 H     1 <1>   0.0800 
 36 H        9.2830     7.3630    -2.1440 H     1 <1>   0.1500 
 37 H        9.3850     3.2790     1.8000 H     1 <1>   0.0800 
 38 H       11.0700     3.6620     1.7970 H     1 <1>   0.0800 
 39 H       10.4360     2.5240     0.6270 H     1 <1>   0.0800 
 40 H       12.6660     4.0630     0.0780 H     1 <1>   0.0800 
 41 H       12.7070     5.6250     0.8750 H     1 <1>   0.0800 
 42 H       13.0700     5.4900    -0.8270 H     1 <1>   0.0800 
@<TRIPOS>BOND
  1   1   2  1   
  2   1   3  1   
  3   2   4  ar  
  4   2   5  ar  
  5   3  23  1   
  6   3  24  1   
  7   3  25  1   
  8   4   6  ar  
  9   4  26  1   
 10   5   7  ar  
 11   5  27  1   
 12   6   8  ar  
 13   7   8  ar  
 14   8   9  1   
 15   9  10  1   
 16   9  11  1   
 17  10  12  1   
 18  10  28  1   
 19  10  29  1   
 20  11  13  1   
 21  11  30  1   
 22  11  31  1   
 23  12  14  1   
 24  12  32  1   
 25  12  33  1   
 26  13  14  1   
 27  13  34  1   
 28  13  35  1   
 29  14  15  1   
 30  15  16  ar  
 31  15  17  ar  
 32  16  18  ar  
 33  17  19  ar  
 34  17  20  1   
 35  18  21  ar  
 36  18  36  1   
 37  19  21  ar  
 38  19  22  1   
 39  20  37  1   
 40  20  38  1   
 41  20  39  1   
 42  22  40  1   
 43  22  41  1   
 44  22  42  1   
@<TRIPOS>SUBSTRUCTURE
  1 ****  13 GROUP 4 **** **** 0

# MOE 2024.06 (io_trps.svl 2023.06)
