@<TRIPOS>MOLECULE
NONAME
55 57 1 0 0 
SMALL
USER_CHARGES


@<TRIPOS>ATOM
  1 O        0.2560    -0.2610     0.5660 O.2   1 <1>  -0.5700 
  2 C        1.0960    -0.5620    -0.2470 C.2   1 <1>   0.5690 
  3 N        2.1060     0.2730    -0.6340 N.am  1 <1>  -0.4940 
  4 C        1.0410    -1.9500    -0.8750 C.3   1 <1>  -0.0990 
  5 C        2.3390     1.6090    -0.2250 C.2   1 <1>  -0.0880 
  6 C        0.1030    -2.9180    -0.1110 C.3   1 <1>  -0.1600 
  7 N        3.5400     2.1000     0.1950 N.pl3 1 <1>   0.3140 
  8 C        1.4660     2.6450    -0.1730 C.2   1 <1>  -0.1810 
  9 C       -0.1280    -4.2950    -0.7660 C.3   1 <1>   0.4230 
 10 N        3.4520     3.4190     0.4980 N.2   1 <1>  -0.7070 
 11 C        4.7990     1.3220     0.3790 C.3   1 <1>   0.1760 
 12 C        2.2120     3.7250     0.2810 C.2   1 <1>   0.1390 
 13 C       -0.0110     2.6830    -0.5200 C.3   1 <1>  -0.0590 
 14 N       -0.9800    -5.1490     0.1220 N.4   1 <1>  -0.9590 
 15 C        1.2020    -5.0160    -1.0200 C.3   1 <1>  -0.2400 
 16 C        5.2910     1.3030     1.8270 C.3   1 <1>  -0.1600 
 17 C        5.9830     1.8900    -0.4030 C.3   1 <1>  -0.1600 
 18 C       -1.3090    -6.4900    -0.4930 C.3   1 <1>   0.3430 
 19 C       -2.2690    -4.4800     0.5480 C.3   1 <1>   0.3430 
 20 C        6.7960     1.0220     1.7420 C.3   1 <1>  -0.1600 
 21 C        7.2180     1.3180     0.2960 C.3   1 <1>  -0.1600 
 22 C       -2.2390    -7.3310     0.4020 C.3   1 <1>   0.1200 
 23 C       -3.1590    -5.4090     1.3950 C.3   1 <1>   0.1200 
 24 O       -3.3900    -6.6070     0.7170 O.3   1 <1>  -0.5600 
 25 H        2.7670    -0.0940    -1.3160 H     1 <1>   0.3700 
 26 H        2.0420    -2.3390    -0.8890 H     1 <1>   0.0800 
 27 H        0.7000    -1.8390    -1.8890 H     1 <1>   0.0800 
 28 H       -0.8440    -2.4150    -0.0370 H     1 <1>   0.0800 
 29 H        0.4930    -3.0480     0.8840 H     1 <1>   0.0800 
 30 H       -0.6320    -4.1490    -1.7090 H     1 <1>   0.0800 
 31 H        4.6360     0.3090     0.0650 H     1 <1>   0.0800 
 32 H        1.8140     4.7140     0.4370 H     1 <1>   0.1500 
 33 H       -0.2610     1.8770    -1.1840 H     1 <1>   0.0800 
 34 H       -0.2560     3.6130    -0.9990 H     1 <1>   0.0800 
 35 H       -0.5940     2.5850     0.3780 H     1 <1>   0.0800 
 36 H       -0.4400    -5.3290     0.9770 H     1 <1>   0.4500 
 37 H        1.7390    -5.1700    -0.1010 H     1 <1>   0.0800 
 38 H        1.8220    -4.4330    -1.6750 H     1 <1>   0.0800 
 39 H        1.0610    -5.9580    -1.5160 H     1 <1>   0.0800 
 40 H        4.7760     0.5620     2.4120 H     1 <1>   0.0800 
 41 H        5.1440     2.2730     2.2720 H     1 <1>   0.0800 
 42 H        5.9960     2.9640    -0.3100 H     1 <1>   0.0800 
 43 H        5.9490     1.6210    -1.4440 H     1 <1>   0.0800 
 44 H       -0.4070    -7.0520    -0.6650 H     1 <1>   0.0800 
 45 H       -1.7950    -6.3440    -1.4440 H     1 <1>   0.0800 
 46 H       -2.8280    -4.1780    -0.3230 H     1 <1>   0.0800 
 47 H       -2.0560    -3.5960     1.1260 H     1 <1>   0.0800 
 48 H        6.9990    -0.0090     1.9790 H     1 <1>   0.0800 
 49 H        7.3320     1.6470     2.4350 H     1 <1>   0.0800 
 50 H        8.0400     2.0130     0.2590 H     1 <1>   0.0800 
 51 H        7.5170     0.4020    -0.1850 H     1 <1>   0.0800 
 52 H       -1.7480    -7.6200     1.3150 H     1 <1>   0.0800 
 53 H       -2.5460    -8.2220    -0.1180 H     1 <1>   0.0800 
 54 H       -4.1140    -4.9460     1.5740 H     1 <1>   0.0800 
 55 H       -2.7030    -5.6290     2.3450 H     1 <1>   0.0800 
@<TRIPOS>BOND
  1   1   2  2   
  2   2   3  am  
  3   2   4  1   
  4   3   5  1   
  5   3  25  1   
  6   4   6  1   
  7   4  26  1   
  8   4  27  1   
  9   5   7  1   
 10   5   8  2   
 11   6   9  1   
 12   6  28  1   
 13   6  29  1   
 14   7  10  1   
 15   7  11  1   
 16   8  12  1   
 17   8  13  1   
 18   9  14  1   
 19   9  15  1   
 20   9  30  1   
 21  10  12  2   
 22  11  16  1   
 23  11  17  1   
 24  11  31  1   
 25  12  32  1   
 26  13  33  1   
 27  13  34  1   
 28  13  35  1   
 29  14  18  1   
 30  14  19  1   
 31  14  36  1   
 32  15  37  1   
 33  15  38  1   
 34  15  39  1   
 35  16  20  1   
 36  16  40  1   
 37  16  41  1   
 38  17  21  1   
 39  17  42  1   
 40  17  43  1   
 41  18  22  1   
 42  18  44  1   
 43  18  45  1   
 44  19  23  1   
 45  19  46  1   
 46  19  47  1   
 47  20  21  1   
 48  20  48  1   
 49  20  49  1   
 50  21  50  1   
 51  21  51  1   
 52  22  24  1   
 53  22  52  1   
 54  22  53  1   
 55  23  24  1   
 56  23  54  1   
 57  23  55  1   
@<TRIPOS>SUBSTRUCTURE
  1 ****   2 GROUP 4 **** **** 0

# MOE 2024.06 (io_trps.svl 2023.06)
