@<TRIPOS>MOLECULE
NONAME
61 63 1 0 0 
SMALL
USER_CHARGES


@<TRIPOS>ATOM
  1 O       -2.3330     0.6930    -2.9700 O.2   1 <1>  -0.5700 
  2 C       -2.0860     1.5750    -2.1680 C.2   1 <1>   0.5440 
  3 N       -3.0730     1.8470    -1.2270 N.am  1 <1>  -0.6600 
  4 C       -0.7810     2.2370    -2.2440 C.ar  1 <1>   0.3960 
  5 C       -4.1490     0.8500    -0.9310 C.3   1 <1>   0.1400 
  6 C       -3.0130     2.9280    -0.2030 C.3   1 <1>   0.1400 
  7 N       -0.1520     2.6620    -1.1300 N.ar  1 <1>  -0.6200 
  8 C       -0.2040     2.3760    -3.5110 C.ar  1 <1>   0.1600 
  9 C       -3.8910     0.2120     0.4470 C.3   1 <1>   0.3430 
 10 C       -2.7160     2.3020     1.1730 C.3   1 <1>   0.3430 
 11 C        1.0430     3.1760    -1.3710 C.ar  1 <1>   0.4100 
 12 N        0.9850     2.9050    -3.7640 N.ar  1 <1>  -0.6200 
 13 N       -3.7320     1.2440     1.5420 N.4   1 <1>  -0.9590 
 14 N        1.7490     3.6330    -0.2740 N.pl3 1 <1>  -0.8380 
 15 C        1.5900     3.2760    -2.6580 C.ar  1 <1>   0.1600 
 16 C       -3.3760     0.5890     2.8370 C.3   1 <1>   0.2630 
 17 C        1.3680     4.9380     0.3160 C.3   1 <1>   0.2090 
 18 C        2.2880     2.6100     0.6660 C.3   1 <1>   0.1290 
 19 C        2.5760     5.8870     0.3070 C.3   1 <1>  -0.0800 
 20 C        2.2250     7.2800     0.8350 C.3   1 <1>   0.3430 
 21 C        3.1670     6.1240    -1.0890 C.3   1 <1>  -0.1600 
 22 N        2.5960     8.2430    -0.2450 N.4   1 <1>  -0.9590 
 23 C        3.6260     7.5690    -1.0720 C.3   1 <1>   0.3430 
 24 C        3.0760     9.5720     0.2590 C.3   1 <1>   0.3430 
 25 C        1.9740    10.3750     0.9590 C.3   1 <1>   0.1200 
 26 O        2.5470    11.5620     1.3870 O.3   1 <1>  -0.5600 
 27 C        1.6670    12.4320     2.0290 C.3   1 <1>   0.0400 
 28 H       -4.1790     0.0740    -1.6770 H     1 <1>   0.0800 
 29 H       -5.1070     1.3400    -0.9420 H     1 <1>   0.0800 
 30 H       -3.9590     3.4410    -0.1720 H     1 <1>   0.0800 
 31 H       -2.2700     3.6620    -0.4510 H     1 <1>   0.0800 
 32 H       -0.7590     2.0210    -4.3630 H     1 <1>   0.1500 
 33 H       -2.9920    -0.3790     0.3760 H     1 <1>   0.0800 
 34 H       -4.7040    -0.4540     0.6850 H     1 <1>   0.0800 
 35 H       -2.7080     3.0780     1.9210 H     1 <1>   0.0800 
 36 H       -1.7310     1.8660     1.1360 H     1 <1>   0.0800 
 37 H       -4.6420     1.7140     1.6510 H     1 <1>   0.4500 
 38 H        2.5770     3.6880    -2.7460 H     1 <1>   0.1500 
 39 H       -2.4270     0.0840     2.7520 H     1 <1>   0.0800 
 40 H       -4.1280    -0.1340     3.1100 H     1 <1>   0.0800 
 41 H       -3.3070     1.3230     3.6230 H     1 <1>   0.0800 
 42 H        1.0170     4.7880     1.3240 H     1 <1>   0.0800 
 43 H        0.5620     5.3650    -0.2580 H     1 <1>   0.0800 
 44 H        2.4230     1.6720     0.1530 H     1 <1>   0.0800 
 45 H        1.6060     2.4590     1.4840 H     1 <1>   0.0800 
 46 H        3.2420     2.9280     1.0510 H     1 <1>   0.0800 
 47 H        3.3340     5.4770     0.9530 H     1 <1>   0.0800 
 48 H        2.8020     7.4780     1.7240 H     1 <1>   0.0800 
 49 H        1.1760     7.3590     1.0720 H     1 <1>   0.0800 
 50 H        2.4150     6.0100    -1.8500 H     1 <1>   0.0800 
 51 H        3.9790     5.4510    -1.3020 H     1 <1>   0.0800 
 52 H        1.7780     8.3900    -0.8510 H     1 <1>   0.4500 
 53 H        3.6840     7.9860    -2.0650 H     1 <1>   0.0800 
 54 H        4.5900     7.6380    -0.5930 H     1 <1>   0.0800 
 55 H        3.4410    10.1580    -0.5680 H     1 <1>   0.0800 
 56 H        3.8880     9.4250     0.9520 H     1 <1>   0.0800 
 57 H        1.5990     9.8540     1.8230 H     1 <1>   0.0800 
 58 H        1.1760    10.6090     0.2760 H     1 <1>   0.0800 
 59 H        2.2160    13.3120     2.3170 H     1 <1>   0.0800 
 60 H        1.2660    11.9560     2.9070 H     1 <1>   0.0800 
 61 H        0.8770    12.7090     1.3520 H     1 <1>   0.0800 
@<TRIPOS>BOND
  1   1   2  2   
  2   2   3  am  
  3   2   4  1   
  4   3   5  1   
  5   3   6  1   
  6   4   7  ar  
  7   4   8  ar  
  8   5   9  1   
  9   5  28  1   
 10   5  29  1   
 11   6  10  1   
 12   6  30  1   
 13   6  31  1   
 14   7  11  ar  
 15   8  12  ar  
 16   8  32  1   
 17   9  13  1   
 18   9  33  1   
 19   9  34  1   
 20  10  13  1   
 21  10  35  1   
 22  10  36  1   
 23  11  14  1   
 24  11  15  ar  
 25  12  15  ar  
 26  13  16  1   
 27  13  37  1   
 28  14  17  1   
 29  14  18  1   
 30  15  38  1   
 31  16  39  1   
 32  16  40  1   
 33  16  41  1   
 34  17  19  1   
 35  17  42  1   
 36  17  43  1   
 37  18  44  1   
 38  18  45  1   
 39  18  46  1   
 40  19  20  1   
 41  19  21  1   
 42  19  47  1   
 43  20  22  1   
 44  20  48  1   
 45  20  49  1   
 46  21  23  1   
 47  21  50  1   
 48  21  51  1   
 49  22  23  1   
 50  22  24  1   
 51  22  52  1   
 52  23  53  1   
 53  23  54  1   
 54  24  25  1   
 55  24  55  1   
 56  24  56  1   
 57  25  26  1   
 58  25  57  1   
 59  25  58  1   
 60  26  27  1   
 61  27  59  1   
 62  27  60  1   
 63  27  61  1   
@<TRIPOS>SUBSTRUCTURE
  1 ****  17 GROUP 4 **** **** 0

# MOE 2024.06 (io_trps.svl 2023.06)
