@<TRIPOS>MOLECULE
NONAME
53 57 1 0 0 
SMALL
USER_CHARGES


@<TRIPOS>ATOM
  1 O       -0.8090     4.8570     2.4640 O.2   1 <1>  -0.5700 
  2 C       -0.5340     3.9710     1.6720 C.2   1 <1>   0.5440 
  3 N       -1.5700     3.1670     1.2230 N.am  1 <1>  -0.6600 
  4 C        0.8580     3.8150     1.2560 C.ar  1 <1>   0.3960 
  5 C       -3.0010     3.5970     1.3240 C.3   1 <1>   0.1400 
  6 C       -1.3960     1.9010     0.4590 C.3   1 <1>   0.1400 
  7 N        1.1900     3.5450     0.0100 N.ar  1 <1>  -0.6200 
  8 C        1.8490     3.9850     2.2580 C.ar  1 <1>   0.1600 
  9 C       -3.5920     3.8250    -0.0820 C.3   1 <1>   0.1440 
 10 C       -1.9340     2.0900    -0.9640 C.3   1 <1>  -0.1600 
 11 C        2.5210     3.4360    -0.2220 C.ar  1 <1>   0.3100 
 12 N        3.1300     3.8820     2.0800 N.ar  1 <1>  -0.6200 
 13 C       -5.0520     4.2050     0.0700 C.ar  1 <1>   0.1670 
 14 C       -3.4010     2.5590    -0.9490 C.3   1 <1>  -0.1600 
 15 C       -2.9890     5.0880    -0.7550 C.3   1 <1>  -0.1600 
 16 C        3.4870     3.5990     0.8020 C.ar  1 <1>   0.3100 
 17 C        2.9640     3.1480    -1.5220 C.ar  1 <1>  -0.1500 
 18 N       -6.0200     3.3820     0.3870 N.ar  1 <1>  -0.6200 
 19 C       -5.2490     5.5340    -0.1500 C.ar  1 <1>  -0.1440 
 20 C       -3.9620     6.2470    -0.4790 C.3   1 <1>  -0.0170 
 21 C        4.8450     3.4650     0.4800 C.ar  1 <1>  -0.1500 
 22 C        4.2980     3.0220    -1.8110 C.ar  1 <1>  -0.1500 
 23 C       -7.2320     3.9350     0.4720 C.ar  1 <1>   0.7200 
 24 C       -6.5290     6.0150    -0.0390 C.ar  1 <1>   0.1600 
 25 C        5.2490     3.1810    -0.8000 C.ar  1 <1>  -0.1500 
 26 N       -7.5290     5.2230     0.2710 N.ar  1 <1>  -0.6200 
 27 N       -8.2790     3.0950     0.8010 N.pl3 1 <1>  -0.8380 
 28 C       -8.1550     1.6130     0.7410 C.3   1 <1>   0.1290 
 29 C       -9.6060     3.6180     1.2260 C.3   1 <1>   0.1290 
 30 H       -3.0940     4.4990     1.9030 H     1 <1>   0.0800 
 31 H       -3.5630     2.8280     1.8270 H     1 <1>   0.0800 
 32 H       -1.9490     1.1210     0.9520 H     1 <1>   0.0800 
 33 H       -0.3640     1.5990     0.4310 H     1 <1>   0.0800 
 34 H        1.4970     4.2190     3.2480 H     1 <1>   0.1500 
 35 H       -1.8600     1.1590    -1.4970 H     1 <1>   0.0800 
 36 H       -1.3190     2.8090    -1.4770 H     1 <1>   0.0800 
 37 H       -3.7450     2.7410    -1.9520 H     1 <1>   0.0800 
 38 H       -4.0090     1.7690    -0.5420 H     1 <1>   0.0800 
 39 H       -2.9410     4.9390    -1.8190 H     1 <1>   0.0800 
 40 H       -1.9980     5.3140    -0.4030 H     1 <1>   0.0800 
 41 H        2.2200     3.0300    -2.2890 H     1 <1>   0.1500 
 42 H       -4.0660     6.8900    -1.3350 H     1 <1>   0.0800 
 43 H       -3.6370     6.8190     0.3740 H     1 <1>   0.0800 
 44 H        5.5620     3.5920     1.2710 H     1 <1>   0.1500 
 45 H        4.6280     2.8010    -2.8130 H     1 <1>   0.1500 
 46 H       -6.7350     7.0580    -0.2030 H     1 <1>   0.1500 
 47 H        6.2950     3.0800    -1.0380 H     1 <1>   0.1500 
 48 H       -7.4220     1.3240     0.0070 H     1 <1>   0.0800 
 49 H       -9.0980     1.1730     0.4680 H     1 <1>   0.0800 
 50 H       -7.8520     1.2390     1.7040 H     1 <1>   0.0800 
 51 H       -9.4970     4.5710     1.7140 H     1 <1>   0.0800 
 52 H      -10.0700     2.9360     1.9170 H     1 <1>   0.0800 
 53 H      -10.2380     3.7380     0.3640 H     1 <1>   0.0800 
@<TRIPOS>BOND
  1   1   2  2   
  2   2   3  am  
  3   2   4  1   
  4   3   5  1   
  5   3   6  1   
  6   4   7  ar  
  7   4   8  ar  
  8   5   9  1   
  9   5  30  1   
 10   5  31  1   
 11   6  10  1   
 12   6  32  1   
 13   6  33  1   
 14   7  11  ar  
 15   8  12  ar  
 16   8  34  1   
 17   9  13  1   
 18   9  14  1   
 19   9  15  1   
 20  10  14  1   
 21  10  35  1   
 22  10  36  1   
 23  11  16  ar  
 24  11  17  ar  
 25  12  16  ar  
 26  13  18  ar  
 27  13  19  ar  
 28  14  37  1   
 29  14  38  1   
 30  15  20  1   
 31  15  39  1   
 32  15  40  1   
 33  16  21  ar  
 34  17  22  ar  
 35  17  41  1   
 36  18  23  ar  
 37  19  20  1   
 38  19  24  ar  
 39  20  42  1   
 40  20  43  1   
 41  21  25  ar  
 42  21  44  1   
 43  22  25  ar  
 44  22  45  1   
 45  23  26  ar  
 46  23  27  1   
 47  24  26  ar  
 48  24  46  1   
 49  25  47  1   
 50  27  28  1   
 51  27  29  1   
 52  28  48  1   
 53  28  49  1   
 54  28  50  1   
 55  29  51  1   
 56  29  52  1   
 57  29  53  1   
@<TRIPOS>SUBSTRUCTURE
  1 ****   3 GROUP 4 **** **** 0

# MOE 2024.06 (io_trps.svl 2023.06)
