@<TRIPOS>MOLECULE
NONAME
45 48 1 0 0 
SMALL
USER_CHARGES


@<TRIPOS>ATOM
  1 O       -0.1490     0.9620     0.8870 O.2   1 <1>  -0.5700 
  2 C       -0.0050     2.1700     0.7740 C.2   1 <1>   0.5440 
  3 N       -1.1520     2.9490     0.7290 N.am  1 <1>  -0.6600 
  4 C        1.3570     2.7040     0.6660 C.ar  1 <1>   0.3960 
  5 C       -2.4810     2.4200     1.1640 C.3   1 <1>   0.1400 
  6 C       -1.1980     4.3530     0.2340 C.3   1 <1>   0.1400 
  7 N        1.6840     3.8910     1.2680 N.ar  1 <1>  -0.6200 
  8 C        2.3120     1.9960    -0.0280 C.ar  1 <1>  -0.1500 
  9 C       -3.5150     2.4800     0.0130 C.3   1 <1>   0.0000 
 10 C       -2.2210     4.4790    -0.9020 C.3   1 <1>  -0.1600 
 11 C        2.9040     4.3170     1.1580 C.ar  1 <1>   0.1600 
 12 C        3.6330     2.4460    -0.1610 C.ar  1 <1>   0.0000 
 13 C       -4.8980     1.9500     0.4440 C.3   1 <1>   0.2000 
 14 C       -3.6030     3.9310    -0.5070 C.3   1 <1>  -0.1600 
 15 C       -3.1380     1.4840    -1.0990 C.3   1 <1>  -0.1600 
 16 C        3.9420     3.6630     0.4610 C.ar  1 <1>   0.0000 
 17 C        4.6390     1.7580    -0.8660 C.ar  1 <1>  -0.1500 
 18 O       -5.2280     2.2820     1.7470 O.3   1 <1>  -0.6800 
 19 C       -4.8600     0.4280     0.2820 C.3   1 <1>  -0.1600 
 20 C       -3.6570     0.1260    -0.6200 C.3   1 <1>  -0.1600 
 21 C        5.2550     4.1620     0.3590 C.ar  1 <1>  -0.1500 
 22 C        5.9080     2.2630    -0.9520 C.ar  1 <1>  -0.1500 
 23 C        6.2190     3.4790    -0.3330 C.ar  1 <1>  -0.1500 
 24 H       -2.3870     1.4120     1.5250 H     1 <1>   0.0800 
 25 H       -2.8200     3.0270     1.9840 H     1 <1>   0.0800 
 26 H       -1.4700     5.0000     1.0500 H     1 <1>   0.0800 
 27 H       -0.2380     4.6640    -0.1350 H     1 <1>   0.0800 
 28 H        2.0450     1.0610    -0.4840 H     1 <1>   0.1500 
 29 H       -2.3130     5.5150    -1.1760 H     1 <1>   0.0800 
 30 H       -1.8500     3.9500    -1.7610 H     1 <1>   0.0800 
 31 H        3.1540     5.2480     1.6370 H     1 <1>   0.1500 
 32 H       -5.6590     2.3570    -0.2010 H     1 <1>   0.0800 
 33 H       -4.2660     3.9840    -1.3530 H     1 <1>   0.0800 
 34 H       -4.0160     4.5520     0.2690 H     1 <1>   0.0800 
 35 H       -3.6470     1.7480    -2.0100 H     1 <1>   0.0800 
 36 H       -2.0810     1.4540    -1.2950 H     1 <1>   0.0800 
 37 H        4.3910     0.8230    -1.3380 H     1 <1>   0.1500 
 38 H       -4.6720     1.7760     2.3680 H     1 <1>   0.4000 
 39 H       -4.7390    -0.0720     1.2270 H     1 <1>   0.0800 
 40 H       -5.7700     0.0920    -0.1830 H     1 <1>   0.0800 
 41 H       -2.8880    -0.3650    -0.0470 H     1 <1>   0.0800 
 42 H       -3.9250    -0.5050    -1.4500 H     1 <1>   0.0800 
 43 H        5.4930     5.0960     0.8370 H     1 <1>   0.1500 
 44 H        6.6770     1.7370    -1.4910 H     1 <1>   0.1500 
 45 H        7.2220     3.8630    -0.4090 H     1 <1>   0.1500 
@<TRIPOS>BOND
  1   1   2  2   
  2   2   3  am  
  3   2   4  1   
  4   3   5  1   
  5   3   6  1   
  6   4   7  ar  
  7   4   8  ar  
  8   5   9  1   
  9   5  24  1   
 10   5  25  1   
 11   6  10  1   
 12   6  26  1   
 13   6  27  1   
 14   7  11  ar  
 15   8  12  ar  
 16   8  28  1   
 17   9  13  1   
 18   9  14  1   
 19   9  15  1   
 20  10  14  1   
 21  10  29  1   
 22  10  30  1   
 23  11  16  ar  
 24  11  31  1   
 25  12  16  ar  
 26  12  17  ar  
 27  13  18  1   
 28  13  19  1   
 29  13  32  1   
 30  14  33  1   
 31  14  34  1   
 32  15  20  1   
 33  15  35  1   
 34  15  36  1   
 35  16  21  ar  
 36  17  22  ar  
 37  17  37  1   
 38  18  38  1   
 39  19  20  1   
 40  19  39  1   
 41  19  40  1   
 42  20  41  1   
 43  20  42  1   
 44  21  23  ar  
 45  21  43  1   
 46  22  23  ar  
 47  22  44  1   
 48  23  45  1   
@<TRIPOS>SUBSTRUCTURE
  1 ****   2 GROUP 4 **** **** 0

# MOE 2024.06 (io_trps.svl 2023.06)
