@<TRIPOS>MOLECULE
NONAME
51 53 1 0 0 
SMALL
USER_CHARGES


@<TRIPOS>ATOM
  1 S        1.2640    -0.2370     1.5380 S.o2  1 <1>   1.2040 
  2 O        2.6600    -0.6140     1.5080 O.2   1 <1>  -0.6500 
  3 O        0.4960    -0.3930     2.7510 O.2   1 <1>  -0.6500 
  4 C        0.3880    -1.0250     0.1630 C.ar  1 <1>  -0.0090 
  5 C        1.1960     1.4890     1.0940 C.3   1 <1>  -0.0550 
  6 C        1.0880    -1.6140    -0.8890 C.ar  1 <1>  -0.1500 
  7 C       -1.0050    -1.0270     0.1150 C.ar  1 <1>  -0.1500 
  8 C        1.9640     1.7540    -0.1950 C.3   1 <1>   0.2090 
  9 C        0.4250    -2.1790    -1.9660 C.ar  1 <1>  -0.1500 
 10 C       -1.6860    -1.5870    -0.9530 C.ar  1 <1>  -0.1500 
 11 N        2.0550     3.2160    -0.4130 N.pl3 1 <1>  -0.8690 
 12 C       -0.9550    -2.1520    -1.9790 C.ar  1 <1>   0.1900 
 13 C        3.0500     4.0650    -0.1100 C.ar  1 <1>   0.4100 
 14 F       -1.5880    -2.6760    -2.9910 F     1 <1>  -0.1900 
 15 N        2.8690     5.2920    -0.5370 N.ar  1 <1>  -0.6200 
 16 C        4.1950     3.6840     0.6130 C.ar  1 <1>  -0.1500 
 17 C        3.8080     6.1920    -0.2790 C.ar  1 <1>   0.7710 
 18 C        5.1490     4.6130     0.8620 C.ar  1 <1>   0.2180 
 19 N        4.9250     5.8650     0.3970 N.ar  1 <1>  -0.1790 
 20 N        3.6440     7.4720    -0.7110 N.pl3 1 <1>  -0.8380 
 21 C        6.4350     4.3210     1.6260 C.3   1 <1>  -0.0170 
 22 C        4.4970     8.6690    -0.3830 C.3   1 <1>   0.2090 
 23 C        2.5000     7.8670    -1.6170 C.3   1 <1>   0.2090 
 24 C        7.6830     4.5180     0.7540 C.3   1 <1>  -0.2400 
 25 C        3.6360     9.8510     0.1020 C.3   1 <1>   0.1200 
 26 C        1.7520     9.0970    -1.0720 C.3   1 <1>   0.1200 
 27 O        2.6440    10.1480    -0.8340 O.3   1 <1>  -0.5600 
 28 H        1.6370     2.0640     1.8840 H     1 <1>   0.0800 
 29 H        0.1770     1.8000     0.9760 H     1 <1>   0.0800 
 30 H        2.1660    -1.6390    -0.8670 H     1 <1>   0.1500 
 31 H       -1.5660    -0.5910     0.9260 H     1 <1>   0.1500 
 32 H        1.4590     1.3030    -1.0340 H     1 <1>   0.0800 
 33 H        2.9530     1.3300    -0.1400 H     1 <1>   0.0800 
 34 H        0.9620    -2.6340    -2.7800 H     1 <1>   0.1500 
 35 H       -2.7610    -1.5910    -0.9920 H     1 <1>   0.1500 
 36 H        1.2740     3.6280    -0.9380 H     1 <1>   0.4000 
 37 H        4.2940     2.6700     0.9510 H     1 <1>   0.1500 
 38 H        5.6060     6.6030     0.5120 H     1 <1>   0.4570 
 39 H        6.4190     3.3020     1.9760 H     1 <1>   0.0800 
 40 H        6.4950     4.9540     2.4940 H     1 <1>   0.0800 
 41 H        5.0310     8.9780    -1.2670 H     1 <1>   0.0800 
 42 H        5.2180     8.4460     0.3810 H     1 <1>   0.0800 
 43 H        1.7890     7.0700    -1.7440 H     1 <1>   0.0800 
 44 H        2.8870     8.1060    -2.5930 H     1 <1>   0.0800 
 45 H        7.6380     3.8870    -0.1170 H     1 <1>   0.0800 
 46 H        8.5630     4.2490     1.3130 H     1 <1>   0.0800 
 47 H        7.7900     5.5400     0.4380 H     1 <1>   0.0800 
 48 H        4.2420    10.7320     0.2210 H     1 <1>   0.0800 
 49 H        3.1640     9.6270     1.0430 H     1 <1>   0.0800 
 50 H        1.2420     8.8580    -0.1550 H     1 <1>   0.0800 
 51 H        1.0280     9.4380    -1.7910 H     1 <1>   0.0800 
@<TRIPOS>BOND
  1   1   2  2   
  2   1   3  2   
  3   1   4  1   
  4   1   5  1   
  5   4   6  ar  
  6   4   7  ar  
  7   5   8  1   
  8   5  28  1   
  9   5  29  1   
 10   6   9  ar  
 11   6  30  1   
 12   7  10  ar  
 13   7  31  1   
 14   8  11  1   
 15   8  32  1   
 16   8  33  1   
 17   9  12  ar  
 18   9  34  1   
 19  10  12  ar  
 20  10  35  1   
 21  11  13  1   
 22  11  36  1   
 23  12  14  1   
 24  13  15  ar  
 25  13  16  ar  
 26  15  17  ar  
 27  16  18  ar  
 28  16  37  1   
 29  17  19  ar  
 30  17  20  1   
 31  18  19  ar  
 32  18  21  1   
 33  19  38  1   
 34  20  22  1   
 35  20  23  1   
 36  21  24  1   
 37  21  39  1   
 38  21  40  1   
 39  22  25  1   
 40  22  41  1   
 41  22  42  1   
 42  23  26  1   
 43  23  43  1   
 44  23  44  1   
 45  24  45  1   
 46  24  46  1   
 47  24  47  1   
 48  25  27  1   
 49  25  48  1   
 50  25  49  1   
 51  26  27  1   
 52  26  50  1   
 53  26  51  1   
@<TRIPOS>SUBSTRUCTURE
  1 ****  11 GROUP 4 **** **** 0

# MOE 2024.06 (io_trps.svl 2023.06)
