@<TRIPOS>MOLECULE
NONAME
30 31 1 0 0 
SMALL
USER_CHARGES


@<TRIPOS>ATOM
  1 F       -0.7580    -0.5490     0.9330 F     1 <1>  -0.1900 
  2 C       -1.8430    -1.1400     0.4830 C.ar  1 <1>   0.1900 
  3 C       -3.0160    -0.4610     0.1750 C.ar  1 <1>   0.3920 
  4 C       -1.8130    -2.4970     0.3060 C.ar  1 <1>   0.1600 
  5 O       -3.2130     0.8740     0.2890 O.3   1 <1>  -0.3630 
  6 N       -4.0650    -1.1140    -0.2710 N.ar  1 <1>  -0.6200 
  7 N       -2.8590    -3.1560    -0.1420 N.ar  1 <1>  -0.6200 
  8 C       -2.2480     1.7900     0.7550 C.3   1 <1>   0.0400 
  9 C       -3.9480    -2.4340    -0.4040 C.ar  1 <1>   0.7200 
 10 N       -5.0560    -3.1230    -0.8580 N.pl3 1 <1>  -0.8380 
 11 C       -5.1940    -4.6020    -0.5970 C.3   1 <1>   0.2700 
 12 C       -6.3200    -2.4260    -1.2130 C.3   1 <1>   0.2090 
 13 C       -5.7440    -4.9390     0.7950 C.2   1 <1>   0.5690 
 14 C       -7.2190    -2.2470     0.0150 C.3   1 <1>  -0.1600 
 15 O       -5.1550    -5.7260     1.4960 O.2   1 <1>  -0.5700 
 16 N       -6.9070    -4.4000     1.2450 N.am  1 <1>  -0.7300 
 17 C       -7.8660    -3.5420     0.5180 C.3   1 <1>   0.1400 
 18 H       -0.9190    -3.0490     0.5350 H     1 <1>   0.1500 
 19 H       -2.6870     2.7720     0.7420 H     1 <1>   0.0800 
 20 H       -1.3940     1.7650     0.1010 H     1 <1>   0.0800 
 21 H       -1.9730     1.5300     1.7620 H     1 <1>   0.0800 
 22 H       -4.2440    -5.0920    -0.7130 H     1 <1>   0.0800 
 23 H       -5.8520    -5.0290    -1.3300 H     1 <1>   0.0800 
 24 H       -6.8360    -2.9860    -1.9730 H     1 <1>   0.0800 
 25 H       -6.0950    -1.4600    -1.6340 H     1 <1>   0.0800 
 26 H       -8.0120    -1.5790    -0.2700 H     1 <1>   0.0800 
 27 H       -6.6730    -1.7660     0.8080 H     1 <1>   0.0800 
 28 H       -7.1580    -4.6560     2.2020 H     1 <1>   0.3700 
 29 H       -8.2870    -4.0920    -0.3060 H     1 <1>   0.0800 
 30 H       -8.6670    -3.2900     1.1920 H     1 <1>   0.0800 
@<TRIPOS>BOND
  1   1   2  1   
  2   2   3  ar  
  3   2   4  ar  
  4   3   5  1   
  5   3   6  ar  
  6   4   7  ar  
  7   4  18  1   
  8   5   8  1   
  9   6   9  ar  
 10   7   9  ar  
 11   8  19  1   
 12   8  20  1   
 13   8  21  1   
 14   9  10  1   
 15  10  11  1   
 16  10  12  1   
 17  11  13  1   
 18  11  22  1   
 19  11  23  1   
 20  12  14  1   
 21  12  24  1   
 22  12  25  1   
 23  13  15  2   
 24  13  16  am  
 25  14  17  1   
 26  14  26  1   
 27  14  27  1   
 28  16  17  1   
 29  16  28  1   
 30  17  29  1   
 31  17  30  1   
@<TRIPOS>SUBSTRUCTURE
  1 ****   9 GROUP 4 **** **** 0

# MOE 2024.06 (io_trps.svl 2023.06)
