@<TRIPOS>MOLECULE
NONAME
43 44 1 0 0 
SMALL
USER_CHARGES


@<TRIPOS>ATOM
  1 S       -2.2380     0.2670     1.1770 S.3   1 <1>  -0.0800 
  2 C       -1.7250    -0.8790    -0.0160 C.2   1 <1>   0.4420 
  3 C       -1.3250     1.4600     0.3200 C.2   1 <1>   0.1980 
  4 N       -0.9620    -0.3490    -0.9030 N.2   1 <1>  -0.3380 
  5 N       -2.1640    -2.1730     0.1430 N.am  1 <1>  -0.4940 
  6 N       -0.7400     0.9860    -0.7050 N.2   1 <1>  -0.3380 
  7 C       -1.3300     2.8730     0.8680 C.3   1 <1>   0.0200 
  8 C       -2.1250    -3.2400    -0.7200 C.2   1 <1>   0.6160 
  9 C       -0.4970     3.8110    -0.0020 C.3   1 <1>   0.1200 
 10 O       -1.9650    -3.0180    -1.9050 O.2   1 <1>  -0.5700 
 11 C       -2.2900    -4.5940    -0.2410 C.2   1 <1>   0.0290 
 12 O       -0.5450     5.0810     0.5630 O.3   1 <1>  -0.5600 
 13 C       -3.2190    -4.8260     0.8330 C.2   1 <1>   0.6160 
 14 C       -1.6120    -5.6790    -0.7620 C.2   1 <1>  -0.1380 
 15 C        0.1780     6.0340    -0.1390 C.3   1 <1>   0.1200 
 16 O       -3.7650    -3.8950     1.4210 O.2   1 <1>  -0.5700 
 17 N       -3.4930    -6.1290     1.2500 N.am  1 <1>  -0.4690 
 18 C       -1.8880    -6.9730    -0.2800 C.2   1 <1>  -0.1500 
 19 C       -0.5520    -5.5710    -1.8550 C.3   1 <1>  -0.1020 
 20 C        0.0270     7.3590     0.5970 C.3   1 <1>  -0.2400 
 21 C       -2.8070    -7.1900     0.6990 C.2   1 <1>  -0.0290 
 22 C       -4.5180    -6.3560     2.3190 C.3   1 <1>   0.0600 
 23 C       -3.0750    -8.6060     1.1930 C.3   1 <1>  -0.1020 
 24 H       -2.6950    -2.3670     0.9970 H     1 <1>   0.3700 
 25 H       -0.9260     2.8620     1.8640 H     1 <1>   0.0800 
 26 H       -2.3420     3.2310     0.9030 H     1 <1>   0.0800 
 27 H       -0.9000     3.8560    -1.0000 H     1 <1>   0.0800 
 28 H        0.5290     3.4820    -0.0360 H     1 <1>   0.0800 
 29 H       -0.2180     6.1070    -1.1380 H     1 <1>   0.0800 
 30 H        1.2120     5.7330    -0.1730 H     1 <1>   0.0800 
 31 H       -1.3510    -7.8000    -0.7120 H     1 <1>   0.1500 
 32 H        0.1320    -6.3990    -1.8150 H     1 <1>   0.0800 
 33 H        0.0240    -4.6690    -1.7480 H     1 <1>   0.0800 
 34 H       -1.0250    -5.5610    -2.8220 H     1 <1>   0.0800 
 35 H       -1.0100     7.6420     0.6370 H     1 <1>   0.0800 
 36 H        0.5750     8.1260     0.0830 H     1 <1>   0.0800 
 37 H        0.4130     7.2700     1.5970 H     1 <1>   0.0800 
 38 H       -5.1430    -5.4910     2.4540 H     1 <1>   0.0800 
 39 H       -4.0240    -6.5730     3.2490 H     1 <1>   0.0800 
 40 H       -5.1570    -7.1770     2.0510 H     1 <1>   0.0800 
 41 H       -2.9090    -8.6690     2.2540 H     1 <1>   0.0800 
 42 H       -2.4180    -9.3090     0.7120 H     1 <1>   0.0800 
 43 H       -4.0870    -8.8930     0.9730 H     1 <1>   0.0800 
@<TRIPOS>BOND
  1   1   2  1   
  2   1   3  1   
  3   2   4  2   
  4   2   5  1   
  5   3   6  2   
  6   3   7  1   
  7   4   6  1   
  8   5   8  am  
  9   5  24  1   
 10   7   9  1   
 11   7  25  1   
 12   7  26  1   
 13   8  10  2   
 14   8  11  1   
 15   9  12  1   
 16   9  27  1   
 17   9  28  1   
 18  11  13  1   
 19  11  14  2   
 20  12  15  1   
 21  13  16  2   
 22  13  17  am  
 23  14  18  1   
 24  14  19  1   
 25  15  20  1   
 26  15  29  1   
 27  15  30  1   
 28  17  21  1   
 29  17  22  1   
 30  18  21  2   
 31  18  31  1   
 32  19  32  1   
 33  19  33  1   
 34  19  34  1   
 35  20  35  1   
 36  20  36  1   
 37  20  37  1   
 38  21  23  1   
 39  22  38  1   
 40  22  39  1   
 41  22  40  1   
 42  23  41  1   
 43  23  42  1   
 44  23  43  1   
@<TRIPOS>SUBSTRUCTURE
  1 ****   5 GROUP 4 **** **** 0

# MOE 2024.06 (io_trps.svl 2023.06)
