@<TRIPOS>MOLECULE
NONAME
53 55 1 0 0 
SMALL
USER_CHARGES


@<TRIPOS>ATOM
  1 O        1.0360    -2.8140    -3.0210 O.2   1 <1>  -0.5700 
  2 C        0.0690    -2.5070    -2.3620 C.2   1 <1>   0.5690 
  3 N        0.1620    -1.8180    -1.1910 N.am  1 <1>  -0.4930 
  4 C       -1.3190    -2.9230    -2.8770 C.3   1 <1>   0.1710 
  5 C        1.2990    -1.3520    -0.4890 C.2   1 <1>   0.0630 
  6 N       -2.5310    -2.3640    -2.2000 N.3   1 <1>  -0.8100 
  7 C        1.3070    -0.7930     0.7410 C.2   1 <1>  -0.3320 
  8 C        2.6360    -1.3570    -0.8860 C.2   1 <1>   0.1390 
  9 C       -2.6560    -0.9030    -2.3150 C.3   1 <1>   0.1100 
 10 C       -2.7810    -2.9070    -0.8520 C.3   1 <1>   0.1100 
 11 N        2.6000    -0.4940     1.0180 N.pl3 1 <1>   0.3140 
 12 C        0.1450    -0.5290     1.6890 C.3   1 <1>  -0.0600 
 13 N        3.4200    -0.8410     0.0130 N.2   1 <1>  -0.7070 
 14 C       -4.0370    -0.4630    -1.8290 C.3   1 <1>  -0.1600 
 15 C       -4.1450    -2.4460    -0.3360 C.3   1 <1>  -0.1600 
 16 C        3.1260     0.1250     2.2420 C.3   1 <1>   0.0160 
 17 C       -4.3090    -0.9190    -0.3740 C.3   1 <1>   0.2800 
 18 O       -3.2870    -0.3960     0.4430 O.3   1 <1>  -0.5600 
 19 C       -5.7240    -0.5400     0.1970 C.3   1 <1>   0.2000 
 20 C       -3.2250     0.9870     0.6650 C.3   1 <1>   0.1200 
 21 O       -6.6300    -0.2910    -0.8500 O.3   1 <1>  -0.6800 
 22 C       -5.6990     0.6460     1.2060 C.3   1 <1>   0.2800 
 23 C       -4.6090     1.6420     0.8080 C.3   1 <1>  -0.1600 
 24 O       -5.3810     0.1570     2.4610 O.3   1 <1>  -0.6800 
 25 C       -7.0520     1.3460     1.3910 C.3   1 <1>  -0.2400 
 26 H       -0.7380    -1.6020    -0.7610 H     1 <1>   0.3700 
 27 H       -1.3690    -3.9960    -2.8360 H     1 <1>   0.0800 
 28 H       -1.3630    -2.6550    -3.9170 H     1 <1>   0.0800 
 29 H        2.9820    -1.7420    -1.8300 H     1 <1>   0.1500 
 30 H       -1.8980    -0.4050    -1.7370 H     1 <1>   0.0800 
 31 H       -2.5370    -0.6140    -3.3460 H     1 <1>   0.0800 
 32 H       -2.7680    -3.9830    -0.8920 H     1 <1>   0.0800 
 33 H       -2.0260    -2.5890    -0.1590 H     1 <1>   0.0800 
 34 H       -0.7770    -0.8930     1.2740 H     1 <1>   0.0800 
 35 H        0.0450     0.5270     1.8680 H     1 <1>   0.0800 
 36 H        0.3100    -1.0290     2.6260 H     1 <1>   0.0800 
 37 H       -4.7630    -0.9070    -2.4870 H     1 <1>   0.0800 
 38 H       -4.1300     0.6010    -1.9220 H     1 <1>   0.0800 
 39 H       -4.2760    -2.7940     0.6730 H     1 <1>   0.0800 
 40 H       -4.9110    -2.9020    -0.9380 H     1 <1>   0.0800 
 41 H        2.6750     1.0900     2.3700 H     1 <1>   0.0800 
 42 H        4.1910     0.2340     2.1500 H     1 <1>   0.0800 
 43 H        2.8990    -0.5050     3.0800 H     1 <1>   0.0800 
 44 H       -6.1320    -1.3870     0.7190 H     1 <1>   0.0800 
 45 H       -2.6700     1.1210     1.5770 H     1 <1>   0.0800 
 46 H       -2.6690     1.4380    -0.1380 H     1 <1>   0.0800 
 47 H       -6.3020     0.4330    -1.4130 H     1 <1>   0.4000 
 48 H       -4.8730     2.0840    -0.1350 H     1 <1>   0.0800 
 49 H       -4.5540     2.4480     1.5180 H     1 <1>   0.0800 
 50 H       -5.4990     0.8580     3.1270 H     1 <1>   0.4000 
 51 H       -7.3560     1.8240     0.4770 H     1 <1>   0.0800 
 52 H       -6.9970     2.1000     2.1550 H     1 <1>   0.0800 
 53 H       -7.8050     0.6250     1.6530 H     1 <1>   0.0800 
@<TRIPOS>BOND
  1   1   2  2   
  2   2   3  am  
  3   2   4  1   
  4   3   5  1   
  5   3  26  1   
  6   4   6  1   
  7   4  27  1   
  8   4  28  1   
  9   5   7  2   
 10   5   8  1   
 11   6   9  1   
 12   6  10  1   
 13   7  11  1   
 14   7  12  1   
 15   8  13  2   
 16   8  29  1   
 17   9  14  1   
 18   9  30  1   
 19   9  31  1   
 20  10  15  1   
 21  10  32  1   
 22  10  33  1   
 23  11  13  1   
 24  11  16  1   
 25  12  34  1   
 26  12  35  1   
 27  12  36  1   
 28  14  17  1   
 29  14  37  1   
 30  14  38  1   
 31  15  17  1   
 32  15  39  1   
 33  15  40  1   
 34  16  41  1   
 35  16  42  1   
 36  16  43  1   
 37  17  18  1   
 38  17  19  1   
 39  18  20  1   
 40  19  21  1   
 41  19  22  1   
 42  19  44  1   
 43  20  23  1   
 44  20  45  1   
 45  20  46  1   
 46  21  47  1   
 47  22  23  1   
 48  22  24  1   
 49  22  25  1   
 50  23  48  1   
 51  23  49  1   
 52  24  50  1   
 53  25  51  1   
 54  25  52  1   
 55  25  53  1   
@<TRIPOS>SUBSTRUCTURE
  1 ****  18 GROUP 4 **** **** 0

# MOE 2024.06 (io_trps.svl 2023.06)
