@<TRIPOS>MOLECULE
NONAME
58 60 1 0 0 
SMALL
USER_CHARGES


@<TRIPOS>ATOM
  1 S       -0.1710     0.0190    -2.2260 S.o2  1 <1>   1.4470 
  2 O        0.5420     0.8170    -3.2010 O.2   1 <1>  -0.6500 
  3 O       -1.1750    -0.8880    -2.7440 O.2   1 <1>  -0.6500 
  4 N       -1.0460     1.1030    -1.2560 N.am  1 <1>  -0.8490 
  5 C        1.0150    -0.7630    -1.0490 C.ar  1 <1>  -0.0090 
  6 C       -1.8590     0.4140    -0.2520 C.3   1 <1>   0.1960 
  7 C       -1.8550     2.0070    -2.0730 C.3   1 <1>   0.1960 
  8 C        2.0910    -0.0290    -0.5110 C.ar  1 <1>  -0.1440 
  9 C        0.8780    -2.1000    -0.6430 C.ar  1 <1>  -0.1430 
 10 C       -2.5350     1.4270     0.6750 C.3   1 <1>  -0.1600 
 11 C       -2.5030     3.0760    -1.1920 C.3   1 <1>  -0.1600 
 12 C        3.0120    -0.6200     0.3600 C.ar  1 <1>  -0.1430 
 13 C        2.2770     1.4500    -0.8860 C.3   1 <1>  -0.0970 
 14 C        1.7740    -2.6660     0.2440 C.ar  1 <1>  -0.1500 
 15 C       -0.2360    -3.0230    -1.1330 C.3   1 <1>  -0.0970 
 16 C       -3.3800     2.4540    -0.0940 C.3   1 <1>   0.2800 
 17 C        2.8390    -1.9430     0.7520 C.ar  1 <1>   0.0830 
 18 C        4.2220     0.1580     0.8930 C.3   1 <1>  -0.0970 
 19 O       -3.6900     3.4520     0.8450 O.3   1 <1>  -0.5600 
 20 C       -4.6850     1.8240    -0.6580 C.3   1 <1>  -0.1600 
 21 O        3.7240    -2.4880     1.6300 O.3   1 <1>  -0.3630 
 22 C       -4.6940     4.3670     0.5110 C.3   1 <1>   0.1200 
 23 C       -5.9170     2.1420     0.1930 C.3   1 <1>   0.2800 
 24 C        3.6520    -3.8320     2.0520 C.3   1 <1>   0.0400 
 25 C       -6.0500     3.6580     0.3570 C.3   1 <1>  -0.1600 
 26 O       -5.7100     1.6170     1.4410 O.3   1 <1>  -0.6800 
 27 C       -7.1910     1.5000    -0.3500 C.3   1 <1>  -0.2400 
 28 H       -1.2290    -0.2240     0.3460 H     1 <1>   0.0800 
 29 H       -2.5960    -0.2060    -0.7340 H     1 <1>   0.0800 
 30 H       -2.6050     1.4470    -2.6070 H     1 <1>   0.0800 
 31 H       -1.2270     2.4980    -2.7980 H     1 <1>   0.0800 
 32 H       -1.7640     1.9410     1.2220 H     1 <1>   0.0800 
 33 H       -3.1460     0.8980     1.3810 H     1 <1>   0.0800 
 34 H       -3.0830     3.7290    -1.8170 H     1 <1>   0.0800 
 35 H       -1.7200     3.6560    -0.7380 H     1 <1>   0.0800 
 36 H        1.3420     1.9690    -0.9530 H     1 <1>   0.0800 
 37 H        2.7800     1.5240    -1.8340 H     1 <1>   0.0800 
 38 H        2.8440     1.9970    -0.1580 H     1 <1>   0.0800 
 39 H        1.6350    -3.6880     0.5370 H     1 <1>   0.1500 
 40 H       -1.1990    -2.6200    -0.8800 H     1 <1>   0.0800 
 41 H       -0.1690    -3.9990    -0.6890 H     1 <1>   0.0800 
 42 H       -0.1710    -3.1500    -2.1990 H     1 <1>   0.0800 
 43 H        4.7020     0.6960     0.0970 H     1 <1>   0.0800 
 44 H        4.9700    -0.4840     1.3200 H     1 <1>   0.0800 
 45 H        3.9050     0.8500     1.6510 H     1 <1>   0.0800 
 46 H       -4.5910     0.7600    -0.7680 H     1 <1>   0.0800 
 47 H       -4.8640     2.2080    -1.6460 H     1 <1>   0.0800 
 48 H       -4.4140     4.8670    -0.4000 H     1 <1>   0.0800 
 49 H       -4.7430     5.0990     1.2980 H     1 <1>   0.0800 
 50 H        4.4720    -4.0140     2.7230 H     1 <1>   0.0800 
 51 H        3.7360    -4.4720     1.1910 H     1 <1>   0.0800 
 52 H        2.7200    -3.9880     2.5630 H     1 <1>   0.0800 
 53 H       -6.5340     4.0710    -0.5090 H     1 <1>   0.0800 
 54 H       -6.6820     3.8810     1.1990 H     1 <1>   0.0800 
 55 H       -4.9420     2.1000     1.8170 H     1 <1>   0.4000 
 56 H       -7.4030     1.8670    -1.3370 H     1 <1>   0.0800 
 57 H       -8.0240     1.7330     0.2890 H     1 <1>   0.0800 
 58 H       -7.0760     0.4320    -0.4000 H     1 <1>   0.0800 
@<TRIPOS>BOND
  1   1   2  2   
  2   1   3  2   
  3   1   4  am  
  4   1   5  1   
  5   4   6  1   
  6   4   7  1   
  7   5   8  ar  
  8   5   9  ar  
  9   6  10  1   
 10   6  28  1   
 11   6  29  1   
 12   7  11  1   
 13   7  30  1   
 14   7  31  1   
 15   8  12  ar  
 16   8  13  1   
 17   9  14  ar  
 18   9  15  1   
 19  10  16  1   
 20  10  32  1   
 21  10  33  1   
 22  11  16  1   
 23  11  34  1   
 24  11  35  1   
 25  12  17  ar  
 26  12  18  1   
 27  13  36  1   
 28  13  37  1   
 29  13  38  1   
 30  14  17  ar  
 31  14  39  1   
 32  15  40  1   
 33  15  41  1   
 34  15  42  1   
 35  16  19  1   
 36  16  20  1   
 37  17  21  1   
 38  18  43  1   
 39  18  44  1   
 40  18  45  1   
 41  19  22  1   
 42  20  23  1   
 43  20  46  1   
 44  20  47  1   
 45  21  24  1   
 46  22  25  1   
 47  22  48  1   
 48  22  49  1   
 49  23  25  1   
 50  23  26  1   
 51  23  27  1   
 52  24  50  1   
 53  24  51  1   
 54  24  52  1   
 55  25  53  1   
 56  25  54  1   
 57  26  55  1   
 58  27  56  1   
 59  27  57  1   
 60  27  58  1   
@<TRIPOS>SUBSTRUCTURE
  1 ****   6 GROUP 4 **** **** 0

# MOE 2024.06 (io_trps.svl 2023.06)
