@<TRIPOS>MOLECULE
NONAME
40 42 1 0 0 
SMALL
USER_CHARGES


@<TRIPOS>ATOM
  1 CL      -0.1990    -0.2700    -0.4910 Cl    1 <1>  -0.1230 
  2 C       -1.7560     0.3780     0.0040 C.2   1 <1>   0.1230 
  3 C       -2.8780    -0.3520     0.4190 C.2   1 <1>   0.2030 
  4 C       -2.0790     1.6840     0.0290 C.2   1 <1>  -0.3320 
  5 N       -3.8640     0.5010     0.6790 N.2   1 <1>  -0.7070 
  6 C       -2.9110    -1.8070     0.5370 C.2   1 <1>   0.7160 
  7 N       -3.3600     1.7260     0.4460 N.pl3 1 <1>   0.3000 
  8 C       -1.2520     2.9110    -0.3190 C.3   1 <1>  -0.0600 
  9 O       -1.8890    -2.4280     0.7810 O.2   1 <1>  -0.5700 
 10 N       -4.0660    -2.5550     0.3850 N.am  1 <1>  -0.6600 
 11 C       -5.4300    -2.0310     0.1090 C.3   1 <1>   0.1400 
 12 C       -4.0610    -4.0390     0.3060 C.3   1 <1>   0.1400 
 13 C       -6.3470    -3.2410     0.2850 C.3   1 <1>   0.2000 
 14 C       -5.4740    -4.4210    -0.1490 C.3   1 <1>  -0.0800 
 15 O       -6.6470    -3.3580     1.6350 O.3   1 <1>  -0.6800 
 16 C       -5.9330    -5.8040     0.3470 C.3   1 <1>   0.0210 
 17 C       -5.0020    -6.8920    -0.1500 C.2   1 <1>   0.1080 
 18 N       -4.8830    -7.1970    -1.4050 N.2   1 <1>  -0.7070 
 19 C       -4.1770    -7.6660     0.6590 C.2   1 <1>  -0.1500 
 20 N       -3.9710    -8.1870    -1.4290 N.pl3 1 <1>   0.3000 
 21 C       -3.5270    -8.4880    -0.1900 C.2   1 <1>  -0.3320 
 22 C       -2.4940    -9.5580     0.1090 C.3   1 <1>  -0.0600 
 23 H       -3.9150     2.5820     0.5790 H     1 <1>   0.2700 
 24 H       -0.2620     2.6200    -0.6230 H     1 <1>   0.0800 
 25 H       -1.1670     3.5590     0.5360 H     1 <1>   0.0800 
 26 H       -1.7100     3.4530    -1.1270 H     1 <1>   0.0800 
 27 H       -5.7040    -1.2370     0.7820 H     1 <1>   0.0800 
 28 H       -5.4700    -1.6760    -0.9050 H     1 <1>   0.0800 
 29 H       -3.3190    -4.3860    -0.3940 H     1 <1>   0.0800 
 30 H       -3.8460    -4.4420     1.2800 H     1 <1>   0.0800 
 31 H       -7.2670    -3.1620    -0.2670 H     1 <1>   0.0800 
 32 H       -5.4650    -4.4430    -1.2250 H     1 <1>   0.0800 
 33 H       -5.8250    -3.2150     2.1470 H     1 <1>   0.4000 
 34 H       -6.9230    -6.0050    -0.0180 H     1 <1>   0.0800 
 35 H       -5.9630    -5.8320     1.4210 H     1 <1>   0.0800 
 36 H       -4.0960    -7.6000     1.7300 H     1 <1>   0.1500 
 37 H       -3.6750    -8.6360    -2.3040 H     1 <1>   0.2700 
 38 H       -2.3080    -9.6060     1.1670 H     1 <1>   0.0800 
 39 H       -1.5680    -9.3320    -0.3910 H     1 <1>   0.0800 
 40 H       -2.8460   -10.5190    -0.2210 H     1 <1>   0.0800 
@<TRIPOS>BOND
  1   1   2  1   
  2   2   3  1   
  3   2   4  2   
  4   3   5  2   
  5   3   6  1   
  6   4   7  1   
  7   4   8  1   
  8   5   7  1   
  9   6   9  2   
 10   6  10  am  
 11   7  23  1   
 12   8  24  1   
 13   8  25  1   
 14   8  26  1   
 15  10  11  1   
 16  10  12  1   
 17  11  13  1   
 18  11  27  1   
 19  11  28  1   
 20  12  14  1   
 21  12  29  1   
 22  12  30  1   
 23  13  14  1   
 24  13  15  1   
 25  13  31  1   
 26  14  16  1   
 27  14  32  1   
 28  15  33  1   
 29  16  17  1   
 30  16  34  1   
 31  16  35  1   
 32  17  18  2   
 33  17  19  1   
 34  18  20  1   
 35  19  21  2   
 36  19  36  1   
 37  20  21  1   
 38  20  37  1   
 39  21  22  1   
 40  22  38  1   
 41  22  39  1   
 42  22  40  1   
@<TRIPOS>SUBSTRUCTURE
  1 ****  10 GROUP 4 **** **** 0

# MOE 2024.06 (io_trps.svl 2023.06)
