@<TRIPOS>MOLECULE
NONAME
53 56 1 0 0 
SMALL
USER_CHARGES


@<TRIPOS>ATOM
  1 S        0.3960    -0.5650     1.2360 S.3   1 <1>  -0.0800 
  2 C        0.1700    -1.0280    -0.4400 C.2   1 <1>  -0.0450 
  3 C        0.5280     1.1090     0.7660 C.2   1 <1>   0.1980 
  4 C        0.2190     0.1140    -1.1690 C.2   1 <1>   0.0460 
  5 C       -0.0190    -2.4230    -0.7490 C.2   1 <1>   0.7150 
  6 N        0.4180     1.2970    -0.4880 N.2   1 <1>  -0.5650 
  7 C        0.7530     2.1280     1.8820 C.3   1 <1>   0.1000 
  8 C        0.0790     0.2590    -2.6720 C.3   1 <1>  -0.0590 
  9 O       -0.2320    -2.8070    -1.8840 O.2   1 <1>  -0.5700 
 10 N        0.0190    -3.3590     0.2400 N.am  1 <1>  -0.7300 
 11 C       -0.5610     2.4190     2.6180 C.3   1 <1>  -0.2400 
 12 C        1.3530     3.4360     1.3460 C.3   1 <1>  -0.2400 
 13 C       -0.2260    -4.8060     0.0580 C.3   1 <1>   0.2200 
 14 C       -1.7050    -5.0870     0.2560 C.3   1 <1>  -0.0800 
 15 C        0.3980    -5.5880     1.2080 C.3   1 <1>   0.1200 
 16 C       -1.8070    -5.2270     1.7780 C.3   1 <1>   0.1200 
 17 C       -2.1380    -6.3690    -0.4830 C.3   1 <1>  -0.0170 
 18 O       -0.5330    -5.5620     2.2480 O.3   1 <1>  -0.5600 
 19 C       -3.6430    -6.5930    -0.3770 C.ar  1 <1>  -0.1430 
 20 C       -4.5750    -5.8410    -1.1320 C.ar  1 <1>   0.0000 
 21 C       -4.1370    -7.5460     0.4650 C.ar  1 <1>  -0.1500 
 22 C       -5.9510    -6.1200    -0.9420 C.ar  1 <1>   0.3100 
 23 C       -4.2260    -4.8330    -2.0620 C.ar  1 <1>  -0.1500 
 24 C       -5.5180    -7.7460     0.5730 C.ar  1 <1>   0.1600 
 25 N       -6.4040    -7.0720    -0.0880 N.ar  1 <1>  -0.6200 
 26 C       -6.9000    -5.3830    -1.6690 C.ar  1 <1>  -0.1500 
 27 C       -5.1770    -4.1350    -2.7550 C.ar  1 <1>  -0.1500 
 28 C       -6.5320    -4.4100    -2.5570 C.ar  1 <1>  -0.1500 
 29 H        1.4530     1.7040     2.5800 H     1 <1>   0.0800 
 30 H       -0.0610    -0.6880    -3.1550 H     1 <1>   0.0800 
 31 H        0.9640     0.7200    -3.0700 H     1 <1>   0.0800 
 32 H       -0.7650     0.8870    -2.8940 H     1 <1>   0.0800 
 33 H        0.0940    -3.0490     1.2110 H     1 <1>   0.3700 
 34 H       -1.2840     2.8270     1.9340 H     1 <1>   0.0800 
 35 H       -0.3980     3.1230     3.4130 H     1 <1>   0.0800 
 36 H       -0.9610     1.5140     3.0390 H     1 <1>   0.0800 
 37 H        0.6760     3.8980     0.6490 H     1 <1>   0.0800 
 38 H        2.2770     3.2320     0.8340 H     1 <1>   0.0800 
 39 H        1.5480     4.1210     2.1500 H     1 <1>   0.0800 
 40 H        0.1460    -5.1260    -0.9020 H     1 <1>   0.0800 
 41 H       -2.3050    -4.2630    -0.0870 H     1 <1>   0.0800 
 42 H        1.3290    -5.1650     1.5430 H     1 <1>   0.0800 
 43 H        0.5460    -6.6170     0.9310 H     1 <1>   0.0800 
 44 H       -2.5060    -5.9840     2.0870 H     1 <1>   0.0800 
 45 H       -2.0810    -4.2870     2.2260 H     1 <1>   0.0800 
 46 H       -1.6180    -7.2170    -0.0740 H     1 <1>   0.0800 
 47 H       -1.8650    -6.3060    -1.5220 H     1 <1>   0.0800 
 48 H       -3.4890    -8.1600     1.0650 H     1 <1>   0.1500 
 49 H       -3.1910    -4.6040    -2.2360 H     1 <1>   0.1500 
 50 H       -5.8640    -8.5080     1.2510 H     1 <1>   0.1500 
 51 H       -7.9360    -5.6140    -1.5020 H     1 <1>   0.1500 
 52 H       -4.8950    -3.3690    -3.4580 H     1 <1>   0.1500 
 53 H       -7.2710    -3.8540    -3.1080 H     1 <1>   0.1500 
@<TRIPOS>BOND
  1   1   2  1   
  2   1   3  1   
  3   2   4  2   
  4   2   5  1   
  5   3   6  2   
  6   3   7  1   
  7   4   6  1   
  8   4   8  1   
  9   5   9  2   
 10   5  10  am  
 11   7  11  1   
 12   7  12  1   
 13   7  29  1   
 14   8  30  1   
 15   8  31  1   
 16   8  32  1   
 17  10  13  1   
 18  10  33  1   
 19  11  34  1   
 20  11  35  1   
 21  11  36  1   
 22  12  37  1   
 23  12  38  1   
 24  12  39  1   
 25  13  14  1   
 26  13  15  1   
 27  13  40  1   
 28  14  16  1   
 29  14  17  1   
 30  14  41  1   
 31  15  18  1   
 32  15  42  1   
 33  15  43  1   
 34  16  18  1   
 35  16  44  1   
 36  16  45  1   
 37  17  19  1   
 38  17  46  1   
 39  17  47  1   
 40  19  20  ar  
 41  19  21  ar  
 42  20  22  ar  
 43  20  23  ar  
 44  21  24  ar  
 45  21  48  1   
 46  22  25  ar  
 47  22  26  ar  
 48  23  27  ar  
 49  23  49  1   
 50  24  25  ar  
 51  24  50  1   
 52  26  28  ar  
 53  26  51  1   
 54  27  28  ar  
 55  27  52  1   
 56  28  53  1   
@<TRIPOS>SUBSTRUCTURE
  1 ****  14 GROUP 4 **** **** 0

# MOE 2024.06 (io_trps.svl 2023.06)
