@<TRIPOS>MOLECULE
NONAME
58 61 1 0 0 
SMALL
USER_CHARGES


@<TRIPOS>ATOM
  1 O       -1.5530    -3.4860     1.1060 O.2   1 <1>  -0.5700 
  2 C       -0.4030    -3.8040     0.9340 C.2   1 <1>   0.5690 
  3 N        0.0410    -5.0970     0.9840 N.am  1 <1>  -0.6600 
  4 C        0.6210    -2.7260     0.6460 C.3   1 <1>  -0.0990 
  5 C        1.4760    -5.4140     0.7860 C.3   1 <1>   0.1400 
  6 C       -0.8620    -6.2390     1.2970 C.3   1 <1>   0.0600 
  7 C        1.5360    -3.1530    -0.5160 C.3   1 <1>  -0.0800 
  8 C        2.0330    -4.6150    -0.4110 C.3   1 <1>  -0.0800 
  9 C        2.7840    -2.2720    -0.6610 C.3   1 <1>  -0.1600 
 10 C        3.5670    -4.5420    -0.4280 C.3   1 <1>  -0.1600 
 11 C        3.8680    -3.2280    -1.1460 C.3   1 <1>   0.4230 
 12 N        5.2390    -2.6990    -0.9230 N.4   1 <1>  -0.9590 
 13 C        5.6640    -2.5400     0.4970 C.3   1 <1>   0.4860 
 14 C        6.2660    -3.4360    -1.7210 C.3   1 <1>   0.2630 
 15 C        6.8390    -1.5840     0.5190 C.ar  1 <1>  -0.1440 
 16 C        6.5930    -0.2640     0.2180 C.ar  1 <1>   0.0820 
 17 C        8.1440    -2.0420     0.8260 C.ar  1 <1>   0.0000 
 18 O        5.3120     0.0890    -0.0840 O.3   1 <1>  -0.3620 
 19 C        7.6530     0.6590     0.2130 C.ar  1 <1>  -0.1500 
 20 C        9.2010    -1.1020     0.8060 C.ar  1 <1>   0.0000 
 21 C        8.4710    -3.3840     1.1460 C.ar  1 <1>  -0.1500 
 22 C        4.9000     1.4250    -0.3040 C.3   1 <1>   0.1200 
 23 C        8.9190     0.2420     0.5010 C.ar  1 <1>  -0.1500 
 24 C       10.5130    -1.5280     1.0910 C.ar  1 <1>  -0.1500 
 25 C        9.7540    -3.7680     1.4180 C.ar  1 <1>  -0.1500 
 26 C        5.1300     1.7840    -1.7720 C.3   1 <1>  -0.2400 
 27 C       10.7890    -2.8310     1.3890 C.ar  1 <1>  -0.1500 
 28 H        0.1140    -1.8100     0.4020 H     1 <1>   0.0800 
 29 H        1.1870    -2.5690     1.5450 H     1 <1>   0.0800 
 30 H        2.0010    -5.1570     1.6900 H     1 <1>   0.0800 
 31 H        1.6010    -6.4690     0.6100 H     1 <1>   0.0800 
 32 H       -0.5310    -6.7320     2.1930 H     1 <1>   0.0800 
 33 H       -0.8600    -6.9390     0.4800 H     1 <1>   0.0800 
 34 H       -1.8700    -5.8920     1.4480 H     1 <1>   0.0800 
 35 H        0.9560    -3.0790    -1.4230 H     1 <1>   0.0800 
 36 H        1.7150    -5.1270    -1.3050 H     1 <1>   0.0800 
 37 H        3.0360    -1.8490     0.2930 H     1 <1>   0.0800 
 38 H        2.6150    -1.4780    -1.3670 H     1 <1>   0.0800 
 39 H        3.9880    -5.3850    -0.9470 H     1 <1>   0.0800 
 40 H        3.9280    -4.5200     0.5830 H     1 <1>   0.0800 
 41 H        3.7140    -3.3810    -2.2030 H     1 <1>   0.0800 
 42 H        5.2320    -1.7190    -1.2560 H     1 <1>   0.4500 
 43 H        4.8680    -2.1060     1.0780 H     1 <1>   0.0800 
 44 H        5.9140    -3.4920     0.9290 H     1 <1>   0.0800 
 45 H        6.3450    -4.4560    -1.3820 H     1 <1>   0.0800 
 46 H        7.2300    -2.9630    -1.6190 H     1 <1>   0.0800 
 47 H        5.9980    -3.4390    -2.7660 H     1 <1>   0.0800 
 48 H        7.4880     1.6950    -0.0170 H     1 <1>   0.1500 
 49 H        7.7090    -4.1360     1.1870 H     1 <1>   0.1500 
 50 H        3.8490     1.4780    -0.0770 H     1 <1>   0.0800 
 51 H        5.4210     2.0830     0.3700 H     1 <1>   0.0800 
 52 H        9.7340     0.9460     0.4980 H     1 <1>   0.1500 
 53 H       11.3060    -0.8010     1.0700 H     1 <1>   0.1500 
 54 H        9.9910    -4.7910     1.6610 H     1 <1>   0.1500 
 55 H        4.5570     1.1350    -2.4090 H     1 <1>   0.0800 
 56 H        6.1710     1.7130    -2.0300 H     1 <1>   0.0800 
 57 H        4.8100     2.7960    -1.9470 H     1 <1>   0.0800 
 58 H       11.7950    -3.1500     1.6060 H     1 <1>   0.1500 
@<TRIPOS>BOND
  1   1   2  2   
  2   2   3  am  
  3   2   4  1   
  4   3   5  1   
  5   3   6  1   
  6   4   7  1   
  7   4  28  1   
  8   4  29  1   
  9   5   8  1   
 10   5  30  1   
 11   5  31  1   
 12   6  32  1   
 13   6  33  1   
 14   6  34  1   
 15   7   8  1   
 16   7   9  1   
 17   7  35  1   
 18   8  10  1   
 19   8  36  1   
 20   9  11  1   
 21   9  37  1   
 22   9  38  1   
 23  10  11  1   
 24  10  39  1   
 25  10  40  1   
 26  11  12  1   
 27  11  41  1   
 28  12  13  1   
 29  12  14  1   
 30  12  42  1   
 31  13  15  1   
 32  13  43  1   
 33  13  44  1   
 34  14  45  1   
 35  14  46  1   
 36  14  47  1   
 37  15  16  ar  
 38  15  17  ar  
 39  16  18  1   
 40  16  19  ar  
 41  17  20  ar  
 42  17  21  ar  
 43  18  22  1   
 44  19  23  ar  
 45  19  48  1   
 46  20  23  ar  
 47  20  24  ar  
 48  21  25  ar  
 49  21  49  1   
 50  22  26  1   
 51  22  50  1   
 52  22  51  1   
 53  23  52  1   
 54  24  27  ar  
 55  24  53  1   
 56  25  27  ar  
 57  25  54  1   
 58  26  55  1   
 59  26  56  1   
 60  26  57  1   
 61  27  58  1   
@<TRIPOS>SUBSTRUCTURE
  1 ****  13 GROUP 4 **** **** 0

# MOE 2024.06 (io_trps.svl 2023.06)
