@<TRIPOS>MOLECULE
NONAME
44 46 1 0 0 
SMALL
USER_CHARGES


@<TRIPOS>ATOM
  1 O       -2.7510     1.0850     2.9400 O.2   1 <1>  -0.5700 
  2 C       -2.7160     1.4080     1.7750 C.2   1 <1>   0.5690 
  3 N       -3.3240     0.6430     0.8130 N.am  1 <1>  -0.6600 
  4 C       -1.9800     2.6840     1.4330 C.3   1 <1>   0.1570 
  5 C       -3.3470     0.9130    -0.6530 C.3   1 <1>   0.1400 
  6 C       -3.7500    -0.7530     1.0810 C.3   1 <1>   0.1400 
  7 N       -0.8650     2.4210     0.5090 N.pl3 1 <1>   0.3140 
  8 C       -4.0730    -0.2900    -1.2560 C.3   1 <1>   0.2000 
  9 C       -3.7640    -1.4380    -0.2930 C.3   1 <1>  -0.0800 
 10 N       -0.7800     3.0950    -0.6560 N.2   1 <1>  -0.7070 
 11 C        0.1560     1.5380     0.6340 C.2   1 <1>  -0.3320 
 12 O       -5.4380    -0.0520    -1.2150 O.3   1 <1>  -0.6800 
 13 C       -2.4000    -2.0790    -0.6320 C.3   1 <1>  -0.0170 
 14 C        0.2880     2.6420    -1.2310 C.2   1 <1>   0.1080 
 15 C        0.9170     1.6640    -0.4740 C.2   1 <1>  -0.1500 
 16 C        0.3750     0.5930     1.8060 C.3   1 <1>  -0.0600 
 17 C       -2.0710    -3.2530     0.2770 C.ar  1 <1>   0.1670 
 18 C        0.7620     3.1480    -2.5730 C.3   1 <1>  -0.0590 
 19 N       -1.2480    -3.0110     1.2860 N.ar  1 <1>  -0.6200 
 20 C       -2.6290    -4.5050     0.0240 C.ar  1 <1>   0.1600 
 21 C       -1.0280    -4.0900     2.0180 C.ar  1 <1>   0.1600 
 22 N       -2.4110    -5.5850     0.7550 N.ar  1 <1>  -0.6200 
 23 C       -1.5910    -5.3350     1.7620 C.ar  1 <1>   0.1600 
 24 H       -1.5820     3.1240     2.3260 H     1 <1>   0.0800 
 25 H       -2.6580     3.3770     0.9750 H     1 <1>   0.0800 
 26 H       -3.8390     1.8410    -0.8860 H     1 <1>   0.0800 
 27 H       -2.3410     0.9350    -1.0310 H     1 <1>   0.0800 
 28 H       -3.0840    -1.2310     1.7800 H     1 <1>   0.0800 
 29 H       -4.7400    -0.7390     1.5040 H     1 <1>   0.0800 
 30 H       -3.7950    -0.4850    -2.2770 H     1 <1>   0.0800 
 31 H       -4.5260    -2.1960    -0.3370 H     1 <1>   0.0800 
 32 H       -5.6750     0.2840    -0.3270 H     1 <1>   0.4000 
 33 H       -1.6130    -1.3480    -0.5550 H     1 <1>   0.0800 
 34 H       -2.4140    -2.4290    -1.6490 H     1 <1>   0.0800 
 35 H        1.8150     1.1350    -0.7380 H     1 <1>   0.1500 
 36 H        1.3280     0.1040     1.7150 H     1 <1>   0.0800 
 37 H       -0.3890    -0.1650     1.8260 H     1 <1>   0.0800 
 38 H        0.3550     1.1330     2.7360 H     1 <1>   0.0800 
 39 H        1.6540     2.6340    -2.8750 H     1 <1>   0.0800 
 40 H        0.9670     4.2000    -2.5050 H     1 <1>   0.0800 
 41 H       -0.0050     2.9890    -3.3080 H     1 <1>   0.0800 
 42 H       -3.2870    -4.6170    -0.8190 H     1 <1>   0.1500 
 43 H       -0.3710    -3.9850     2.8630 H     1 <1>   0.1500 
 44 H       -1.3520    -6.1540     2.4160 H     1 <1>   0.1500 
@<TRIPOS>BOND
  1   1   2  2   
  2   2   3  am  
  3   2   4  1   
  4   3   5  1   
  5   3   6  1   
  6   4   7  1   
  7   4  24  1   
  8   4  25  1   
  9   5   8  1   
 10   5  26  1   
 11   5  27  1   
 12   6   9  1   
 13   6  28  1   
 14   6  29  1   
 15   7  10  1   
 16   7  11  1   
 17   8   9  1   
 18   8  12  1   
 19   8  30  1   
 20   9  13  1   
 21   9  31  1   
 22  10  14  2   
 23  11  15  2   
 24  11  16  1   
 25  12  32  1   
 26  13  17  1   
 27  13  33  1   
 28  13  34  1   
 29  14  15  1   
 30  14  18  1   
 31  15  35  1   
 32  16  36  1   
 33  16  37  1   
 34  16  38  1   
 35  17  19  ar  
 36  17  20  ar  
 37  18  39  1   
 38  18  40  1   
 39  18  41  1   
 40  19  21  ar  
 41  20  22  ar  
 42  20  42  1   
 43  21  23  ar  
 44  21  43  1   
 45  22  23  ar  
 46  23  44  1   
@<TRIPOS>SUBSTRUCTURE
  1 ****   3 GROUP 4 **** **** 0

# MOE 2024.06 (io_trps.svl 2023.06)
