@<TRIPOS>MOLECULE
NONAME
52 55 1 0 0 
SMALL
USER_CHARGES


@<TRIPOS>ATOM
  1 F       -0.5190    -1.1620     0.5950 F     1 <1>  -0.3400 
  2 C       -1.7760    -1.0310     0.2000 C.3   1 <1>   0.2600 
  3 C       -2.6560    -1.0050     1.4500 C.3   1 <1>  -0.1600 
  4 C       -2.0980    -2.2120    -0.7150 C.3   1 <1>  -0.1600 
  5 C       -4.1350    -1.0250     1.0560 C.3   1 <1>   0.1400 
  6 C       -3.5840    -2.2110    -1.0790 C.3   1 <1>   0.1400 
  7 N       -4.3990    -2.1980     0.1720 N.am  1 <1>  -0.6600 
  8 C       -5.2300    -3.2220     0.5790 C.2   1 <1>   0.5690 
  9 O       -5.7570    -3.1880     1.6710 O.2   1 <1>  -0.5700 
 10 C       -5.5160    -4.4270    -0.3390 C.3   1 <1>   0.2610 
 11 O       -4.3780    -5.2620    -0.4370 O.3   1 <1>  -0.5600 
 12 C       -6.7670    -5.2240     0.1120 C.3   1 <1>   0.3640 
 13 C       -4.5100    -6.3020    -1.3730 C.3   1 <1>   0.1810 
 14 N       -6.8070    -6.6230    -0.4250 N.am  1 <1>  -0.5090 
 15 C       -8.0240    -4.4600    -0.3180 C.ar  1 <1>  -0.1430 
 16 C       -5.7810    -7.1290    -1.1800 C.2   1 <1>   0.5690 
 17 C       -8.0230    -7.4080    -0.0970 C.3   1 <1>   0.0490 
 18 C       -8.7280    -3.7100     0.6140 C.ar  1 <1>  -0.1500 
 19 C       -8.4720    -4.4890    -1.6330 C.ar  1 <1>  -0.1500 
 20 O       -5.8370    -8.2000    -1.7390 O.2   1 <1>  -0.5700 
 21 C       -8.3620    -7.6390     1.3440 C.3   1 <1>  -0.2000 
 22 C       -7.8850    -8.7740     0.4970 C.3   1 <1>  -0.2000 
 23 C       -9.8570    -3.0000     0.2440 C.ar  1 <1>  -0.1500 
 24 C       -9.6000    -3.7810    -2.0060 C.ar  1 <1>  -0.1500 
 25 C      -10.3000    -3.0320    -1.0750 C.ar  1 <1>   0.0830 
 26 O      -11.3920    -2.3650    -1.5230 O.3   1 <1>  -0.3630 
 27 C      -12.1690    -1.5680    -0.6570 C.3   1 <1>   0.0400 
 28 H       -1.8320    -0.0980    -0.3340 H     1 <1>   0.0800 
 29 H       -2.4520    -1.8670     2.0600 H     1 <1>   0.0800 
 30 H       -2.4510    -0.1180     2.0220 H     1 <1>   0.0800 
 31 H       -1.5100    -2.1460    -1.6120 H     1 <1>   0.0800 
 32 H       -1.8670    -3.1360    -0.2150 H     1 <1>   0.0800 
 33 H       -4.3890    -0.1220     0.5270 H     1 <1>   0.0800 
 34 H       -4.7410    -1.0660     1.9450 H     1 <1>   0.0800 
 35 H       -3.7970    -3.0730    -1.6830 H     1 <1>   0.0800 
 36 H       -3.8200    -1.3340    -1.6580 H     1 <1>   0.0800 
 37 H       -5.7120    -4.0380    -1.3200 H     1 <1>   0.0800 
 38 H       -6.7550    -5.3030     1.1850 H     1 <1>   0.0800 
 39 H       -4.5040    -5.8780    -2.3600 H     1 <1>   0.0800 
 40 H       -3.6540    -6.9440    -1.2670 H     1 <1>   0.0800 
 41 H       -8.8280    -7.2350    -0.7920 H     1 <1>   0.1000 
 42 H       -8.3960    -3.6700     1.6380 H     1 <1>   0.1500 
 43 H       -7.9510    -5.0690    -2.3760 H     1 <1>   0.1500 
 44 H       -7.7050    -7.2800     2.1160 H     1 <1>   0.1000 
 45 H       -9.3970    -7.6230     1.6380 H     1 <1>   0.1000 
 46 H       -8.5890    -9.5310     0.2030 H     1 <1>   0.1000 
 47 H       -6.8950    -9.1680     0.6510 H     1 <1>   0.1000 
 48 H      -10.3740    -2.4310     0.9920 H     1 <1>   0.1500 
 49 H       -9.9480    -3.8050    -3.0230 H     1 <1>   0.1500 
 50 H      -12.9720    -1.1390    -1.2290 H     1 <1>   0.0800 
 51 H      -11.5500    -0.7870    -0.2530 H     1 <1>   0.0800 
 52 H      -12.5680    -2.1890     0.1250 H     1 <1>   0.0800 
@<TRIPOS>BOND
  1   1   2  1   
  2   2   3  1   
  3   2   4  1   
  4   2  28  1   
  5   3   5  1   
  6   3  29  1   
  7   3  30  1   
  8   4   6  1   
  9   4  31  1   
 10   4  32  1   
 11   5   7  1   
 12   5  33  1   
 13   5  34  1   
 14   6   7  1   
 15   6  35  1   
 16   6  36  1   
 17   7   8  am  
 18   8   9  2   
 19   8  10  1   
 20  10  11  1   
 21  10  12  1   
 22  10  37  1   
 23  11  13  1   
 24  12  14  1   
 25  12  15  1   
 26  12  38  1   
 27  13  16  1   
 28  13  39  1   
 29  13  40  1   
 30  14  16  am  
 31  14  17  1   
 32  15  18  ar  
 33  15  19  ar  
 34  16  20  2   
 35  17  21  1   
 36  17  22  1   
 37  17  41  1   
 38  18  23  ar  
 39  18  42  1   
 40  19  24  ar  
 41  19  43  1   
 42  21  22  1   
 43  21  44  1   
 44  21  45  1   
 45  22  46  1   
 46  22  47  1   
 47  23  25  ar  
 48  23  48  1   
 49  24  25  ar  
 50  24  49  1   
 51  25  26  1   
 52  26  27  1   
 53  27  50  1   
 54  27  51  1   
 55  27  52  1   
@<TRIPOS>SUBSTRUCTURE
  1 ****  10 GROUP 4 **** **** 0

# MOE 2024.06 (io_trps.svl 2023.06)
