@<TRIPOS>MOLECULE
NONAME
47 49 1 0 0 
SMALL
USER_CHARGES


@<TRIPOS>ATOM
  1 O        1.3100    -1.3860     1.6290 O.3   1 <1>  -0.5600 
  2 C        0.1490    -2.1650     1.6360 C.3   1 <1>   0.1200 
  3 C        1.5840    -0.7130     0.4460 C.3   1 <1>   0.1200 
  4 C        0.4000    -3.5280     0.9620 C.3   1 <1>   0.1900 
  5 C        1.9310    -1.6880    -0.6910 C.3   1 <1>  -0.0800 
  6 N        0.1940    -3.5350    -0.5290 N.3   1 <1>  -0.8100 
  7 C        1.8210    -4.0440     1.3000 C.3   1 <1>   0.3430 
  8 C        0.6610    -2.3500    -1.2730 C.3   1 <1>   0.1100 
  9 C        3.1020    -2.6270    -0.3140 C.3   1 <1>   0.3430 
 10 C       -1.1430    -3.9950    -0.9470 C.3   1 <1>   0.2540 
 11 N        2.6910    -4.0100     0.0800 N.4   1 <1>  -0.9590 
 12 C       -1.2630    -5.4660    -0.6040 C.ar  1 <1>  -0.1440 
 13 C        3.8310    -4.9630     0.1710 C.3   1 <1>   0.2630 
 14 C       -0.4200    -6.3910    -1.1700 C.ar  1 <1>   0.1600 
 15 C       -2.1810    -5.9420     0.3020 C.ar  1 <1>   0.1600 
 16 N       -0.4510    -7.6600    -0.8510 N.ar  1 <1>  -0.6200 
 17 N       -2.2390    -7.2050     0.6390 N.ar  1 <1>  -0.6200 
 18 C       -1.3670    -8.0230     0.0480 C.ar  1 <1>   0.7200 
 19 N       -1.4120    -9.3590     0.3990 N.pl3 1 <1>  -0.8380 
 20 C       -2.4610    -9.8870     1.3160 C.3   1 <1>   0.1290 
 21 C       -0.6940   -10.3920    -0.4010 C.3   1 <1>   0.1290 
 22 H       -0.0980    -2.3270     2.6710 H     1 <1>   0.0800 
 23 H       -0.6640    -1.6280     1.1780 H     1 <1>   0.0800 
 24 H        0.7410    -0.0910     0.1960 H     1 <1>   0.0800 
 25 H        2.4230    -0.0680     0.6440 H     1 <1>   0.0800 
 26 H       -0.2900    -4.2170     1.4160 H     1 <1>   0.0800 
 27 H        2.3070    -1.0520    -1.4730 H     1 <1>   0.0800 
 28 H        1.7290    -5.0600     1.6450 H     1 <1>   0.0800 
 29 H        2.2540    -3.4620     2.0970 H     1 <1>   0.0800 
 30 H        0.8620    -2.6510    -2.2880 H     1 <1>   0.0800 
 31 H       -0.1290    -1.6170    -1.3110 H     1 <1>   0.0800 
 32 H        3.6710    -2.1780     0.4840 H     1 <1>   0.0800 
 33 H        3.7510    -2.7030    -1.1710 H     1 <1>   0.0800 
 34 H       -1.9080    -3.4160    -0.4560 H     1 <1>   0.0800 
 35 H       -1.2590    -3.8780    -2.0120 H     1 <1>   0.0800 
 36 H        2.0160    -4.3040    -0.6510 H     1 <1>   0.4500 
 37 H        4.5020    -4.6670     0.9610 H     1 <1>   0.0800 
 38 H        4.3750    -4.9850    -0.7580 H     1 <1>   0.0800 
 39 H        3.4680    -5.9570     0.3790 H     1 <1>   0.0800 
 40 H        0.3060    -6.0780    -1.8990 H     1 <1>   0.1500 
 41 H       -2.8820    -5.2720     0.7710 H     1 <1>   0.1500 
 42 H       -2.1550   -10.8310     1.7310 H     1 <1>   0.0800 
 43 H       -3.3820   -10.0180     0.7740 H     1 <1>   0.0800 
 44 H       -2.6290    -9.2020     2.1300 H     1 <1>   0.0800 
 45 H       -0.6390   -11.3190     0.1420 H     1 <1>   0.0800 
 46 H        0.3100   -10.0690    -0.6150 H     1 <1>   0.0800 
 47 H       -1.2140   -10.5550    -1.3290 H     1 <1>   0.0800 
@<TRIPOS>BOND
  1   1   2  1   
  2   1   3  1   
  3   2   4  1   
  4   2  22  1   
  5   2  23  1   
  6   3   5  1   
  7   3  24  1   
  8   3  25  1   
  9   4   6  1   
 10   4   7  1   
 11   4  26  1   
 12   5   8  1   
 13   5   9  1   
 14   5  27  1   
 15   6   8  1   
 16   6  10  1   
 17   7  11  1   
 18   7  28  1   
 19   7  29  1   
 20   8  30  1   
 21   8  31  1   
 22   9  11  1   
 23   9  32  1   
 24   9  33  1   
 25  10  12  1   
 26  10  34  1   
 27  10  35  1   
 28  11  13  1   
 29  11  36  1   
 30  12  14  ar  
 31  12  15  ar  
 32  13  37  1   
 33  13  38  1   
 34  13  39  1   
 35  14  16  ar  
 36  14  40  1   
 37  15  17  ar  
 38  15  41  1   
 39  16  18  ar  
 40  17  18  ar  
 41  18  19  1   
 42  19  20  1   
 43  19  21  1   
 44  20  42  1   
 45  20  43  1   
 46  20  44  1   
 47  21  45  1   
 48  21  46  1   
 49  21  47  1   
@<TRIPOS>SUBSTRUCTURE
  1 ****   6 GROUP 4 **** **** 0

# MOE 2024.06 (io_trps.svl 2023.06)
