@<TRIPOS>MOLECULE
NONAME
38 40 1 0 0 
SMALL
USER_CHARGES


@<TRIPOS>ATOM
  1 O        1.2610     2.3270     2.7360 O.co2 1 <1>  -0.9000 
  2 C        2.4400     1.9770     2.5880 C.2   1 <1>   0.9470 
  3 O        3.2780     2.1710     3.4780 O.co2 1 <1>  -0.9000 
  4 C        2.9190     1.5170     1.2090 C.3   1 <1>  -0.2420 
  5 C        3.1420     0.1590     0.5860 C.3   1 <1>  -0.2420 
  6 C        4.0220     2.4310     0.7120 C.3   1 <1>   0.2350 
  7 C        1.8960     0.9430     0.2590 C.3   1 <1>  -0.2000 
  8 C        3.0080    -1.2470     1.1760 C.2   1 <1>   0.9470 
  9 C        4.3630     0.2580    -0.3150 C.3   1 <1>   0.2350 
 10 N        4.6210     1.7180    -0.4530 N.am  1 <1>  -0.6600 
 11 O        1.9730    -1.8980     0.9750 O.co2 1 <1>  -0.9000 
 12 O        3.9960    -1.7680     1.7110 O.co2 1 <1>  -0.9000 
 13 C        5.1670     2.2830    -1.5680 C.2   1 <1>   0.5690 
 14 O        5.5990     1.6150    -2.4820 O.2   1 <1>  -0.5700 
 15 C        5.2370     3.7970    -1.7190 C.3   1 <1>   0.0440 
 16 C        6.3580     4.4240    -0.8980 C.ar  1 <1>  -0.1440 
 17 C        7.6790     4.1600    -1.2270 C.ar  1 <1>  -0.1500 
 18 C        6.0790     5.2580     0.1740 C.ar  1 <1>  -0.1500 
 19 C        8.7130     4.7270    -0.5020 C.ar  1 <1>  -0.1500 
 20 C        7.1100     5.8250     0.9020 C.ar  1 <1>  -0.1500 
 21 C        8.4310     5.5690     0.5710 C.ar  1 <1>   0.0820 
 22 O        9.3810     6.1660     1.3330 O.3   1 <1>  -0.3630 
 23 C       10.7520     5.9160     1.1190 C.3   1 <1>   0.0400 
 24 H        4.7710     2.5540     1.4770 H     1 <1>   0.0800 
 25 H        3.6130     3.3860     0.4460 H     1 <1>   0.0800 
 26 H        1.7790     1.3690    -0.7190 H     1 <1>   0.1000 
 27 H        0.9640     0.5950     0.6720 H     1 <1>   0.1000 
 28 H        4.1760    -0.2010    -1.2700 H     1 <1>   0.0800 
 29 H        5.2120    -0.2110     0.1530 H     1 <1>   0.0800 
 30 H        5.4070     4.0220    -2.7560 H     1 <1>   0.0800 
 31 H        4.2880     4.2240    -1.4610 H     1 <1>   0.0800 
 32 H        7.9030     3.5030    -2.0510 H     1 <1>   0.1500 
 33 H        5.0610     5.4670     0.4540 H     1 <1>   0.1500 
 34 H        9.7220     4.5020    -0.7850 H     1 <1>   0.1500 
 35 H        6.8950     6.4670     1.7360 H     1 <1>   0.1500 
 36 H       11.3100     6.4720     1.8500 H     1 <1>   0.0800 
 37 H       11.0160     6.2440     0.1290 H     1 <1>   0.0800 
 38 H       10.9360     4.8630     1.2400 H     1 <1>   0.0800 
@<TRIPOS>BOND
  1   1   2  ar  
  2   2   3  ar  
  3   2   4  1   
  4   4   5  1   
  5   4   6  1   
  6   4   7  1   
  7   5   7  1   
  8   5   8  1   
  9   5   9  1   
 10   6  10  1   
 11   6  24  1   
 12   6  25  1   
 13   7  26  1   
 14   7  27  1   
 15   8  11  ar  
 16   8  12  ar  
 17   9  10  1   
 18   9  28  1   
 19   9  29  1   
 20  10  13  am  
 21  13  14  2   
 22  13  15  1   
 23  15  16  1   
 24  15  30  1   
 25  15  31  1   
 26  16  17  ar  
 27  16  18  ar  
 28  17  19  ar  
 29  17  32  1   
 30  18  20  ar  
 31  18  33  1   
 32  19  21  ar  
 33  19  34  1   
 34  20  21  ar  
 35  20  35  1   
 36  21  22  1   
 37  22  23  1   
 38  23  36  1   
 39  23  37  1   
 40  23  38  1   
@<TRIPOS>SUBSTRUCTURE
  1 ****   6 GROUP 4 **** **** 0

# MOE 2024.06 (io_trps.svl 2023.06)
