@<TRIPOS>MOLECULE
NONAME
53 57 1 0 0 
SMALL
USER_CHARGES


@<TRIPOS>ATOM
  1 CL      -0.8080    -0.3910     0.7450 Cl    1 <1>  -0.1770 
  2 C       -1.7140    -1.8040     0.2730 C.ar  1 <1>   0.1770 
  3 C       -1.5220    -2.9910     0.9520 C.ar  1 <1>  -0.1500 
  4 C       -2.6110    -1.7150    -0.7740 C.ar  1 <1>  -0.1500 
  5 C       -2.2470    -4.1110     0.5800 C.ar  1 <1>  -0.1500 
  6 C       -3.3360    -2.8360    -1.1430 C.ar  1 <1>  -0.1500 
  7 C       -3.1630    -4.0360    -0.4640 C.ar  1 <1>  -0.1430 
  8 C       -3.9780    -5.2540    -0.8660 C.3   1 <1>   0.4870 
  9 N       -4.9440    -5.5750     0.2250 N.4   1 <1>  -0.9590 
 10 C       -5.8710    -6.6940    -0.1510 C.3   1 <1>   0.3430 
 11 C       -5.7970    -4.4110     0.6190 C.3   1 <1>   0.3430 
 12 C       -7.2830    -6.1950     0.1730 C.3   1 <1>   0.2800 
 13 C       -7.1390    -4.9910     1.0910 C.3   1 <1>  -0.0800 
 14 O       -7.8850    -5.5780    -0.9050 O.3   1 <1>  -0.5600 
 15 C       -8.3610    -7.1770     0.6300 C.3   1 <1>  -0.1600 
 16 C       -8.4490    -4.2110     0.7820 C.3   1 <1>  -0.0800 
 17 C       -9.0400    -5.1090    -0.3200 C.3   1 <1>   0.2000 
 18 C       -9.6270    -6.3960     0.2700 C.3   1 <1>  -0.1600 
 19 C       -8.2500    -2.7590     0.3080 C.3   1 <1>   0.3430 
 20 N       -9.4910    -1.9360     0.4510 N.4   1 <1>  -0.9590 
 21 C      -10.5710    -2.2180    -0.5320 C.3   1 <1>   0.3430 
 22 C       -9.2210    -0.4800     0.3180 C.3   1 <1>   0.3430 
 23 C      -11.4590    -0.9830    -0.4930 C.3   1 <1>  -0.1600 
 24 C      -10.5880     0.1400     0.0740 C.3   1 <1>  -0.1600 
 25 H       -0.8090    -3.0310     1.7570 H     1 <1>   0.1500 
 26 H       -2.7280    -0.7790    -1.2920 H     1 <1>   0.1500 
 27 H       -2.0770    -5.0330     1.1100 H     1 <1>   0.1500 
 28 H       -4.0240    -2.7580    -1.9690 H     1 <1>   0.1500 
 29 H       -3.3180    -6.0890    -1.0390 H     1 <1>   0.0800 
 30 H       -4.5100    -5.0470    -1.7800 H     1 <1>   0.0800 
 31 H       -4.3920    -5.8580     1.0460 H     1 <1>   0.4500 
 32 H       -5.8060    -6.9450    -1.1970 H     1 <1>   0.0800 
 33 H       -5.6490    -7.5670     0.4410 H     1 <1>   0.0800 
 34 H       -5.3200    -3.8170     1.3830 H     1 <1>   0.0800 
 35 H       -5.9620    -3.7980    -0.2520 H     1 <1>   0.0800 
 36 H       -7.0730    -5.2910     2.1230 H     1 <1>   0.0800 
 37 H       -8.3070    -8.0930     0.0670 H     1 <1>   0.0800 
 38 H       -8.2950    -7.3980     1.6820 H     1 <1>   0.0800 
 39 H       -9.0830    -4.2150     1.6520 H     1 <1>   0.0800 
 40 H       -9.6720    -4.6340    -1.0490 H     1 <1>   0.0800 
 41 H      -10.2590    -6.2100     1.1210 H     1 <1>   0.0800 
 42 H      -10.1950    -6.9190    -0.4800 H     1 <1>   0.0800 
 43 H       -7.9170    -2.7520    -0.7180 H     1 <1>   0.0800 
 44 H       -7.4800    -2.3090     0.9120 H     1 <1>   0.0800 
 45 H       -9.8950    -2.0680     1.3890 H     1 <1>   0.4500 
 46 H      -10.1510    -2.3240    -1.5200 H     1 <1>   0.0800 
 47 H      -11.1250    -3.1080    -0.2780 H     1 <1>   0.0800 
 48 H       -8.7530    -0.0730     1.2010 H     1 <1>   0.0800 
 49 H       -8.5900    -0.2990    -0.5380 H     1 <1>   0.0800 
 50 H      -11.8190    -0.7490    -1.4810 H     1 <1>   0.0800 
 51 H      -12.3080    -1.1600     0.1450 H     1 <1>   0.0800 
 52 H      -10.9970     0.5010     1.0020 H     1 <1>   0.0800 
 53 H      -10.5090     0.9700    -0.6080 H     1 <1>   0.0800 
@<TRIPOS>BOND
  1   1   2  1   
  2   2   3  ar  
  3   2   4  ar  
  4   3   5  ar  
  5   3  25  1   
  6   4   6  ar  
  7   4  26  1   
  8   5   7  ar  
  9   5  27  1   
 10   6   7  ar  
 11   6  28  1   
 12   7   8  1   
 13   8   9  1   
 14   8  29  1   
 15   8  30  1   
 16   9  10  1   
 17   9  11  1   
 18   9  31  1   
 19  10  12  1   
 20  10  32  1   
 21  10  33  1   
 22  11  13  1   
 23  11  34  1   
 24  11  35  1   
 25  12  13  1   
 26  12  14  1   
 27  12  15  1   
 28  13  16  1   
 29  13  36  1   
 30  14  17  1   
 31  15  18  1   
 32  15  37  1   
 33  15  38  1   
 34  16  17  1   
 35  16  19  1   
 36  16  39  1   
 37  17  18  1   
 38  17  40  1   
 39  18  41  1   
 40  18  42  1   
 41  19  20  1   
 42  19  43  1   
 43  19  44  1   
 44  20  21  1   
 45  20  22  1   
 46  20  45  1   
 47  21  23  1   
 48  21  46  1   
 49  21  47  1   
 50  22  24  1   
 51  22  48  1   
 52  22  49  1   
 53  23  24  1   
 54  23  50  1   
 55  23  51  1   
 56  24  52  1   
 57  24  53  1   
@<TRIPOS>SUBSTRUCTURE
  1 ****  11 GROUP 4 **** **** 0

# MOE 2024.06 (io_trps.svl 2023.06)
