@<TRIPOS>MOLECULE
NONAME
56 58 1 0 0 
SMALL
USER_CHARGES


@<TRIPOS>ATOM
  1 O        1.2040    -0.4830    -0.3070 O.2   1 <1>  -0.5700 
  2 C        2.2910    -0.1150     0.0750 C.2   1 <1>   0.5690 
  3 N        3.1200    -0.9790     0.7450 N.am  1 <1>  -0.6600 
  4 C        2.6870     1.3130    -0.2260 C.3   1 <1>  -0.0990 
  5 C        4.4880    -0.5900     1.2290 C.3   1 <1>   0.1400 
  6 C        2.6070    -2.3120     1.1890 C.3   1 <1>   0.1400 
  7 C        3.8840     1.3720    -1.1660 C.3   1 <1>   0.2090 
  8 C        5.4370    -0.1730     0.0950 C.3   1 <1>   0.2090 
  9 C        2.2980    -3.2210    -0.0200 C.3   1 <1>   0.3430 
 10 N        5.1390     1.2040    -0.3930 N.pl3 1 <1>  -0.8380 
 11 N        1.0040    -3.9780     0.1150 N.4   1 <1>  -0.9590 
 12 C        6.1970     2.0250    -0.7400 C.ar  1 <1>   0.4100 
 13 C        0.9060    -5.0310    -0.9400 C.3   1 <1>   0.2630 
 14 C       -0.1650    -3.0430     0.0040 C.3   1 <1>   0.2630 
 15 N        7.2640     1.4460    -1.2750 N.ar  1 <1>  -0.6200 
 16 C        6.1000     3.3930    -0.5280 C.ar  1 <1>  -0.1500 
 17 C        8.2470     2.2580    -1.6220 C.ar  1 <1>   0.1600 
 18 C        7.1290     4.2440    -0.8750 C.ar  1 <1>   0.0860 
 19 C        8.2310     3.6270    -1.4520 C.ar  1 <1>  -0.1500 
 20 C        7.0470     5.6740    -0.6560 C.2   1 <1>   0.5440 
 21 O        6.0650     6.2830    -1.0350 O.2   1 <1>  -0.5700 
 22 N        8.0520     6.3630    -0.0190 N.am  1 <1>  -0.6600 
 23 C        7.9780     7.8230     0.2110 C.3   1 <1>   0.1400 
 24 C        9.1010     5.7490     0.8250 C.3   1 <1>   0.1400 
 25 C        9.1770     8.1440     1.0970 C.3   1 <1>  -0.1600 
 26 C        9.4810     6.8360     1.8230 C.3   1 <1>  -0.1600 
 27 H        2.8930     1.8480     0.6820 H     1 <1>   0.0800 
 28 H        1.8570     1.7960    -0.7070 H     1 <1>   0.0800 
 29 H        4.9390    -1.4210     1.7420 H     1 <1>   0.0800 
 30 H        4.4080     0.2180     1.9350 H     1 <1>   0.0800 
 31 H        1.7170    -2.1450     1.7690 H     1 <1>   0.0800 
 32 H        3.3260    -2.7990     1.8240 H     1 <1>   0.0800 
 33 H        3.8940     2.3290    -1.6620 H     1 <1>   0.0800 
 34 H        3.8120     0.6110    -1.9250 H     1 <1>   0.0800 
 35 H        5.3890    -0.8740    -0.7200 H     1 <1>   0.0800 
 36 H        6.4410    -0.1920     0.4840 H     1 <1>   0.0800 
 37 H        3.1130    -3.9140    -0.1430 H     1 <1>   0.0800 
 38 H        2.2490    -2.6070    -0.9050 H     1 <1>   0.0800 
 39 H        0.9750    -4.4330     1.0400 H     1 <1>   0.4500 
 40 H        0.9300    -4.5820    -1.9200 H     1 <1>   0.0800 
 41 H       -0.0160    -5.5800    -0.8360 H     1 <1>   0.0800 
 42 H        1.7280    -5.7240    -0.8570 H     1 <1>   0.0800 
 43 H       -0.1460    -2.5320    -0.9460 H     1 <1>   0.0800 
 44 H       -0.1290    -2.2950     0.7800 H     1 <1>   0.0800 
 45 H       -1.0940    -3.5830     0.0900 H     1 <1>   0.0800 
 46 H        5.2070     3.7920    -0.0860 H     1 <1>   0.1500 
 47 H        9.1130     1.8030    -2.0710 H     1 <1>   0.1500 
 48 H        9.0680     4.2220    -1.7690 H     1 <1>   0.1500 
 49 H        7.0570     8.0530     0.7200 H     1 <1>   0.0800 
 50 H        8.0150     8.3570    -0.7230 H     1 <1>   0.0800 
 51 H        9.9480     5.4990     0.2090 H     1 <1>   0.0800 
 52 H        8.7380     4.8660     1.3250 H     1 <1>   0.0800 
 53 H        8.9660     8.9520     1.7750 H     1 <1>   0.0800 
 54 H       10.0090     8.4190     0.4720 H     1 <1>   0.0800 
 55 H       10.5100     6.7630     2.1250 H     1 <1>   0.0800 
 56 H        8.8520     6.7470     2.6920 H     1 <1>   0.0800 
@<TRIPOS>BOND
  1   1   2  2   
  2   2   3  am  
  3   2   4  1   
  4   3   5  1   
  5   3   6  1   
  6   4   7  1   
  7   4  27  1   
  8   4  28  1   
  9   5   8  1   
 10   5  29  1   
 11   5  30  1   
 12   6   9  1   
 13   6  31  1   
 14   6  32  1   
 15   7  10  1   
 16   7  33  1   
 17   7  34  1   
 18   8  10  1   
 19   8  35  1   
 20   8  36  1   
 21   9  11  1   
 22   9  37  1   
 23   9  38  1   
 24  10  12  1   
 25  11  13  1   
 26  11  14  1   
 27  11  39  1   
 28  12  15  ar  
 29  12  16  ar  
 30  13  40  1   
 31  13  41  1   
 32  13  42  1   
 33  14  43  1   
 34  14  44  1   
 35  14  45  1   
 36  15  17  ar  
 37  16  18  ar  
 38  16  46  1   
 39  17  19  ar  
 40  17  47  1   
 41  18  19  ar  
 42  18  20  1   
 43  19  48  1   
 44  20  21  2   
 45  20  22  am  
 46  22  23  1   
 47  22  24  1   
 48  23  25  1   
 49  23  49  1   
 50  23  50  1   
 51  24  26  1   
 52  24  51  1   
 53  24  52  1   
 54  25  26  1   
 55  25  53  1   
 56  25  54  1   
 57  26  55  1   
 58  26  56  1   
@<TRIPOS>SUBSTRUCTURE
  1 ****  10 GROUP 4 **** **** 0

# MOE 2024.06 (io_trps.svl 2023.06)
