@<TRIPOS>MOLECULE
NONAME
61 63 1 0 0 
SMALL
USER_CHARGES


@<TRIPOS>ATOM
  1 O        0.5640     0.3160     0.2560 O.3   1 <1>  -0.5600 
  2 C        0.5570     1.6830     0.5460 C.3   1 <1>   0.2000 
  3 C        1.8250    -0.2850     0.2800 C.3   1 <1>   0.2000 
  4 C       -0.9160     2.1420     0.6420 C.3   1 <1>  -0.0800 
  5 C        1.3940     2.4390    -0.5140 C.3   1 <1>   0.2090 
  6 C        2.7410     0.3750    -0.7740 C.3   1 <1>   0.2090 
  7 C        1.6030    -1.7840     0.0360 C.3   1 <1>  -0.1600 
  8 C       -1.7090     1.9620    -0.6640 C.3   1 <1>  -0.2400 
  9 C       -1.0410     3.5960     1.1240 C.3   1 <1>  -0.2400 
 10 N        2.7910     1.8790    -0.6140 N.pl3 1 <1>  -0.8380 
 11 C        2.8890    -2.6160     0.1750 C.3   1 <1>  -0.1600 
 12 C        3.9610     2.5570    -0.5570 C.ar  1 <1>   0.7710 
 13 C        2.5930    -4.1120     0.0250 C.3   1 <1>  -0.1600 
 14 N        5.1070     1.8800    -0.5270 N.ar  1 <1>  -0.6200 
 15 N        3.9510     3.8930    -0.5390 N.ar  1 <1>  -0.1790 
 16 C        3.8730    -4.9420     0.1580 C.3   1 <1>  -0.2400 
 17 C        6.2300     2.5380    -0.4670 C.ar  1 <1>   0.4100 
 18 C        5.0940     4.6510    -0.4730 C.ar  1 <1>   0.3610 
 19 N        7.3270     1.7750    -0.4470 N.pl3 1 <1>  -0.9000 
 20 C        6.3060     3.9640    -0.4260 C.ar  1 <1>   0.0000 
 21 C        5.0620     6.0430    -0.4570 C.ar  1 <1>  -0.1500 
 22 C        7.4890     4.7150    -0.3390 C.ar  1 <1>  -0.1500 
 23 C        6.2280     6.7710    -0.3910 C.ar  1 <1>   0.0820 
 24 C        7.4580     6.0900    -0.3050 C.ar  1 <1>   0.0820 
 25 O        6.0930     8.1150    -0.4180 O.3   1 <1>  -0.3620 
 26 O        8.6370     6.7400    -0.1800 O.3   1 <1>  -0.3620 
 27 C        6.9800     8.9110    -1.1810 C.3   1 <1>   0.0400 
 28 C        8.9550     7.1850     1.1210 C.3   1 <1>   0.0400 
 29 H        1.0130     1.8090     1.5140 H     1 <1>   0.0800 
 30 H        2.2430    -0.1480     1.2630 H     1 <1>   0.0800 
 31 H       -1.3800     1.5210     1.3920 H     1 <1>   0.0800 
 32 H        1.4080     3.4800    -0.2550 H     1 <1>   0.0800 
 33 H        0.9120     2.3400    -1.4720 H     1 <1>   0.0800 
 34 H        2.3640     0.1390    -1.7540 H     1 <1>   0.0800 
 35 H        3.7190    -0.0640    -0.6970 H     1 <1>   0.0800 
 36 H        0.8850    -2.1360     0.7570 H     1 <1>   0.0800 
 37 H        1.1860    -1.9270    -0.9460 H     1 <1>   0.0800 
 38 H       -1.3520     2.6130    -1.4400 H     1 <1>   0.0800 
 39 H       -2.7500     2.1790    -0.4950 H     1 <1>   0.0800 
 40 H       -1.6370     0.9440    -1.0070 H     1 <1>   0.0800 
 41 H       -0.6770     4.2890     0.3880 H     1 <1>   0.0800 
 42 H       -0.4970     3.7370     2.0420 H     1 <1>   0.0800 
 43 H       -2.0750     3.8270     1.3150 H     1 <1>   0.0800 
 44 H        3.6010    -2.3270    -0.5780 H     1 <1>   0.0800 
 45 H        3.3290    -2.4380     1.1420 H     1 <1>   0.0800 
 46 H        1.8910    -4.4210     0.7810 H     1 <1>   0.0800 
 47 H        2.1480    -4.2990    -0.9380 H     1 <1>   0.0800 
 48 H        3.0500     4.3420    -0.6080 H     1 <1>   0.4570 
 49 H        4.3230    -4.7880     1.1230 H     1 <1>   0.0800 
 50 H        4.5810    -4.6690    -0.6040 H     1 <1>   0.0800 
 51 H        3.6450    -5.9880     0.0520 H     1 <1>   0.0800 
 52 H        7.2450     0.7550    -0.4800 H     1 <1>   0.4000 
 53 H        8.2890     2.1200    -0.4150 H     1 <1>   0.4000 
 54 H        4.1300     6.5770    -0.5040 H     1 <1>   0.1500 
 55 H        8.4420     4.2190    -0.2910 H     1 <1>   0.1500 
 56 H        6.4850     9.8370    -1.4130 H     1 <1>   0.0800 
 57 H        7.2330     8.3920    -2.0890 H     1 <1>   0.0800 
 58 H        7.8630     9.1100    -0.6020 H     1 <1>   0.0800 
 59 H        9.8940     7.7090     1.0770 H     1 <1>   0.0800 
 60 H        9.0400     6.3330     1.7710 H     1 <1>   0.0800 
 61 H        8.1810     7.8470     1.4680 H     1 <1>   0.0800 
@<TRIPOS>BOND
  1   1   2  1   
  2   1   3  1   
  3   2   4  1   
  4   2   5  1   
  5   2  29  1   
  6   3   6  1   
  7   3   7  1   
  8   3  30  1   
  9   4   8  1   
 10   4   9  1   
 11   4  31  1   
 12   5  10  1   
 13   5  32  1   
 14   5  33  1   
 15   6  10  1   
 16   6  34  1   
 17   6  35  1   
 18   7  11  1   
 19   7  36  1   
 20   7  37  1   
 21   8  38  1   
 22   8  39  1   
 23   8  40  1   
 24   9  41  1   
 25   9  42  1   
 26   9  43  1   
 27  10  12  1   
 28  11  13  1   
 29  11  44  1   
 30  11  45  1   
 31  12  14  ar  
 32  12  15  ar  
 33  13  16  1   
 34  13  46  1   
 35  13  47  1   
 36  14  17  ar  
 37  15  18  ar  
 38  15  48  1   
 39  16  49  1   
 40  16  50  1   
 41  16  51  1   
 42  17  19  1   
 43  17  20  ar  
 44  18  20  ar  
 45  18  21  ar  
 46  19  52  1   
 47  19  53  1   
 48  20  22  ar  
 49  21  23  ar  
 50  21  54  1   
 51  22  24  ar  
 52  22  55  1   
 53  23  24  ar  
 54  23  25  1   
 55  24  26  1   
 56  25  27  1   
 57  26  28  1   
 58  27  56  1   
 59  27  57  1   
 60  27  58  1   
 61  28  59  1   
 62  28  60  1   
 63  28  61  1   
@<TRIPOS>SUBSTRUCTURE
  1 ****  12 GROUP 4 **** **** 0

# MOE 2024.06 (io_trps.svl 2023.06)
