@<TRIPOS>MOLECULE
NONAME
58 62 1 0 0 
SMALL
USER_CHARGES


@<TRIPOS>ATOM
  1 CL      -1.3210    -0.2350     0.5340 Cl    1 <1>  -0.1770 
  2 C       -2.9170     0.0170    -0.1310 C.ar  1 <1>   0.1770 
  3 C       -3.3240     1.2650    -0.5690 C.ar  1 <1>   0.1900 
  4 C       -3.7850    -1.0580    -0.2120 C.ar  1 <1>  -0.1500 
  5 F       -2.5110     2.2840    -0.4910 F     1 <1>  -0.1900 
  6 C       -4.5870     1.4630    -1.0950 C.ar  1 <1>  -0.1500 
  7 C       -5.0650    -0.8760    -0.7280 C.ar  1 <1>  -0.1440 
  8 C       -5.4550     0.3850    -1.1740 C.ar  1 <1>  -0.1500 
  9 C       -6.0370    -2.0420    -0.8090 C.3   1 <1>   0.4870 
 10 N       -6.3950    -2.4820     0.5720 N.4   1 <1>  -0.9590 
 11 C       -7.3250    -3.6550     0.5060 C.3   1 <1>   0.3430 
 12 C       -7.1300    -1.4010     1.3200 C.3   1 <1>   0.3430 
 13 C       -8.7210    -3.0420     0.5320 C.3   1 <1>   0.2800 
 14 C       -8.6120    -1.8080     1.4160 C.3   1 <1>  -0.0800 
 15 O       -9.0570    -2.4620    -0.6780 O.3   1 <1>  -0.5600 
 16 C       -9.9670    -3.8730     0.8370 C.3   1 <1>  -0.1600 
 17 C       -9.6950    -0.8980     0.7920 C.3   1 <1>  -0.0800 
 18 C      -10.2210    -1.8100    -0.3250 C.3   1 <1>   0.2000 
 19 C      -11.0520    -2.9690     0.2430 C.3   1 <1>  -0.1600 
 20 C       -9.1960     0.4420     0.2320 C.3   1 <1>   0.1400 
 21 N      -10.3490     1.2940    -0.1260 N.am  1 <1>  -0.7300 
 22 C      -11.0190     2.0810     0.7730 C.2   1 <1>   0.5440 
 23 O      -10.6610     2.0410     1.9350 O.2   1 <1>  -0.5700 
 24 C      -12.1120     2.9390     0.3530 C.ar  1 <1>   0.0860 
 25 C      -12.4320     4.0930     1.0720 C.ar  1 <1>  -0.1500 
 26 C      -12.8880     2.6560    -0.7750 C.ar  1 <1>  -0.1500 
 27 C      -13.4600     4.9320     0.6850 C.ar  1 <1>  -0.1500 
 28 C      -13.9160     3.4910    -1.1690 C.ar  1 <1>  -0.1500 
 29 C      -14.2120     4.6350    -0.4470 C.ar  1 <1>   0.0820 
 30 O      -15.2310     5.3990    -0.8990 O.3   1 <1>  -0.3620 
 31 C      -15.6250     6.5790    -0.2340 C.3   1 <1>   0.0400 
 32 H       -3.4390    -2.0190     0.1260 H     1 <1>   0.1500 
 33 H       -4.8760     2.4430    -1.4360 H     1 <1>   0.1500 
 34 H       -6.4340     0.5430    -1.5950 H     1 <1>   0.1500 
 35 H       -5.5760    -2.8540    -1.3480 H     1 <1>   0.0800 
 36 H       -6.9250    -1.7440    -1.3440 H     1 <1>   0.0800 
 37 H       -5.5270    -2.7240     1.0650 H     1 <1>   0.4500 
 38 H       -7.1790    -4.2540    -0.3780 H     1 <1>   0.0800 
 39 H       -7.1980    -4.2710     1.3810 H     1 <1>   0.0800 
 40 H       -6.7260    -1.3050     2.3150 H     1 <1>   0.0800 
 41 H       -7.0150    -0.4540     0.8220 H     1 <1>   0.0800 
 42 H       -8.8490    -2.0410     2.4390 H     1 <1>   0.0800 
 43 H       -9.9310    -4.8170     0.3210 H     1 <1>   0.0800 
 44 H      -10.1010    -4.0420     1.8920 H     1 <1>   0.0800 
 45 H      -10.4690    -0.7010     1.5160 H     1 <1>   0.0800 
 46 H      -10.6690    -1.3050    -1.1660 H     1 <1>   0.0800 
 47 H      -11.7630    -2.6300     0.9760 H     1 <1>   0.0800 
 48 H      -11.5780    -3.4690    -0.5520 H     1 <1>   0.0800 
 49 H       -8.5810     0.2890    -0.6370 H     1 <1>   0.0800 
 50 H       -8.6150     0.9570     0.9800 H     1 <1>   0.0800 
 51 H      -10.5600     1.3980    -1.1200 H     1 <1>   0.3700 
 52 H      -11.8570     4.3290     1.9520 H     1 <1>   0.1500 
 53 H      -12.6940     1.7700    -1.3500 H     1 <1>   0.1500 
 54 H      -13.6620     5.8080     1.2730 H     1 <1>   0.1500 
 55 H      -14.5050     3.2620    -2.0400 H     1 <1>   0.1500 
 56 H      -16.4510     7.0060    -0.7740 H     1 <1>   0.0800 
 57 H      -14.7990     7.2670    -0.2240 H     1 <1>   0.0800 
 58 H      -15.9330     6.3290     0.7660 H     1 <1>   0.0800 
@<TRIPOS>BOND
  1   1   2  1   
  2   2   3  ar  
  3   2   4  ar  
  4   3   5  1   
  5   3   6  ar  
  6   4   7  ar  
  7   4  32  1   
  8   6   8  ar  
  9   6  33  1   
 10   7   8  ar  
 11   7   9  1   
 12   8  34  1   
 13   9  10  1   
 14   9  35  1   
 15   9  36  1   
 16  10  11  1   
 17  10  12  1   
 18  10  37  1   
 19  11  13  1   
 20  11  38  1   
 21  11  39  1   
 22  12  14  1   
 23  12  40  1   
 24  12  41  1   
 25  13  14  1   
 26  13  15  1   
 27  13  16  1   
 28  14  17  1   
 29  14  42  1   
 30  15  18  1   
 31  16  19  1   
 32  16  43  1   
 33  16  44  1   
 34  17  18  1   
 35  17  20  1   
 36  17  45  1   
 37  18  19  1   
 38  18  46  1   
 39  19  47  1   
 40  19  48  1   
 41  20  21  1   
 42  20  49  1   
 43  20  50  1   
 44  21  22  am  
 45  21  51  1   
 46  22  23  2   
 47  22  24  1   
 48  24  25  ar  
 49  24  26  ar  
 50  25  27  ar  
 51  25  52  1   
 52  26  28  ar  
 53  26  53  1   
 54  27  29  ar  
 55  27  54  1   
 56  28  29  ar  
 57  28  55  1   
 58  29  30  1   
 59  30  31  1   
 60  31  56  1   
 61  31  57  1   
 62  31  58  1   
@<TRIPOS>SUBSTRUCTURE
  1 ****  20 GROUP 4 **** **** 0

# MOE 2024.06 (io_trps.svl 2023.06)
