@<TRIPOS>MOLECULE
NONAME
43 45 1 0 0 
SMALL
USER_CHARGES


@<TRIPOS>ATOM
  1 S        0.2650    -0.1250    -0.9220 S.o2  1 <1>   1.5010 
  2 O        0.8410     0.9800    -1.6600 O.2   1 <1>  -0.6500 
  3 O        0.0220    -1.3740    -1.6100 O.2   1 <1>  -0.6500 
  4 N       -1.2070     0.4250    -0.2820 N.am  1 <1>  -0.8490 
  5 C        1.2100    -0.4600     0.5660 C.2   1 <1>  -0.0630 
  6 C       -2.3560     0.1210    -1.1480 C.3   1 <1>   0.1960 
  7 C       -1.1660     1.8400     0.0870 C.3   1 <1>   0.1960 
  8 C        0.9070    -1.2180     1.6320 C.2   1 <1>  -0.0400 
  9 C        2.4630     0.0120     0.9020 C.2   1 <1>   0.1080 
 10 C       -3.6960     0.4070    -0.4290 C.3   1 <1>   0.0000 
 11 C       -2.4400     2.2300     0.8400 C.3   1 <1>  -0.1600 
 12 O        1.8620    -1.2030     2.5360 O.3   1 <1>  -0.0190 
 13 C       -0.3320    -2.0470     1.9140 C.3   1 <1>  -0.0600 
 14 N        2.8110    -0.4330     2.0520 N.2   1 <1>  -0.4100 
 15 C        3.3430     0.9230     0.0700 C.3   1 <1>  -0.0590 
 16 C       -3.9740    -0.5450     0.7580 C.3   1 <1>   0.2000 
 17 C       -3.6980     1.8880     0.0270 C.3   1 <1>  -0.1600 
 18 C       -4.9090     0.1580    -1.3460 C.3   1 <1>  -0.1600 
 19 O       -3.6800    -1.8570     0.4220 O.3   1 <1>  -0.6800 
 20 C       -5.4860    -0.4820     0.9630 C.3   1 <1>  -0.1600 
 21 C       -6.0870    -0.1830    -0.4190 C.3   1 <1>  -0.1600 
 22 H       -2.2910     0.7100    -2.0470 H     1 <1>   0.0800 
 23 H       -2.3320    -0.9160    -1.4390 H     1 <1>   0.0800 
 24 H       -0.3130     2.0270     0.7200 H     1 <1>   0.0800 
 25 H       -1.0670     2.4470    -0.7990 H     1 <1>   0.0800 
 26 H       -2.4530     1.7240     1.7890 H     1 <1>   0.0800 
 27 H       -2.4190     3.2870     1.0410 H     1 <1>   0.0800 
 28 H       -1.0050    -2.0320     1.0770 H     1 <1>   0.0800 
 29 H       -0.8450    -1.6580     2.7740 H     1 <1>   0.0800 
 30 H       -0.0520    -3.0670     2.1070 H     1 <1>   0.0800 
 31 H        3.5020     0.4960    -0.9030 H     1 <1>   0.0800 
 32 H        4.2970     1.0520     0.5490 H     1 <1>   0.0800 
 33 H        2.8790     1.8860    -0.0390 H     1 <1>   0.0800 
 34 H       -3.4150    -0.2980     1.6440 H     1 <1>   0.0800 
 35 H       -3.7160     2.5230    -0.8420 H     1 <1>   0.0800 
 36 H       -4.5740     2.1180     0.6070 H     1 <1>   0.0800 
 37 H       -5.1310     1.0020    -1.9760 H     1 <1>   0.0800 
 38 H       -4.7130    -0.6900    -1.9800 H     1 <1>   0.0800 
 39 H       -4.2770    -2.1420    -0.2950 H     1 <1>   0.4000 
 40 H       -5.8760    -1.3860     1.3980 H     1 <1>   0.0800 
 41 H       -5.7130     0.3320     1.6290 H     1 <1>   0.0800 
 42 H       -6.6250    -1.0360    -0.7970 H     1 <1>   0.0800 
 43 H       -6.7670     0.6490    -0.3510 H     1 <1>   0.0800 
@<TRIPOS>BOND
  1   1   2  2   
  2   1   3  2   
  3   1   4  am  
  4   1   5  1   
  5   4   6  1   
  6   4   7  1   
  7   5   8  2   
  8   5   9  1   
  9   6  10  1   
 10   6  22  1   
 11   6  23  1   
 12   7  11  1   
 13   7  24  1   
 14   7  25  1   
 15   8  12  1   
 16   8  13  1   
 17   9  14  2   
 18   9  15  1   
 19  10  16  1   
 20  10  17  1   
 21  10  18  1   
 22  11  17  1   
 23  11  26  1   
 24  11  27  1   
 25  12  14  1   
 26  13  28  1   
 27  13  29  1   
 28  13  30  1   
 29  15  31  1   
 30  15  32  1   
 31  15  33  1   
 32  16  19  1   
 33  16  20  1   
 34  16  34  1   
 35  17  35  1   
 36  17  36  1   
 37  18  21  1   
 38  18  37  1   
 39  18  38  1   
 40  19  39  1   
 41  20  21  1   
 42  20  40  1   
 43  20  41  1   
 44  21  42  1   
 45  21  43  1   
@<TRIPOS>SUBSTRUCTURE
  1 ****   4 GROUP 4 **** **** 0

# MOE 2024.06 (io_trps.svl 2023.06)
