@<TRIPOS>MOLECULE
NONAME
59 61 1 0 0 
SMALL
USER_CHARGES


@<TRIPOS>ATOM
  1 O        2.2570     0.5610    -1.7470 O.2   1 <1>  -0.5700 
  2 C        2.3910    -0.0740    -0.7240 C.2   1 <1>   0.5690 
  3 N        2.2490     0.5500     0.4990 N.am  1 <1>  -0.6600 
  4 C        2.6840    -1.5760    -0.9070 C.3   1 <1>  -0.0190 
  5 C        2.6330    -0.0490     1.8220 C.3   1 <1>   0.1400 
  6 C        1.7440     1.9540     0.5440 C.3   1 <1>   0.1400 
  7 C        1.6640    -2.4760    -0.1730 C.3   1 <1>  -0.1600 
  8 C        4.1420    -1.9540    -0.5660 C.3   1 <1>  -0.1600 
  9 C        3.4270     0.8930     2.7460 C.3   1 <1>   0.1400 
 10 C        2.8940     2.9600     0.3880 C.3   1 <1>  -0.1600 
 11 C        1.5840    -3.9170    -0.7000 C.3   1 <1>  -0.1600 
 12 C        4.7580    -3.0240    -1.4800 C.3   1 <1>  -0.1600 
 13 N        4.3740     1.7530     1.9790 N.am  1 <1>  -0.6600 
 14 C        3.8010     3.0760     1.6170 C.3   1 <1>   0.1400 
 15 C        2.9170    -4.6850    -0.7110 C.3   1 <1>  -0.1600 
 16 C        3.8600    -4.2210    -1.8320 C.3   1 <1>  -0.1600 
 17 C        5.5300     1.1980     1.4770 C.2   1 <1>   0.5690 
 18 O        5.8680     0.0830     1.8090 O.2   1 <1>  -0.5700 
 19 C        6.4320     1.9360     0.4740 C.3   1 <1>  -0.0190 
 20 C        6.4340     1.2270    -0.8960 C.3   1 <1>  -0.1600 
 21 C        7.8710     2.0770     1.0110 C.3   1 <1>  -0.1600 
 22 C        7.3460     1.9390    -1.9060 C.3   1 <1>  -0.1600 
 23 C        8.7870     2.7910     0.0030 C.3   1 <1>  -0.1600 
 24 C        8.7660     2.0770    -1.3510 C.3   1 <1>   0.2000 
 25 O        9.5100     2.8180    -2.2420 O.3   1 <1>  -0.6800 
 26 H        2.5490    -1.7490    -1.9610 H     1 <1>   0.0800 
 27 H        3.2480    -0.9100     1.6680 H     1 <1>   0.0800 
 28 H        1.7450    -0.3770     2.3320 H     1 <1>   0.0800 
 29 H        1.2120     2.1260     1.4630 H     1 <1>   0.0800 
 30 H        1.0450     2.0980    -0.2620 H     1 <1>   0.0800 
 31 H        0.6870    -2.0350    -0.2760 H     1 <1>   0.0800 
 32 H        1.8870    -2.5100     0.8760 H     1 <1>   0.0800 
 33 H        4.2100    -2.3040     0.4480 H     1 <1>   0.0800 
 34 H        4.7560    -1.0750    -0.6280 H     1 <1>   0.0800 
 35 H        3.9770     0.3020     3.4590 H     1 <1>   0.0800 
 36 H        2.7430     1.5050     3.3050 H     1 <1>   0.0800 
 37 H        2.4650     3.9280     0.2030 H     1 <1>   0.0800 
 38 H        3.4770     2.7060    -0.4790 H     1 <1>   0.0800 
 39 H        1.1700    -3.9090    -1.6930 H     1 <1>   0.0800 
 40 H        0.8910    -4.4570    -0.0780 H     1 <1>   0.0800 
 41 H        5.6490    -3.3900    -0.9990 H     1 <1>   0.0800 
 42 H        5.0700    -2.5570    -2.3990 H     1 <1>   0.0800 
 43 H        3.2280     3.4500     2.4480 H     1 <1>   0.0800 
 44 H        4.5810     3.7930     1.4400 H     1 <1>   0.0800 
 45 H        2.6890    -5.7220    -0.8860 H     1 <1>   0.0800 
 46 H        3.4030    -4.6260     0.2480 H     1 <1>   0.0800 
 47 H        4.5020    -5.0420    -2.1020 H     1 <1>   0.0800 
 48 H        3.2810    -3.9860    -2.7090 H     1 <1>   0.0800 
 49 H        6.0610     2.9250     0.3070 H     1 <1>   0.0800 
 50 H        5.4290     1.1890    -1.2830 H     1 <1>   0.0800 
 51 H        6.7760     0.2130    -0.7680 H     1 <1>   0.0800 
 52 H        8.2700     1.0980     1.2180 H     1 <1>   0.0800 
 53 H        7.8570     2.6250     1.9370 H     1 <1>   0.0800 
 54 H        6.9390     2.9120    -2.1180 H     1 <1>   0.0800 
 55 H        7.3740     1.3720    -2.8190 H     1 <1>   0.0800 
 56 H        9.7930     2.8010     0.3840 H     1 <1>   0.0800 
 57 H        8.4520     3.8070    -0.1150 H     1 <1>   0.0800 
 58 H        9.2260     1.1070    -1.2650 H     1 <1>   0.0800 
 59 H        9.1080     3.6980    -2.3570 H     1 <1>   0.4000 
@<TRIPOS>BOND
  1   1   2  2   
  2   2   3  am  
  3   2   4  1   
  4   3   5  1   
  5   3   6  1   
  6   4   7  1   
  7   4   8  1   
  8   4  26  1   
  9   5   9  1   
 10   5  27  1   
 11   5  28  1   
 12   6  10  1   
 13   6  29  1   
 14   6  30  1   
 15   7  11  1   
 16   7  31  1   
 17   7  32  1   
 18   8  12  1   
 19   8  33  1   
 20   8  34  1   
 21   9  13  1   
 22   9  35  1   
 23   9  36  1   
 24  10  14  1   
 25  10  37  1   
 26  10  38  1   
 27  11  15  1   
 28  11  39  1   
 29  11  40  1   
 30  12  16  1   
 31  12  41  1   
 32  12  42  1   
 33  13  14  1   
 34  13  17  am  
 35  14  43  1   
 36  14  44  1   
 37  15  16  1   
 38  15  45  1   
 39  15  46  1   
 40  16  47  1   
 41  16  48  1   
 42  17  18  2   
 43  17  19  1   
 44  19  20  1   
 45  19  21  1   
 46  19  49  1   
 47  20  22  1   
 48  20  50  1   
 49  20  51  1   
 50  21  23  1   
 51  21  52  1   
 52  21  53  1   
 53  22  24  1   
 54  22  54  1   
 55  22  55  1   
 56  23  24  1   
 57  23  56  1   
 58  23  57  1   
 59  24  25  1   
 60  24  58  1   
 61  25  59  1   
@<TRIPOS>SUBSTRUCTURE
  1 ****  17 GROUP 4 **** **** 0

# MOE 2024.06 (io_trps.svl 2023.06)
