@<TRIPOS>MOLECULE
NONAME
65 67 1 0 0 
SMALL
USER_CHARGES


@<TRIPOS>ATOM
  1 O        0.8160    -0.1110    -0.1590 O.2   1 <1>  -0.5700 
  2 C        1.6050    -0.8010    -0.7750 C.2   1 <1>   0.5440 
  3 N        2.8690    -0.2930    -0.9590 N.am  1 <1>  -0.6600 
  4 C        1.2350    -2.1250    -1.2430 C.ar  1 <1>   0.0860 
  5 C        3.0350     1.1880    -1.0570 C.3   1 <1>   0.1400 
  6 C        4.0210    -0.9750    -0.3030 C.3   1 <1>   0.1400 
  7 C        0.2060    -2.8510    -0.6720 C.ar  1 <1>  -0.1500 
  8 C        1.8800    -2.7620    -2.2970 C.ar  1 <1>  -0.1500 
  9 C        3.2670     1.7880     0.3420 C.3   1 <1>   0.3430 
 10 C        4.2850    -0.3570     1.0890 C.3   1 <1>   0.3430 
 11 C       -0.1280    -4.1180    -1.1300 C.ar  1 <1>   0.4100 
 12 C        1.4900    -4.0270    -2.6850 C.ar  1 <1>   0.1600 
 13 N        4.4410     1.1440     1.0410 N.4   1 <1>  -0.9590 
 14 N        0.5150    -4.7170    -2.1240 N.ar  1 <1>  -0.6200 
 15 N       -1.1730    -4.8030    -0.5400 N.pl3 1 <1>  -0.8380 
 16 C        4.6010     1.7050     2.4170 C.3   1 <1>   0.2630 
 17 C       -2.5390    -4.2160    -0.6670 C.3   1 <1>   0.2090 
 18 C       -1.2170    -6.2950    -0.6620 C.3   1 <1>   0.2090 
 19 C       -3.5330    -4.9120     0.2900 C.3   1 <1>   0.2000 
 20 C       -2.2890    -6.9120     0.2670 C.3   1 <1>   0.2000 
 21 O       -3.5320    -6.2990     0.0620 O.3   1 <1>  -0.5600 
 22 C       -4.9790    -4.3740     0.1690 C.3   1 <1>  -0.0800 
 23 C       -2.4970    -8.4150     0.0350 C.3   1 <1>  -0.1600 
 24 C       -5.8770    -4.9720     1.2630 C.3   1 <1>  -0.2400 
 25 C       -5.6150    -4.6270    -1.2090 C.3   1 <1>  -0.2400 
 26 C       -1.2520    -9.2550     0.3630 C.3   1 <1>  -0.1600 
 27 C       -1.5410   -10.7520     0.1990 C.3   1 <1>  -0.1600 
 28 C       -0.3000   -11.5900     0.5200 C.3   1 <1>  -0.2400 
 29 H        3.8600     1.4200    -1.7070 H     1 <1>   0.0800 
 30 H        2.1470     1.6230    -1.4860 H     1 <1>   0.0800 
 31 H        3.8100    -2.0250    -0.1890 H     1 <1>   0.0800 
 32 H        4.8960    -0.8800    -0.9230 H     1 <1>   0.0800 
 33 H       -0.3500    -2.4370     0.1470 H     1 <1>   0.1500 
 34 H        2.6790    -2.2700    -2.8190 H     1 <1>   0.1500 
 35 H        2.3700     1.6370     0.9210 H     1 <1>   0.0800 
 36 H        3.4280     2.8490     0.2500 H     1 <1>   0.0800 
 37 H        5.1700    -0.8050     1.5120 H     1 <1>   0.0800 
 38 H        3.4530    -0.6080     1.7280 H     1 <1>   0.0800 
 39 H        2.0040    -4.5030    -3.5040 H     1 <1>   0.1500 
 40 H        5.2860     1.3580     0.4930 H     1 <1>   0.4500 
 41 H        3.7250     1.4950     3.0100 H     1 <1>   0.0800 
 42 H        4.7370     2.7740     2.3720 H     1 <1>   0.0800 
 43 H        5.4590     1.2700     2.9030 H     1 <1>   0.0800 
 44 H       -2.5100    -3.1650    -0.4420 H     1 <1>   0.0800 
 45 H       -2.8710    -4.3310    -1.6830 H     1 <1>   0.0800 
 46 H       -1.4340    -6.5630    -1.6810 H     1 <1>   0.0800 
 47 H       -0.2500    -6.6930    -0.4120 H     1 <1>   0.0800 
 48 H       -3.1950    -4.7480     1.2980 H     1 <1>   0.0800 
 49 H       -2.0060    -6.7480     1.2930 H     1 <1>   0.0800 
 50 H       -4.9440    -3.3090     0.3280 H     1 <1>   0.0800 
 51 H       -3.3090    -8.7390     0.6620 H     1 <1>   0.0800 
 52 H       -2.7800    -8.5750    -0.9900 H     1 <1>   0.0800 
 53 H       -5.9620    -6.0380     1.1360 H     1 <1>   0.0800 
 54 H       -6.8620    -4.5420     1.2190 H     1 <1>   0.0800 
 55 H       -5.4640    -4.7770     2.2360 H     1 <1>   0.0800 
 56 H       -5.6320    -5.6820    -1.4250 H     1 <1>   0.0800 
 57 H       -5.0690    -4.1270    -1.9870 H     1 <1>   0.0800 
 58 H       -6.6260    -4.2610    -1.2260 H     1 <1>   0.0800 
 59 H       -0.4420    -8.9840    -0.2920 H     1 <1>   0.0800 
 60 H       -0.9450    -9.0610     1.3770 H     1 <1>   0.0800 
 61 H       -2.3430   -11.0400     0.8580 H     1 <1>   0.0800 
 62 H       -1.8520   -10.9520    -0.8120 H     1 <1>   0.0800 
 63 H        0.0150   -11.4230     1.5350 H     1 <1>   0.0800 
 64 H        0.5090   -11.3330    -0.1420 H     1 <1>   0.0800 
 65 H       -0.5220   -12.6360     0.3980 H     1 <1>   0.0800 
@<TRIPOS>BOND
  1   1   2  2   
  2   2   3  am  
  3   2   4  1   
  4   3   5  1   
  5   3   6  1   
  6   4   7  ar  
  7   4   8  ar  
  8   5   9  1   
  9   5  29  1   
 10   5  30  1   
 11   6  10  1   
 12   6  31  1   
 13   6  32  1   
 14   7  11  ar  
 15   7  33  1   
 16   8  12  ar  
 17   8  34  1   
 18   9  13  1   
 19   9  35  1   
 20   9  36  1   
 21  10  13  1   
 22  10  37  1   
 23  10  38  1   
 24  11  14  ar  
 25  11  15  1   
 26  12  14  ar  
 27  12  39  1   
 28  13  16  1   
 29  13  40  1   
 30  15  17  1   
 31  15  18  1   
 32  16  41  1   
 33  16  42  1   
 34  16  43  1   
 35  17  19  1   
 36  17  44  1   
 37  17  45  1   
 38  18  20  1   
 39  18  46  1   
 40  18  47  1   
 41  19  21  1   
 42  19  22  1   
 43  19  48  1   
 44  20  21  1   
 45  20  23  1   
 46  20  49  1   
 47  22  24  1   
 48  22  25  1   
 49  22  50  1   
 50  23  26  1   
 51  23  51  1   
 52  23  52  1   
 53  24  53  1   
 54  24  54  1   
 55  24  55  1   
 56  25  56  1   
 57  25  57  1   
 58  25  58  1   
 59  26  27  1   
 60  26  59  1   
 61  26  60  1   
 62  27  28  1   
 63  27  61  1   
 64  27  62  1   
 65  28  63  1   
 66  28  64  1   
 67  28  65  1   
@<TRIPOS>SUBSTRUCTURE
  1 ****  11 GROUP 4 **** **** 0

# MOE 2024.06 (io_trps.svl 2023.06)
