@<TRIPOS>MOLECULE
NONAME
45 47 1 0 0 
SMALL
USER_CHARGES


@<TRIPOS>ATOM
  1 O        0.2040     1.2110     1.1820 O.2   1 <1>  -0.5700 
  2 C        0.1310     2.2990     0.6680 C.2   1 <1>   0.5690 
  3 N       -0.7570     3.2140     1.1130 N.am  1 <1>  -0.7300 
  4 C        1.0260     2.6490    -0.5240 C.3   1 <1>   0.1810 
  5 C       -0.9220     4.5590     0.5130 C.3   1 <1>   0.3640 
  6 O        1.1080     4.0380    -0.7540 O.3   1 <1>  -0.5600 
  7 C       -2.4120     4.8350     0.3360 C.ar  1 <1>  -0.1440 
  8 C       -0.1490     4.6990    -0.8220 C.3   1 <1>   0.2610 
  9 C       -3.2620     3.8840    -0.2150 C.ar  1 <1>  -0.1500 
 10 C       -2.9370     6.0600     0.7260 C.ar  1 <1>  -0.1500 
 11 C        0.0420     6.1840    -1.1340 C.2   1 <1>   0.5690 
 12 C       -4.6110     4.1510    -0.3700 C.ar  1 <1>  -0.1500 
 13 C       -4.2860     6.3280     0.5710 C.ar  1 <1>  -0.1500 
 14 O       -0.7760     6.7670    -1.8050 O.2   1 <1>  -0.5700 
 15 N        1.1210     6.8330    -0.6290 N.am  1 <1>  -0.7300 
 16 C       -5.1240     5.3740     0.0230 C.ar  1 <1>  -0.1500 
 17 C        1.3890     8.2630    -0.7990 C.3   1 <1>   0.2010 
 18 C        2.5120     8.7920     0.1150 C.2   1 <1>   0.5690 
 19 O        3.1650     8.0030     0.7970 O.2   1 <1>  -0.5700 
 20 N        2.7650    10.1370     0.1580 N.am  1 <1>  -0.6600 
 21 C        2.0640    11.1890    -0.6110 C.3   1 <1>   0.1400 
 22 C        3.8150    10.7170     1.0230 C.3   1 <1>   0.1400 
 23 C        2.8890    12.4510    -0.3790 C.3   1 <1>  -0.1600 
 24 C        3.5800    12.2220     0.9630 C.3   1 <1>  -0.1600 
 25 H       -1.3710     2.9720     1.8920 H     1 <1>   0.3700 
 26 H        0.6430     2.1790    -1.4120 H     1 <1>   0.0800 
 27 H        2.0210     2.2870    -0.3410 H     1 <1>   0.0800 
 28 H       -0.5200     5.2750     1.2090 H     1 <1>   0.0800 
 29 H       -0.7150     4.2560    -1.6220 H     1 <1>   0.0800 
 30 H       -2.8810     2.9260    -0.5260 H     1 <1>   0.1500 
 31 H       -2.3000     6.8180     1.1470 H     1 <1>   0.1500 
 32 H       -5.2610     3.4080    -0.7970 H     1 <1>   0.1500 
 33 H       -4.6830     7.2810     0.8730 H     1 <1>   0.1500 
 34 H        1.8300     6.3000    -0.1370 H     1 <1>   0.3700 
 35 H       -6.1720     5.5830    -0.0980 H     1 <1>   0.1500 
 36 H        1.6700     8.4560    -1.8340 H     1 <1>   0.0800 
 37 H        0.4800     8.8250    -0.5840 H     1 <1>   0.0800 
 38 H        2.0150    10.9420    -1.6580 H     1 <1>   0.0800 
 39 H        1.0710    11.3150    -0.2140 H     1 <1>   0.0800 
 40 H        3.7370    10.3390     2.0290 H     1 <1>   0.0800 
 41 H        4.7810    10.4660     0.6180 H     1 <1>   0.0800 
 42 H        3.6260    12.5340    -1.1590 H     1 <1>   0.0800 
 43 H        2.2770    13.3360    -0.3800 H     1 <1>   0.0800 
 44 H        2.9230    12.5040     1.7670 H     1 <1>   0.0800 
 45 H        4.4990    12.7730     1.0520 H     1 <1>   0.0800 
@<TRIPOS>BOND
  1   1   2  2   
  2   2   3  am  
  3   2   4  1   
  4   3   5  1   
  5   3  25  1   
  6   4   6  1   
  7   4  26  1   
  8   4  27  1   
  9   5   7  1   
 10   5   8  1   
 11   5  28  1   
 12   6   8  1   
 13   7   9  ar  
 14   7  10  ar  
 15   8  11  1   
 16   8  29  1   
 17   9  12  ar  
 18   9  30  1   
 19  10  13  ar  
 20  10  31  1   
 21  11  14  2   
 22  11  15  am  
 23  12  16  ar  
 24  12  32  1   
 25  13  16  ar  
 26  13  33  1   
 27  15  17  1   
 28  15  34  1   
 29  16  35  1   
 30  17  18  1   
 31  17  36  1   
 32  17  37  1   
 33  18  19  2   
 34  18  20  am  
 35  20  21  1   
 36  20  22  1   
 37  21  23  1   
 38  21  38  1   
 39  21  39  1   
 40  22  24  1   
 41  22  40  1   
 42  22  41  1   
 43  23  24  1   
 44  23  42  1   
 45  23  43  1   
 46  24  44  1   
 47  24  45  1   
@<TRIPOS>SUBSTRUCTURE
  1 ****  11 GROUP 4 **** **** 0

# MOE 2024.06 (io_trps.svl 2023.06)
