@<TRIPOS>MOLECULE
NONAME
51 53 1 0 0 
SMALL
USER_CHARGES


@<TRIPOS>ATOM
  1 O        0.3400    -0.2670     1.3250 O.2   1 <1>  -0.5700 
  2 C        1.3180    -0.9520     1.0920 C.2   1 <1>   0.5440 
  3 N        2.4950    -0.3450     0.7030 N.am  1 <1>  -0.6600 
  4 C        1.2080    -2.3900     1.2290 C.ar  1 <1>   0.0860 
  5 C        3.6210    -1.0680     0.0470 C.3   1 <1>   0.1400 
  6 C        2.6560     1.1370     0.7270 C.3   1 <1>   0.1400 
  7 C        0.2770    -3.1300     0.5270 C.ar  1 <1>  -0.1500 
  8 C        2.0260    -3.1240     2.0780 C.ar  1 <1>  -0.1500 
  9 C        3.7960    -0.5590    -1.3880 C.3   1 <1>  -0.1600 
 10 C        2.8170     1.6620    -0.7030 C.3   1 <1>  -0.1600 
 11 C        0.2080    -4.5080     0.6680 C.ar  1 <1>   0.4100 
 12 C        1.8860    -4.4940     2.1560 C.ar  1 <1>   0.1600 
 13 C        3.9740     0.9650    -1.4340 C.3   1 <1>  -0.1600 
 14 N        1.0060    -5.2010     1.4700 N.ar  1 <1>  -0.6200 
 15 N       -0.7230    -5.2120    -0.0570 N.pl3 1 <1>  -0.8690 
 16 C       -1.0940    -6.6000     0.3110 C.3   1 <1>   0.2090 
 17 C       -2.2040    -7.1310    -0.6080 C.3   1 <1>   0.2000 
 18 O       -3.2750    -6.2160    -0.6230 O.3   1 <1>  -0.5600 
 19 C       -2.6930    -8.5190    -0.1500 C.3   1 <1>   0.1400 
 20 C       -4.3150    -6.5720    -1.4900 C.3   1 <1>   0.1200 
 21 N       -3.8650    -8.9670    -0.9640 N.am  1 <1>  -0.6600 
 22 C       -4.9260    -7.9220    -1.0820 C.3   1 <1>   0.1400 
 23 C       -3.9920   -10.1820    -1.5830 C.2   1 <1>   0.5690 
 24 O       -4.9480   -10.4570    -2.2650 O.2   1 <1>  -0.5700 
 25 C       -2.9230   -11.2390    -1.4310 C.3   1 <1>  -0.1790 
 26 H        3.4420    -2.1280     0.0220 H     1 <1>   0.0800 
 27 H        4.5230    -0.8930     0.6090 H     1 <1>   0.0800 
 28 H        3.5270     1.3840     1.3080 H     1 <1>   0.0800 
 29 H        1.8050     1.6070     1.1910 H     1 <1>   0.0800 
 30 H       -0.4000    -2.6320    -0.1390 H     1 <1>   0.1500 
 31 H        2.7650    -2.6170     2.6710 H     1 <1>   0.1500 
 32 H        2.9290    -0.8390    -1.9610 H     1 <1>   0.0800 
 33 H        4.6500    -1.0360    -1.8330 H     1 <1>   0.0800 
 34 H        2.9930     2.7230    -0.6740 H     1 <1>   0.0800 
 35 H        1.8960     1.4970    -1.2350 H     1 <1>   0.0800 
 36 H        2.5330    -5.0430     2.8200 H     1 <1>   0.1500 
 37 H        4.0100     1.2970    -2.4570 H     1 <1>   0.0800 
 38 H        4.9050     1.2310    -0.9640 H     1 <1>   0.0800 
 39 H       -1.5590    -4.6870    -0.3350 H     1 <1>   0.4000 
 40 H       -1.4310    -6.6170     1.3340 H     1 <1>   0.0800 
 41 H       -0.2250    -7.2310     0.2330 H     1 <1>   0.0800 
 42 H       -1.8120    -7.2020    -1.6070 H     1 <1>   0.0800 
 43 H       -2.9880    -8.4670     0.8840 H     1 <1>   0.0800 
 44 H       -1.8810    -9.2170    -0.2280 H     1 <1>   0.0800 
 45 H       -3.9300    -6.6210    -2.4940 H     1 <1>   0.0800 
 46 H       -5.0620    -5.7990    -1.4440 H     1 <1>   0.0800 
 47 H       -5.6640    -8.2090    -1.8110 H     1 <1>   0.0800 
 48 H       -5.4240    -7.8150    -0.1340 H     1 <1>   0.0800 
 49 H       -2.7600   -11.4480    -0.3910 H     1 <1>   0.0800 
 50 H       -2.0110   -10.9030    -1.8870 H     1 <1>   0.0800 
 51 H       -3.2380   -12.1430    -1.9170 H     1 <1>   0.0800 
@<TRIPOS>BOND
  1   1   2  2   
  2   2   3  am  
  3   2   4  1   
  4   3   5  1   
  5   3   6  1   
  6   4   7  ar  
  7   4   8  ar  
  8   5   9  1   
  9   5  26  1   
 10   5  27  1   
 11   6  10  1   
 12   6  28  1   
 13   6  29  1   
 14   7  11  ar  
 15   7  30  1   
 16   8  12  ar  
 17   8  31  1   
 18   9  13  1   
 19   9  32  1   
 20   9  33  1   
 21  10  13  1   
 22  10  34  1   
 23  10  35  1   
 24  11  14  ar  
 25  11  15  1   
 26  12  14  ar  
 27  12  36  1   
 28  13  37  1   
 29  13  38  1   
 30  15  16  1   
 31  15  39  1   
 32  16  17  1   
 33  16  40  1   
 34  16  41  1   
 35  17  18  1   
 36  17  19  1   
 37  17  42  1   
 38  18  20  1   
 39  19  21  1   
 40  19  43  1   
 41  19  44  1   
 42  20  22  1   
 43  20  45  1   
 44  20  46  1   
 45  21  22  1   
 46  21  23  am  
 47  22  47  1   
 48  22  48  1   
 49  23  24  2   
 50  23  25  1   
 51  25  49  1   
 52  25  50  1   
 53  25  51  1   
@<TRIPOS>SUBSTRUCTURE
  1 ****  15 GROUP 4 **** **** 0

# MOE 2024.06 (io_trps.svl 2023.06)
