@<TRIPOS>MOLECULE
NONAME
38 38 1 0 0 
SMALL
USER_CHARGES


@<TRIPOS>ATOM
  1 O       -0.5700     0.3200    -0.5700 O.2   1 <1>  -0.5700 
  2 C       -1.5940     0.1630     0.0580 C.2   1 <1>   0.7800 
  3 O       -2.0860    -1.0460     0.3250 O.3   1 <1>  -0.4300 
  4 N       -2.3350     1.2300     0.4810 N.am  1 <1>  -0.6600 
  5 C       -1.4880    -2.2910     0.0260 C.3   1 <1>   0.2800 
  6 C       -3.7060     1.1630     1.0230 C.3   1 <1>   0.1400 
  7 C       -1.9530     2.6410     0.2360 C.3   1 <1>   0.1400 
  8 C       -1.3750    -2.4750    -1.4920 C.3   1 <1>  -0.2400 
  9 C       -2.4460    -3.3410     0.5910 C.3   1 <1>  -0.2400 
 10 C       -0.1330    -2.4110     0.7320 C.3   1 <1>  -0.2400 
 11 C       -4.3740     2.3680     0.3590 C.3   1 <1>   0.4230 
 12 C       -3.2610     3.4310     0.4150 C.3   1 <1>  -0.0800 
 13 N       -4.6540     2.0280    -1.0590 N.4   1 <1>  -0.8530 
 14 C       -3.3830     4.6220    -0.5590 C.3   1 <1>  -0.1600 
 15 C       -4.6920     5.4000    -0.3740 C.3   1 <1>  -0.2400 
 16 H       -4.1970     0.2330     0.7910 H     1 <1>   0.0800 
 17 H       -3.6690     1.2910     2.0920 H     1 <1>   0.0800 
 18 H       -1.2040     2.9530     0.9460 H     1 <1>   0.0800 
 19 H       -1.5540     2.7420    -0.7610 H     1 <1>   0.0800 
 20 H       -1.0400    -3.4730    -1.7120 H     1 <1>   0.0800 
 21 H       -0.6570    -1.7970    -1.9140 H     1 <1>   0.0800 
 22 H       -2.3280    -2.3270    -1.9640 H     1 <1>   0.0800 
 23 H       -2.0630    -4.3290     0.4100 H     1 <1>   0.0800 
 24 H       -3.4100    -3.2630     0.1240 H     1 <1>   0.0800 
 25 H       -2.5560    -3.2130     1.6530 H     1 <1>   0.0800 
 26 H        0.2540    -3.4070     0.6150 H     1 <1>   0.0800 
 27 H       -0.2370    -2.2100     1.7830 H     1 <1>   0.0800 
 28 H        0.5880    -1.7350     0.3120 H     1 <1>   0.0800 
 29 H       -5.2690     2.6820     0.8720 H     1 <1>   0.0800 
 30 H       -3.2470     3.8290     1.4170 H     1 <1>   0.0800 
 31 H       -3.7950     1.6160    -1.4500 H     1 <1>   0.4500 
 32 H       -4.8820     2.8720    -1.5930 H     1 <1>   0.4500 
 33 H       -5.4110     1.3450    -1.1530 H     1 <1>   0.4500 
 34 H       -2.5640     5.2980    -0.3730 H     1 <1>   0.0800 
 35 H       -3.2910     4.3020    -1.5830 H     1 <1>   0.0800 
 36 H       -4.7730     5.7670     0.6360 H     1 <1>   0.0800 
 37 H       -5.5580     4.8030    -0.5950 H     1 <1>   0.0800 
 38 H       -4.7010     6.2540    -1.0310 H     1 <1>   0.0800 
@<TRIPOS>BOND
  1   1   2  2   
  2   2   3  1   
  3   2   4  am  
  4   3   5  1   
  5   4   6  1   
  6   4   7  1   
  7   5   8  1   
  8   5   9  1   
  9   5  10  1   
 10   6  11  1   
 11   6  16  1   
 12   6  17  1   
 13   7  12  1   
 14   7  18  1   
 15   7  19  1   
 16   8  20  1   
 17   8  21  1   
 18   8  22  1   
 19   9  23  1   
 20   9  24  1   
 21   9  25  1   
 22  10  26  1   
 23  10  27  1   
 24  10  28  1   
 25  11  12  1   
 26  11  13  1   
 27  11  29  1   
 28  12  14  1   
 29  12  30  1   
 30  13  31  1   
 31  13  32  1   
 32  13  33  1   
 33  14  15  1   
 34  14  34  1   
 35  14  35  1   
 36  15  36  1   
 37  15  37  1   
 38  15  38  1   
@<TRIPOS>SUBSTRUCTURE
  1 ****   4 GROUP 4 **** **** 0

# MOE 2024.06 (io_trps.svl 2023.06)
