@<TRIPOS>MOLECULE
NONAME
44 45 1 0 0 
SMALL
USER_CHARGES


@<TRIPOS>ATOM
  1 O       -0.7200    -0.4690    -0.2640 O.2   1 <1>  -0.5700 
  2 C       -1.5940     0.3750    -0.3710 C.2   1 <1>   0.6160 
  3 N       -2.6630     0.0970    -1.2110 N.am  1 <1>  -0.6600 
  4 C       -1.4940     1.5980     0.4020 C.2   1 <1>   0.0910 
  5 C       -2.7950    -1.2290    -1.8560 C.3   1 <1>   0.1400 
  6 C       -3.7540     1.0620    -1.5030 C.3   1 <1>   0.1400 
  7 O       -2.5490     1.8180     1.2640 O.3   1 <1>  -0.3570 
  8 C       -0.4690     2.4900     0.3560 C.2   1 <1>  -0.0620 
  9 C       -3.3390    -2.2230    -0.8270 C.3   1 <1>  -0.1600 
 10 C       -5.1270     0.4870    -1.1190 C.3   1 <1>  -0.1600 
 11 C       -2.6740     3.1190     1.8170 C.3   1 <1>   0.1200 
 12 O       -0.4210     3.5890     1.1320 O.3   1 <1>  -0.3570 
 13 C        0.7490     2.3990    -0.5480 C.3   1 <1>  -0.1020 
 14 C       -4.7780    -1.9500    -0.3570 C.3   1 <1>   0.4230 
 15 C       -5.1090    -0.5000     0.0680 C.3   1 <1>  -0.1600 
 16 C       -1.3000     3.6530     2.2330 C.3   1 <1>   0.1200 
 17 N       -5.0850    -2.9230     0.7400 N.4   1 <1>  -0.9590 
 18 C       -6.5560    -3.1440     0.9020 C.3   1 <1>   0.2630 
 19 C       -4.4530    -2.5640     2.0550 C.3   1 <1>   0.2630 
 20 H       -1.8250    -1.5550    -2.1960 H     1 <1>   0.0800 
 21 H       -3.4390    -1.1690    -2.7170 H     1 <1>   0.0800 
 22 H       -3.7410     1.3060    -2.5520 H     1 <1>   0.0800 
 23 H       -3.5940     1.9800    -0.9670 H     1 <1>   0.0800 
 24 H       -2.6590    -2.2310     0.0050 H     1 <1>   0.0800 
 25 H       -3.3070    -3.1980    -1.2790 H     1 <1>   0.0800 
 26 H       -5.5680     0.0180    -1.9810 H     1 <1>   0.0800 
 27 H       -5.7610     1.3210    -0.8710 H     1 <1>   0.0800 
 28 H       -3.3330     3.0600     2.6640 H     1 <1>   0.0800 
 29 H       -3.1100     3.7610     1.0720 H     1 <1>   0.0800 
 30 H        0.8200     3.2870    -1.1510 H     1 <1>   0.0800 
 31 H        0.7010     1.5470    -1.2000 H     1 <1>   0.0800 
 32 H        1.6370     2.3180     0.0530 H     1 <1>   0.0800 
 33 H       -5.4200    -2.1800    -1.1920 H     1 <1>   0.0800 
 34 H       -6.0920    -0.4790     0.5000 H     1 <1>   0.0800 
 35 H       -4.4160    -0.1480     0.8120 H     1 <1>   0.0800 
 36 H       -0.8860     3.0570     3.0280 H     1 <1>   0.0800 
 37 H       -1.3630     4.6780     2.5510 H     1 <1>   0.0800 
 38 H       -4.6690    -3.8170     0.4430 H     1 <1>   0.4500 
 39 H       -7.0370    -2.2420     1.2440 H     1 <1>   0.0800 
 40 H       -6.7380    -3.9240     1.6240 H     1 <1>   0.0800 
 41 H       -6.9970    -3.4360    -0.0370 H     1 <1>   0.0800 
 42 H       -4.8740    -1.6480     2.4370 H     1 <1>   0.0800 
 43 H       -3.3900    -2.4280     1.9410 H     1 <1>   0.0800 
 44 H       -4.6220    -3.3460     2.7780 H     1 <1>   0.0800 
@<TRIPOS>BOND
  1   1   2  2   
  2   2   3  am  
  3   2   4  1   
  4   3   5  1   
  5   3   6  1   
  6   4   7  1   
  7   4   8  2   
  8   5   9  1   
  9   5  20  1   
 10   5  21  1   
 11   6  10  1   
 12   6  22  1   
 13   6  23  1   
 14   7  11  1   
 15   8  12  1   
 16   8  13  1   
 17   9  14  1   
 18   9  24  1   
 19   9  25  1   
 20  10  15  1   
 21  10  26  1   
 22  10  27  1   
 23  11  16  1   
 24  11  28  1   
 25  11  29  1   
 26  12  16  1   
 27  13  30  1   
 28  13  31  1   
 29  13  32  1   
 30  14  15  1   
 31  14  17  1   
 32  14  33  1   
 33  15  34  1   
 34  15  35  1   
 35  16  36  1   
 36  16  37  1   
 37  17  18  1   
 38  17  19  1   
 39  17  38  1   
 40  18  39  1   
 41  18  40  1   
 42  18  41  1   
 43  19  42  1   
 44  19  43  1   
 45  19  44  1   
@<TRIPOS>SUBSTRUCTURE
  1 ****   2 GROUP 4 **** **** 0

# MOE 2024.06 (io_trps.svl 2023.06)
