@<TRIPOS>MOLECULE
NONAME
42 44 1 0 0 
SMALL
USER_CHARGES


@<TRIPOS>ATOM
  1 O        0.2710     0.0220    -1.2330 O.3   1 <1>  -0.5600 
  2 C        1.4790    -0.6900    -1.3310 C.3   1 <1>   0.2000 
  3 C        0.3720     1.3380    -1.6960 C.3   1 <1>   0.1200 
  4 C        2.5680     0.0110    -0.4730 C.3   1 <1>   0.3340 
  5 C        1.1920    -2.1380    -0.9020 C.3   1 <1>   0.1200 
  6 C        1.4110     2.1170    -0.8730 C.3   1 <1>   0.1100 
  7 N        2.7190     1.4330    -0.8710 N.3   1 <1>  -0.8100 
  8 C        3.9040    -0.7260    -0.5680 C.ar  1 <1>  -0.1440 
  9 O        2.2100    -2.9990    -1.3040 O.3   1 <1>  -0.6800 
 10 C        3.7630     2.1350    -0.0820 C.3   1 <1>   0.2900 
 11 C        4.6580    -0.6750    -1.7320 C.ar  1 <1>  -0.1500 
 12 C        4.3690    -1.4730     0.5060 C.ar  1 <1>  -0.1500 
 13 C        3.8010     3.6480    -0.3060 C.2   1 <1>   0.0070 
 14 C        5.8540    -1.3650    -1.8250 C.ar  1 <1>  -0.1500 
 15 C        5.5640    -2.1640     0.4140 C.ar  1 <1>  -0.1500 
 16 N        4.3180     4.2070    -1.3560 N.2   1 <1>  -0.5650 
 17 N        3.3060     4.5410     0.5890 N.pl3 1 <1>   0.0480 
 18 C        6.3070    -2.1120    -0.7520 C.ar  1 <1>  -0.1500 
 19 C        4.1480     5.5230    -1.1440 C.2   1 <1>   0.0770 
 20 C        3.5340     5.7460     0.0370 C.2   1 <1>  -0.3020 
 21 C        2.6780     4.3040     1.9020 C.3   1 <1>   0.0160 
 22 H        1.7720    -0.6910    -2.3670 H     1 <1>   0.0800 
 23 H        0.6520     1.3220    -2.7360 H     1 <1>   0.0800 
 24 H       -0.5960     1.7960    -1.6050 H     1 <1>   0.0800 
 25 H        2.2370    -0.0200     0.5510 H     1 <1>   0.0800 
 26 H        0.2840    -2.4830    -1.3660 H     1 <1>   0.0800 
 27 H        1.0950    -2.2060     0.1670 H     1 <1>   0.0800 
 28 H        1.0480     2.2280     0.1330 H     1 <1>   0.0800 
 29 H        1.5160     3.0970    -1.3080 H     1 <1>   0.0800 
 30 H        3.0930    -2.6350    -1.0650 H     1 <1>   0.4000 
 31 H        3.6250     1.9290     0.9640 H     1 <1>   0.0800 
 32 H        4.7270     1.7480    -0.3630 H     1 <1>   0.0800 
 33 H        4.3130    -0.0890    -2.5680 H     1 <1>   0.1500 
 34 H        3.8030    -1.5270     1.4200 H     1 <1>   0.1500 
 35 H        6.4310    -1.3170    -2.7320 H     1 <1>   0.1500 
 36 H        5.9180    -2.7440     1.2490 H     1 <1>   0.1500 
 37 H        7.2360    -2.6490    -0.8250 H     1 <1>   0.1500 
 38 H        4.4840     6.2510    -1.8630 H     1 <1>   0.1500 
 39 H        3.2580     6.6760     0.4990 H     1 <1>   0.1500 
 40 H        2.2170     5.2110     2.2480 H     1 <1>   0.0800 
 41 H        3.4310     3.9960     2.6040 H     1 <1>   0.0800 
 42 H        1.9310     3.5380     1.8120 H     1 <1>   0.0800 
@<TRIPOS>BOND
  1   1   2  1   
  2   1   3  1   
  3   2   4  1   
  4   2   5  1   
  5   2  22  1   
  6   3   6  1   
  7   3  23  1   
  8   3  24  1   
  9   4   7  1   
 10   4   8  1   
 11   4  25  1   
 12   5   9  1   
 13   5  26  1   
 14   5  27  1   
 15   6   7  1   
 16   6  28  1   
 17   6  29  1   
 18   7  10  1   
 19   8  11  ar  
 20   8  12  ar  
 21   9  30  1   
 22  10  13  1   
 23  10  31  1   
 24  10  32  1   
 25  11  14  ar  
 26  11  33  1   
 27  12  15  ar  
 28  12  34  1   
 29  13  16  2   
 30  13  17  1   
 31  14  18  ar  
 32  14  35  1   
 33  15  18  ar  
 34  15  36  1   
 35  16  19  1   
 36  17  20  1   
 37  17  21  1   
 38  18  37  1   
 39  19  20  2   
 40  19  38  1   
 41  20  39  1   
 42  21  40  1   
 43  21  41  1   
 44  21  42  1   
@<TRIPOS>SUBSTRUCTURE
  1 ****   7 GROUP 4 **** **** 0

# MOE 2024.06 (io_trps.svl 2023.06)
