@<TRIPOS>MOLECULE
NONAME
40 41 1 0 0 
SMALL
USER_CHARGES


@<TRIPOS>ATOM
  1 O        3.4920    -0.9110     1.8350 O.2   1 <1>  -0.5760 
  2 C        2.5770    -1.4080     1.2370 C.2   1 <1>   0.8490 
  3 N        1.9430    -0.7390     0.2420 N.pl3 1 <1>  -0.7340 
  4 C        2.1140    -2.8130     1.5970 C.3   1 <1>  -0.1090 
  5 C        2.2020     0.4860    -0.2100 C.cat 1 <1>   1.0680 
  6 C        0.8940    -3.2990     0.7910 C.3   1 <1>  -0.1690 
  7 N        3.1450     1.2920     0.2370 N.pl3 1 <1>  -0.7050 
  8 N        1.5320     1.0810    -1.1970 N.pl3 1 <1>  -0.7680 
  9 C        0.4500    -4.7050     1.1780 C.3   1 <1>   0.1110 
 10 C        3.0990     2.4640    -0.4790 C.2   1 <1>   0.1910 
 11 C        2.0990     2.3350    -1.3700 C.2   1 <1>   0.1910 
 12 C        0.3900     0.5920    -2.0190 C.3   1 <1>   0.2660 
 13 O       -0.6370    -4.9800     0.3690 O.3   1 <1>  -0.5660 
 14 C       -1.1930    -6.2440     0.5530 C.3   1 <1>   0.2550 
 15 C       -2.3730    -6.3930    -0.3920 C.ar  1 <1>  -0.1530 
 16 C       -2.3050    -7.2500    -1.4800 C.ar  1 <1>  -0.1590 
 17 C       -3.5360    -5.6700    -0.1710 C.ar  1 <1>  -0.1590 
 18 C       -3.3870    -7.3880    -2.3320 C.ar  1 <1>  -0.1590 
 19 C       -4.6190    -5.8070    -1.0210 C.ar  1 <1>  -0.1590 
 20 C       -4.5450    -6.6670    -2.1030 C.ar  1 <1>  -0.1590 
 21 H        1.1840    -1.2330    -0.2040 H     1 <1>   0.4430 
 22 H        1.8780    -2.8270     2.6460 H     1 <1>   0.0700 
 23 H        2.9380    -3.4860     1.4390 H     1 <1>   0.0700 
 24 H        1.1340    -3.3130    -0.2590 H     1 <1>   0.0700 
 25 H        0.0610    -2.6370     0.9590 H     1 <1>   0.0700 
 26 H        3.7730     1.0140     1.0020 H     1 <1>   0.4430 
 27 H        0.1400    -4.7510     2.2090 H     1 <1>   0.0700 
 28 H        1.2240    -5.4290     0.9830 H     1 <1>   0.0700 
 29 H        3.7700     3.2920    -0.3060 H     1 <1>   0.1410 
 30 H        1.7540     3.0440    -2.1080 H     1 <1>   0.1410 
 31 H        0.0790    -0.3900    -1.7080 H     1 <1>   0.0700 
 32 H        0.6780     0.5500    -3.0560 H     1 <1>   0.0700 
 33 H       -0.4460     1.2640    -1.9190 H     1 <1>   0.0700 
 34 H       -1.5220    -6.3330     1.5740 H     1 <1>   0.0700 
 35 H       -0.4420    -6.9860     0.3460 H     1 <1>   0.0700 
 36 H       -1.4090    -7.8140    -1.6690 H     1 <1>   0.1410 
 37 H       -3.5960    -4.9970     0.6660 H     1 <1>   0.1410 
 38 H       -3.3270    -8.0550    -3.1730 H     1 <1>   0.1410 
 39 H       -5.5180    -5.2430    -0.8420 H     1 <1>   0.1410 
 40 H       -5.3860    -6.7730    -2.7650 H     1 <1>   0.1410 
@<TRIPOS>BOND
  1   1   2  2   
  2   2   3  1   
  3   2   4  1   
  4   3   5  ar  
  5   3  21  1   
  6   4   6  1   
  7   4  22  1   
  8   4  23  1   
  9   5   7  ar  
 10   5   8  ar  
 11   6   9  1   
 12   6  24  1   
 13   6  25  1   
 14   7  10  1   
 15   7  26  1   
 16   8  11  1   
 17   8  12  1   
 18   9  13  1   
 19   9  27  1   
 20   9  28  1   
 21  10  11  2   
 22  10  29  1   
 23  11  30  1   
 24  12  31  1   
 25  12  32  1   
 26  12  33  1   
 27  13  14  1   
 28  14  15  1   
 29  14  34  1   
 30  14  35  1   
 31  15  16  ar  
 32  15  17  ar  
 33  16  18  ar  
 34  16  36  1   
 35  17  19  ar  
 36  17  37  1   
 37  18  20  ar  
 38  18  38  1   
 39  19  20  ar  
 40  19  39  1   
 41  20  40  1   
@<TRIPOS>SUBSTRUCTURE
  1 ****   6 GROUP 4 **** **** 0

# MOE 2024.06 (io_trps.svl 2023.06)
