@<TRIPOS>MOLECULE
NONAME
60 62 1 0 0 
SMALL
USER_CHARGES


@<TRIPOS>ATOM
  1 O       -0.9380     0.6870     1.6450 O.2   1 <1>  -0.5700 
  2 C       -1.9540     1.3460     1.5560 C.2   1 <1>   0.5440 
  3 N       -3.1750     0.7150     1.6890 N.am  1 <1>  -0.6600 
  4 C       -1.8490     2.7620     1.2570 C.ar  1 <1>   0.0860 
  5 C       -3.2410    -0.7470     2.0180 C.3   1 <1>   0.3210 
  6 C       -4.4760     1.3190     1.2850 C.3   1 <1>   0.1400 
  7 C       -1.1420     3.1910     0.1340 C.ar  1 <1>  -0.1500 
  8 C       -2.4360     3.7350     2.0630 C.ar  1 <1>  -0.1500 
  9 C       -3.5420    -1.5870     0.7750 C.2   1 <1>   0.0460 
 10 C       -4.5630     1.4260    -0.2490 C.3   1 <1>   0.3430 
 11 C       -1.0450     4.5330    -0.1980 C.ar  1 <1>  -0.1440 
 12 C       -2.3570     5.0760     1.7380 C.ar  1 <1>  -0.1500 
 13 N       -4.7900    -1.6730     0.2520 N.2   1 <1>  -0.5650 
 14 C       -2.6730    -2.3440     0.0640 C.2   1 <1>  -0.3320 
 15 N       -5.9510     1.7340    -0.7340 N.4   1 <1>  -0.9590 
 16 C       -1.6680     5.4740     0.6070 C.ar  1 <1>  -0.1500 
 17 C       -0.2460     4.9720    -1.4250 C.3   1 <1>   0.2390 
 18 C       -4.6520    -2.4990    -0.7360 C.2   1 <1>   0.0360 
 19 N       -3.3890    -2.9390    -0.9060 N.pl3 1 <1>   0.0330 
 20 C       -1.1790    -2.5720     0.2330 C.3   1 <1>  -0.0600 
 21 C       -6.8430     0.5390    -0.5650 C.3   1 <1>   0.2630 
 22 C       -5.9130     2.1430    -2.1700 C.3   1 <1>   0.2630 
 23 N        0.6760     6.0890    -1.1190 N.pl3 1 <1>   0.3140 
 24 N        0.4970     7.3050    -1.6710 N.2   1 <1>  -0.7070 
 25 C        1.7660     6.0720    -0.3150 C.2   1 <1>  -0.3320 
 26 C        1.4670     8.0280    -1.2100 C.2   1 <1>   0.1080 
 27 C        2.2960     7.3130    -0.3560 C.2   1 <1>  -0.1500 
 28 C        2.2570     4.8670     0.4710 C.3   1 <1>  -0.0600 
 29 C        1.6420     9.4810    -1.5840 C.3   1 <1>  -0.0590 
 30 H       -4.0100    -0.9170     2.7500 H     1 <1>   0.0800 
 31 H       -2.3160    -1.0750     2.4560 H     1 <1>   0.0800 
 32 H       -4.5830     2.2920     1.7270 H     1 <1>   0.0800 
 33 H       -5.2700     0.6960     1.6560 H     1 <1>   0.0800 
 34 H       -0.6560     2.4460    -0.4730 H     1 <1>   0.1500 
 35 H       -2.9510     3.4370     2.9600 H     1 <1>   0.1500 
 36 H       -4.2330     0.4950    -0.6800 H     1 <1>   0.0800 
 37 H       -3.8870     2.2020    -0.5710 H     1 <1>   0.0800 
 38 H       -2.8180     5.8180     2.3690 H     1 <1>   0.1500 
 39 H       -6.3300     2.5170    -0.1810 H     1 <1>   0.4500 
 40 H       -1.6030     6.5240     0.3640 H     1 <1>   0.1500 
 41 H       -0.9190     5.2980    -2.1950 H     1 <1>   0.0800 
 42 H        0.3400     4.1580    -1.8080 H     1 <1>   0.0800 
 43 H       -5.4530    -2.8280    -1.3760 H     1 <1>   0.1500 
 44 H       -3.0490    -3.6010    -1.6100 H     1 <1>   0.2700 
 45 H       -0.7860    -1.9760     1.0380 H     1 <1>   0.0800 
 46 H       -0.6570    -2.3000    -0.6670 H     1 <1>   0.0800 
 47 H       -0.9820    -3.6070     0.4510 H     1 <1>   0.0800 
 48 H       -6.4560    -0.2960    -1.1270 H     1 <1>   0.0800 
 49 H       -7.8390     0.7590    -0.9110 H     1 <1>   0.0800 
 50 H       -6.8960     0.2460     0.4710 H     1 <1>   0.0800 
 51 H       -5.5130     1.3450    -2.7740 H     1 <1>   0.0800 
 52 H       -5.2920     3.0150    -2.2940 H     1 <1>   0.0800 
 53 H       -6.9060     2.3760    -2.5190 H     1 <1>   0.0800 
 54 H        3.1650     7.6930     0.1510 H     1 <1>   0.1500 
 55 H        2.4700     4.0480    -0.1930 H     1 <1>   0.0800 
 56 H        1.5120     4.5580     1.1830 H     1 <1>   0.0800 
 57 H        3.1550     5.1160     1.0060 H     1 <1>   0.0800 
 58 H        0.7680    10.0320    -1.2910 H     1 <1>   0.0800 
 59 H        1.7660     9.5630    -2.6480 H     1 <1>   0.0800 
 60 H        2.5030     9.8940    -1.0940 H     1 <1>   0.0800 
@<TRIPOS>BOND
  1   1   2  2   
  2   2   3  am  
  3   2   4  1   
  4   3   5  1   
  5   3   6  1   
  6   4   7  ar  
  7   4   8  ar  
  8   5   9  1   
  9   5  30  1   
 10   5  31  1   
 11   6  10  1   
 12   6  32  1   
 13   6  33  1   
 14   7  11  ar  
 15   7  34  1   
 16   8  12  ar  
 17   8  35  1   
 18   9  13  1   
 19   9  14  2   
 20  10  15  1   
 21  10  36  1   
 22  10  37  1   
 23  11  16  ar  
 24  11  17  1   
 25  12  16  ar  
 26  12  38  1   
 27  13  18  2   
 28  14  19  1   
 29  14  20  1   
 30  15  21  1   
 31  15  22  1   
 32  15  39  1   
 33  16  40  1   
 34  17  23  1   
 35  17  41  1   
 36  17  42  1   
 37  18  19  1   
 38  18  43  1   
 39  19  44  1   
 40  20  45  1   
 41  20  46  1   
 42  20  47  1   
 43  21  48  1   
 44  21  49  1   
 45  21  50  1   
 46  22  51  1   
 47  22  52  1   
 48  22  53  1   
 49  23  24  1   
 50  23  25  1   
 51  24  26  2   
 52  25  27  2   
 53  25  28  1   
 54  26  27  1   
 55  26  29  1   
 56  27  54  1   
 57  28  55  1   
 58  28  56  1   
 59  28  57  1   
 60  29  58  1   
 61  29  59  1   
 62  29  60  1   
@<TRIPOS>SUBSTRUCTURE
  1 ****   7 GROUP 4 **** **** 0

# MOE 2024.06 (io_trps.svl 2023.06)
