@<TRIPOS>MOLECULE
NONAME
45 48 1 0 0 
SMALL
USER_CHARGES


@<TRIPOS>ATOM
  1 O       -2.4300     1.6020     2.8520 O.2   1 <1>  -0.5700 
  2 C       -2.8310     2.0180     1.7890 C.2   1 <1>   0.5690 
  3 N       -3.2720     1.1590     0.8180 N.am  1 <1>  -0.6600 
  4 C       -2.8370     3.5190     1.5670 C.3   1 <1>   0.0820 
  5 C       -3.6970     1.5300    -0.5580 C.3   1 <1>   0.1400 
  6 C       -3.1690    -0.3140     0.9470 C.3   1 <1>   0.1400 
  7 C       -1.8830     3.9200     0.4600 C.2   1 <1>   0.1080 
  8 C       -4.2560     0.2340    -1.1420 C.3   1 <1>   0.2000 
  9 C       -3.4120    -0.8540    -0.4680 C.3   1 <1>  -0.0800 
 10 N       -2.2590     4.5520    -0.6030 N.2   1 <1>  -0.7070 
 11 C       -0.5030     3.6410     0.4710 C.ar  1 <1>   0.0000 
 12 O       -5.5770     0.1120    -0.7390 O.3   1 <1>  -0.6800 
 13 C       -4.0270    -2.2660    -0.5000 C.3   1 <1>   0.0200 
 14 N       -1.1260     4.7240    -1.3230 N.pl3 1 <1>   0.3000 
 15 C       -0.0390     4.1780    -0.7100 C.ar  1 <1>  -0.1520 
 16 C        0.3930     2.9980     1.3380 C.ar  1 <1>  -0.1500 
 17 C       -3.0930    -3.3330     0.0470 C.2   1 <1>  -0.0400 
 18 C        1.3120     4.0980    -1.0660 C.ar  1 <1>  -0.1500 
 19 C        1.7210     2.9150     0.9940 C.ar  1 <1>  -0.1500 
 20 O       -3.5520    -4.5460     0.2070 O.3   1 <1>  -0.0190 
 21 C       -1.8060    -3.3310     0.4340 C.2   1 <1>  -0.1500 
 22 C        2.1820     3.4660    -0.2100 C.ar  1 <1>  -0.1500 
 23 N       -2.6470    -5.3520     0.6810 N.2   1 <1>  -0.4100 
 24 C       -1.5840    -4.6470     0.8290 C.2   1 <1>   0.1080 
 25 C       -0.2750    -5.1850     1.3600 C.3   1 <1>  -0.0590 
 26 H       -3.8320     3.8360     1.3230 H     1 <1>   0.0800 
 27 H       -2.5430     4.0130     2.4740 H     1 <1>   0.0800 
 28 H       -4.4270     2.3210    -0.5600 H     1 <1>   0.0800 
 29 H       -2.8330     1.8370    -1.1210 H     1 <1>   0.0800 
 30 H       -2.2000    -0.5950     1.3220 H     1 <1>   0.0800 
 31 H       -3.9270    -0.6590     1.6300 H     1 <1>   0.0800 
 32 H       -4.2200     0.2030    -2.2180 H     1 <1>   0.0800 
 33 H       -2.4640    -0.8840    -0.9750 H     1 <1>   0.0800 
 34 H       -5.6340     0.3160     0.2160 H     1 <1>   0.4000 
 35 H       -4.2790    -2.5230    -1.5140 H     1 <1>   0.0800 
 36 H       -4.9360    -2.2840     0.0740 H     1 <1>   0.0800 
 37 H       -1.1090     5.2220    -2.2200 H     1 <1>   0.2700 
 38 H        0.0290     2.5780     2.2590 H     1 <1>   0.1500 
 39 H        1.6560     4.5240    -1.9920 H     1 <1>   0.1500 
 40 H        2.4230     2.4260     1.6480 H     1 <1>   0.1500 
 41 H       -1.0830    -2.5380     0.4520 H     1 <1>   0.1500 
 42 H        3.2280     3.3870    -0.4540 H     1 <1>   0.1500 
 43 H        0.5060    -5.0240     0.6400 H     1 <1>   0.0800 
 44 H       -0.3610    -6.2390     1.5510 H     1 <1>   0.0800 
 45 H       -0.0210    -4.6850     2.2770 H     1 <1>   0.0800 
@<TRIPOS>BOND
  1   1   2  2   
  2   2   3  am  
  3   2   4  1   
  4   3   5  1   
  5   3   6  1   
  6   4   7  1   
  7   4  26  1   
  8   4  27  1   
  9   5   8  1   
 10   5  28  1   
 11   5  29  1   
 12   6   9  1   
 13   6  30  1   
 14   6  31  1   
 15   7  10  2   
 16   7  11  1   
 17   8   9  1   
 18   8  12  1   
 19   8  32  1   
 20   9  13  1   
 21   9  33  1   
 22  10  14  1   
 23  11  15  ar  
 24  11  16  ar  
 25  12  34  1   
 26  13  17  1   
 27  13  35  1   
 28  13  36  1   
 29  14  15  1   
 30  14  37  1   
 31  15  18  ar  
 32  16  19  ar  
 33  16  38  1   
 34  17  20  1   
 35  17  21  2   
 36  18  22  ar  
 37  18  39  1   
 38  19  22  ar  
 39  19  40  1   
 40  20  23  1   
 41  21  24  1   
 42  21  41  1   
 43  22  42  1   
 44  23  24  2   
 45  24  25  1   
 46  25  43  1   
 47  25  44  1   
 48  25  45  1   
@<TRIPOS>SUBSTRUCTURE
  1 ****   3 GROUP 4 **** **** 0

# MOE 2024.06 (io_trps.svl 2023.06)
