@<TRIPOS>MOLECULE
NONAME
56 58 1 0 0 
SMALL
USER_CHARGES


@<TRIPOS>ATOM
  1 O       -0.0030     0.0430     1.8920 O.2   1 <1>  -0.5700 
  2 C       -0.8480     0.8740     1.6320 C.2   1 <1>   0.5690 
  3 N       -1.9390     0.5050     0.8740 N.am  1 <1>  -0.6600 
  4 C       -0.6440     2.3180     2.1970 C.3   1 <1>   0.3410 
  5 C       -3.0470     1.3670     0.3770 C.3   1 <1>   0.1400 
  6 C       -2.0620    -0.8630     0.3100 C.3   1 <1>   0.1400 
  7 O       -0.8950     3.3350     1.2310 O.3   1 <1>  -0.3630 
  8 C       -1.6540     2.5810     3.3260 C.3   1 <1>  -0.2400 
  9 C        0.7620     2.5800     2.7790 C.3   1 <1>  -0.2400 
 10 C       -3.7380     0.5400    -0.7040 C.3   1 <1>   0.2000 
 11 C       -3.4380    -0.9130    -0.3540 C.3   1 <1>  -0.0800 
 12 C       -0.3490     3.4500    -0.0150 C.ar  1 <1>   0.0820 
 13 O       -5.1070     0.7570    -0.7180 O.3   1 <1>  -0.6800 
 14 C       -3.4990    -1.8510    -1.5680 C.3   1 <1>   0.0210 
 15 C       -0.7810     4.5210    -0.8010 C.ar  1 <1>  -0.1430 
 16 C        0.5810     2.5510    -0.5300 C.ar  1 <1>  -0.1500 
 17 C       -3.1030    -3.2630    -1.1850 C.2   1 <1>   0.1080 
 18 C       -0.2950     4.6660    -2.0990 C.ar  1 <1>  -0.1430 
 19 C       -1.7940     5.5160    -0.2290 C.3   1 <1>  -0.0970 
 20 C        1.0680     2.7080    -1.8110 C.ar  1 <1>  -0.1500 
 21 N       -3.7910    -3.9870    -0.3580 N.2   1 <1>  -0.7070 
 22 C       -1.9750    -3.9290    -1.6530 C.2   1 <1>  -0.1500 
 23 C        0.6300     3.7600    -2.5920 C.ar  1 <1>  -0.1500 
 24 C       -0.7460     5.7960    -3.0170 C.3   1 <1>  -0.0970 
 25 N       -3.1150    -5.1480    -0.2780 N.pl3 1 <1>   0.3000 
 26 C       -2.0090    -5.1360    -1.0520 C.2   1 <1>  -0.3320 
 27 C       -1.0400    -6.2980    -1.1710 C.3   1 <1>  -0.0600 
 28 H       -3.7260     1.5750     1.1840 H     1 <1>   0.0800 
 29 H       -2.6790     2.2810    -0.0490 H     1 <1>   0.0800 
 30 H       -1.2780    -1.0110    -0.4120 H     1 <1>   0.0800 
 31 H       -1.9740    -1.6070     1.0840 H     1 <1>   0.0800 
 32 H       -1.5170     1.8600     4.1120 H     1 <1>   0.0800 
 33 H       -2.6610     2.4940     2.9640 H     1 <1>   0.0800 
 34 H       -1.5150     3.5650     3.7350 H     1 <1>   0.0800 
 35 H        0.9420     1.9200     3.6080 H     1 <1>   0.0800 
 36 H        0.8440     3.5950     3.1240 H     1 <1>   0.0800 
 37 H        1.5280     2.3980     2.0510 H     1 <1>   0.0800 
 38 H       -3.3400     0.8060    -1.6690 H     1 <1>   0.0800 
 39 H       -4.1330    -1.2580     0.3910 H     1 <1>   0.0800 
 40 H       -5.5170     0.3680     0.0780 H     1 <1>   0.4000 
 41 H       -2.8470    -1.4960    -2.3450 H     1 <1>   0.0800 
 42 H       -4.5020    -1.8690    -1.9570 H     1 <1>   0.0800 
 43 H        0.9440     1.7170     0.0370 H     1 <1>   0.1500 
 44 H       -1.6840     6.4910    -0.6640 H     1 <1>   0.0800 
 45 H       -1.6620     5.6330     0.8320 H     1 <1>   0.0800 
 46 H       -2.7910     5.1610    -0.4140 H     1 <1>   0.0800 
 47 H        1.7870     2.0100    -2.2020 H     1 <1>   0.1500 
 48 H       -1.2480    -3.5400    -2.3430 H     1 <1>   0.1500 
 49 H        1.0180     3.8660    -3.5890 H     1 <1>   0.1500 
 50 H       -0.3920     5.6440    -4.0200 H     1 <1>   0.0800 
 51 H       -0.3590     6.7330    -2.6600 H     1 <1>   0.0800 
 52 H       -1.8190     5.8440    -3.0470 H     1 <1>   0.0800 
 53 H       -3.4330    -5.9260     0.3120 H     1 <1>   0.2700 
 54 H       -0.2400    -6.0440    -1.8440 H     1 <1>   0.0800 
 55 H       -1.5450    -7.1670    -1.5510 H     1 <1>   0.0800 
 56 H       -0.6160    -6.5290    -0.2090 H     1 <1>   0.0800 
@<TRIPOS>BOND
  1   1   2  2   
  2   2   3  am  
  3   2   4  1   
  4   3   5  1   
  5   3   6  1   
  6   4   7  1   
  7   4   8  1   
  8   4   9  1   
  9   5  10  1   
 10   5  28  1   
 11   5  29  1   
 12   6  11  1   
 13   6  30  1   
 14   6  31  1   
 15   7  12  1   
 16   8  32  1   
 17   8  33  1   
 18   8  34  1   
 19   9  35  1   
 20   9  36  1   
 21   9  37  1   
 22  10  11  1   
 23  10  13  1   
 24  10  38  1   
 25  11  14  1   
 26  11  39  1   
 27  12  15  ar  
 28  12  16  ar  
 29  13  40  1   
 30  14  17  1   
 31  14  41  1   
 32  14  42  1   
 33  15  18  ar  
 34  15  19  1   
 35  16  20  ar  
 36  16  43  1   
 37  17  21  2   
 38  17  22  1   
 39  18  23  ar  
 40  18  24  1   
 41  19  44  1   
 42  19  45  1   
 43  19  46  1   
 44  20  23  ar  
 45  20  47  1   
 46  21  25  1   
 47  22  26  2   
 48  22  48  1   
 49  23  49  1   
 50  24  50  1   
 51  24  51  1   
 52  24  52  1   
 53  25  26  1   
 54  25  53  1   
 55  26  27  1   
 56  27  54  1   
 57  27  55  1   
 58  27  56  1   
@<TRIPOS>SUBSTRUCTURE
  1 ****   3 GROUP 4 **** **** 0

# MOE 2024.06 (io_trps.svl 2023.06)
