@<TRIPOS>MOLECULE
NONAME
49 52 1 0 0 
SMALL
USER_CHARGES


@<TRIPOS>ATOM
  1 O       -0.3950     0.4520    -1.1490 O.2   1 <1>  -0.5700 
  2 C       -1.4050     1.0360    -0.8380 C.2   1 <1>   0.5690 
  3 N       -2.5220     0.3520    -0.4450 N.am  1 <1>  -0.6600 
  4 C       -1.3810     2.5540    -0.8990 C.3   1 <1>   0.0690 
  5 C       -3.8910     0.8910    -0.2170 C.3   1 <1>   0.1400 
  6 C       -2.5340    -1.1320    -0.3570 C.3   1 <1>   0.1400 
  7 C       -0.1320     3.1510    -0.2580 C.2   1 <1>   0.1820 
  8 C       -4.7990    -0.3390    -0.1950 C.3   1 <1>   0.2000 
  9 C       -3.8990    -1.4930     0.2320 C.3   1 <1>  -0.0800 
 10 N        0.0820     4.5200    -0.2130 N.pl3 1 <1>  -0.6290 
 11 C        0.9220     2.5510     0.3390 C.2   1 <1>   0.2000 
 12 O       -5.8450    -0.1840     0.6990 O.3   1 <1>  -0.6800 
 13 C       -4.4170    -2.8690    -0.2150 C.3   1 <1>   0.0200 
 14 C        1.2710     4.7190     0.4110 C.cat 1 <1>   0.7910 
 15 C       -0.6430     5.5990    -0.6720 C.2   1 <1>   0.2290 
 16 N        1.7850     3.5280     0.7530 N.pl3 1 <1>  -0.7000 
 17 C       -3.4220    -3.9570     0.1360 C.2   1 <1>  -0.0400 
 18 C        1.7840     6.0200     0.6120 C.2   1 <1>  -0.1290 
 19 C       -0.1700     6.8660    -0.4920 C.2   1 <1>  -0.1500 
 20 O       -3.0740    -4.1450     1.3810 O.3   1 <1>  -0.0190 
 21 C       -2.7520    -4.8410    -0.6180 C.2   1 <1>  -0.1500 
 22 C        1.0590     7.0900     0.1590 C.2   1 <1>  -0.1500 
 23 C        3.1200     6.2260     1.3190 C.3   1 <1>  -0.1020 
 24 N       -2.2010    -5.1020     1.5000 N.2   1 <1>  -0.4100 
 25 C       -1.9890    -5.5420     0.3120 C.2   1 <1>   0.1080 
 26 C       -1.0360    -6.6690    -0.0210 C.3   1 <1>  -0.0590 
 27 H       -1.4170     2.8420    -1.9320 H     1 <1>   0.0800 
 28 H       -2.2420     2.9590    -0.4030 H     1 <1>   0.0800 
 29 H       -3.9210     1.3980     0.7320 H     1 <1>   0.0800 
 30 H       -4.1800     1.5560    -1.0120 H     1 <1>   0.0800 
 31 H       -2.4200    -1.5420    -1.3460 H     1 <1>   0.0800 
 32 H       -1.7310    -1.4890     0.2670 H     1 <1>   0.0800 
 33 H       -5.2130    -0.5020    -1.1760 H     1 <1>   0.0800 
 34 H       -3.7910    -1.4870     1.3030 H     1 <1>   0.0800 
 35 H        1.1140     1.4990     0.4920 H     1 <1>   0.1500 
 36 H       -5.5260    -0.2200     1.6220 H     1 <1>   0.4000 
 37 H       -4.5860    -2.8740    -1.2770 H     1 <1>   0.0800 
 38 H       -5.3530    -3.0780     0.2730 H     1 <1>   0.0800 
 39 H       -1.5810     5.4150    -1.1720 H     1 <1>   0.1500 
 40 H        2.6810     3.3920     1.2250 H     1 <1>   0.4500 
 41 H       -0.7280     7.7170    -0.8460 H     1 <1>   0.1500 
 42 H       -2.7680    -4.9990    -1.6800 H     1 <1>   0.1500 
 43 H        1.4010     8.1060     0.2840 H     1 <1>   0.1500 
 44 H        3.9100     5.7370     0.7770 H     1 <1>   0.0800 
 45 H        3.0810     5.8280     2.3180 H     1 <1>   0.0800 
 46 H        3.3600     7.2730     1.3860 H     1 <1>   0.0800 
 47 H       -1.5720    -7.4730    -0.4910 H     1 <1>   0.0800 
 48 H       -0.5750    -7.0370     0.8780 H     1 <1>   0.0800 
 49 H       -0.2700    -6.3140    -0.6850 H     1 <1>   0.0800 
@<TRIPOS>BOND
  1   1   2  2   
  2   2   3  am  
  3   2   4  1   
  4   3   5  1   
  5   3   6  1   
  6   4   7  1   
  7   4  27  1   
  8   4  28  1   
  9   5   8  1   
 10   5  29  1   
 11   5  30  1   
 12   6   9  1   
 13   6  31  1   
 14   6  32  1   
 15   7  10  1   
 16   7  11  2   
 17   8   9  1   
 18   8  12  1   
 19   8  33  1   
 20   9  13  1   
 21   9  34  1   
 22  10  14  ar  
 23  10  15  1   
 24  11  16  1   
 25  11  35  1   
 26  12  36  1   
 27  13  17  1   
 28  13  37  1   
 29  13  38  1   
 30  14  16  ar  
 31  14  18  1   
 32  15  19  2   
 33  15  39  1   
 34  16  40  1   
 35  17  20  1   
 36  17  21  2   
 37  18  22  2   
 38  18  23  1   
 39  19  22  1   
 40  19  41  1   
 41  20  24  1   
 42  21  25  1   
 43  21  42  1   
 44  22  43  1   
 45  23  44  1   
 46  23  45  1   
 47  23  46  1   
 48  24  25  2   
 49  25  26  1   
 50  26  47  1   
 51  26  48  1   
 52  26  49  1   
@<TRIPOS>SUBSTRUCTURE
  1 ****   2 GROUP 4 **** **** 0

# MOE 2024.06 (io_trps.svl 2023.06)
