@<TRIPOS>MOLECULE
NONAME
45 48 1 0 0 
SMALL
USER_CHARGES


@<TRIPOS>ATOM
  1 O        1.3360    -0.6180    -2.0390 O.2   1 <1>  -0.5700 
  2 C        1.9270    -0.9210    -1.0190 C.2   1 <1>   0.5440 
  3 N        2.7700     0.0430    -0.4750 N.am  1 <1>  -0.6600 
  4 C        1.7350    -2.2620    -0.4570 C.ar  1 <1>   0.3960 
  5 C        3.2940    -0.0450     0.9400 C.3   1 <1>   0.2200 
  6 C        3.1710     1.2170    -1.3170 C.3   1 <1>   0.1400 
  7 N        2.7960    -2.9020     0.1360 N.ar  1 <1>  -0.6200 
  8 C        0.5070    -2.8750    -0.5440 C.ar  1 <1>  -0.1500 
  9 C        3.1990     1.2860     1.7040 C.3   1 <1>   0.1200 
 10 C        4.7450    -0.5830     0.9500 C.3   1 <1>   0.3430 
 11 C        4.5010     1.8840    -0.9150 C.3   1 <1>  -0.0800 
 12 C        2.5890    -4.0970     0.6060 C.ar  1 <1>   0.1600 
 13 C        0.2720    -4.1580    -0.0320 C.ar  1 <1>   0.0000 
 14 O        4.3350     2.0670     1.4850 O.3   1 <1>  -0.5600 
 15 N        5.3990    -0.4640    -0.4000 N.4   1 <1>  -0.9590 
 16 C        4.3410     2.8000     0.3070 C.3   1 <1>   0.1200 
 17 C        5.7220     0.9460    -0.7870 C.3   1 <1>   0.3430 
 18 C        1.3650    -4.7970     0.5700 C.ar  1 <1>   0.0000 
 19 C       -0.9680    -4.8200    -0.0910 C.ar  1 <1>  -0.1500 
 20 C        6.5780    -1.3670    -0.5160 C.3   1 <1>   0.2630 
 21 C        1.1840    -6.0890     1.1020 C.ar  1 <1>  -0.1500 
 22 C       -1.1190    -6.0750     0.4340 C.ar  1 <1>  -0.1500 
 23 C       -0.0320    -6.7160     1.0370 C.ar  1 <1>  -0.1500 
 24 H        2.6780    -0.7320     1.4920 H     1 <1>   0.0800 
 25 H        3.2540     0.8920    -2.3420 H     1 <1>   0.0800 
 26 H        2.3770     1.9440    -1.2870 H     1 <1>   0.0800 
 27 H       -0.3080    -2.3640    -1.0240 H     1 <1>   0.1500 
 28 H        3.1710     1.0830     2.7610 H     1 <1>   0.0800 
 29 H        2.3090     1.8350     1.4460 H     1 <1>   0.0800 
 30 H        4.7040    -1.6230     1.2300 H     1 <1>   0.0800 
 31 H        5.3240    -0.0660     1.6970 H     1 <1>   0.0800 
 32 H        4.7340     2.5590    -1.7190 H     1 <1>   0.0800 
 33 H        3.4160    -4.6110     1.0660 H     1 <1>   0.1500 
 34 H        4.6570    -0.7810    -1.0490 H     1 <1>   0.4500 
 35 H        3.4390     3.3880     0.2530 H     1 <1>   0.0800 
 36 H        5.1750     3.4780     0.3680 H     1 <1>   0.0800 
 37 H        6.4120     1.3670    -0.0730 H     1 <1>   0.0800 
 38 H        6.2200     0.9260    -1.7430 H     1 <1>   0.0800 
 39 H       -1.8000    -4.3220    -0.5570 H     1 <1>   0.1500 
 40 H        7.3470    -1.0680     0.1780 H     1 <1>   0.0800 
 41 H        6.9800    -1.3310    -1.5150 H     1 <1>   0.0800 
 42 H        6.2900    -2.3830    -0.2990 H     1 <1>   0.0800 
 43 H        2.0190    -6.5840     1.5640 H     1 <1>   0.1500 
 44 H       -2.0680    -6.5820     0.3900 H     1 <1>   0.1500 
 45 H       -0.1680    -7.7040     1.4440 H     1 <1>   0.1500 
@<TRIPOS>BOND
  1   1   2  2   
  2   2   3  am  
  3   2   4  1   
  4   3   5  1   
  5   3   6  1   
  6   4   7  ar  
  7   4   8  ar  
  8   5   9  1   
  9   5  10  1   
 10   5  24  1   
 11   6  11  1   
 12   6  25  1   
 13   6  26  1   
 14   7  12  ar  
 15   8  13  ar  
 16   8  27  1   
 17   9  14  1   
 18   9  28  1   
 19   9  29  1   
 20  10  15  1   
 21  10  30  1   
 22  10  31  1   
 23  11  16  1   
 24  11  17  1   
 25  11  32  1   
 26  12  18  ar  
 27  12  33  1   
 28  13  18  ar  
 29  13  19  ar  
 30  14  16  1   
 31  15  17  1   
 32  15  20  1   
 33  15  34  1   
 34  16  35  1   
 35  16  36  1   
 36  17  37  1   
 37  17  38  1   
 38  18  21  ar  
 39  19  22  ar  
 40  19  39  1   
 41  20  40  1   
 42  20  41  1   
 43  20  42  1   
 44  21  23  ar  
 45  21  43  1   
 46  22  23  ar  
 47  22  44  1   
 48  23  45  1   
@<TRIPOS>SUBSTRUCTURE
  1 ****   4 GROUP 4 **** **** 0

# MOE 2024.06 (io_trps.svl 2023.06)
