@<TRIPOS>MOLECULE
NONAME
32 33 1 0 0 
SMALL
USER_CHARGES


@<TRIPOS>ATOM
  1 F        0.5090     0.7010     0.1760 F     1 <1>  -0.3400 
  2 C       -0.4170     1.5860    -0.1640 C.3   1 <1>   0.7800 
  3 F       -0.7720     1.2410    -1.3930 F     1 <1>  -0.3400 
  4 C        0.2100     2.9620    -0.2020 C.2   1 <1>  -0.3320 
  5 N        1.2730     3.2250    -0.9800 N.pl3 1 <1>   0.3000 
  6 C       -0.0940     4.1090     0.4400 C.2   1 <1>  -0.1500 
  7 N        1.6730     4.5020    -0.8680 N.2   1 <1>  -0.7070 
  8 C        0.8420     5.0550     0.0010 C.2   1 <1>   0.2030 
  9 C        0.8890     6.4390     0.4380 C.2   1 <1>   0.7160 
 10 O        0.0880     6.8830     1.2460 O.2   1 <1>  -0.5700 
 11 N        1.8660     7.2420    -0.0830 N.am  1 <1>  -0.4930 
 12 C        2.1590     8.6080     0.1480 C.2   1 <1>   0.0630 
 13 C        1.5200     9.5250     0.9850 C.2   1 <1>   0.1390 
 14 C        3.1560     9.3130    -0.4240 C.2   1 <1>  -0.3020 
 15 N        2.0710    10.7020     0.9400 N.2   1 <1>  -0.7070 
 16 N        3.0900    10.5730     0.0630 N.pl3 1 <1>   0.3140 
 17 C        4.0040    11.6950    -0.2980 C.3   1 <1>   0.1760 
 18 C        4.7680    12.1920     0.9380 C.3   1 <1>  -0.2400 
 19 C        3.2230    12.8420    -0.9540 C.3   1 <1>  -0.2400 
 20 H       -1.2640     1.4780     0.4900 H     1 <1>   0.0800 
 21 H        1.7410     2.5440    -1.5960 H     1 <1>   0.2700 
 22 H       -0.8780     4.3150     1.1500 H     1 <1>   0.1500 
 23 H        2.4670     6.7460    -0.7450 H     1 <1>   0.3700 
 24 H        0.6680     9.2910     1.6000 H     1 <1>   0.1500 
 25 H        3.8940     8.9970    -1.1350 H     1 <1>   0.1500 
 26 H        4.7160    11.3160    -1.0090 H     1 <1>   0.0800 
 27 H        4.0800    12.5830     1.6680 H     1 <1>   0.0800 
 28 H        5.4560    12.9700     0.6630 H     1 <1>   0.0800 
 29 H        5.3230    11.3830     1.3800 H     1 <1>   0.0800 
 30 H        2.5040    13.2460    -0.2630 H     1 <1>   0.0800 
 31 H        2.7060    12.4850    -1.8270 H     1 <1>   0.0800 
 32 H        3.8940    13.6280    -1.2510 H     1 <1>   0.0800 
@<TRIPOS>BOND
  1   1   2  1   
  2   2   3  1   
  3   2   4  1   
  4   2  20  1   
  5   4   5  1   
  6   4   6  2   
  7   5   7  1   
  8   5  21  1   
  9   6   8  1   
 10   6  22  1   
 11   7   8  2   
 12   8   9  1   
 13   9  10  2   
 14   9  11  am  
 15  11  12  1   
 16  11  23  1   
 17  12  13  1   
 18  12  14  2   
 19  13  15  2   
 20  13  24  1   
 21  14  16  1   
 22  14  25  1   
 23  15  16  1   
 24  16  17  1   
 25  17  18  1   
 26  17  19  1   
 27  17  26  1   
 28  18  27  1   
 29  18  28  1   
 30  18  29  1   
 31  19  30  1   
 32  19  31  1   
 33  19  32  1   
@<TRIPOS>SUBSTRUCTURE
  1 ****  11 GROUP 4 **** **** 0

# MOE 2024.06 (io_trps.svl 2023.06)
