@<TRIPOS>MOLECULE
NONAME
40 41 1 0 0 
SMALL
USER_CHARGES


@<TRIPOS>ATOM
  1 F       -1.5220     4.7190     1.3110 F     1 <1>  -0.1900 
  2 C       -0.6560     4.3880     0.3920 C.ar  1 <1>   0.1900 
  3 C        0.6880     4.5900     0.6410 C.ar  1 <1>  -0.1500 
  4 C       -1.1150     3.8500    -0.7940 C.ar  1 <1>  -0.1500 
  5 C        1.6110     4.2450    -0.3360 C.ar  1 <1>  -0.1440 
  6 C       -0.1900     3.5060    -1.7660 C.ar  1 <1>  -0.1500 
  7 C        1.1640     3.7030    -1.5350 C.ar  1 <1>  -0.1500 
  8 C        3.0910     4.4750    -0.0890 C.3   1 <1>   0.2840 
  9 N        3.3450     5.9170    -0.2360 N.am  1 <1>  -0.7300 
 10 C        4.0890     6.6640     0.6150 C.2   1 <1>   0.5690 
 11 O        4.7120     6.1650     1.5190 O.2   1 <1>  -0.5700 
 12 C        4.1200     8.1800     0.4370 C.3   1 <1>  -0.0190 
 13 C        2.7060     8.7930     0.5090 C.3   1 <1>  -0.1600 
 14 C        4.8500     8.5970    -0.8630 C.3   1 <1>  -0.1600 
 15 C        2.7380    10.3350     0.4880 C.3   1 <1>   0.2000 
 16 C        4.4610    10.0010    -1.3690 C.3   1 <1>  -0.1600 
 17 O        1.5850    10.7840    -0.1800 O.3   1 <1>  -0.5600 
 18 C        3.9940    10.9040    -0.2250 C.3   1 <1>   0.2000 
 19 C        0.4220    10.8010     0.5900 C.3   1 <1>   0.0400 
 20 O        3.6920    12.1410    -0.7540 O.3   1 <1>  -0.6800 
 21 H        1.0020     5.0130     1.5780 H     1 <1>   0.1500 
 22 H       -2.1690     3.7070    -0.9500 H     1 <1>   0.1500 
 23 H       -0.5230     3.0850    -2.6990 H     1 <1>   0.1500 
 24 H        1.8700     3.4320    -2.3020 H     1 <1>   0.1500 
 25 H        3.6860     3.9310    -0.8020 H     1 <1>   0.0800 
 26 H        3.3590     4.1460     0.9010 H     1 <1>   0.0800 
 27 H        2.7910     6.3720    -0.9620 H     1 <1>   0.3700 
 28 H        4.6800     8.5740     1.2680 H     1 <1>   0.0800 
 29 H        2.2210     8.4620     1.4100 H     1 <1>   0.0800 
 30 H        2.1350     8.4400    -0.3320 H     1 <1>   0.0800 
 31 H        5.9100     8.5660    -0.6750 H     1 <1>   0.0800 
 32 H        4.6490     7.8900    -1.6490 H     1 <1>   0.0800 
 33 H        2.7310    10.7210     1.4940 H     1 <1>   0.0800 
 34 H        3.6560     9.9060    -2.0770 H     1 <1>   0.0800 
 35 H        5.3010    10.4490    -1.8700 H     1 <1>   0.0800 
 36 H        4.7980    11.0330     0.4790 H     1 <1>   0.0800 
 37 H       -0.3790    11.1730    -0.0230 H     1 <1>   0.0800 
 38 H        0.5640    11.4540     1.4340 H     1 <1>   0.0800 
 39 H        0.1900     9.8030     0.9180 H     1 <1>   0.0800 
 40 H        2.7330    12.1100    -0.9740 H     1 <1>   0.4000 
@<TRIPOS>BOND
  1   1   2  1   
  2   2   3  ar  
  3   2   4  ar  
  4   3   5  ar  
  5   3  21  1   
  6   4   6  ar  
  7   4  22  1   
  8   5   7  ar  
  9   5   8  1   
 10   6   7  ar  
 11   6  23  1   
 12   7  24  1   
 13   8   9  1   
 14   8  25  1   
 15   8  26  1   
 16   9  10  am  
 17   9  27  1   
 18  10  11  2   
 19  10  12  1   
 20  12  13  1   
 21  12  14  1   
 22  12  28  1   
 23  13  15  1   
 24  13  29  1   
 25  13  30  1   
 26  14  16  1   
 27  14  31  1   
 28  14  32  1   
 29  15  17  1   
 30  15  18  1   
 31  15  33  1   
 32  16  18  1   
 33  16  34  1   
 34  16  35  1   
 35  17  19  1   
 36  18  20  1   
 37  18  36  1   
 38  19  37  1   
 39  19  38  1   
 40  19  39  1   
 41  20  40  1   
@<TRIPOS>SUBSTRUCTURE
  1 ****   9 GROUP 4 **** **** 0

# MOE 2024.06 (io_trps.svl 2023.06)
