@<TRIPOS>MOLECULE
NONAME
61 65 1 0 0 
SMALL
USER_CHARGES


@<TRIPOS>ATOM
  1 O       -0.0520     1.8040     2.8240 O.2   1 <1>  -0.5700 
  2 C        0.2200     2.5250     1.8930 C.2   1 <1>   0.5690 
  3 N       -0.7660     3.0810     1.1080 N.am  1 <1>  -0.6600 
  4 C        1.7030     2.8080     1.6760 C.3   1 <1>  -0.0990 
  5 C       -2.2100     2.8020     1.3980 C.3   1 <1>   0.1400 
  6 C       -0.5800     4.0310    -0.0260 C.3   1 <1>   0.1400 
  7 C        2.4680     1.7690     0.8180 C.3   1 <1>   0.0000 
  8 C       -2.9190     2.1960     0.1620 C.3   1 <1>   0.0000 
  9 C       -1.2740     3.5000    -1.2880 C.3   1 <1>  -0.1600 
 10 C        2.3980     0.3570     1.4490 C.3   1 <1>  -0.1600 
 11 C        1.9090     1.6850    -0.6210 C.3   1 <1>  -0.1600 
 12 C        3.9560     2.1890     0.7330 C.3   1 <1>  -0.1600 
 13 C       -4.4030     1.9140     0.4520 C.3   1 <1>   0.2000 
 14 C       -2.7500     3.1520    -1.0380 C.3   1 <1>  -0.1600 
 15 C       -2.3840     0.7810    -0.1240 C.3   1 <1>  -0.1600 
 16 C        3.2050    -0.6370     0.6030 C.3   1 <1>   0.2800 
 17 C        2.7080     0.6780    -1.4710 C.3   1 <1>  -0.0800 
 18 C        4.7710     1.1850    -0.1060 C.3   1 <1>  -0.0800 
 19 O       -4.9830     2.9420     1.1990 O.3   1 <1>  -0.5600 
 20 C       -4.4330     0.5820     1.2090 C.3   1 <1>  -0.1600 
 21 C       -3.1310    -0.1430     0.8420 C.3   1 <1>  -0.1600 
 22 O        3.1270    -1.8800     1.1810 O.3   1 <1>  -0.6800 
 23 C        2.6220    -0.7140    -0.8150 C.3   1 <1>  -0.1600 
 24 C        4.6770    -0.2080     0.5460 C.3   1 <1>  -0.1600 
 25 C        4.1820     1.1220    -1.5280 C.3   1 <1>  -0.1600 
 26 C       -6.3740     2.9170     1.2530 C.3   1 <1>   0.0400 
 27 H        1.8350     3.7910     1.2730 H     1 <1>   0.0800 
 28 H        2.1540     2.8290     2.6510 H     1 <1>   0.0800 
 29 H       -2.3120     2.1390     2.2380 H     1 <1>   0.0800 
 30 H       -2.6850     3.7290     1.6680 H     1 <1>   0.0800 
 31 H       -1.0140     4.9770     0.2480 H     1 <1>   0.0800 
 32 H        0.4580     4.1940    -0.2390 H     1 <1>   0.0800 
 33 H       -1.2100     4.2440    -2.0610 H     1 <1>   0.0800 
 34 H       -0.7530     2.6280    -1.6400 H     1 <1>   0.0800 
 35 H        1.3770     0.0220     1.4990 H     1 <1>   0.0800 
 36 H        2.7900     0.3810     2.4500 H     1 <1>   0.0800 
 37 H        0.8820     1.3720    -0.5900 H     1 <1>   0.0800 
 38 H        1.9500     2.6520    -1.0900 H     1 <1>   0.0800 
 39 H        4.0360     3.1670     0.2910 H     1 <1>   0.0800 
 40 H        4.3760     2.2450     1.7230 H     1 <1>   0.0800 
 41 H       -4.9320     1.8160    -0.4820 H     1 <1>   0.0800 
 42 H       -3.1740     2.7150    -1.9250 H     1 <1>   0.0800 
 43 H       -3.2900     4.0600    -0.8310 H     1 <1>   0.0800 
 44 H       -2.6270     0.4990    -1.1340 H     1 <1>   0.0800 
 45 H       -1.3200     0.7010     0.0070 H     1 <1>   0.0800 
 46 H        2.2990     0.6360    -2.4660 H     1 <1>   0.0800 
 47 H        5.8000     1.4980    -0.1500 H     1 <1>   0.0800 
 48 H       -4.4560     0.7590     2.2710 H     1 <1>   0.0800 
 49 H       -5.2900     0.0020     0.9190 H     1 <1>   0.0800 
 50 H       -2.5380    -0.2890     1.7300 H     1 <1>   0.0800 
 51 H       -3.3210    -1.1020     0.3910 H     1 <1>   0.0800 
 52 H        3.6230    -2.5180     0.6400 H     1 <1>   0.4000 
 53 H        3.1710    -1.4240    -1.4060 H     1 <1>   0.0800 
 54 H        1.5930    -1.0280    -0.7670 H     1 <1>   0.0800 
 55 H        5.0830    -0.1700     1.5410 H     1 <1>   0.0800 
 56 H        5.2480    -0.9130    -0.0310 H     1 <1>   0.0800 
 57 H        4.2520     2.0900    -1.9940 H     1 <1>   0.0800 
 58 H        4.7480     0.4310    -2.1280 H     1 <1>   0.0800 
 59 H       -6.7000     3.7620     1.8320 H     1 <1>   0.0800 
 60 H       -6.6990     2.0080     1.7290 H     1 <1>   0.0800 
 61 H       -6.7710     2.9870     0.2550 H     1 <1>   0.0800 
@<TRIPOS>BOND
  1   1   2  2   
  2   2   3  am  
  3   2   4  1   
  4   3   5  1   
  5   3   6  1   
  6   4   7  1   
  7   4  27  1   
  8   4  28  1   
  9   5   8  1   
 10   5  29  1   
 11   5  30  1   
 12   6   9  1   
 13   6  31  1   
 14   6  32  1   
 15   7  10  1   
 16   7  11  1   
 17   7  12  1   
 18   8  13  1   
 19   8  14  1   
 20   8  15  1   
 21   9  14  1   
 22   9  33  1   
 23   9  34  1   
 24  10  16  1   
 25  10  35  1   
 26  10  36  1   
 27  11  17  1   
 28  11  37  1   
 29  11  38  1   
 30  12  18  1   
 31  12  39  1   
 32  12  40  1   
 33  13  19  1   
 34  13  20  1   
 35  13  41  1   
 36  14  42  1   
 37  14  43  1   
 38  15  21  1   
 39  15  44  1   
 40  15  45  1   
 41  16  22  1   
 42  16  23  1   
 43  16  24  1   
 44  17  23  1   
 45  17  25  1   
 46  17  46  1   
 47  18  24  1   
 48  18  25  1   
 49  18  47  1   
 50  19  26  1   
 51  20  21  1   
 52  20  48  1   
 53  20  49  1   
 54  21  50  1   
 55  21  51  1   
 56  22  52  1   
 57  23  53  1   
 58  23  54  1   
 59  24  55  1   
 60  24  56  1   
 61  25  57  1   
 62  25  58  1   
 63  26  59  1   
 64  26  60  1   
 65  26  61  1   
@<TRIPOS>SUBSTRUCTURE
  1 ****   2 GROUP 4 **** **** 0

# MOE 2024.06 (io_trps.svl 2023.06)
