@<TRIPOS>MOLECULE
NONAME
55 58 1 0 0 
SMALL
USER_CHARGES


@<TRIPOS>ATOM
  1 O        0.7230    -0.8670     0.7430 O.2   1 <1>  -0.5700 
  2 C        1.8430    -1.3260     0.6500 C.2   1 <1>   0.5440 
  3 N        1.9370    -2.6830     0.7010 N.am  1 <1>  -0.7300 
  4 C        2.9870    -0.4480     0.4670 C.ar  1 <1>   0.0860 
  5 C        3.0360    -3.5710     0.2430 C.3   1 <1>   0.1400 
  6 C        4.2400    -0.7260     1.0120 C.ar  1 <1>  -0.1500 
  7 C        2.8650     0.7280    -0.2740 C.ar  1 <1>  -0.1500 
  8 C        2.5090    -4.6680    -0.6950 C.3   1 <1>   0.2000 
  9 C        5.3260     0.0970     0.7910 C.ar  1 <1>   0.0830 
 10 C        3.9360     1.5800    -0.4780 C.ar  1 <1>  -0.1500 
 11 O        1.3580    -5.2490    -0.1110 O.3   1 <1>  -0.5600 
 12 C        3.6230    -5.6980    -0.9950 C.3   1 <1>   0.1400 
 13 O        6.5130    -0.2840     1.3240 O.3   1 <1>  -0.3630 
 14 C        5.1850     1.2770     0.0550 C.ar  1 <1>   0.0830 
 15 C        1.1460    -6.6060    -0.3830 C.3   1 <1>   0.1200 
 16 N        3.6310    -6.8110     0.0050 N.am  1 <1>  -0.6600 
 17 C        7.5470    -0.6250     0.4170 C.3   1 <1>   0.3010 
 18 O        6.2670     2.0880    -0.1000 O.3   1 <1>  -0.3630 
 19 C        2.2960    -7.4580     0.1910 C.3   1 <1>   0.1400 
 20 C        4.6740    -7.1690     0.8180 C.2   1 <1>   0.5690 
 21 C        7.4130    -2.0760    -0.0280 C.2   1 <1>   0.0460 
 22 C        6.1750     3.3400    -0.7440 C.3   1 <1>   0.0400 
 23 O        4.6330    -8.1630     1.5010 O.2   1 <1>  -0.5700 
 24 C        5.9250    -6.3120     0.9160 C.3   1 <1>  -0.0990 
 25 N        6.5230    -2.4670    -0.9480 N.2   1 <1>  -0.2270 
 26 C        8.1310    -3.1360     0.3760 C.2   1 <1>  -0.3020 
 27 C        6.9160    -6.5700    -0.2370 C.3   1 <1>  -0.1600 
 28 N        6.6740    -3.7320    -1.1310 N.2   1 <1>  -0.4180 
 29 N        7.6530    -4.1650    -0.3260 N.pl3 1 <1>   0.3140 
 30 C        8.0940    -5.5780    -0.2450 C.3   1 <1>   0.0960 
 31 H        1.0500    -3.1850     0.8180 H     1 <1>   0.3700 
 32 H        3.4900    -4.0320     1.1030 H     1 <1>   0.0800 
 33 H        3.7890    -3.0020    -0.2740 H     1 <1>   0.0800 
 34 H        4.3760    -1.6030     1.6160 H     1 <1>   0.1500 
 35 H        1.9040     0.9730    -0.6930 H     1 <1>   0.1500 
 36 H        2.2060    -4.2050    -1.6180 H     1 <1>   0.0800 
 37 H        3.7750     2.4710    -1.0540 H     1 <1>   0.1500 
 38 H        4.5700    -5.1990    -1.0450 H     1 <1>   0.0800 
 39 H        3.4470    -6.1200    -1.9700 H     1 <1>   0.0800 
 40 H        1.0690    -6.7350    -1.4490 H     1 <1>   0.0800 
 41 H        0.2120    -6.8940     0.0650 H     1 <1>   0.0800 
 42 H        8.4780    -0.4860     0.9330 H     1 <1>   0.0800 
 43 H        7.5200     0.0280    -0.4350 H     1 <1>   0.0800 
 44 H        2.3000    -8.4270    -0.2750 H     1 <1>   0.0800 
 45 H        2.1230    -7.6040     1.2440 H     1 <1>   0.0800 
 46 H        7.1430     3.8060    -0.7070 H     1 <1>   0.0800 
 47 H        5.4580     3.9480    -0.2220 H     1 <1>   0.0800 
 48 H        5.8820     3.1870    -1.7670 H     1 <1>   0.0800 
 49 H        6.4080    -6.5290     1.8520 H     1 <1>   0.0800 
 50 H        5.6210    -5.2840     0.9530 H     1 <1>   0.0800 
 51 H        8.9260    -3.2130     1.0930 H     1 <1>   0.1500 
 52 H        6.4090    -6.5170    -1.1840 H     1 <1>   0.0800 
 53 H        7.3000    -7.5710    -0.1440 H     1 <1>   0.0800 
 54 H        8.7280    -5.7770    -1.0900 H     1 <1>   0.0800 
 55 H        8.6760    -5.7020     0.6510 H     1 <1>   0.0800 
@<TRIPOS>BOND
  1   1   2  2   
  2   2   3  am  
  3   2   4  1   
  4   3   5  1   
  5   3  31  1   
  6   4   6  ar  
  7   4   7  ar  
  8   5   8  1   
  9   5  32  1   
 10   5  33  1   
 11   6   9  ar  
 12   6  34  1   
 13   7  10  ar  
 14   7  35  1   
 15   8  11  1   
 16   8  12  1   
 17   8  36  1   
 18   9  13  1   
 19   9  14  ar  
 20  10  14  ar  
 21  10  37  1   
 22  11  15  1   
 23  12  16  1   
 24  12  38  1   
 25  12  39  1   
 26  13  17  1   
 27  14  18  1   
 28  15  19  1   
 29  15  40  1   
 30  15  41  1   
 31  16  19  1   
 32  16  20  am  
 33  17  21  1   
 34  17  42  1   
 35  17  43  1   
 36  18  22  1   
 37  19  44  1   
 38  19  45  1   
 39  20  23  2   
 40  20  24  1   
 41  21  25  1   
 42  21  26  2   
 43  22  46  1   
 44  22  47  1   
 45  22  48  1   
 46  24  27  1   
 47  24  49  1   
 48  24  50  1   
 49  25  28  2   
 50  26  29  1   
 51  26  51  1   
 52  27  30  1   
 53  27  52  1   
 54  27  53  1   
 55  28  29  1   
 56  29  30  1   
 57  30  54  1   
 58  30  55  1   
@<TRIPOS>SUBSTRUCTURE
  1 ****   5 GROUP 4 **** **** 0

# MOE 2024.06 (io_trps.svl 2023.06)
