@<TRIPOS>MOLECULE
NONAME
41 43 1 0 0 
SMALL
USER_CHARGES


@<TRIPOS>ATOM
  1 O       -0.8760    -0.3500     1.2860 O.2   1 <1>  -0.5700 
  2 C       -1.7890    -0.3070     0.4770 C.2   1 <1>   0.7160 
  3 N       -2.1440     0.9280    -0.0170 N.am  1 <1>  -0.7300 
  4 C       -2.4990    -1.5080     0.0240 C.2   1 <1>   0.4300 
  5 C       -1.5300     2.2340     0.3360 C.3   1 <1>   0.0600 
  6 N       -3.4430    -1.5100    -0.8610 N.2   1 <1>  -0.4100 
  7 N       -2.2560    -2.7540     0.4680 N.2   1 <1>  -0.5650 
  8 O       -3.8440    -2.7290    -1.0190 O.3   1 <1>  -0.0190 
  9 C       -3.1050    -3.4260    -0.1950 C.2   1 <1>   0.2980 
 10 C       -3.2970    -4.9400    -0.1290 C.3   1 <1>   0.2900 
 11 N       -4.5890    -5.3640     0.4640 N.3   1 <1>  -0.8100 
 12 C       -5.7650    -5.0330    -0.3500 C.3   1 <1>   0.1100 
 13 C       -4.6460    -6.8170     0.6890 C.3   1 <1>   0.1100 
 14 C       -6.8570    -5.9470     0.1930 C.3   1 <1>   0.2000 
 15 C       -6.1110    -7.2490     0.4850 C.3   1 <1>  -0.0800 
 16 O       -7.2780    -5.4240     1.3990 O.3   1 <1>  -0.6800 
 17 C       -6.2740    -8.2490    -0.6750 C.3   1 <1>  -0.0170 
 18 C       -5.5390    -9.5550    -0.4120 C.ar  1 <1>   0.1670 
 19 N       -4.3470    -9.6910    -0.9720 N.ar  1 <1>  -0.6200 
 20 C       -6.1310   -10.5330     0.3860 C.ar  1 <1>   0.1600 
 21 C       -3.7950   -10.8580    -0.6850 C.ar  1 <1>   0.1600 
 22 N       -5.5770   -11.6980     0.6770 N.ar  1 <1>  -0.6200 
 23 C       -4.3890   -11.8290     0.1120 C.ar  1 <1>   0.1600 
 24 H       -2.9120     0.9490    -0.6940 H     1 <1>   0.3700 
 25 H       -0.7380     2.0980     1.0540 H     1 <1>   0.0800 
 26 H       -2.2760     2.8830     0.7630 H     1 <1>   0.0800 
 27 H       -1.1220     2.6950    -0.5460 H     1 <1>   0.0800 
 28 H       -2.4990    -5.3390     0.4730 H     1 <1>   0.0800 
 29 H       -3.1980    -5.3480    -1.1190 H     1 <1>   0.0800 
 30 H       -6.0380    -3.9950    -0.2580 H     1 <1>   0.0800 
 31 H       -5.5800    -5.2670    -1.3840 H     1 <1>   0.0800 
 32 H       -3.9980    -7.3260    -0.0040 H     1 <1>   0.0800 
 33 H       -4.3190    -7.0390     1.6910 H     1 <1>   0.0800 
 34 H       -7.7080    -6.0500    -0.4570 H     1 <1>   0.0800 
 35 H       -6.4910    -7.7060     1.3830 H     1 <1>   0.0800 
 36 H       -6.4690    -5.1350     1.8750 H     1 <1>   0.4000 
 37 H       -5.9080    -7.8180    -1.5910 H     1 <1>   0.0800 
 38 H       -7.3180    -8.4640    -0.8160 H     1 <1>   0.0800 
 39 H       -7.1030   -10.3420     0.8040 H     1 <1>   0.1500 
 40 H       -2.8230   -11.0580    -1.1020 H     1 <1>   0.1500 
 41 H       -3.8600   -12.7490     0.2880 H     1 <1>   0.1500 
@<TRIPOS>BOND
  1   1   2  2   
  2   2   3  am  
  3   2   4  1   
  4   3   5  1   
  5   3  24  1   
  6   4   6  2   
  7   4   7  1   
  8   5  25  1   
  9   5  26  1   
 10   5  27  1   
 11   6   8  1   
 12   7   9  2   
 13   8   9  1   
 14   9  10  1   
 15  10  11  1   
 16  10  28  1   
 17  10  29  1   
 18  11  12  1   
 19  11  13  1   
 20  12  14  1   
 21  12  30  1   
 22  12  31  1   
 23  13  15  1   
 24  13  32  1   
 25  13  33  1   
 26  14  15  1   
 27  14  16  1   
 28  14  34  1   
 29  15  17  1   
 30  15  35  1   
 31  16  36  1   
 32  17  18  1   
 33  17  37  1   
 34  17  38  1   
 35  18  19  ar  
 36  18  20  ar  
 37  19  21  ar  
 38  20  22  ar  
 39  20  39  1   
 40  21  23  ar  
 41  21  40  1   
 42  22  23  ar  
 43  23  41  1   
@<TRIPOS>SUBSTRUCTURE
  1 ****  11 GROUP 4 **** **** 0

# MOE 2024.06 (io_trps.svl 2023.06)
