@<TRIPOS>MOLECULE
NONAME
57 60 1 0 0 
SMALL
USER_CHARGES


@<TRIPOS>ATOM
  1 O        0.9680     0.4200     2.7410 O.2   1 <1>  -0.5700 
  2 C        1.3650    -0.3690     1.9090 C.2   1 <1>   0.5690 
  3 N        2.5900    -0.1480     1.3210 N.am  1 <1>  -0.6600 
  4 C        0.4880    -1.6250     1.5950 C.3   1 <1>   0.3410 
  5 C        3.2680    -0.9470     0.2680 C.3   1 <1>   0.1400 
  6 C        3.3910     1.0800     1.5730 C.3   1 <1>   0.1400 
  7 O        0.5780    -1.9250     0.1970 O.3   1 <1>  -0.3630 
  8 C       -0.9970    -1.3750     1.9320 C.3   1 <1>  -0.2400 
  9 C        1.0000    -2.8210     2.4200 C.3   1 <1>  -0.2400 
 10 C        4.6960    -0.4030     0.2340 C.3   1 <1>   0.2000 
 11 C        4.5140     1.1020     0.5080 C.3   1 <1>   0.1900 
 12 C       -0.0260    -3.0030    -0.3570 C.ar  1 <1>   0.0830 
 13 O        5.4140    -0.9820     1.2790 O.3   1 <1>  -0.6800 
 14 N        4.1680     1.8070    -0.7670 N.3   1 <1>  -0.8100 
 15 C        0.6410    -4.2200    -0.4150 C.ar  1 <1>  -0.1500 
 16 C       -1.2930    -2.8710    -0.9110 C.ar  1 <1>  -0.1500 
 17 C        3.5520     3.1440    -0.5780 C.3   1 <1>   0.1100 
 18 C        5.3720     1.9630    -1.6210 C.3   1 <1>   0.1100 
 19 C        0.0080    -5.3020    -0.9980 C.ar  1 <1>  -0.1430 
 20 C       -1.9180    -3.9620    -1.4950 C.ar  1 <1>  -0.1500 
 21 C        3.3050     3.8580    -1.9200 C.3   1 <1>   0.1200 
 22 C        5.0520     2.7010    -2.9320 C.3   1 <1>   0.1200 
 23 C       -1.2530    -5.1750    -1.5270 C.ar  1 <1>  -0.1430 
 24 C        0.5320    -6.7060    -1.1590 C.3   1 <1>  -0.0170 
 25 O        4.4870     3.9480    -2.6590 O.3   1 <1>  -0.5600 
 26 C       -1.7370    -6.4810    -2.1060 C.3   1 <1>  -0.0170 
 27 C       -0.4690    -7.3520    -2.1340 C.3   1 <1>  -0.1600 
 28 H        3.2460    -2.0020     0.4730 H     1 <1>   0.0800 
 29 H        2.7890    -0.7520    -0.6770 H     1 <1>   0.0800 
 30 H        2.7680     1.9530     1.5800 H     1 <1>   0.0800 
 31 H        3.8350     0.9910     2.5480 H     1 <1>   0.0800 
 32 H       -1.0990    -1.1090     2.9680 H     1 <1>   0.0800 
 33 H       -1.5900    -2.2550     1.7620 H     1 <1>   0.0800 
 34 H       -1.3740    -0.5620     1.3390 H     1 <1>   0.0800 
 35 H        0.9920    -2.5620     3.4630 H     1 <1>   0.0800 
 36 H        2.0080    -3.0660     2.1440 H     1 <1>   0.0800 
 37 H        0.3690    -3.6810     2.2890 H     1 <1>   0.0800 
 38 H        5.2040    -0.6270    -0.6850 H     1 <1>   0.0800 
 39 H        5.4100     1.5350     0.9190 H     1 <1>   0.0800 
 40 H        4.8490    -0.9910     2.0770 H     1 <1>   0.4000 
 41 H        1.6320    -4.3160    -0.0130 H     1 <1>   0.1500 
 42 H       -1.7840    -1.9160    -0.8860 H     1 <1>   0.1500 
 43 H        2.5960     3.0430    -0.1000 H     1 <1>   0.0800 
 44 H        4.1830     3.7600     0.0390 H     1 <1>   0.0800 
 45 H        6.1290     2.5160    -1.0920 H     1 <1>   0.0800 
 46 H        5.7790     1.0000    -1.8720 H     1 <1>   0.0800 
 47 H       -2.9020    -3.8680    -1.9190 H     1 <1>   0.1500 
 48 H        2.9480     4.8580    -1.7490 H     1 <1>   0.0800 
 49 H        2.5750     3.3230    -2.5010 H     1 <1>   0.0800 
 50 H        4.3620     2.1300    -3.5290 H     1 <1>   0.0800 
 51 H        5.9510     2.8650    -3.4980 H     1 <1>   0.0800 
 52 H        1.5310    -6.7130    -1.5580 H     1 <1>   0.0800 
 53 H        0.5130    -7.2070    -0.2070 H     1 <1>   0.0800 
 54 H       -2.4790    -6.9080    -1.4550 H     1 <1>   0.0800 
 55 H       -2.1470    -6.3490    -3.0920 H     1 <1>   0.0800 
 56 H       -0.0530    -7.3240    -3.1250 H     1 <1>   0.0800 
 57 H       -0.6800    -8.3740    -1.8720 H     1 <1>   0.0800 
@<TRIPOS>BOND
  1   1   2  2   
  2   2   3  am  
  3   2   4  1   
  4   3   5  1   
  5   3   6  1   
  6   4   7  1   
  7   4   8  1   
  8   4   9  1   
  9   5  10  1   
 10   5  28  1   
 11   5  29  1   
 12   6  11  1   
 13   6  30  1   
 14   6  31  1   
 15   7  12  1   
 16   8  32  1   
 17   8  33  1   
 18   8  34  1   
 19   9  35  1   
 20   9  36  1   
 21   9  37  1   
 22  10  11  1   
 23  10  13  1   
 24  10  38  1   
 25  11  14  1   
 26  11  39  1   
 27  12  15  ar  
 28  12  16  ar  
 29  13  40  1   
 30  14  17  1   
 31  14  18  1   
 32  15  19  ar  
 33  15  41  1   
 34  16  20  ar  
 35  16  42  1   
 36  17  21  1   
 37  17  43  1   
 38  17  44  1   
 39  18  22  1   
 40  18  45  1   
 41  18  46  1   
 42  19  23  ar  
 43  19  24  1   
 44  20  23  ar  
 45  20  47  1   
 46  21  25  1   
 47  21  48  1   
 48  21  49  1   
 49  22  25  1   
 50  22  50  1   
 51  22  51  1   
 52  23  26  1   
 53  24  27  1   
 54  24  52  1   
 55  24  53  1   
 56  26  27  1   
 57  26  54  1   
 58  26  55  1   
 59  27  56  1   
 60  27  57  1   
@<TRIPOS>SUBSTRUCTURE
  1 ****   7 GROUP 4 **** **** 0

# MOE 2024.06 (io_trps.svl 2023.06)
