@<TRIPOS>MOLECULE
NONAME
46 48 1 0 0 
SMALL
USER_CHARGES


@<TRIPOS>ATOM
  1 O       -0.7200     0.5660    -1.3860 O.2   1 <1>  -0.5700 
  2 C       -1.5000     1.0190    -0.5650 C.2   1 <1>   0.7150 
  3 N       -2.6720     0.3380    -0.3220 N.am  1 <1>  -0.6600 
  4 C       -1.1660     2.2420     0.1200 C.2   1 <1>  -0.2370 
  5 C       -3.1420    -0.7290    -1.2740 C.3   1 <1>   0.1400 
  6 C       -3.5310     0.5600     0.8870 C.3   1 <1>   0.1400 
  7 N        0.0650     2.4890     0.6740 N.pl3 1 <1>   0.0480 
  8 C       -1.9410     3.3550     0.3320 C.2   1 <1>  -0.1500 
  9 C       -4.2420    -1.5940    -0.6460 C.3   1 <1>   0.2000 
 10 C       -4.9930     0.5850     0.4430 C.3   1 <1>  -0.1600 
 11 C        0.0400     3.7270     1.2270 C.2   1 <1>  -0.3020 
 12 C        1.2250     1.5790     0.6750 C.3   1 <1>   0.0160 
 13 C       -1.1820     4.2870     1.0320 C.2   1 <1>  -0.1500 
 14 O       -4.6530    -2.5820    -1.5270 O.3   1 <1>  -0.6800 
 15 C       -5.4650    -0.7840    -0.1450 C.3   1 <1>  -0.1060 
 16 C       -6.0690    -1.7150     0.9110 C.2   1 <1>   0.9060 
 17 C       -6.4990    -0.5090    -1.2780 C.3   1 <1>  -0.0170 
 18 O       -5.9700    -1.4480     2.1140 O.co2 1 <1>  -0.9000 
 19 O       -6.5660    -2.7830     0.5220 O.co2 1 <1>  -0.9000 
 20 C       -7.6140     0.4670    -0.9040 C.ar  1 <1>  -0.1440 
 21 C       -7.6580     1.7350    -1.4660 C.ar  1 <1>  -0.1500 
 22 C       -8.6000     0.0940    -0.0040 C.ar  1 <1>  -0.1500 
 23 C       -8.6700     2.6180    -1.1300 C.ar  1 <1>  -0.1500 
 24 C       -9.6110     0.9760     0.3360 C.ar  1 <1>  -0.1500 
 25 C       -9.6480     2.2390    -0.2280 C.ar  1 <1>  -0.1500 
 26 H       -3.5210    -0.2570    -2.1620 H     1 <1>   0.0800 
 27 H       -2.3130    -1.3600    -1.5420 H     1 <1>   0.0800 
 28 H       -3.3810    -0.2400     1.5930 H     1 <1>   0.0800 
 29 H       -3.2870     1.4800     1.3820 H     1 <1>   0.0800 
 30 H       -2.9600     3.4980     0.0140 H     1 <1>   0.1500 
 31 H       -3.7960    -2.1100     0.1890 H     1 <1>   0.0800 
 32 H       -5.6190     0.8640     1.2720 H     1 <1>   0.0800 
 33 H       -5.0850     1.3650    -0.2910 H     1 <1>   0.0800 
 34 H        0.8900     4.1540     1.7280 H     1 <1>   0.1500 
 35 H        1.9960     1.9730     1.3100 H     1 <1>   0.0800 
 36 H        1.5980     1.4840    -0.3290 H     1 <1>   0.0800 
 37 H        0.9190     0.6130     1.0340 H     1 <1>   0.0800 
 38 H       -1.5190     5.2600     1.3470 H     1 <1>   0.1500 
 39 H       -5.4010    -3.0490    -1.0670 H     1 <1>   0.4000 
 40 H       -5.9770    -0.1270    -2.1360 H     1 <1>   0.0800 
 41 H       -6.9610    -1.4310    -1.5890 H     1 <1>   0.0800 
 42 H       -6.9010     2.0380    -2.1670 H     1 <1>   0.1500 
 43 H       -8.5780    -0.8880     0.4410 H     1 <1>   0.1500 
 44 H       -8.6940     3.5990    -1.5700 H     1 <1>   0.1500 
 45 H      -10.3640     0.6710     1.0400 H     1 <1>   0.1500 
 46 H      -10.4340     2.9230     0.0370 H     1 <1>   0.1500 
@<TRIPOS>BOND
  1   1   2  2   
  2   2   3  am  
  3   2   4  1   
  4   3   5  1   
  5   3   6  1   
  6   4   7  1   
  7   4   8  2   
  8   5   9  1   
  9   5  26  1   
 10   5  27  1   
 11   6  10  1   
 12   6  28  1   
 13   6  29  1   
 14   7  11  1   
 15   7  12  1   
 16   8  13  1   
 17   8  30  1   
 18   9  14  1   
 19   9  15  1   
 20   9  31  1   
 21  10  15  1   
 22  10  32  1   
 23  10  33  1   
 24  11  13  2   
 25  11  34  1   
 26  12  35  1   
 27  12  36  1   
 28  12  37  1   
 29  13  38  1   
 30  14  39  1   
 31  15  16  1   
 32  15  17  1   
 33  16  18  ar  
 34  16  19  ar  
 35  17  20  1   
 36  17  40  1   
 37  17  41  1   
 38  20  21  ar  
 39  20  22  ar  
 40  21  23  ar  
 41  21  42  1   
 42  22  24  ar  
 43  22  43  1   
 44  23  25  ar  
 45  23  44  1   
 46  24  25  ar  
 47  24  45  1   
 48  25  46  1   
@<TRIPOS>SUBSTRUCTURE
  1 ****  10 GROUP 4 **** **** 0

# MOE 2024.06 (io_trps.svl 2023.06)
