@<TRIPOS>MOLECULE
NONAME
55 57 1 0 0 
SMALL
USER_CHARGES


@<TRIPOS>ATOM
  1 O       -0.8910     0.8980    -2.0540 O.2   1 <1>  -0.5700 
  2 C       -0.5520     1.8140    -1.3420 C.2   1 <1>   0.5690 
  3 N       -1.4360     2.4860    -0.5340 N.am  1 <1>  -0.6600 
  4 C        0.9240     2.2160    -1.3810 C.3   1 <1>   0.1810 
  5 C       -0.9700     3.6920     0.2510 C.3   1 <1>   0.3640 
  6 C       -2.7740     1.8760    -0.2500 C.3   1 <1>   0.2200 
  7 O        1.3150     2.9920    -0.2770 O.3   1 <1>  -0.5600 
  8 C       -1.8800     4.8990     0.0050 C.ar  1 <1>  -0.1440 
  9 C        0.4860     4.1160    -0.0720 C.3   1 <1>   0.2610 
 10 C       -3.8750     2.5560    -1.0610 C.3   1 <1>  -0.2400 
 11 C       -3.1030     1.8640     1.2440 C.3   1 <1>  -0.2400 
 12 C       -2.4400     5.5740     1.0800 C.ar  1 <1>  -0.1500 
 13 C       -2.1420     5.3500    -1.2830 C.ar  1 <1>  -0.1500 
 14 C        1.0640     5.0540     1.0020 C.2   1 <1>   0.5690 
 15 C       -3.2520     6.6760     0.8750 C.ar  1 <1>  -0.1500 
 16 C       -2.9500     6.4540    -1.4900 C.ar  1 <1>  -0.1500 
 17 O        0.5810     5.0450     2.1150 O.2   1 <1>  -0.5700 
 18 N        2.0860     5.9180     0.6890 N.am  1 <1>  -0.6600 
 19 C       -3.5060     7.1170    -0.4110 C.ar  1 <1>  -0.1500 
 20 C        2.4890     7.0090     1.6330 C.3   1 <1>   0.2840 
 21 C        2.8830     5.8730    -0.5700 C.3   1 <1>   0.0600 
 22 C        2.4150     8.3880     0.9720 C.ar  1 <1>   0.1670 
 23 N        3.5890     8.9280     0.6620 N.ar  1 <1>  -0.6200 
 24 C        1.1860     9.0030     0.7210 C.ar  1 <1>  -0.1430 
 25 C        3.5490    10.1190     0.0910 C.ar  1 <1>   0.1600 
 26 C        1.1740    10.2460     0.1210 C.ar  1 <1>  -0.1500 
 27 C       -0.1480     8.3530     1.0680 C.3   1 <1>  -0.0970 
 28 C        2.3880    10.8110    -0.1970 C.ar  1 <1>  -0.1500 
 29 H        1.1220     2.7720    -2.2790 H     1 <1>   0.0800 
 30 H        1.5300     1.3290    -1.3840 H     1 <1>   0.0800 
 31 H       -1.0060     3.4310     1.2930 H     1 <1>   0.0800 
 32 H       -2.7450     0.8450    -0.5650 H     1 <1>   0.0800 
 33 H        0.4740     4.6690    -0.9930 H     1 <1>   0.0800 
 34 H       -4.0900     3.5380    -0.6840 H     1 <1>   0.0800 
 35 H       -4.7770     1.9750    -0.9980 H     1 <1>   0.0800 
 36 H       -3.5870     2.6180    -2.0940 H     1 <1>   0.0800 
 37 H       -3.2790     2.8570     1.6130 H     1 <1>   0.0800 
 38 H       -2.3050     1.4030     1.7960 H     1 <1>   0.0800 
 39 H       -3.9970     1.2900     1.4060 H     1 <1>   0.0800 
 40 H       -2.2410     5.2480     2.0880 H     1 <1>   0.1500 
 41 H       -1.7260     4.8350    -2.1320 H     1 <1>   0.1500 
 42 H       -3.6830     7.1890     1.7160 H     1 <1>   0.1500 
 43 H       -3.1500     6.7940    -2.4910 H     1 <1>   0.1500 
 44 H       -4.1370     7.9740    -0.5720 H     1 <1>   0.1500 
 45 H        1.8700     7.0070     2.5120 H     1 <1>   0.0800 
 46 H        3.4980     6.8280     1.9590 H     1 <1>   0.0800 
 47 H        3.9080     6.1300    -0.3620 H     1 <1>   0.0800 
 48 H        2.4880     6.5850    -1.2750 H     1 <1>   0.0800 
 49 H        2.8670     4.8900    -1.0050 H     1 <1>   0.0800 
 50 H        4.4940    10.5690    -0.1610 H     1 <1>   0.1500 
 51 H        0.2540    10.7610    -0.0960 H     1 <1>   0.1500 
 52 H       -0.9530     9.0610     0.9980 H     1 <1>   0.0800 
 53 H       -0.1390     7.9620     2.0690 H     1 <1>   0.0800 
 54 H       -0.3490     7.5500     0.3830 H     1 <1>   0.0800 
 55 H        2.4370    11.7780    -0.6640 H     1 <1>   0.1500 
@<TRIPOS>BOND
  1   1   2  2   
  2   2   3  am  
  3   2   4  1   
  4   3   5  1   
  5   3   6  1   
  6   4   7  1   
  7   4  29  1   
  8   4  30  1   
  9   5   8  1   
 10   5   9  1   
 11   5  31  1   
 12   6  10  1   
 13   6  11  1   
 14   6  32  1   
 15   7   9  1   
 16   8  12  ar  
 17   8  13  ar  
 18   9  14  1   
 19   9  33  1   
 20  10  34  1   
 21  10  35  1   
 22  10  36  1   
 23  11  37  1   
 24  11  38  1   
 25  11  39  1   
 26  12  15  ar  
 27  12  40  1   
 28  13  16  ar  
 29  13  41  1   
 30  14  17  2   
 31  14  18  am  
 32  15  19  ar  
 33  15  42  1   
 34  16  19  ar  
 35  16  43  1   
 36  18  20  1   
 37  18  21  1   
 38  19  44  1   
 39  20  22  1   
 40  20  45  1   
 41  20  46  1   
 42  21  47  1   
 43  21  48  1   
 44  21  49  1   
 45  22  23  ar  
 46  22  24  ar  
 47  23  25  ar  
 48  24  26  ar  
 49  24  27  1   
 50  25  28  ar  
 51  25  50  1   
 52  26  28  ar  
 53  26  51  1   
 54  27  52  1   
 55  27  53  1   
 56  27  54  1   
 57  28  55  1   
@<TRIPOS>SUBSTRUCTURE
  1 ****   9 GROUP 4 **** **** 0

# MOE 2024.06 (io_trps.svl 2023.06)
