@<TRIPOS>MOLECULE
NONAME
42 45 1 0 0 
SMALL
USER_CHARGES


@<TRIPOS>ATOM
  1 O       -0.9110    -0.3350     0.2460 O.3   1 <1>  -0.2800 
  2 C       -0.8840     0.8200    -0.3320 C.2   1 <1>   0.3930 
  3 C       -1.1080    -1.1620    -0.7310 C.2   1 <1>   0.2980 
  4 N       -1.0480     0.7340    -1.5980 N.2   1 <1>  -0.3380 
  5 C       -0.6780     2.0720     0.5050 C.3   1 <1>  -0.0150 
  6 N       -1.1930    -0.5660    -1.8610 N.2   1 <1>  -0.3380 
  7 C       -1.2160    -2.6600    -0.4690 C.3   1 <1>   0.2900 
  8 C       -0.0450     3.3030    -0.0690 C.3   1 <1>  -0.2000 
  9 C        0.6980     2.4770     0.9390 C.3   1 <1>  -0.2000 
 10 N       -2.4120    -3.0210     0.3270 N.3   1 <1>  -0.8100 
 11 C       -3.6680    -2.6300    -0.3260 C.3   1 <1>   0.1100 
 12 C       -2.5140    -4.4700     0.5680 C.3   1 <1>   0.1100 
 13 C       -4.7210    -3.4810     0.3710 C.3   1 <1>   0.2000 
 14 C       -4.0140    -4.8230     0.5580 C.3   1 <1>  -0.0800 
 15 O       -4.9300    -2.9360     1.6230 O.3   1 <1>  -0.6800 
 16 C       -4.3770    -5.7990    -0.5780 C.3   1 <1>  -0.0170 
 17 C       -3.7060    -7.1520    -0.4040 C.ar  1 <1>   0.1670 
 18 N       -2.5860    -7.3500    -1.0830 N.ar  1 <1>  -0.6200 
 19 C       -4.2810    -8.0940     0.4360 C.ar  1 <1>  -0.1500 
 20 C       -2.0190    -8.5350    -0.9200 C.ar  1 <1>   0.1600 
 21 C       -3.6780    -9.3230     0.5980 C.ar  1 <1>  -0.1500 
 22 C       -2.5130    -9.5400    -0.1060 C.ar  1 <1>  -0.1500 
 23 H       -1.4790     2.2130     1.2070 H     1 <1>   0.1000 
 24 H       -0.3340    -2.9760     0.0580 H     1 <1>   0.0800 
 25 H       -1.2430    -3.1730    -1.4150 H     1 <1>   0.0800 
 26 H        0.2770     3.2840    -1.0970 H     1 <1>   0.1000 
 27 H       -0.4320     4.2630     0.2240 H     1 <1>   0.1000 
 28 H        0.8310     2.8630     1.9340 H     1 <1>   0.1000 
 29 H        1.5380     1.8920     0.6060 H     1 <1>   0.1000 
 30 H       -3.8660    -1.5770    -0.2160 H     1 <1>   0.0800 
 31 H       -3.6370    -2.8810    -1.3730 H     1 <1>   0.0800 
 32 H       -1.9880    -5.0150    -0.1970 H     1 <1>   0.0800 
 33 H       -2.0740    -4.7080     1.5220 H     1 <1>   0.0800 
 34 H       -5.6620    -3.5330    -0.1490 H     1 <1>   0.0800 
 35 H       -4.2980    -5.2720     1.4940 H     1 <1>   0.0800 
 36 H       -4.0420    -2.7010     1.9710 H     1 <1>   0.4000 
 37 H       -4.0930    -5.3840    -1.5290 H     1 <1>   0.0800 
 38 H       -5.4420    -5.9440    -0.5950 H     1 <1>   0.0800 
 39 H       -5.1920    -7.8700     0.9600 H     1 <1>   0.1500 
 40 H       -1.1090    -8.7170    -1.4660 H     1 <1>   0.1500 
 41 H       -4.0970   -10.0770     1.2420 H     1 <1>   0.1500 
 42 H       -1.9920   -10.4760    -0.0270 H     1 <1>   0.1500 
@<TRIPOS>BOND
  1   1   2  1   
  2   1   3  1   
  3   2   4  2   
  4   2   5  1   
  5   3   6  2   
  6   3   7  1   
  7   4   6  1   
  8   5   8  1   
  9   5   9  1   
 10   5  23  1   
 11   7  10  1   
 12   7  24  1   
 13   7  25  1   
 14   8   9  1   
 15   8  26  1   
 16   8  27  1   
 17   9  28  1   
 18   9  29  1   
 19  10  11  1   
 20  10  12  1   
 21  11  13  1   
 22  11  30  1   
 23  11  31  1   
 24  12  14  1   
 25  12  32  1   
 26  12  33  1   
 27  13  14  1   
 28  13  15  1   
 29  13  34  1   
 30  14  16  1   
 31  14  35  1   
 32  15  36  1   
 33  16  17  1   
 34  16  37  1   
 35  16  38  1   
 36  17  18  ar  
 37  17  19  ar  
 38  18  20  ar  
 39  19  21  ar  
 40  19  39  1   
 41  20  22  ar  
 42  20  40  1   
 43  21  22  ar  
 44  21  41  1   
 45  22  42  1   
@<TRIPOS>SUBSTRUCTURE
  1 ****  10 GROUP 4 **** **** 0

# MOE 2024.06 (io_trps.svl 2023.06)
