@<TRIPOS>MOLECULE
NONAME
54 57 1 0 0 
SMALL
USER_CHARGES


@<TRIPOS>ATOM
  1 O       -0.5440     0.0120     0.9810 O.3   1 <1>  -0.2800 
  2 C        0.5890    -0.5820     0.6490 C.2   1 <1>   0.4250 
  3 C       -1.3550    -0.9180     1.3930 C.2   1 <1>  -0.0400 
  4 N        0.5420    -1.8720     0.8220 N.2   1 <1>  -0.5650 
  5 C        1.7010     0.2010     0.1510 C.ar  1 <1>   0.0530 
  6 C       -0.7000    -2.0840     1.3050 C.2   1 <1>   0.0460 
  7 C       -2.7480    -0.5240     1.8420 C.3   1 <1>  -0.0600 
  8 C        2.9460    -0.3840    -0.0920 C.ar  1 <1>  -0.1500 
  9 C        1.5790     1.5680    -0.1090 C.ar  1 <1>  -0.1500 
 10 C       -1.1670    -3.4910     1.6350 C.3   1 <1>   0.5240 
 11 C        4.0100     0.3550    -0.5730 C.ar  1 <1>  -0.1500 
 12 C        2.6380     2.3150    -0.5900 C.ar  1 <1>  -0.1500 
 13 N       -0.7840    -4.3780     0.4990 N.4   1 <1>  -0.9590 
 14 C        3.8680     1.7090    -0.8270 C.ar  1 <1>   0.0820 
 15 C       -1.6480    -4.0980    -0.6870 C.3   1 <1>   0.3430 
 16 C       -0.9520    -5.8220     0.8440 C.3   1 <1>   0.3430 
 17 O        4.9560     2.3630    -1.2970 O.3   1 <1>  -0.3620 
 18 C       -2.7410    -5.1680    -0.6460 C.3   1 <1>   0.2000 
 19 C       -2.0010    -6.3970    -0.1230 C.3   1 <1>  -0.0800 
 20 C        4.9190     3.7420    -1.5890 C.3   1 <1>   0.0400 
 21 O       -3.6880    -4.7960     0.3040 O.3   1 <1>  -0.6800 
 22 C       -1.3410    -7.1960    -1.2640 C.3   1 <1>  -0.0170 
 23 C       -0.4710    -8.3140    -0.7120 C.ar  1 <1>  -0.1430 
 24 C        0.9060    -8.2970    -0.8270 C.ar  1 <1>  -0.1500 
 25 C       -1.0150    -9.4060    -0.0640 C.ar  1 <1>  -0.1500 
 26 C        1.6500    -9.3340    -0.2890 C.ar  1 <1>   0.1600 
 27 C       -0.1800   -10.3900     0.4390 C.ar  1 <1>   0.1600 
 28 N        1.1390   -10.3730     0.3490 N.ar  1 <1>  -0.6200 
 29 H       -3.3150    -1.3850     2.1450 H     1 <1>   0.0800 
 30 H       -3.2650    -0.0330     1.0370 H     1 <1>   0.0800 
 31 H       -2.6810     0.1580     2.6720 H     1 <1>   0.0800 
 32 H        3.0830    -1.4330     0.1010 H     1 <1>   0.1500 
 33 H        0.6370     2.0570     0.0670 H     1 <1>   0.1500 
 34 H       -2.2330    -3.5100     1.7930 H     1 <1>   0.0800 
 35 H       -0.6720    -3.8150     2.5350 H     1 <1>   0.0800 
 36 H        4.9620    -0.1100    -0.7540 H     1 <1>   0.1500 
 37 H        2.4920     3.3620    -0.7740 H     1 <1>   0.1500 
 38 H        0.1930    -4.1140     0.2890 H     1 <1>   0.4500 
 39 H       -2.0670    -3.1040    -0.6670 H     1 <1>   0.0800 
 40 H       -1.0690    -4.2160    -1.5870 H     1 <1>   0.0800 
 41 H       -0.0170    -6.3520     0.7600 H     1 <1>   0.0800 
 42 H       -1.3110    -5.9200     1.8560 H     1 <1>   0.0800 
 43 H       -3.2310    -5.3070    -1.5960 H     1 <1>   0.0800 
 44 H       -2.6680    -7.0550     0.4060 H     1 <1>   0.0800 
 45 H        5.8900     4.0340    -1.9450 H     1 <1>   0.0800 
 46 H        4.6810     4.2820    -0.6890 H     1 <1>   0.0800 
 47 H        4.1820     3.9180    -2.3520 H     1 <1>   0.0800 
 48 H       -4.4980    -5.3460     0.2300 H     1 <1>   0.4000 
 49 H       -0.7400    -6.5520    -1.8840 H     1 <1>   0.0800 
 50 H       -2.1020    -7.6290    -1.8920 H     1 <1>   0.0800 
 51 H        1.4150    -7.4970    -1.3320 H     1 <1>   0.1500 
 52 H       -2.0780    -9.5110     0.0540 H     1 <1>   0.1500 
 53 H        2.7230    -9.3100    -0.3880 H     1 <1>   0.1500 
 54 H       -0.6190   -11.2370     0.9410 H     1 <1>   0.1500 
@<TRIPOS>BOND
  1   1   2  1   
  2   1   3  1   
  3   2   4  2   
  4   2   5  1   
  5   3   6  2   
  6   3   7  1   
  7   4   6  1   
  8   5   8  ar  
  9   5   9  ar  
 10   6  10  1   
 11   7  29  1   
 12   7  30  1   
 13   7  31  1   
 14   8  11  ar  
 15   8  32  1   
 16   9  12  ar  
 17   9  33  1   
 18  10  13  1   
 19  10  34  1   
 20  10  35  1   
 21  11  14  ar  
 22  11  36  1   
 23  12  14  ar  
 24  12  37  1   
 25  13  15  1   
 26  13  16  1   
 27  13  38  1   
 28  14  17  1   
 29  15  18  1   
 30  15  39  1   
 31  15  40  1   
 32  16  19  1   
 33  16  41  1   
 34  16  42  1   
 35  17  20  1   
 36  18  19  1   
 37  18  21  1   
 38  18  43  1   
 39  19  22  1   
 40  19  44  1   
 41  20  45  1   
 42  20  46  1   
 43  20  47  1   
 44  21  48  1   
 45  22  23  1   
 46  22  49  1   
 47  22  50  1   
 48  23  24  ar  
 49  23  25  ar  
 50  24  26  ar  
 51  24  51  1   
 52  25  27  ar  
 53  25  52  1   
 54  26  28  ar  
 55  26  53  1   
 56  27  28  ar  
 57  27  54  1   
@<TRIPOS>SUBSTRUCTURE
  1 ****   4 GROUP 4 **** **** 0

# MOE 2024.06 (io_trps.svl 2023.06)
