@<TRIPOS>MOLECULE
NONAME
45 48 1 0 0 
SMALL
USER_CHARGES


@<TRIPOS>ATOM
  1 O       -0.0190    -0.2010    -0.2800 O.2   1 <1>  -0.5700 
  2 C        0.8760    -0.6240     0.4360 C.2   1 <1>   0.7160 
  3 N        1.8960     0.2060     0.8130 N.am  1 <1>  -0.4930 
  4 C        0.8950    -1.9840     0.8740 C.2   1 <1>  -0.0860 
  5 C        2.1690     1.5420     0.4320 C.2   1 <1>   0.0630 
  6 C        0.2080    -3.0800     0.4130 C.2   1 <1>  -0.0680 
  7 C        1.6630    -2.5240     1.9190 C.2   1 <1>   0.1390 
  8 C        3.4600     1.9720     0.1130 C.2   1 <1>   0.3720 
  9 C        1.3920     2.6380     0.3000 C.2   1 <1>  -0.3320 
 10 N        0.5860    -4.1320     1.1550 N.pl3 1 <1>   0.6010 
 11 N       -0.7150    -3.4930    -0.5280 N.pl3 1 <1>  -0.5530 
 12 N        1.4990    -3.8000     2.1000 N.2   1 <1>  -0.7070 
 13 N        3.5000     3.2240    -0.2160 N.2   1 <1>  -0.7070 
 14 N        4.5880     1.1280     0.1390 N.pl3 1 <1>  -0.8210 
 15 N        2.2170     3.6370    -0.1070 N.pl3 1 <1>   0.3140 
 16 C       -0.1010     2.8090     0.5440 C.3   1 <1>  -0.0600 
 17 C       -0.0960    -5.2430     0.6960 C.2   1 <1>  -0.1810 
 18 C       -0.8870    -4.8530    -0.3260 C.2   1 <1>  -0.0500 
 19 C       -1.4000    -2.6330    -1.5190 C.3   1 <1>   0.1290 
 20 C        5.7370     1.7270     0.8770 C.3   1 <1>   0.2090 
 21 C        5.0460     0.8050    -1.2390 C.3   1 <1>   0.2090 
 22 C        1.8450     5.0240    -0.4130 C.3   1 <1>   0.0160 
 23 C        6.8520     1.9200    -0.1420 C.3   1 <1>  -0.1600 
 24 C        6.5650     0.8740    -1.2060 C.3   1 <1>  -0.1600 
 25 H        2.7690    -0.2660     1.0510 H     1 <1>   0.3700 
 26 H        2.3330    -1.9420     2.5310 H     1 <1>   0.1500 
 27 H       -0.4970     1.9530     1.0600 H     1 <1>   0.0800 
 28 H       -0.6180     2.9100    -0.3930 H     1 <1>   0.0800 
 29 H       -0.2870     3.6770     1.1490 H     1 <1>   0.0800 
 30 H        0.0590    -6.1990     1.1530 H     1 <1>   0.1500 
 31 H       -1.5630    -5.4380    -0.9280 H     1 <1>   0.1500 
 32 H       -0.6670    -2.1140    -2.1110 H     1 <1>   0.0800 
 33 H       -2.0100    -1.9110    -1.0050 H     1 <1>   0.0800 
 34 H       -2.0190    -3.2320    -2.1620 H     1 <1>   0.0800 
 35 H        6.0510     1.0330     1.6370 H     1 <1>   0.0800 
 36 H        5.4750     2.6610     1.3460 H     1 <1>   0.0800 
 37 H        4.6640     1.5320    -1.9390 H     1 <1>   0.0800 
 38 H        4.7050    -0.1740    -1.5290 H     1 <1>   0.0800 
 39 H        1.0310     5.0250    -1.1120 H     1 <1>   0.0800 
 40 H        2.6910     5.5280    -0.8430 H     1 <1>   0.0800 
 41 H        1.5550     5.5180     0.4940 H     1 <1>   0.0800 
 42 H        7.8250     1.8090     0.3000 H     1 <1>   0.0800 
 43 H        6.7620     2.9060    -0.5640 H     1 <1>   0.0800 
 44 H        6.9740     1.1380    -2.1640 H     1 <1>   0.0800 
 45 H        6.9540    -0.0820    -0.9010 H     1 <1>   0.0800 
@<TRIPOS>BOND
  1   1   2  2   
  2   2   3  am  
  3   2   4  1   
  4   3   5  1   
  5   3  25  1   
  6   4   6  2   
  7   4   7  1   
  8   5   8  1   
  9   5   9  2   
 10   6  10  1   
 11   6  11  1   
 12   7  12  2   
 13   7  26  1   
 14   8  13  2   
 15   8  14  1   
 16   9  15  1   
 17   9  16  1   
 18  10  12  1   
 19  10  17  1   
 20  11  18  1   
 21  11  19  1   
 22  13  15  1   
 23  14  20  1   
 24  14  21  1   
 25  15  22  1   
 26  16  27  1   
 27  16  28  1   
 28  16  29  1   
 29  17  18  2   
 30  17  30  1   
 31  18  31  1   
 32  19  32  1   
 33  19  33  1   
 34  19  34  1   
 35  20  23  1   
 36  20  35  1   
 37  20  36  1   
 38  21  24  1   
 39  21  37  1   
 40  21  38  1   
 41  22  39  1   
 42  22  40  1   
 43  22  41  1   
 44  23  24  1   
 45  23  42  1   
 46  23  43  1   
 47  24  44  1   
 48  24  45  1   
@<TRIPOS>SUBSTRUCTURE
  1 ****   3 GROUP 4 **** **** 0

# MOE 2024.06 (io_trps.svl 2023.06)
