@<TRIPOS>MOLECULE
NONAME
54 56 1 0 0 
SMALL
USER_CHARGES


@<TRIPOS>ATOM
  1 F        0.5780    -1.4080    -0.0390 F     1 <1>  -0.1900 
  2 C       -0.2360    -2.4330    -0.0020 C.ar  1 <1>   0.1900 
  3 C        0.1670    -3.7150    -0.3910 C.ar  1 <1>   0.0830 
  4 C       -1.5220    -2.1820     0.4370 C.ar  1 <1>  -0.1500 
  5 O        1.4010    -4.0870    -0.8410 O.3   1 <1>  -0.3630 
  6 C       -0.7720    -4.7320    -0.3220 C.ar  1 <1>  -0.1500 
  7 C       -2.4320    -3.2200     0.4910 C.ar  1 <1>  -0.1500 
  8 C        2.5000    -3.2050    -0.8840 C.3   1 <1>   0.0400 
  9 C       -2.0820    -4.5180     0.1160 C.ar  1 <1>   0.0530 
 10 C       -3.0290    -5.6080     0.1540 C.2   1 <1>   0.0870 
 11 O       -2.9460    -6.5530    -0.7580 O.3   1 <1>  -0.0190 
 12 C       -4.0860    -5.9260     0.9510 C.2   1 <1>  -0.2330 
 13 N       -3.8710    -7.4680    -0.6340 N.2   1 <1>  -0.4100 
 14 C       -4.5590    -7.1080     0.3880 C.2   1 <1>   0.3720 
 15 C       -4.6750    -5.3090     2.1040 C.2   1 <1>   1.0330 
 16 N       -5.6490    -7.8120     0.8740 N.pl3 1 <1>  -0.8520 
 17 O       -4.1030    -4.4000     2.7180 O.co2 1 <1>  -0.9000 
 18 O       -5.7940    -5.6900     2.5100 O.co2 1 <1>  -0.9000 
 19 C       -6.7880    -7.9490    -0.0680 C.3   1 <1>   0.2090 
 20 C       -7.4950    -9.3350     0.0210 C.3   1 <1>   0.4230 
 21 N       -6.5700   -10.5260     0.0800 N.4   1 <1>  -0.9590 
 22 C       -8.5000    -9.5340    -1.1470 C.3   1 <1>  -0.0800 
 23 C       -5.9750   -10.7520     1.4220 C.3   1 <1>   0.3430 
 24 C       -5.4120   -10.4730    -0.8480 C.3   1 <1>   0.3430 
 25 C       -9.6030    -8.4580    -1.1410 C.3   1 <1>  -0.2400 
 26 C       -9.1850   -10.9170    -1.1220 C.3   1 <1>  -0.2400 
 27 C       -4.8180   -11.7070     1.1630 C.3   1 <1>  -0.1600 
 28 C       -4.4520   -11.5250    -0.3130 C.3   1 <1>  -0.1600 
 29 H       -1.8080    -1.1910     0.7370 H     1 <1>   0.1500 
 30 H       -0.4740    -5.7220    -0.6150 H     1 <1>   0.1500 
 31 H       -3.4330    -3.0230     0.8350 H     1 <1>   0.1500 
 32 H        3.3580    -3.7570    -1.2230 H     1 <1>   0.0800 
 33 H        2.6800    -2.8210     0.1040 H     1 <1>   0.0800 
 34 H        2.2840    -2.4090    -1.5750 H     1 <1>   0.0800 
 35 H       -5.9660    -7.2370     1.6940 H     1 <1>   0.4000 
 36 H       -6.4510    -7.7840    -1.0770 H     1 <1>   0.0800 
 37 H       -7.4980    -7.1730     0.1610 H     1 <1>   0.0800 
 38 H       -8.0730    -9.3260     0.9300 H     1 <1>   0.0800 
 39 H       -7.1180   -11.3590    -0.1490 H     1 <1>   0.4500 
 40 H       -7.9660    -9.4410    -2.0780 H     1 <1>   0.0800 
 41 H       -6.6900   -11.1660     2.1140 H     1 <1>   0.0800 
 42 H       -5.5850    -9.8330     1.8260 H     1 <1>   0.0800 
 43 H       -4.9390    -9.5090    -0.7870 H     1 <1>   0.0800 
 44 H       -5.7010   -10.6670    -1.8670 H     1 <1>   0.0800 
 45 H      -10.1390    -8.4620    -0.2080 H     1 <1>   0.0800 
 46 H      -10.3090    -8.6400    -1.9340 H     1 <1>   0.0800 
 47 H       -9.1980    -7.4740    -1.3010 H     1 <1>   0.0800 
 48 H       -9.6620   -11.0910    -0.1730 H     1 <1>   0.0800 
 49 H       -8.4890   -11.7120    -1.3190 H     1 <1>   0.0800 
 50 H       -9.9410   -10.9700    -1.8870 H     1 <1>   0.0800 
 51 H       -5.1250   -12.7190     1.3570 H     1 <1>   0.0800 
 52 H       -3.9910   -11.4660     1.8090 H     1 <1>   0.0800 
 53 H       -3.4370   -11.1880    -0.4320 H     1 <1>   0.0800 
 54 H       -4.5770   -12.4470    -0.8530 H     1 <1>   0.0800 
@<TRIPOS>BOND
  1   1   2  1   
  2   2   3  ar  
  3   2   4  ar  
  4   3   5  1   
  5   3   6  ar  
  6   4   7  ar  
  7   4  29  1   
  8   5   8  1   
  9   6   9  ar  
 10   6  30  1   
 11   7   9  ar  
 12   7  31  1   
 13   8  32  1   
 14   8  33  1   
 15   8  34  1   
 16   9  10  1   
 17  10  11  1   
 18  10  12  2   
 19  11  13  1   
 20  12  14  1   
 21  12  15  1   
 22  13  14  2   
 23  14  16  1   
 24  15  17  ar  
 25  15  18  ar  
 26  16  19  1   
 27  16  35  1   
 28  19  20  1   
 29  19  36  1   
 30  19  37  1   
 31  20  21  1   
 32  20  22  1   
 33  20  38  1   
 34  21  23  1   
 35  21  24  1   
 36  21  39  1   
 37  22  25  1   
 38  22  26  1   
 39  22  40  1   
 40  23  27  1   
 41  23  41  1   
 42  23  42  1   
 43  24  28  1   
 44  24  43  1   
 45  24  44  1   
 46  25  45  1   
 47  25  46  1   
 48  25  47  1   
 49  26  48  1   
 50  26  49  1   
 51  26  50  1   
 52  27  28  1   
 53  27  51  1   
 54  27  52  1   
 55  28  53  1   
 56  28  54  1   
@<TRIPOS>SUBSTRUCTURE
  1 ****  14 GROUP 4 **** **** 0

# MOE 2024.06 (io_trps.svl 2023.06)
