@<TRIPOS>MOLECULE
NONAME
52 55 1 0 0 
SMALL
USER_CHARGES


@<TRIPOS>ATOM
  1 F       -0.8410    -0.1550    -1.2240 F     1 <1>  -0.1900 
  2 C       -1.9080    -0.5600    -0.5920 C.ar  1 <1>   0.1900 
  3 C       -2.1510    -1.9200    -0.4620 C.ar  1 <1>  -0.1440 
  4 C       -2.7590     0.3950    -0.0710 C.ar  1 <1>  -0.1500 
  5 C       -3.2970    -2.3100     0.2110 C.ar  1 <1>  -0.1500 
  6 C       -1.1910    -2.9520    -1.0350 C.3   1 <1>  -0.0960 
  7 C       -3.8970    -0.0210     0.5960 C.ar  1 <1>  -0.1500 
  8 C       -4.1940    -1.3780     0.7410 C.ar  1 <1>   0.0860 
  9 C       -5.4010    -1.7980     1.4260 C.2   1 <1>   0.5440 
 10 O       -5.6060    -1.3990     2.5570 O.2   1 <1>  -0.5700 
 11 N       -6.3400    -2.6140     0.8240 N.am  1 <1>  -0.6600 
 12 C       -7.4440    -3.2340     1.6140 C.3   1 <1>   0.1400 
 13 C       -6.4410    -2.8130    -0.6480 C.3   1 <1>   0.1400 
 14 C       -8.8510    -2.7100     1.2700 C.3   1 <1>   0.1900 
 15 C       -7.6380    -2.0710    -1.2670 C.3   1 <1>  -0.0800 
 16 N       -9.3830    -3.4000     0.0600 N.3   1 <1>  -0.8100 
 17 C       -8.9530    -1.1590     1.3010 C.3   1 <1>   0.1200 
 18 C       -7.8460    -0.6370    -0.7320 C.3   1 <1>   0.1200 
 19 C       -8.9370    -2.8930    -1.2600 C.3   1 <1>   0.1100 
 20 C      -10.8630    -3.4630     0.0850 C.3   1 <1>   0.2900 
 21 O       -8.9960    -0.5350     0.0480 O.3   1 <1>  -0.5600 
 22 C      -11.4150    -4.4070    -0.9800 C.2   1 <1>   0.0060 
 23 N      -12.2910    -4.0510    -1.8680 N.2   1 <1>  -0.5650 
 24 N      -11.0360    -5.7060    -1.0850 N.pl3 1 <1>   0.0480 
 25 C      -12.4920    -5.1670    -2.5900 C.2   1 <1>   0.0770 
 26 C      -11.7360    -6.1850    -2.1280 C.2   1 <1>  -0.3020 
 27 C      -10.0610    -6.4500    -0.2680 C.3   1 <1>   0.0160 
 28 H       -2.5310     1.4390    -0.1860 H     1 <1>   0.1500 
 29 H       -3.5150    -3.3560     0.3390 H     1 <1>   0.1500 
 30 H       -1.5220    -3.9520    -0.8190 H     1 <1>   0.0800 
 31 H       -0.2120    -2.8160    -0.6110 H     1 <1>   0.0800 
 32 H       -1.1220    -2.8360    -2.1020 H     1 <1>   0.0800 
 33 H       -4.5700     0.7050     1.0190 H     1 <1>   0.1500 
 34 H       -7.4240    -4.2990     1.4670 H     1 <1>   0.0800 
 35 H       -7.2730    -3.0630     2.6620 H     1 <1>   0.0800 
 36 H       -5.5480    -2.4570    -1.1270 H     1 <1>   0.0800 
 37 H       -6.5200    -3.8660    -0.8570 H     1 <1>   0.0800 
 38 H       -9.4440    -3.0480     2.1010 H     1 <1>   0.0800 
 39 H       -7.3850    -1.9560    -2.3050 H     1 <1>   0.0800 
 40 H       -8.1400    -0.7360     1.8660 H     1 <1>   0.0800 
 41 H       -9.8640    -0.8890     1.8020 H     1 <1>   0.0800 
 42 H       -7.9900     0.0300    -1.5640 H     1 <1>   0.0800 
 43 H       -7.0050    -0.2790    -0.1660 H     1 <1>   0.0800 
 44 H       -8.8190    -3.7390    -1.9150 H     1 <1>   0.0800 
 45 H       -9.7100    -2.2770    -1.6920 H     1 <1>   0.0800 
 46 H      -11.1980    -3.8140     1.0440 H     1 <1>   0.0800 
 47 H      -11.2700    -2.4770    -0.0690 H     1 <1>   0.0800 
 48 H      -13.1810    -5.1780    -3.4180 H     1 <1>   0.1500 
 49 H      -11.6620    -7.1980    -2.4790 H     1 <1>   0.1500 
 50 H      -10.1410    -7.5000    -0.4760 H     1 <1>   0.0800 
 51 H      -10.2590    -6.2720     0.7720 H     1 <1>   0.0800 
 52 H       -9.0710    -6.1070    -0.5070 H     1 <1>   0.0800 
@<TRIPOS>BOND
  1   1   2  1   
  2   2   3  ar  
  3   2   4  ar  
  4   3   5  ar  
  5   3   6  1   
  6   4   7  ar  
  7   4  28  1   
  8   5   8  ar  
  9   5  29  1   
 10   6  30  1   
 11   6  31  1   
 12   6  32  1   
 13   7   8  ar  
 14   7  33  1   
 15   8   9  1   
 16   9  10  2   
 17   9  11  am  
 18  11  12  1   
 19  11  13  1   
 20  12  14  1   
 21  12  34  1   
 22  12  35  1   
 23  13  15  1   
 24  13  36  1   
 25  13  37  1   
 26  14  16  1   
 27  14  17  1   
 28  14  38  1   
 29  15  18  1   
 30  15  19  1   
 31  15  39  1   
 32  16  19  1   
 33  16  20  1   
 34  17  21  1   
 35  17  40  1   
 36  17  41  1   
 37  18  21  1   
 38  18  42  1   
 39  18  43  1   
 40  19  44  1   
 41  19  45  1   
 42  20  22  1   
 43  20  46  1   
 44  20  47  1   
 45  22  23  2   
 46  22  24  1   
 47  23  25  1   
 48  24  26  1   
 49  24  27  1   
 50  25  26  2   
 51  25  48  1   
 52  26  49  1   
 53  27  50  1   
 54  27  51  1   
 55  27  52  1   
@<TRIPOS>SUBSTRUCTURE
  1 ****  13 GROUP 4 **** **** 0

# MOE 2024.06 (io_trps.svl 2023.06)
