@<TRIPOS>MOLECULE
NONAME
50 53 1 0 0 
SMALL
USER_CHARGES


@<TRIPOS>ATOM
  1 O        0.2690    -0.2100    -1.0170 O.2   1 <1>  -0.5700 
  2 C        0.6910    -1.0300    -0.2140 C.2   1 <1>   0.5440 
  3 N       -0.1830    -1.8900     0.4360 N.am  1 <1>  -0.2980 
  4 C        2.0920    -1.1440     0.0840 C.ar  1 <1>   0.0860 
  5 N        0.2180    -2.8570     1.3270 N.2   1 <1>  -0.5120 
  6 C       -1.6470    -1.8440     0.1140 C.3   1 <1>   0.2010 
  7 C        2.4930    -2.1280     1.0020 C.ar  1 <1>   0.0860 
  8 C        3.0550    -0.3180    -0.5040 C.ar  1 <1>  -0.1500 
  9 C        1.4730    -2.9590     1.5860 C.2   1 <1>   0.3030 
 10 C       -2.0420    -2.8740    -0.9400 C.2   1 <1>   0.5690 
 11 C        3.8620    -2.2420     1.2920 C.ar  1 <1>  -0.1500 
 12 C        4.3910    -0.4500    -0.2010 C.ar  1 <1>  -0.1500 
 13 C        1.8710    -4.0440     2.5720 C.3   1 <1>  -0.1790 
 14 O       -3.0720    -2.7340    -1.5560 O.2   1 <1>  -0.5700 
 15 N       -1.2420    -3.9520    -1.1390 N.am  1 <1>  -0.7300 
 16 C        4.7960    -1.4190     0.7030 C.ar  1 <1>  -0.1500 
 17 C       -1.4320    -5.0330    -2.1250 C.3   1 <1>   0.2200 
 18 C       -1.8220    -6.3340    -1.4390 C.3   1 <1>  -0.0800 
 19 C       -0.0740    -5.4140    -2.6990 C.3   1 <1>   0.1200 
 20 C       -0.4700    -6.9060    -0.9990 C.3   1 <1>   0.1200 
 21 C       -2.8550    -6.2100    -0.3050 C.3   1 <1>  -0.0170 
 22 O        0.5140    -6.2450    -1.7430 O.3   1 <1>  -0.5600 
 23 C       -3.2240    -7.5790     0.2450 C.ar  1 <1>  -0.1430 
 24 C       -4.1350    -8.3960    -0.3920 C.ar  1 <1>  -0.1500 
 25 C       -2.6670    -8.0770     1.4060 C.ar  1 <1>  -0.1500 
 26 C       -4.4340    -9.6380     0.1440 C.ar  1 <1>   0.1600 
 27 C       -3.0340    -9.3340     1.8570 C.ar  1 <1>   0.1600 
 28 N       -3.9030   -10.1280     1.2530 N.ar  1 <1>  -0.6200 
 29 H       -2.2040    -2.0450     1.0090 H     1 <1>   0.0800 
 30 H       -1.9220    -0.8660    -0.2340 H     1 <1>   0.0800 
 31 H        2.7370     0.4340    -1.2070 H     1 <1>   0.1500 
 32 H        4.2070    -2.9850     1.9890 H     1 <1>   0.1500 
 33 H        5.1220     0.1940    -0.6630 H     1 <1>   0.1500 
 34 H        2.3620    -3.6080     3.4220 H     1 <1>   0.0800 
 35 H        2.5270    -4.7510     2.0970 H     1 <1>   0.0800 
 36 H        1.0010    -4.5730     2.9200 H     1 <1>   0.0800 
 37 H       -0.4060    -4.0370    -0.5460 H     1 <1>   0.3700 
 38 H        5.8430    -1.5220     0.9380 H     1 <1>   0.1500 
 39 H       -2.1330    -4.7330    -2.8860 H     1 <1>   0.0800 
 40 H       -2.2210    -6.9940    -2.1890 H     1 <1>   0.0800 
 41 H        0.5560    -4.5610    -2.8790 H     1 <1>   0.0800 
 42 H       -0.1900    -5.9840    -3.6040 H     1 <1>   0.0800 
 43 H       -0.4020    -7.9640    -1.1860 H     1 <1>   0.0800 
 44 H       -0.2770    -6.7060     0.0410 H     1 <1>   0.0800 
 45 H       -3.7400    -5.7250    -0.6800 H     1 <1>   0.0800 
 46 H       -2.4680    -5.6000     0.4930 H     1 <1>   0.0800 
 47 H       -4.6170    -8.0790    -1.2990 H     1 <1>   0.1500 
 48 H       -1.9530    -7.5000     1.9650 H     1 <1>   0.1500 
 49 H       -5.1470   -10.2620    -0.3670 H     1 <1>   0.1500 
 50 H       -2.5900    -9.7050     2.7650 H     1 <1>   0.1500 
@<TRIPOS>BOND
  1   1   2  2   
  2   2   3  am  
  3   2   4  1   
  4   3   5  1   
  5   3   6  1   
  6   4   7  ar  
  7   4   8  ar  
  8   5   9  2   
  9   6  10  1   
 10   6  29  1   
 11   6  30  1   
 12   7   9  1   
 13   7  11  ar  
 14   8  12  ar  
 15   8  31  1   
 16   9  13  1   
 17  10  14  2   
 18  10  15  am  
 19  11  16  ar  
 20  11  32  1   
 21  12  16  ar  
 22  12  33  1   
 23  13  34  1   
 24  13  35  1   
 25  13  36  1   
 26  15  17  1   
 27  15  37  1   
 28  16  38  1   
 29  17  18  1   
 30  17  19  1   
 31  17  39  1   
 32  18  20  1   
 33  18  21  1   
 34  18  40  1   
 35  19  22  1   
 36  19  41  1   
 37  19  42  1   
 38  20  22  1   
 39  20  43  1   
 40  20  44  1   
 41  21  23  1   
 42  21  45  1   
 43  21  46  1   
 44  23  24  ar  
 45  23  25  ar  
 46  24  26  ar  
 47  24  47  1   
 48  25  27  ar  
 49  25  48  1   
 50  26  28  ar  
 51  26  49  1   
 52  27  28  ar  
 53  27  50  1   
@<TRIPOS>SUBSTRUCTURE
  1 ****  15 GROUP 4 **** **** 0

# MOE 2024.06 (io_trps.svl 2023.06)
