@<TRIPOS>MOLECULE
NONAME
53 55 1 0 0 
SMALL
USER_CHARGES


@<TRIPOS>ATOM
  1 S        0.2050     0.0240    -0.7440 S.o2  1 <1>   1.0900 
  2 O       -0.1580    -0.5810    -2.0050 O.2   1 <1>  -0.6500 
  3 O       -0.5840    -0.2520     0.4360 O.2   1 <1>  -0.6500 
  4 C        1.8990    -0.3760    -0.3840 C.3   1 <1>  -0.0550 
  5 C        0.2940     1.7880    -0.9560 C.3   1 <1>  -0.0550 
  6 C        2.4250     0.5020     0.7450 C.3   1 <1>   0.1100 
  7 C        0.9940     2.4320     0.2330 C.3   1 <1>   0.1100 
  8 N        2.3750     1.9200     0.3480 N.3   1 <1>  -0.8100 
  9 C        3.1680     2.7380     1.2880 C.3   1 <1>   0.2530 
 10 C        3.3540     4.1600     0.7720 C.ar  1 <1>  -0.1430 
 11 C        3.8360     4.3850    -0.5070 C.ar  1 <1>  -0.1500 
 12 C        3.0460     5.2500     1.5710 C.ar  1 <1>  -0.1500 
 13 C        4.0080     5.6750    -0.9760 C.ar  1 <1>  -0.1500 
 14 C        3.2200     6.5380     1.0980 C.ar  1 <1>  -0.1500 
 15 C        3.7110     6.7850    -0.1860 C.ar  1 <1>   0.0860 
 16 C        3.9100     8.1340    -0.6890 C.2   1 <1>   0.5440 
 17 O        3.8710     8.3680    -1.8820 O.2   1 <1>  -0.5700 
 18 N        4.1750     9.1620     0.1650 N.am  1 <1>  -0.7300 
 19 C        4.4270    10.5490    -0.2290 C.3   1 <1>   0.4000 
 20 C        5.8730    10.8360     0.1320 C.2   1 <1>  -0.3320 
 21 C        3.4200    11.4470     0.5010 C.3   1 <1>  -0.1600 
 22 N        6.9120    10.4120    -0.6230 N.pl3 1 <1>   0.3140 
 23 C        6.4080    11.5040     1.1810 C.2   1 <1>  -0.1500 
 24 C        3.4940    12.9160     0.0530 C.3   1 <1>  -0.2400 
 25 N        8.0890    10.7870    -0.0930 N.2   1 <1>  -0.7070 
 26 C        6.8670     9.6250    -1.8660 C.3   1 <1>   0.0160 
 27 C        7.7800    11.4400     0.9830 C.2   1 <1>   0.1390 
 28 H        2.5100    -0.2270    -1.2530 H     1 <1>   0.0800 
 29 H        1.9720    -1.4070    -0.0970 H     1 <1>   0.0800 
 30 H       -0.6950     2.1920    -1.0480 H     1 <1>   0.0800 
 31 H        0.8360     2.0300    -1.8490 H     1 <1>   0.0800 
 32 H        3.4450     0.2180     0.9450 H     1 <1>   0.0800 
 33 H        1.8460     0.3440     1.6410 H     1 <1>   0.0800 
 34 H        0.4470     2.2360     1.1410 H     1 <1>   0.0800 
 35 H        1.0060     3.4970     0.0720 H     1 <1>   0.0800 
 36 H        4.1450     2.3010     1.4080 H     1 <1>   0.0800 
 37 H        2.6880     2.7500     2.2530 H     1 <1>   0.0800 
 38 H        4.0730     3.5470    -1.1410 H     1 <1>   0.1500 
 39 H        2.6660     5.0990     2.5670 H     1 <1>   0.1500 
 40 H        4.3780     5.8290    -1.9750 H     1 <1>   0.1500 
 41 H        2.9620     7.3650     1.7340 H     1 <1>   0.1500 
 42 H        4.4710     8.9570     1.1180 H     1 <1>   0.3700 
 43 H        4.2820    10.6690    -1.2900 H     1 <1>   0.0800 
 44 H        3.5810    11.3880     1.5620 H     1 <1>   0.0800 
 45 H        2.4290    11.0840     0.2920 H     1 <1>   0.0800 
 46 H        5.9180    11.9910     2.0040 H     1 <1>   0.1500 
 47 H        4.4660    13.3320     0.2540 H     1 <1>   0.0800 
 48 H        2.7590    13.4990     0.5790 H     1 <1>   0.0800 
 49 H        3.3000    12.9950    -1.0030 H     1 <1>   0.0800 
 50 H        6.1250    10.0320    -2.5260 H     1 <1>   0.0800 
 51 H        6.6240     8.6070    -1.6280 H     1 <1>   0.0800 
 52 H        7.8300     9.6620    -2.3410 H     1 <1>   0.0800 
 53 H        8.5130    11.8760     1.6410 H     1 <1>   0.1500 
@<TRIPOS>BOND
  1   1   2  2   
  2   1   3  2   
  3   1   4  1   
  4   1   5  1   
  5   4   6  1   
  6   4  28  1   
  7   4  29  1   
  8   5   7  1   
  9   5  30  1   
 10   5  31  1   
 11   6   8  1   
 12   6  32  1   
 13   6  33  1   
 14   7   8  1   
 15   7  34  1   
 16   7  35  1   
 17   8   9  1   
 18   9  10  1   
 19   9  36  1   
 20   9  37  1   
 21  10  11  ar  
 22  10  12  ar  
 23  11  13  ar  
 24  11  38  1   
 25  12  14  ar  
 26  12  39  1   
 27  13  15  ar  
 28  13  40  1   
 29  14  15  ar  
 30  14  41  1   
 31  15  16  1   
 32  16  17  2   
 33  16  18  am  
 34  18  19  1   
 35  18  42  1   
 36  19  20  1   
 37  19  21  1   
 38  19  43  1   
 39  20  22  1   
 40  20  23  2   
 41  21  24  1   
 42  21  44  1   
 43  21  45  1   
 44  22  25  1   
 45  22  26  1   
 46  23  27  1   
 47  23  46  1   
 48  24  47  1   
 49  24  48  1   
 50  24  49  1   
 51  25  27  2   
 52  26  50  1   
 53  26  51  1   
 54  26  52  1   
 55  27  53  1   
@<TRIPOS>SUBSTRUCTURE
  1 ****  15 GROUP 4 **** **** 0

# MOE 2024.06 (io_trps.svl 2023.06)
