@<TRIPOS>MOLECULE
NONAME
45 46 1 0 0 
SMALL
USER_CHARGES


@<TRIPOS>ATOM
  1 S        0.1090     0.3110     0.5400 S.o2  1 <1>   1.3330 
  2 O       -1.2470     0.5080     1.0010 O.2   1 <1>  -0.6500 
  3 O        1.1930     0.2660     1.4960 O.2   1 <1>  -0.6500 
  4 N        0.1630    -1.1190    -0.3730 N.am  1 <1>  -0.8490 
  5 C        0.4580     1.5750    -0.6800 C.3   1 <1>  -0.0550 
  6 C       -0.7140    -2.1590     0.1720 C.3   1 <1>   0.1160 
  7 C        1.5190    -1.6500    -0.5460 C.3   1 <1>   0.1160 
  8 C        0.3630     3.0040    -0.1190 C.3   1 <1>  -0.0800 
  9 C        0.5670     4.0610    -1.2000 C.3   1 <1>   0.2000 
 10 C        1.4180     3.3390     0.9370 C.3   1 <1>   0.1400 
 11 O       -0.6300     4.3020    -1.8540 O.3   1 <1>  -0.6800 
 12 C        1.0820     5.3050    -0.4760 C.3   1 <1>   0.1400 
 13 N        1.6270     4.8000     0.8110 N.am  1 <1>  -0.6600 
 14 C        2.2920     5.5350     1.7600 C.2   1 <1>   0.5690 
 15 O        2.7340     5.0120     2.7560 O.2   1 <1>  -0.5700 
 16 C        2.4640     7.0470     1.6260 C.3   1 <1>   0.1810 
 17 O        3.0650     7.4020     0.3890 O.3   1 <1>  -0.3630 
 18 C        3.0940     8.6970    -0.0230 C.ar  1 <1>   0.0820 
 19 C        3.1710     8.9630    -1.3900 C.ar  1 <1>   0.1900 
 20 C        3.0520     9.7720     0.8660 C.ar  1 <1>  -0.1500 
 21 F        3.2030     7.9670    -2.2390 F     1 <1>  -0.1900 
 22 C        3.2040    10.2470    -1.8970 C.ar  1 <1>  -0.1500 
 23 C        3.0830    11.0720     0.3810 C.ar  1 <1>  -0.1500 
 24 C        3.1580    11.2830    -0.9850 C.ar  1 <1>   0.1900 
 25 F        3.1850    12.5120    -1.4300 F     1 <1>  -0.1900 
 26 H        1.4350     1.4170    -1.0900 H     1 <1>   0.0800 
 27 H       -0.2520     1.4780    -1.4790 H     1 <1>   0.0800 
 28 H       -0.6690    -3.0450    -0.4380 H     1 <1>   0.0800 
 29 H       -1.7350    -1.8130     0.1840 H     1 <1>   0.0800 
 30 H       -0.4210    -2.4060     1.1790 H     1 <1>   0.0800 
 31 H        1.5010    -2.5010    -1.2060 H     1 <1>   0.0800 
 32 H        1.9290    -1.9520     0.4040 H     1 <1>   0.0800 
 33 H        2.1600    -0.9000    -0.9760 H     1 <1>   0.0800 
 34 H       -0.6020     3.1440     0.3410 H     1 <1>   0.0800 
 35 H        1.2940     3.7440    -1.9300 H     1 <1>   0.0800 
 36 H        2.3490     2.8360     0.7340 H     1 <1>   0.0800 
 37 H        1.0870     3.0820     1.9300 H     1 <1>   0.0800 
 38 H       -1.3310     4.5320    -1.2140 H     1 <1>   0.4000 
 39 H        0.2850     6.0010    -0.2820 H     1 <1>   0.0800 
 40 H        1.8560     5.7740    -1.0580 H     1 <1>   0.0800 
 41 H        3.0970     7.4000     2.4190 H     1 <1>   0.0800 
 42 H        1.5020     7.5200     1.6870 H     1 <1>   0.0800 
 43 H        3.0060     9.6160     1.9280 H     1 <1>   0.1500 
 44 H        3.2630    10.4320    -2.9530 H     1 <1>   0.1500 
 45 H        3.0520    11.9140     1.0500 H     1 <1>   0.1500 
@<TRIPOS>BOND
  1   1   2  2   
  2   1   3  2   
  3   1   4  am  
  4   1   5  1   
  5   4   6  1   
  6   4   7  1   
  7   5   8  1   
  8   5  26  1   
  9   5  27  1   
 10   6  28  1   
 11   6  29  1   
 12   6  30  1   
 13   7  31  1   
 14   7  32  1   
 15   7  33  1   
 16   8   9  1   
 17   8  10  1   
 18   8  34  1   
 19   9  11  1   
 20   9  12  1   
 21   9  35  1   
 22  10  13  1   
 23  10  36  1   
 24  10  37  1   
 25  11  38  1   
 26  12  13  1   
 27  12  39  1   
 28  12  40  1   
 29  13  14  am  
 30  14  15  2   
 31  14  16  1   
 32  16  17  1   
 33  16  41  1   
 34  16  42  1   
 35  17  18  1   
 36  18  19  ar  
 37  18  20  ar  
 38  19  21  1   
 39  19  22  ar  
 40  20  23  ar  
 41  20  43  1   
 42  22  24  ar  
 43  22  44  1   
 44  23  24  ar  
 45  23  45  1   
 46  24  25  1   
@<TRIPOS>SUBSTRUCTURE
  1 ****  12 GROUP 4 **** **** 0

# MOE 2024.06 (io_trps.svl 2023.06)
