@<TRIPOS>MOLECULE
NONAME
49 51 1 0 0 
SMALL
USER_CHARGES


@<TRIPOS>ATOM
  1 O        3.0350    -1.6810     2.4910 O.2   1 <1>  -0.5700 
  2 C        2.6250    -1.5990     1.3480 C.2   1 <1>   0.5440 
  3 N        2.9750    -0.4720     0.6380 N.am  1 <1>  -0.6600 
  4 C        1.8990    -2.7060     0.7550 C.ar  1 <1>   0.0860 
  5 C        3.3390     0.7900     1.3850 C.3   1 <1>   0.2200 
  6 C        3.2240    -0.5470    -0.8320 C.3   1 <1>   0.1400 
  7 C        0.7060    -2.5390     0.0380 C.ar  1 <1>   0.0830 
  8 C        2.3990    -4.0010     0.8960 C.ar  1 <1>  -0.1500 
  9 C        2.8360     2.0570     0.6760 C.3   1 <1>   0.1200 
 10 C        4.8580     0.8570     1.6640 C.3   1 <1>   0.3430 
 11 C        4.3160     0.4120    -1.3440 C.3   1 <1>  -0.0800 
 12 O        0.1890    -1.2890    -0.0650 O.3   1 <1>  -0.3630 
 13 C        0.0770    -3.6410    -0.5390 C.ar  1 <1>  -0.1500 
 14 C        1.7670    -5.0880     0.3260 C.ar  1 <1>  -0.1500 
 15 O        3.7600     2.5150    -0.2650 O.3   1 <1>  -0.5600 
 16 N        5.6220    -0.1070     0.8050 N.4   1 <1>  -0.9590 
 17 C        3.7920     1.8510    -1.4820 C.3   1 <1>   0.1200 
 18 C        5.6810     0.3500    -0.6200 C.3   1 <1>   0.3430 
 19 C       -1.1210    -1.0470    -0.5310 C.3   1 <1>   0.0400 
 20 C        0.6040    -4.9120    -0.4010 C.ar  1 <1>  -0.1430 
 21 C        7.0340    -0.2410     1.3520 C.3   1 <1>   0.2370 
 22 C       -0.0820    -6.1140    -1.0270 C.3   1 <1>  -0.0970 
 23 C        7.8740     1.0380     1.2750 C.2   1 <1>   0.9060 
 24 O        7.8250     1.8230     2.2250 O.co2 1 <1>  -0.9000 
 25 O        8.4650     1.2750     0.2160 O.co2 1 <1>  -0.9000 
 26 H        2.8370     0.7670     2.3370 H     1 <1>   0.0800 
 27 H        3.5110    -1.5540    -1.0830 H     1 <1>   0.0800 
 28 H        2.3000    -0.3430    -1.3470 H     1 <1>   0.0800 
 29 H        3.2980    -4.1520     1.4680 H     1 <1>   0.1500 
 30 H        2.7330     2.8430     1.4030 H     1 <1>   0.0800 
 31 H        1.8790     1.8990     0.2100 H     1 <1>   0.0800 
 32 H        5.0190     0.6090     2.6990 H     1 <1>   0.0800 
 33 H        5.2250     1.8620     1.5160 H     1 <1>   0.0800 
 34 H        4.5140     0.1080    -2.3560 H     1 <1>   0.0800 
 35 H       -0.8310    -3.5250    -1.1000 H     1 <1>   0.1500 
 36 H        2.1790    -6.0750     0.4530 H     1 <1>   0.1500 
 37 H        5.1030    -0.9920     0.8720 H     1 <1>   0.4500 
 38 H        2.8070     1.8760    -1.9170 H     1 <1>   0.0800 
 39 H        4.4530     2.4150    -2.1190 H     1 <1>   0.0800 
 40 H        6.1480     1.3230    -0.6640 H     1 <1>   0.0800 
 41 H        6.3220    -0.3250    -1.1620 H     1 <1>   0.0800 
 42 H       -1.3320     0.0010    -0.4110 H     1 <1>   0.0800 
 43 H       -1.8130    -1.6270     0.0540 H     1 <1>   0.0800 
 44 H       -1.1790    -1.3130    -1.5720 H     1 <1>   0.0800 
 45 H        6.9980    -0.5340     2.3850 H     1 <1>   0.0800 
 46 H        7.5650    -0.9970     0.8040 H     1 <1>   0.0800 
 47 H        0.6420    -6.7410    -1.5150 H     1 <1>   0.0800 
 48 H       -0.8110    -5.8070    -1.7550 H     1 <1>   0.0800 
 49 H       -0.5790    -6.6870    -0.2640 H     1 <1>   0.0800 
@<TRIPOS>BOND
  1   1   2  2   
  2   2   3  am  
  3   2   4  1   
  4   3   5  1   
  5   3   6  1   
  6   4   7  ar  
  7   4   8  ar  
  8   5   9  1   
  9   5  10  1   
 10   5  26  1   
 11   6  11  1   
 12   6  27  1   
 13   6  28  1   
 14   7  12  1   
 15   7  13  ar  
 16   8  14  ar  
 17   8  29  1   
 18   9  15  1   
 19   9  30  1   
 20   9  31  1   
 21  10  16  1   
 22  10  32  1   
 23  10  33  1   
 24  11  17  1   
 25  11  18  1   
 26  11  34  1   
 27  12  19  1   
 28  13  20  ar  
 29  13  35  1   
 30  14  20  ar  
 31  14  36  1   
 32  15  17  1   
 33  16  18  1   
 34  16  21  1   
 35  16  37  1   
 36  17  38  1   
 37  17  39  1   
 38  18  40  1   
 39  18  41  1   
 40  19  42  1   
 41  19  43  1   
 42  19  44  1   
 43  20  22  1   
 44  21  23  1   
 45  21  45  1   
 46  21  46  1   
 47  22  47  1   
 48  22  48  1   
 49  22  49  1   
 50  23  24  ar  
 51  23  25  ar  
@<TRIPOS>SUBSTRUCTURE
  1 ****   3 GROUP 4 **** **** 0

# MOE 2024.06 (io_trps.svl 2023.06)
