@<TRIPOS>MOLECULE
NONAME
42 43 1 0 0 
SMALL
USER_CHARGES


@<TRIPOS>ATOM
  1 O        0.5180     0.2380    -0.5040 O.co2 1 <1>  -0.9000 
  2 C        1.7000     0.0170    -0.7540 C.2   1 <1>   0.9060 
  3 O        2.0880    -0.7730    -1.6230 O.co2 1 <1>  -0.9000 
  4 C        2.7490     0.7190     0.0770 C.3   1 <1>  -0.1860 
  5 C        3.6830    -0.3200     0.7070 C.3   1 <1>   0.2000 
  6 C        3.5310     1.7880    -0.7310 C.3   1 <1>  -0.1600 
  7 O        4.3500    -0.9780    -0.3130 O.3   1 <1>  -0.6800 
  8 C        4.7310     0.3610     1.6100 C.3   1 <1>   0.3430 
  9 C        5.0060     1.8950    -0.3300 C.3   1 <1>   0.3430 
 10 N        5.1340     1.7440     1.1510 N.4   1 <1>  -0.9590 
 11 C        6.5020     2.0910     1.6030 C.3   1 <1>   0.4860 
 12 C        6.6810     3.5930     1.4990 C.ar  1 <1>  -0.1430 
 13 C        7.3350     4.1360     0.3980 C.ar  1 <1>   0.0820 
 14 C        6.1930     4.4180     2.5010 C.ar  1 <1>  -0.1500 
 15 O        7.8040     3.2320    -0.5120 O.3   1 <1>  -0.3620 
 16 C        7.4580     5.5300     0.2790 C.ar  1 <1>   0.0820 
 17 C        6.3400     5.7880     2.4010 C.ar  1 <1>  -0.1500 
 18 C        9.0020     3.4650    -1.2260 C.3   1 <1>   0.0400 
 19 O        8.0330     6.0640    -0.8370 O.3   1 <1>  -0.3630 
 20 C        6.9640     6.3410     1.2980 C.ar  1 <1>  -0.1500 
 21 C        8.1620     7.4570    -1.0290 C.3   1 <1>   0.0400 
 22 H        2.2250     1.2130     0.8750 H     1 <1>   0.0800 
 23 H        3.1230    -1.0600     1.2540 H     1 <1>   0.0800 
 24 H        3.0480     2.7420    -0.6270 H     1 <1>   0.0800 
 25 H        3.5010     1.5350    -1.7780 H     1 <1>   0.0800 
 26 H        3.6540    -1.1570    -1.0190 H     1 <1>   0.4000 
 27 H        5.5920    -0.2860     1.6490 H     1 <1>   0.0800 
 28 H        4.3250     0.4320     2.6050 H     1 <1>   0.0800 
 29 H        5.3990     2.8430    -0.6590 H     1 <1>   0.0800 
 30 H        5.5640     1.1100    -0.8180 H     1 <1>   0.0800 
 31 H        4.4840     2.4280     1.5490 H     1 <1>   0.4500 
 32 H        6.6390     1.7930     2.6290 H     1 <1>   0.0800 
 33 H        7.2340     1.5800     0.9990 H     1 <1>   0.0800 
 34 H        5.7000     4.0090     3.3660 H     1 <1>   0.1500 
 35 H        5.9680     6.4310     3.1820 H     1 <1>   0.1500 
 36 H        9.3900     2.5190    -1.5570 H     1 <1>   0.0800 
 37 H        9.7140     3.9490    -0.5790 H     1 <1>   0.0800 
 38 H        8.7860     4.0840    -2.0790 H     1 <1>   0.0800 
 39 H        7.0500     7.4110     1.2550 H     1 <1>   0.1500 
 40 H        8.6370     7.6210    -1.9800 H     1 <1>   0.0800 
 41 H        8.7730     7.8640    -0.2430 H     1 <1>   0.0800 
 42 H        7.1840     7.9040    -1.0300 H     1 <1>   0.0800 
@<TRIPOS>BOND
  1   1   2  ar  
  2   2   3  ar  
  3   2   4  1   
  4   4   5  1   
  5   4   6  1   
  6   4  22  1   
  7   5   7  1   
  8   5   8  1   
  9   5  23  1   
 10   6   9  1   
 11   6  24  1   
 12   6  25  1   
 13   7  26  1   
 14   8  10  1   
 15   8  27  1   
 16   8  28  1   
 17   9  10  1   
 18   9  29  1   
 19   9  30  1   
 20  10  11  1   
 21  10  31  1   
 22  11  12  1   
 23  11  32  1   
 24  11  33  1   
 25  12  13  ar  
 26  12  14  ar  
 27  13  15  1   
 28  13  16  ar  
 29  14  17  ar  
 30  14  34  1   
 31  15  18  1   
 32  16  19  1   
 33  16  20  ar  
 34  17  20  ar  
 35  17  35  1   
 36  18  36  1   
 37  18  37  1   
 38  18  38  1   
 39  19  21  1   
 40  20  39  1   
 41  21  40  1   
 42  21  41  1   
 43  21  42  1   
@<TRIPOS>SUBSTRUCTURE
  1 ****   9 GROUP 4 **** **** 0

# MOE 2024.06 (io_trps.svl 2023.06)
