@<TRIPOS>MOLECULE
NONAME
51 53 1 0 0 
SMALL
USER_CHARGES


@<TRIPOS>ATOM
  1 O        2.9650    -1.4790    -3.1450 O.2   1 <1>  -0.5700 
  2 C        2.1220    -1.0930    -2.3730 C.2   1 <1>   0.5690 
  3 N        2.4630    -0.2740    -1.3160 N.am  1 <1>  -0.6600 
  4 C        0.7000    -1.6050    -2.5970 C.3   1 <1>   0.0440 
  5 C        1.4560     0.3630    -0.3840 C.3   1 <1>   0.2200 
  6 C        3.9190     0.0140    -1.1020 C.3   1 <1>   0.1400 
  7 C        0.1690    -2.3260    -1.3620 C.ar  1 <1>  -0.1440 
  8 C        1.6740     1.8770    -0.2190 C.3   1 <1>   0.1200 
  9 C        1.4170    -0.3400     0.9980 C.3   1 <1>   0.3430 
 10 C        4.3020     0.5430     0.2920 C.3   1 <1>  -0.0800 
 11 C        0.9640    -3.2670    -0.7280 C.ar  1 <1>  -0.1500 
 12 C       -1.0820    -2.0310    -0.8410 C.ar  1 <1>  -0.1500 
 13 O        2.5730     2.1400     0.8150 O.3   1 <1>  -0.5600 
 14 N        2.6470    -1.1530     1.2870 N.4   1 <1>  -0.9590 
 15 C        3.9140     2.0160     0.4860 C.3   1 <1>   0.1200 
 16 C        3.8860    -0.3370     1.4880 C.3   1 <1>   0.3430 
 17 C        0.5460    -3.8610     0.4470 C.ar  1 <1>   0.0830 
 18 C       -1.5130    -2.6300     0.3310 C.ar  1 <1>  -0.1500 
 19 C        2.4130    -2.0670     2.4460 C.3   1 <1>   0.2630 
 20 O        1.4110    -4.7130     1.0490 O.3   1 <1>  -0.3630 
 21 C       -0.6940    -3.5330     1.0020 C.ar  1 <1>   0.0830 
 22 C        1.0360    -6.0740     1.0720 C.3   1 <1>   0.0400 
 23 O       -1.0400    -4.0850     2.1980 O.3   1 <1>  -0.3630 
 24 C       -2.3800    -4.0860     2.6420 C.3   1 <1>   0.0400 
 25 H        0.0700    -0.7780    -2.8670 H     1 <1>   0.0800 
 26 H        0.7040    -2.2920    -3.4240 H     1 <1>   0.0800 
 27 H        0.4790     0.2730    -0.8190 H     1 <1>   0.0800 
 28 H        4.4750    -0.8930    -1.2800 H     1 <1>   0.0800 
 29 H        4.2360     0.7210    -1.8510 H     1 <1>   0.0800 
 30 H        0.7440     2.3370     0.0660 H     1 <1>   0.0800 
 31 H        2.0090     2.3360    -1.1340 H     1 <1>   0.0800 
 32 H        0.5610    -0.9930     1.0080 H     1 <1>   0.0800 
 33 H        1.2680     0.3960     1.7710 H     1 <1>   0.0800 
 34 H        5.3780     0.5520     0.3030 H     1 <1>   0.0800 
 35 H        1.9210    -3.5440    -1.1360 H     1 <1>   0.1500 
 36 H       -1.7300    -1.3300    -1.3420 H     1 <1>   0.1500 
 37 H        2.7840    -1.7220     0.4350 H     1 <1>   0.4500 
 38 H        4.1200     2.6050    -0.3930 H     1 <1>   0.0800 
 39 H        4.4740     2.4350     1.3050 H     1 <1>   0.0800 
 40 H        3.7620     0.2930     2.3540 H     1 <1>   0.0800 
 41 H        4.6990    -1.0130     1.6970 H     1 <1>   0.0800 
 42 H       -2.4840    -2.3720     0.7110 H     1 <1>   0.1500 
 43 H        2.3400    -1.5020     3.3600 H     1 <1>   0.0800 
 44 H        3.2220    -2.7740     2.5350 H     1 <1>   0.0800 
 45 H        1.4970    -2.6190     2.3140 H     1 <1>   0.0800 
 46 H        1.8620    -6.6460     1.4550 H     1 <1>   0.0800 
 47 H        0.8040    -6.3900     0.0700 H     1 <1>   0.0800 
 48 H        0.1810    -6.1990     1.7110 H     1 <1>   0.0800 
 49 H       -2.4380    -4.6960     3.5260 H     1 <1>   0.0800 
 50 H       -3.0050    -4.5020     1.8710 H     1 <1>   0.0800 
 51 H       -2.6750    -3.0790     2.8770 H     1 <1>   0.0800 
@<TRIPOS>BOND
  1   1   2  2   
  2   2   3  am  
  3   2   4  1   
  4   3   5  1   
  5   3   6  1   
  6   4   7  1   
  7   4  25  1   
  8   4  26  1   
  9   5   8  1   
 10   5   9  1   
 11   5  27  1   
 12   6  10  1   
 13   6  28  1   
 14   6  29  1   
 15   7  11  ar  
 16   7  12  ar  
 17   8  13  1   
 18   8  30  1   
 19   8  31  1   
 20   9  14  1   
 21   9  32  1   
 22   9  33  1   
 23  10  15  1   
 24  10  16  1   
 25  10  34  1   
 26  11  17  ar  
 27  11  35  1   
 28  12  18  ar  
 29  12  36  1   
 30  13  15  1   
 31  14  16  1   
 32  14  19  1   
 33  14  37  1   
 34  15  38  1   
 35  15  39  1   
 36  16  40  1   
 37  16  41  1   
 38  17  20  1   
 39  17  21  ar  
 40  18  21  ar  
 41  18  42  1   
 42  19  43  1   
 43  19  44  1   
 44  19  45  1   
 45  20  22  1   
 46  21  23  1   
 47  22  46  1   
 48  22  47  1   
 49  22  48  1   
 50  23  24  1   
 51  24  49  1   
 52  24  50  1   
 53  24  51  1   
@<TRIPOS>SUBSTRUCTURE
  1 ****   9 GROUP 4 **** **** 0

# MOE 2024.06 (io_trps.svl 2023.06)
