@<TRIPOS>MOLECULE
NONAME
55 57 1 0 0 
SMALL
USER_CHARGES


@<TRIPOS>ATOM
  1 O       -2.0040    -0.3110     1.9450 O.2   1 <1>  -0.5700 
  2 C       -2.3260    -0.6500     0.8310 C.2   1 <1>   0.5690 
  3 N       -2.8260     0.2640    -0.0700 N.am  1 <1>  -0.6600 
  4 C       -2.1810    -2.1190     0.4430 C.3   1 <1>  -0.0990 
  5 C       -3.3950    -0.0700    -1.4010 C.3   1 <1>   0.1400 
  6 C       -2.8780     1.7110     0.2730 C.3   1 <1>   0.1400 
  7 C       -1.4800    -2.9950     1.4970 C.3   1 <1>  -0.1600 
  8 C       -4.8660     0.3520    -1.4180 C.3   1 <1>  -0.1600 
  9 C       -4.3400     2.1540     0.2960 C.3   1 <1>  -0.1600 
 10 C       -1.3540    -4.4490     1.0280 C.3   1 <1>  -0.2400 
 11 C       -5.0090     1.8340    -1.0490 C.3   1 <1>   0.4230 
 12 N       -6.4480     2.2300    -1.0780 N.4   1 <1>  -0.9590 
 13 C       -7.2720     1.6210     0.0200 C.3   1 <1>   0.3430 
 14 C       -6.6230     3.7100    -1.1040 C.3   1 <1>   0.3430 
 15 C       -8.7750     1.8590    -0.2220 C.3   1 <1>   0.0000 
 16 C       -8.0920     4.0520    -1.3660 C.3   1 <1>  -0.1600 
 17 C       -9.6160     1.2720     0.9260 C.3   1 <1>   0.2000 
 18 C       -9.0410     3.3780    -0.3580 C.3   1 <1>  -0.1600 
 19 C       -9.2880     1.0860    -1.4550 C.3   1 <1>  -0.1600 
 20 O       -9.0540     0.0710     1.3280 O.3   1 <1>  -0.6800 
 21 C      -10.9870     0.9800     0.3190 C.3   1 <1>  -0.1600 
 22 C      -10.7640     0.7740    -1.1850 C.3   1 <1>  -0.1600 
 23 H       -3.1630    -2.5170     0.2630 H     1 <1>   0.0800 
 24 H       -1.6170    -2.1710    -0.4700 H     1 <1>   0.0800 
 25 H       -2.8420     0.4570    -2.1620 H     1 <1>   0.0800 
 26 H       -3.3210    -1.1220    -1.6100 H     1 <1>   0.0800 
 27 H       -2.4280     1.8970     1.2350 H     1 <1>   0.0800 
 28 H       -2.3210     2.2690    -0.4610 H     1 <1>   0.0800 
 29 H       -0.4990    -2.5980     1.6970 H     1 <1>   0.0800 
 30 H       -2.0380    -2.9650     2.4180 H     1 <1>   0.0800 
 31 H       -5.3930    -0.2730    -0.7190 H     1 <1>   0.0800 
 32 H       -5.2620     0.1770    -2.4020 H     1 <1>   0.0800 
 33 H       -4.3690     3.2090     0.4940 H     1 <1>   0.0800 
 34 H       -4.8210     1.6360     1.1060 H     1 <1>   0.0800 
 35 H       -0.7750    -4.5050     0.1230 H     1 <1>   0.0800 
 36 H       -2.3260    -4.8730     0.8480 H     1 <1>   0.0800 
 37 H       -0.8610    -5.0350     1.7840 H     1 <1>   0.0800 
 38 H       -4.4890     2.3980    -1.8080 H     1 <1>   0.0800 
 39 H       -6.8460     1.8700    -1.9530 H     1 <1>   0.4500 
 40 H       -7.0980     0.5590     0.0740 H     1 <1>   0.0800 
 41 H       -6.9960     2.0480     0.9700 H     1 <1>   0.0800 
 42 H       -6.3220     4.1290    -0.1570 H     1 <1>   0.0800 
 43 H       -6.0110     4.1440    -1.8780 H     1 <1>   0.0800 
 44 H       -8.2160     5.1200    -1.3030 H     1 <1>   0.0800 
 45 H       -8.3500     3.7680    -2.3710 H     1 <1>   0.0800 
 46 H       -9.6770     1.9190     1.7860 H     1 <1>   0.0800 
 47 H      -10.0610     3.5590    -0.6530 H     1 <1>   0.0800 
 48 H       -8.9010     3.8450     0.6030 H     1 <1>   0.0800 
 49 H       -9.1680     1.6170    -2.3820 H     1 <1>   0.0800 
 50 H       -8.7650     0.1470    -1.5310 H     1 <1>   0.0800 
 51 H       -9.6690    -0.4050     1.9230 H     1 <1>   0.4000 
 52 H      -11.4680     0.1320     0.7760 H     1 <1>   0.0800 
 53 H      -11.6200     1.8390     0.4590 H     1 <1>   0.0800 
 54 H      -10.9930    -0.2380    -1.4720 H     1 <1>   0.0800 
 55 H      -11.4000     1.4410    -1.7440 H     1 <1>   0.0800 
@<TRIPOS>BOND
  1   1   2  2   
  2   2   3  am  
  3   2   4  1   
  4   3   5  1   
  5   3   6  1   
  6   4   7  1   
  7   4  23  1   
  8   4  24  1   
  9   5   8  1   
 10   5  25  1   
 11   5  26  1   
 12   6   9  1   
 13   6  27  1   
 14   6  28  1   
 15   7  10  1   
 16   7  29  1   
 17   7  30  1   
 18   8  11  1   
 19   8  31  1   
 20   8  32  1   
 21   9  11  1   
 22   9  33  1   
 23   9  34  1   
 24  10  35  1   
 25  10  36  1   
 26  10  37  1   
 27  11  12  1   
 28  11  38  1   
 29  12  13  1   
 30  12  14  1   
 31  12  39  1   
 32  13  15  1   
 33  13  40  1   
 34  13  41  1   
 35  14  16  1   
 36  14  42  1   
 37  14  43  1   
 38  15  17  1   
 39  15  18  1   
 40  15  19  1   
 41  16  18  1   
 42  16  44  1   
 43  16  45  1   
 44  17  20  1   
 45  17  21  1   
 46  17  46  1   
 47  18  47  1   
 48  18  48  1   
 49  19  22  1   
 50  19  49  1   
 51  19  50  1   
 52  20  51  1   
 53  21  22  1   
 54  21  52  1   
 55  21  53  1   
 56  22  54  1   
 57  22  55  1   
@<TRIPOS>SUBSTRUCTURE
  1 ****  13 GROUP 4 **** **** 0

# MOE 2024.06 (io_trps.svl 2023.06)
