@<TRIPOS>MOLECULE
NONAME
50 52 1 0 0 
SMALL
USER_CHARGES


@<TRIPOS>ATOM
  1 O        4.9110    -1.3380    -1.3500 O.2   1 <1>  -0.5700 
  2 C        3.9190    -1.1520    -0.6720 C.2   1 <1>   0.5440 
  3 N        2.9060    -0.4040    -1.2380 N.am  1 <1>  -0.6600 
  4 C        3.8910    -1.6000     0.7030 C.ar  1 <1>   0.0860 
  5 C        2.8730    -0.1840    -2.7270 C.3   1 <1>   0.1400 
  6 C        2.1180     0.5840    -0.4520 C.3   1 <1>   0.1400 
  7 C        5.0280    -1.4620     1.4940 C.ar  1 <1>   0.1600 
  8 C        2.7700    -2.1610     1.2990 C.ar  1 <1>  -0.1500 
  9 C        4.0030     0.7590    -3.2030 C.3   1 <1>   0.3430 
 10 C        2.9420     1.8570    -0.2020 C.3   1 <1>  -0.1600 
 11 N        5.1240    -1.7750     2.7760 N.ar  1 <1>  -0.6200 
 12 C        2.8440    -2.5130     2.6300 C.ar  1 <1>  -0.1430 
 13 N        4.5370     1.5750    -2.0710 N.4   1 <1>  -0.9590 
 14 C        3.5540     2.5040    -1.4510 C.3   1 <1>   0.3430 
 15 C        4.0320    -2.2950     3.3130 C.ar  1 <1>   0.1600 
 16 C        1.6480    -3.1280     3.3370 C.3   1 <1>  -0.0970 
 17 C        5.8840     2.1550    -2.2970 C.3   1 <1>   0.5230 
 18 C        6.4500     2.5440    -0.9440 C.2   1 <1>  -0.0400 
 19 O        6.4050     1.6560     0.0330 O.3   1 <1>  -0.2800 
 20 C        7.0050     3.6960    -0.5090 C.2   1 <1>  -0.1500 
 21 C        6.9250     2.2120     1.1100 C.2   1 <1>  -0.0400 
 22 C        7.3170     3.4760     0.8380 C.2   1 <1>  -0.1500 
 23 C        6.9920     1.3880     2.3870 C.3   1 <1>   0.0200 
 24 C        7.6350     2.1520     3.5490 C.3   1 <1>  -0.2400 
 25 H        1.9200     0.2230    -3.0140 H     1 <1>   0.0800 
 26 H        2.9770    -1.1320    -3.2270 H     1 <1>   0.0800 
 27 H        1.8230     0.1600     0.4930 H     1 <1>   0.0800 
 28 H        1.2140     0.8290    -0.9850 H     1 <1>   0.0800 
 29 H        5.9130    -1.0590     1.0300 H     1 <1>   0.1500 
 30 H        1.8700    -2.3160     0.7280 H     1 <1>   0.1500 
 31 H        3.6510     1.3890    -4.0020 H     1 <1>   0.0800 
 32 H        4.7970     0.1410    -3.5920 H     1 <1>   0.0800 
 33 H        3.7200     1.6470     0.5110 H     1 <1>   0.0800 
 34 H        2.2950     2.5800     0.2630 H     1 <1>   0.0800 
 35 H        4.7220     0.8590    -1.3440 H     1 <1>   0.4500 
 36 H        4.0510     3.4150    -1.1540 H     1 <1>   0.0800 
 37 H        2.7810     2.7580    -2.1580 H     1 <1>   0.0800 
 38 H        4.0890    -2.5640     4.3550 H     1 <1>   0.1500 
 39 H        0.9840    -3.5920     2.6300 H     1 <1>   0.0800 
 40 H        1.1070    -2.3690     3.8730 H     1 <1>   0.0800 
 41 H        1.9730    -3.8790     4.0360 H     1 <1>   0.0800 
 42 H        5.8300     3.0130    -2.9450 H     1 <1>   0.0800 
 43 H        6.5290     1.4150    -2.7420 H     1 <1>   0.0800 
 44 H        7.1910     4.6150    -1.0380 H     1 <1>   0.1500 
 45 H        7.7780     4.1940     1.4940 H     1 <1>   0.1500 
 46 H        7.5590     0.4940     2.1970 H     1 <1>   0.0800 
 47 H        5.9960     1.0950     2.6680 H     1 <1>   0.0800 
 48 H        8.6430     2.4330     3.2990 H     1 <1>   0.0800 
 49 H        7.6600     1.5290     4.4250 H     1 <1>   0.0800 
 50 H        7.0680     3.0380     3.7740 H     1 <1>   0.0800 
@<TRIPOS>BOND
  1   1   2  2   
  2   2   3  am  
  3   2   4  1   
  4   3   5  1   
  5   3   6  1   
  6   4   7  ar  
  7   4   8  ar  
  8   5   9  1   
  9   5  25  1   
 10   5  26  1   
 11   6  10  1   
 12   6  27  1   
 13   6  28  1   
 14   7  11  ar  
 15   7  29  1   
 16   8  12  ar  
 17   8  30  1   
 18   9  13  1   
 19   9  31  1   
 20   9  32  1   
 21  10  14  1   
 22  10  33  1   
 23  10  34  1   
 24  11  15  ar  
 25  12  15  ar  
 26  12  16  1   
 27  13  14  1   
 28  13  17  1   
 29  13  35  1   
 30  14  36  1   
 31  14  37  1   
 32  15  38  1   
 33  16  39  1   
 34  16  40  1   
 35  16  41  1   
 36  17  18  1   
 37  17  42  1   
 38  17  43  1   
 39  18  19  1   
 40  18  20  2   
 41  19  21  1   
 42  20  22  1   
 43  20  44  1   
 44  21  22  2   
 45  21  23  1   
 46  22  45  1   
 47  23  24  1   
 48  23  46  1   
 49  23  47  1   
 50  24  48  1   
 51  24  49  1   
 52  24  50  1   
@<TRIPOS>SUBSTRUCTURE
  1 ****   2 GROUP 4 **** **** 0

# MOE 2024.06 (io_trps.svl 2023.06)
