@<TRIPOS>MOLECULE
NONAME
46 48 1 0 0 
SMALL
USER_CHARGES


@<TRIPOS>ATOM
  1 S       -0.2130    -0.3180     1.4670 S.3   1 <1>  -0.0800 
  2 C        0.5720     0.8230     0.3970 C.2   1 <1>   0.1980 
  3 C       -1.7590     0.2310     0.8830 C.2   1 <1>  -0.1400 
  4 N       -0.2350     1.5180    -0.3020 N.2   1 <1>  -0.5650 
  5 C        2.0910     0.8480     0.4290 C.3   1 <1>   0.0200 
  6 C       -1.5530     1.1880    -0.0370 C.2   1 <1>   0.0460 
  7 C       -2.9960    -0.4130     1.4710 C.3   1 <1>   0.3200 
  8 C        2.6930     1.8850    -0.5330 C.3   1 <1>  -0.1600 
  9 C       -2.5990     1.9480    -0.8240 C.3   1 <1>  -0.0590 
 10 N       -3.0730    -1.8040     1.0060 N.am  1 <1>  -0.7300 
 11 C        4.2250     1.8870    -0.4800 C.3   1 <1>  -0.2400 
 12 C       -4.1900    -2.4450     0.5610 C.2   1 <1>   0.7160 
 13 O       -5.2570    -1.8590     0.6220 O.2   1 <1>  -0.5700 
 14 C       -4.0750    -3.7960     0.0320 C.2   1 <1>   0.2030 
 15 N       -2.9520    -4.4890    -0.0600 N.2   1 <1>  -0.7070 
 16 C       -5.1360    -4.5540    -0.4530 C.2   1 <1>  -0.1500 
 17 N       -3.2990    -5.6640    -0.5940 N.pl3 1 <1>   0.3140 
 18 C       -4.6260    -5.7500    -0.8470 C.2   1 <1>  -0.2370 
 19 C       -2.2780    -6.6950    -0.8250 C.3   1 <1>   0.0960 
 20 C       -5.3190    -6.8620    -1.4300 C.2   1 <1>   0.7150 
 21 C       -2.6990    -7.9880    -0.1320 C.3   1 <1>   0.2000 
 22 O       -6.4480    -6.7180    -1.8430 O.2   1 <1>  -0.5700 
 23 N       -4.8140    -8.1140    -1.5760 N.am  1 <1>  -0.7300 
 24 O       -1.5620    -8.7490     0.1120 O.3   1 <1>  -0.6800 
 25 C       -3.6710    -8.8420    -0.9610 C.3   1 <1>   0.1400 
 26 H        2.4510    -0.1310     0.1700 H     1 <1>   0.0800 
 27 H        2.4050     1.0680     1.4330 H     1 <1>   0.0800 
 28 H       -3.8770     0.1260     1.1670 H     1 <1>   0.0800 
 29 H       -2.9410    -0.3970     2.5450 H     1 <1>   0.0800 
 30 H        2.3240     2.8630    -0.2750 H     1 <1>   0.0800 
 31 H        2.3690     1.6660    -1.5360 H     1 <1>   0.0800 
 32 H       -3.5890     1.6130    -0.5780 H     1 <1>   0.0800 
 33 H       -2.4340     1.7970    -1.8750 H     1 <1>   0.0800 
 34 H       -2.5190     2.9970    -0.6080 H     1 <1>   0.0800 
 35 H       -2.1840    -2.2960     0.8830 H     1 <1>   0.3700 
 36 H        4.5690     2.1270     0.5110 H     1 <1>   0.0800 
 37 H        4.6140     2.6220    -1.1630 H     1 <1>   0.0800 
 38 H        4.6130     0.9230    -0.7600 H     1 <1>   0.0800 
 39 H       -6.1620    -4.2290    -0.5000 H     1 <1>   0.1500 
 40 H       -1.3540    -6.3400    -0.4050 H     1 <1>   0.0800 
 41 H       -2.1620    -6.8370    -1.8820 H     1 <1>   0.0800 
 42 H       -3.1290    -7.7670     0.8310 H     1 <1>   0.0800 
 43 H       -5.4840    -8.7230    -2.0520 H     1 <1>   0.3700 
 44 H       -1.0740    -8.9530    -0.7110 H     1 <1>   0.4000 
 45 H       -4.0650    -9.6180    -0.3260 H     1 <1>   0.0800 
 46 H       -3.1230    -9.3140    -1.7590 H     1 <1>   0.0800 
@<TRIPOS>BOND
  1   1   2  1   
  2   1   3  1   
  3   2   4  2   
  4   2   5  1   
  5   3   6  2   
  6   3   7  1   
  7   4   6  1   
  8   5   8  1   
  9   5  26  1   
 10   5  27  1   
 11   6   9  1   
 12   7  10  1   
 13   7  28  1   
 14   7  29  1   
 15   8  11  1   
 16   8  30  1   
 17   8  31  1   
 18   9  32  1   
 19   9  33  1   
 20   9  34  1   
 21  10  12  am  
 22  10  35  1   
 23  11  36  1   
 24  11  37  1   
 25  11  38  1   
 26  12  13  2   
 27  12  14  1   
 28  14  15  2   
 29  14  16  1   
 30  15  17  1   
 31  16  18  2   
 32  16  39  1   
 33  17  18  1   
 34  17  19  1   
 35  18  20  1   
 36  19  21  1   
 37  19  40  1   
 38  19  41  1   
 39  20  22  2   
 40  20  23  am  
 41  21  24  1   
 42  21  25  1   
 43  21  42  1   
 44  23  25  1   
 45  23  43  1   
 46  24  44  1   
 47  25  45  1   
 48  25  46  1   
@<TRIPOS>SUBSTRUCTURE
  1 ****  15 GROUP 4 **** **** 0

# MOE 2024.06 (io_trps.svl 2023.06)
