@<TRIPOS>MOLECULE
NONAME
43 45 1 0 0 
SMALL
USER_CHARGES


@<TRIPOS>ATOM
  1 F       -0.6250     2.3600    -2.7100 F     1 <1>  -0.1900 
  2 C       -1.1420     1.9200    -1.5850 C.ar  1 <1>   0.1900 
  3 C       -1.8110     2.8090    -0.7510 C.ar  1 <1>   0.1000 
  4 C       -1.0010     0.5860    -1.2580 C.ar  1 <1>   0.1600 
  5 N       -1.9720     4.1610    -1.0460 N.pl3 1 <1>  -0.8690 
  6 C       -2.3210     2.2330     0.4010 C.ar  1 <1>  -0.1500 
  7 N       -1.4820     0.0420    -0.1440 N.ar  1 <1>  -0.6200 
  8 C       -1.5870     5.1990    -0.0750 C.3   1 <1>   0.2890 
  9 C       -2.1330     0.8830     0.6510 C.ar  1 <1>   0.1600 
 10 C       -2.4910     6.4130    -0.2730 C.3   1 <1>  -0.1600 
 11 C       -0.1190     5.5640    -0.2970 C.3   1 <1>  -0.1600 
 12 C       -2.0640     7.5580     0.6460 C.3   1 <1>   0.1400 
 13 C        0.3010     6.7150     0.6190 C.3   1 <1>   0.1400 
 14 N       -0.6230     7.8680     0.4220 N.am  1 <1>  -0.6600 
 15 C       -0.2160     9.0940    -0.0720 C.2   1 <1>   0.5440 
 16 O       -1.0540     9.8670    -0.4960 O.2   1 <1>  -0.5700 
 17 C        1.1820     9.4790    -0.1110 C.ar  1 <1>   0.0860 
 18 C        1.9650     9.5060     1.0420 C.ar  1 <1>  -0.1500 
 19 C        1.7910     9.8390    -1.3110 C.ar  1 <1>  -0.1500 
 20 C        3.3020     9.8560     0.9960 C.ar  1 <1>  -0.1500 
 21 C        3.1280    10.1900    -1.3630 C.ar  1 <1>  -0.1500 
 22 C        3.8930    10.1970    -0.2080 C.ar  1 <1>  -0.1430 
 23 C        5.3600    10.5840    -0.2630 C.3   1 <1>  -0.0970 
 24 H       -0.4720    -0.0580    -1.9370 H     1 <1>   0.1500 
 25 H       -1.6800     4.4180    -1.9960 H     1 <1>   0.4000 
 26 H       -2.8730     2.8340     1.0960 H     1 <1>   0.1500 
 27 H       -1.7110     4.8270     0.9280 H     1 <1>   0.0800 
 28 H       -2.5420     0.4670     1.5560 H     1 <1>   0.1500 
 29 H       -3.5080     6.1420    -0.0550 H     1 <1>   0.0800 
 30 H       -2.4400     6.7530    -1.2920 H     1 <1>   0.0800 
 31 H        0.0370     5.8620    -1.3180 H     1 <1>   0.0800 
 32 H        0.4980     4.7080    -0.0930 H     1 <1>   0.0800 
 33 H       -2.2060     7.2780     1.6750 H     1 <1>   0.0800 
 34 H       -2.6780     8.4220     0.4540 H     1 <1>   0.0800 
 35 H        1.3160     6.9880     0.3920 H     1 <1>   0.0800 
 36 H        0.2580     6.4030     1.6480 H     1 <1>   0.0800 
 37 H        1.5120     9.2510     1.9840 H     1 <1>   0.1500 
 38 H        1.1990     9.8440    -2.2100 H     1 <1>   0.1500 
 39 H        3.8810     9.8670     1.9040 H     1 <1>   0.1500 
 40 H        3.5690    10.4620    -2.3060 H     1 <1>   0.1500 
 41 H        5.9110    10.0870     0.5150 H     1 <1>   0.0800 
 42 H        5.4600    11.6470    -0.1350 H     1 <1>   0.0800 
 43 H        5.7880    10.3070    -1.2100 H     1 <1>   0.0800 
@<TRIPOS>BOND
  1   1   2  1   
  2   2   3  ar  
  3   2   4  ar  
  4   3   5  1   
  5   3   6  ar  
  6   4   7  ar  
  7   4  24  1   
  8   5   8  1   
  9   5  25  1   
 10   6   9  ar  
 11   6  26  1   
 12   7   9  ar  
 13   8  10  1   
 14   8  11  1   
 15   8  27  1   
 16   9  28  1   
 17  10  12  1   
 18  10  29  1   
 19  10  30  1   
 20  11  13  1   
 21  11  31  1   
 22  11  32  1   
 23  12  14  1   
 24  12  33  1   
 25  12  34  1   
 26  13  14  1   
 27  13  35  1   
 28  13  36  1   
 29  14  15  am  
 30  15  16  2   
 31  15  17  1   
 32  17  18  ar  
 33  17  19  ar  
 34  18  20  ar  
 35  18  37  1   
 36  19  21  ar  
 37  19  38  1   
 38  20  22  ar  
 39  20  39  1   
 40  21  22  ar  
 41  21  40  1   
 42  22  23  1   
 43  23  41  1   
 44  23  42  1   
 45  23  43  1   
@<TRIPOS>SUBSTRUCTURE
  1 ****  11 GROUP 4 **** **** 0

# MOE 2024.06 (io_trps.svl 2023.06)
