@<TRIPOS>MOLECULE
NONAME
46 48 1 0 0 
SMALL
USER_CHARGES


@<TRIPOS>ATOM
  1 O        2.0690    -0.0500     2.0850 O.3   1 <1>  -0.6800 
  2 C        1.6910    -0.0910     0.7450 C.3   1 <1>   0.2000 
  3 C        2.0870    -1.4280     0.1110 C.3   1 <1>  -0.0800 
  4 C        2.4960     0.9530    -0.0420 C.3   1 <1>   0.2090 
  5 C        3.5330    -1.2100    -0.3290 C.3   1 <1>   0.2090 
  6 C        1.8970    -2.6790     0.9880 C.3   1 <1>  -0.0170 
  7 N        3.6170     0.2250    -0.7090 N.pl3 1 <1>  -0.8380 
  8 C        2.2820    -3.9390     0.2280 C.ar  1 <1>  -0.1440 
  9 C        4.8510     0.8480    -0.8580 C.ar  1 <1>   0.4100 
 10 C        1.4040    -4.5710    -0.6280 C.ar  1 <1>  -0.1500 
 11 C        3.5330    -4.5100     0.3500 C.ar  1 <1>  -0.1500 
 12 N        5.8670     0.2900    -0.2020 N.ar  1 <1>  -0.6200 
 13 C        5.0010     1.9910    -1.6610 C.ar  1 <1>   0.0730 
 14 C        1.8070    -5.7120    -1.3030 C.ar  1 <1>   0.1600 
 15 C        3.8370    -5.6530    -0.3720 C.ar  1 <1>   0.1600 
 16 C        7.0540     0.8600    -0.3060 C.ar  1 <1>   0.1670 
 17 C        3.8970     2.5480    -2.3780 C.1   1 <1>   0.4840 
 18 C        6.2500     2.5750    -1.7590 C.ar  1 <1>  -0.1500 
 19 N        3.0030    -6.2670    -1.1960 N.ar  1 <1>  -0.6200 
 20 C        7.2890     1.9950    -1.0650 C.ar  1 <1>  -0.1500 
 21 C        8.1940     0.1980     0.4710 C.3   1 <1>   0.0630 
 22 N        3.0280     3.0320    -2.9380 N.1   1 <1>  -0.5570 
 23 C        8.7520     1.1320     1.5520 C.3   1 <1>  -0.2400 
 24 C        9.3140    -0.2810    -0.4640 C.3   1 <1>  -0.2400 
 25 H        1.5640    -0.6990     2.6090 H     1 <1>   0.4000 
 26 H        0.6340     0.1010     0.6900 H     1 <1>   0.0800 
 27 H        1.5050    -1.5480    -0.7860 H     1 <1>   0.0800 
 28 H        2.8640     1.7300     0.6060 H     1 <1>   0.0800 
 29 H        1.8670     1.3860    -0.8000 H     1 <1>   0.0800 
 30 H        3.7970    -1.8400    -1.1610 H     1 <1>   0.0800 
 31 H        4.1950    -1.4090     0.4970 H     1 <1>   0.0800 
 32 H        0.8690    -2.7520     1.2960 H     1 <1>   0.0800 
 33 H        2.5030    -2.6070     1.8750 H     1 <1>   0.0800 
 34 H        0.4110    -4.1900    -0.7780 H     1 <1>   0.1500 
 35 H        4.2760    -4.0780     0.9950 H     1 <1>   0.1500 
 36 H        1.1090    -6.1920    -1.9670 H     1 <1>   0.1500 
 37 H        4.8180    -6.0830    -0.2660 H     1 <1>   0.1500 
 38 H        6.4090     3.4540    -2.3590 H     1 <1>   0.1500 
 39 H        8.2730     2.4220    -1.1160 H     1 <1>   0.1500 
 40 H        7.7930    -0.6710     0.9680 H     1 <1>   0.0800 
 41 H        9.2070     2.0020     1.1140 H     1 <1>   0.0800 
 42 H        9.4890     0.6180     2.1440 H     1 <1>   0.0800 
 43 H        7.9560     1.4510     2.2020 H     1 <1>   0.0800 
 44 H        9.7910     0.5490    -0.9510 H     1 <1>   0.0800 
 45 H        8.9050    -0.9340    -1.2150 H     1 <1>   0.0800 
 46 H       10.0540    -0.8250     0.0940 H     1 <1>   0.0800 
@<TRIPOS>BOND
  1   1   2  1   
  2   1  25  1   
  3   2   3  1   
  4   2   4  1   
  5   2  26  1   
  6   3   5  1   
  7   3   6  1   
  8   3  27  1   
  9   4   7  1   
 10   4  28  1   
 11   4  29  1   
 12   5   7  1   
 13   5  30  1   
 14   5  31  1   
 15   6   8  1   
 16   6  32  1   
 17   6  33  1   
 18   7   9  1   
 19   8  10  ar  
 20   8  11  ar  
 21   9  12  ar  
 22   9  13  ar  
 23  10  14  ar  
 24  10  34  1   
 25  11  15  ar  
 26  11  35  1   
 27  12  16  ar  
 28  13  17  1   
 29  13  18  ar  
 30  14  19  ar  
 31  14  36  1   
 32  15  19  ar  
 33  15  37  1   
 34  16  20  ar  
 35  16  21  1   
 36  17  22  3   
 37  18  20  ar  
 38  18  38  1   
 39  20  39  1   
 40  21  23  1   
 41  21  24  1   
 42  21  40  1   
 43  23  41  1   
 44  23  42  1   
 45  23  43  1   
 46  24  44  1   
 47  24  45  1   
 48  24  46  1   
@<TRIPOS>SUBSTRUCTURE
  1 ****   5 GROUP 4 **** **** 0

# MOE 2024.06 (io_trps.svl 2023.06)
