@<TRIPOS>MOLECULE
NONAME
43 44 1 0 0 
SMALL
USER_CHARGES


@<TRIPOS>ATOM
  1 CL      -0.3630    -0.8100     1.6820 Cl    1 <1>  -0.1770 
  2 C       -1.6580    -1.4080     0.6610 C.ar  1 <1>   0.1770 
  3 C       -2.2820    -0.6520    -0.3420 C.ar  1 <1>   0.0820 
  4 C       -2.0470    -2.7090     0.9110 C.ar  1 <1>  -0.1500 
  5 O       -2.0220     0.6290    -0.7080 O.3   1 <1>  -0.3630 
  6 C       -3.2930    -1.2600    -1.0720 C.ar  1 <1>  -0.1500 
  7 C       -3.0690    -3.3150     0.1860 C.ar  1 <1>   0.0860 
  8 C       -1.0230     1.4440    -0.1440 C.3   1 <1>   0.1200 
  9 C       -3.6770    -2.5630    -0.8180 C.ar  1 <1>  -0.1500 
 10 C       -3.4690    -4.6760     0.4720 C.2   1 <1>   0.5440 
 11 C       -1.0490     2.7940    -0.8620 C.3   1 <1>  -0.1600 
 12 O       -2.7050    -5.5860     0.2000 O.2   1 <1>  -0.5700 
 13 N       -4.6870    -4.9860     1.0360 N.am  1 <1>  -0.6600 
 14 C        0.0140     3.7440    -0.3000 C.3   1 <1>  -0.2400 
 15 C       -5.0310    -6.4030     1.3660 C.3   1 <1>   0.3200 
 16 C       -5.7670    -3.9880     1.3050 C.3   1 <1>   0.1400 
 17 C       -5.5240    -7.1270     0.1260 C.2   1 <1>   0.0060 
 18 C       -6.8750    -4.0780     0.2480 C.3   1 <1>   0.1200 
 19 N       -6.7210    -7.5930    -0.0420 N.2   1 <1>  -0.5650 
 20 N       -4.7080    -7.3340    -0.9280 N.pl3 1 <1>   0.0330 
 21 O       -7.7570    -3.0220     0.4260 O.3   1 <1>  -0.6800 
 22 C       -6.6810    -8.1360    -1.2750 C.2   1 <1>   0.0770 
 23 C       -5.4590    -7.9860    -1.8330 C.2   1 <1>  -0.3020 
 24 H       -1.5490    -3.2700     1.6820 H     1 <1>   0.1500 
 25 H       -3.7810    -0.6960    -1.8490 H     1 <1>   0.1500 
 26 H       -0.0710     0.9620    -0.2830 H     1 <1>   0.0800 
 27 H       -1.2370     1.5710     0.9030 H     1 <1>   0.0800 
 28 H       -4.4600    -3.0080    -1.4070 H     1 <1>   0.1500 
 29 H       -2.0220     3.2390    -0.7410 H     1 <1>   0.0800 
 30 H       -0.8680     2.6390    -1.9110 H     1 <1>   0.0800 
 31 H       -0.1570     3.9250     0.7470 H     1 <1>   0.0800 
 32 H       -0.0230     4.6850    -0.8200 H     1 <1>   0.0800 
 33 H        0.9980     3.3250    -0.4240 H     1 <1>   0.0800 
 34 H       -5.7940    -6.4330     2.1240 H     1 <1>   0.0800 
 35 H       -4.1630    -6.9080     1.7530 H     1 <1>   0.0800 
 36 H       -5.3590    -2.9930     1.3020 H     1 <1>   0.0800 
 37 H       -6.1830    -4.1720     2.2800 H     1 <1>   0.0800 
 38 H       -7.4260    -4.9990     0.3280 H     1 <1>   0.0800 
 39 H       -6.4600    -3.9940    -0.7400 H     1 <1>   0.0800 
 40 H       -3.7300    -7.0150    -0.9820 H     1 <1>   0.2700 
 41 H       -8.3870    -3.2140     1.1480 H     1 <1>   0.4000 
 42 H       -7.5470    -8.6120    -1.7040 H     1 <1>   0.1500 
 43 H       -5.0930    -8.2970    -2.7940 H     1 <1>   0.1500 
@<TRIPOS>BOND
  1   1   2  1   
  2   2   3  ar  
  3   2   4  ar  
  4   3   5  1   
  5   3   6  ar  
  6   4   7  ar  
  7   4  24  1   
  8   5   8  1   
  9   6   9  ar  
 10   6  25  1   
 11   7   9  ar  
 12   7  10  1   
 13   8  11  1   
 14   8  26  1   
 15   8  27  1   
 16   9  28  1   
 17  10  12  2   
 18  10  13  am  
 19  11  14  1   
 20  11  29  1   
 21  11  30  1   
 22  13  15  1   
 23  13  16  1   
 24  14  31  1   
 25  14  32  1   
 26  14  33  1   
 27  15  17  1   
 28  15  34  1   
 29  15  35  1   
 30  16  18  1   
 31  16  36  1   
 32  16  37  1   
 33  17  19  2   
 34  17  20  1   
 35  18  21  1   
 36  18  38  1   
 37  18  39  1   
 38  19  22  1   
 39  20  23  1   
 40  20  40  1   
 41  21  41  1   
 42  22  23  2   
 43  22  42  1   
 44  23  43  1   
@<TRIPOS>SUBSTRUCTURE
  1 ****   7 GROUP 4 **** **** 0

# MOE 2024.06 (io_trps.svl 2023.06)
