@<TRIPOS>MOLECULE
NONAME
45 47 1 0 0 
SMALL
USER_CHARGES


@<TRIPOS>ATOM
  1 O        0.8330    -3.8660     1.4700 O.3   1 <1>  -0.6800 
  2 C        0.5330    -2.5490     1.1580 C.3   1 <1>   0.2000 
  3 C        1.6000    -2.0100     0.1870 C.3   1 <1>   0.0000 
  4 C       -0.7850    -2.5280     0.3840 C.3   1 <1>  -0.1600 
  5 C        3.0020    -2.5620     0.5520 C.3   1 <1>   0.3430 
  6 C        1.6050    -0.4620     0.2010 C.3   1 <1>  -0.1600 
  7 C        1.1120    -2.5440    -1.1780 C.3   1 <1>  -0.1600 
  8 C       -0.4180    -2.5870    -1.1040 C.3   1 <1>  -0.1600 
  9 N        4.1350    -1.6060     0.2820 N.4   1 <1>  -0.9590 
 10 C        2.6970     0.1290    -0.7150 C.3   1 <1>  -0.1600 
 11 C        3.8900    -0.8070    -0.9490 C.3   1 <1>   0.3430 
 12 C        5.4290    -2.3540     0.2540 C.3   1 <1>   0.3430 
 13 C        6.6380    -1.4200     0.3440 C.3   1 <1>  -0.0170 
 14 C        7.8970    -2.2630     0.3990 C.ar  1 <1>  -0.1440 
 15 C        8.5450    -2.6310    -0.7720 C.ar  1 <1>  -0.1500 
 16 C        8.4060    -2.6810     1.6190 C.ar  1 <1>  -0.1500 
 17 C        9.6860    -3.4120    -0.7210 C.ar  1 <1>  -0.1500 
 18 C        9.5470    -3.4630     1.6690 C.ar  1 <1>  -0.1500 
 19 C       10.1870    -3.8300     0.4980 C.ar  1 <1>  -0.1500 
 20 H        0.0640    -4.2920     1.9010 H     1 <1>   0.4000 
 21 H        0.4750    -1.9920     2.0790 H     1 <1>   0.0800 
 22 H       -1.4430    -3.3310     0.6700 H     1 <1>   0.0800 
 23 H       -1.2880    -1.5970     0.5780 H     1 <1>   0.0800 
 24 H        3.1540    -3.4800     0.0090 H     1 <1>   0.0800 
 25 H        3.0070    -2.8150     1.6000 H     1 <1>   0.0800 
 26 H        0.6450    -0.0690    -0.0900 H     1 <1>   0.0800 
 27 H        1.7870    -0.1290     1.2090 H     1 <1>   0.0800 
 28 H        1.4420    -1.9600    -2.0180 H     1 <1>   0.0800 
 29 H        1.4610    -3.5540    -1.3130 H     1 <1>   0.0800 
 30 H       -0.7920    -3.4900    -1.5570 H     1 <1>   0.0800 
 31 H       -0.8440    -1.7430    -1.6200 H     1 <1>   0.0800 
 32 H        4.1540    -0.9450     1.0690 H     1 <1>   0.4500 
 33 H        3.0470     1.0580    -0.2990 H     1 <1>   0.0800 
 34 H        2.2700     0.3640    -1.6750 H     1 <1>   0.0800 
 35 H        4.7570    -0.2240    -1.2110 H     1 <1>   0.0800 
 36 H        3.6700    -1.4740    -1.7680 H     1 <1>   0.0800 
 37 H        5.4690    -3.0340     1.0900 H     1 <1>   0.0800 
 38 H        5.4970    -2.9410    -0.6470 H     1 <1>   0.0800 
 39 H        6.6880    -0.7730    -0.5130 H     1 <1>   0.0800 
 40 H        6.5770    -0.8160     1.2310 H     1 <1>   0.0800 
 41 H        8.1760    -2.3140    -1.7310 H     1 <1>   0.1500 
 42 H        7.9270    -2.4040     2.5420 H     1 <1>   0.1500 
 43 H       10.1880    -3.6950    -1.6310 H     1 <1>   0.1500 
 44 H        9.9410    -3.7860     2.6170 H     1 <1>   0.1500 
 45 H       11.0750    -4.4370     0.5370 H     1 <1>   0.1500 
@<TRIPOS>BOND
  1   1   2  1   
  2   1  20  1   
  3   2   3  1   
  4   2   4  1   
  5   2  21  1   
  6   3   5  1   
  7   3   6  1   
  8   3   7  1   
  9   4   8  1   
 10   4  22  1   
 11   4  23  1   
 12   5   9  1   
 13   5  24  1   
 14   5  25  1   
 15   6  10  1   
 16   6  26  1   
 17   6  27  1   
 18   7   8  1   
 19   7  28  1   
 20   7  29  1   
 21   8  30  1   
 22   8  31  1   
 23   9  11  1   
 24   9  12  1   
 25   9  32  1   
 26  10  11  1   
 27  10  33  1   
 28  10  34  1   
 29  11  35  1   
 30  11  36  1   
 31  12  13  1   
 32  12  37  1   
 33  12  38  1   
 34  13  14  1   
 35  13  39  1   
 36  13  40  1   
 37  14  15  ar  
 38  14  16  ar  
 39  15  17  ar  
 40  15  41  1   
 41  16  18  ar  
 42  16  42  1   
 43  17  19  ar  
 44  17  43  1   
 45  18  19  ar  
 46  18  44  1   
 47  19  45  1   
@<TRIPOS>SUBSTRUCTURE
  1 ****   9 GROUP 4 **** **** 0

# MOE 2024.06 (io_trps.svl 2023.06)
