@<TRIPOS>MOLECULE
NONAME
52 54 1 0 0 
SMALL
USER_CHARGES


@<TRIPOS>ATOM
  1 CL      -0.4290    -0.7900    -1.4280 Cl    1 <1>  -0.1770 
  2 C       -1.7680    -1.3940    -0.4870 C.ar  1 <1>   0.1770 
  3 C       -1.9550    -2.7590    -0.3750 C.ar  1 <1>  -0.1500 
  4 C       -2.6210    -0.4980     0.1300 C.ar  1 <1>  -0.1500 
  5 C       -3.0180    -3.2460     0.3710 C.ar  1 <1>  -0.1440 
  6 C       -3.6820    -0.9830     0.8750 C.ar  1 <1>  -0.1500 
  7 C       -3.8770    -2.3500     0.9930 C.ar  1 <1>  -0.1500 
  8 C       -3.2500    -4.7420     0.5050 C.3   1 <1>  -0.0160 
  9 C       -4.3060    -5.2000    -0.5030 C.3   1 <1>   0.1400 
 10 N       -4.5410    -6.6640    -0.3820 N.am  1 <1>  -0.7300 
 11 C       -5.5030    -7.2080     0.4190 C.2   1 <1>   0.5690 
 12 O       -6.2060    -6.5210     1.1170 O.2   1 <1>  -0.5700 
 13 C       -5.7460    -8.7270     0.4290 C.3   1 <1>   0.4040 
 14 N       -6.6440    -9.2850    -0.6750 N.4   1 <1>  -0.9590 
 15 C       -8.0730    -8.8260    -0.6890 C.3   1 <1>   0.4230 
 16 C       -6.6070   -10.7800    -0.6410 C.3   1 <1>   0.2630 
 17 C       -8.7450    -8.6830     0.6760 C.3   1 <1>  -0.1600 
 18 C       -8.2640    -7.4830    -1.3860 C.3   1 <1>  -0.1600 
 19 C       -9.9510    -7.7720     0.4140 C.3   1 <1>  -0.0800 
 20 C       -9.5810    -6.9220    -0.8280 C.3   1 <1>  -0.0800 
 21 C      -10.3860    -6.9770     1.6660 C.3   1 <1>   0.1400 
 22 C       -9.5120    -5.4070    -0.5460 C.3   1 <1>  -0.0990 
 23 N      -11.1220    -5.7640     1.2600 N.am  1 <1>  -0.7300 
 24 C      -10.7270    -4.9710     0.2430 C.2   1 <1>   0.5690 
 25 O      -11.3120    -3.9560    -0.0330 O.2   1 <1>  -0.5700 
 26 H       -1.2680    -3.4220    -0.8690 H     1 <1>   0.1500 
 27 H       -2.4540     0.5580     0.0270 H     1 <1>   0.1500 
 28 H       -4.3560    -0.2990     1.3620 H     1 <1>   0.1500 
 29 H       -4.7070    -2.7130     1.5770 H     1 <1>   0.1500 
 30 H       -3.5880    -4.9590     1.5030 H     1 <1>   0.0800 
 31 H       -2.3280    -5.2680     0.3360 H     1 <1>   0.0800 
 32 H       -3.9800    -4.9670    -1.5030 H     1 <1>   0.0800 
 33 H       -5.2250    -4.6660    -0.3200 H     1 <1>   0.0800 
 34 H       -3.8680    -7.2390    -0.8960 H     1 <1>   0.3700 
 35 H       -6.1640    -8.9780     1.3890 H     1 <1>   0.0800 
 36 H       -4.7830    -9.2030     0.3720 H     1 <1>   0.0800 
 37 H       -6.2490    -8.9750    -1.5730 H     1 <1>   0.4500 
 38 H       -8.6570    -9.5380    -1.2520 H     1 <1>   0.0800 
 39 H       -7.0300   -11.1450     0.2810 H     1 <1>   0.0800 
 40 H       -5.5910   -11.1350    -0.7190 H     1 <1>   0.0800 
 41 H       -7.1740   -11.1880    -1.4630 H     1 <1>   0.0800 
 42 H       -9.0590    -9.6340     1.0680 H     1 <1>   0.0800 
 43 H       -8.1060    -8.1960     1.3870 H     1 <1>   0.0800 
 44 H       -7.4650    -6.8020    -1.1720 H     1 <1>   0.0800 
 45 H       -8.3340    -7.6090    -2.4520 H     1 <1>   0.0800 
 46 H      -10.7820    -8.3980     0.1330 H     1 <1>   0.0800 
 47 H      -10.3590    -7.0710    -1.5610 H     1 <1>   0.0800 
 48 H       -9.5250    -6.6670     2.2350 H     1 <1>   0.0800 
 49 H      -11.0090    -7.5880     2.2970 H     1 <1>   0.0800 
 50 H       -9.4690    -4.8550    -1.4670 H     1 <1>   0.0800 
 51 H       -8.6420    -5.1670     0.0370 H     1 <1>   0.0800 
 52 H      -11.9090    -5.4440     1.8290 H     1 <1>   0.3700 
@<TRIPOS>BOND
  1   1   2  1   
  2   2   3  ar  
  3   2   4  ar  
  4   3   5  ar  
  5   3  26  1   
  6   4   6  ar  
  7   4  27  1   
  8   5   7  ar  
  9   5   8  1   
 10   6   7  ar  
 11   6  28  1   
 12   7  29  1   
 13   8   9  1   
 14   8  30  1   
 15   8  31  1   
 16   9  10  1   
 17   9  32  1   
 18   9  33  1   
 19  10  11  am  
 20  10  34  1   
 21  11  12  2   
 22  11  13  1   
 23  13  14  1   
 24  13  35  1   
 25  13  36  1   
 26  14  15  1   
 27  14  16  1   
 28  14  37  1   
 29  15  17  1   
 30  15  18  1   
 31  15  38  1   
 32  16  39  1   
 33  16  40  1   
 34  16  41  1   
 35  17  19  1   
 36  17  42  1   
 37  17  43  1   
 38  18  20  1   
 39  18  44  1   
 40  18  45  1   
 41  19  20  1   
 42  19  21  1   
 43  19  46  1   
 44  20  22  1   
 45  20  47  1   
 46  21  23  1   
 47  21  48  1   
 48  21  49  1   
 49  22  24  1   
 50  22  50  1   
 51  22  51  1   
 52  23  24  am  
 53  23  52  1   
 54  24  25  2   
@<TRIPOS>SUBSTRUCTURE
  1 ****  12 GROUP 4 **** **** 0

# MOE 2024.06 (io_trps.svl 2023.06)
