@<TRIPOS>MOLECULE
NONAME
41 42 1 0 0 
SMALL
USER_CHARGES


@<TRIPOS>ATOM
  1 O       -0.0720     0.1080    -0.4140 O.2   1 <1>  -0.5700 
  2 C        1.0400    -0.3380    -0.5970 C.2   1 <1>   0.5690 
  3 N        2.1640     0.4440    -0.5620 N.am  1 <1>  -0.4930 
  4 C        1.1330    -1.8620    -0.8800 C.3   1 <1>   0.4840 
  5 C        2.2560     1.8360    -0.3100 C.2   1 <1>   0.0630 
  6 N       -0.1170    -2.5820    -0.4310 N.4   1 <1>  -0.9590 
  7 C        2.3790    -2.5230    -0.2680 C.3   1 <1>  -0.2400 
  8 C        1.2490     2.7740    -0.0730 C.2   1 <1>   0.1390 
  9 C        3.3990     2.5480    -0.2500 C.2   1 <1>  -0.3020 
 10 C       -0.3070    -2.7150     1.0340 C.3   1 <1>   0.3430 
 11 C       -0.3710    -3.9140    -1.0300 C.3   1 <1>   0.3430 
 12 N        1.7240     3.9680     0.1200 N.2   1 <1>  -0.7070 
 13 N        3.0590     3.8330     0.0100 N.pl3 1 <1>   0.3140 
 14 C       -1.4580    -3.7000     1.1550 C.3   1 <1>  -0.1600 
 15 C       -1.4060    -4.5590    -0.1140 C.3   1 <1>  -0.1600 
 16 C        3.9760     4.9960     0.1680 C.3   1 <1>   0.1760 
 17 C        4.7620     5.2490    -1.1260 C.3   1 <1>  -0.2400 
 18 C        4.9240     4.7860     1.3560 C.3   1 <1>  -0.2400 
 19 H        3.0720     0.0090    -0.7240 H     1 <1>   0.3700 
 20 H        1.1990    -1.9620    -1.9510 H     1 <1>   0.0800 
 21 H       -0.8850    -1.9520    -0.7230 H     1 <1>   0.4500 
 22 H        2.4490    -2.3180     0.7850 H     1 <1>   0.0800 
 23 H        3.2640    -2.1330    -0.7380 H     1 <1>   0.0800 
 24 H        2.3750    -3.5850    -0.4270 H     1 <1>   0.0800 
 25 H        0.1970     2.5510    -0.0500 H     1 <1>   0.1500 
 26 H        4.4180     2.2340    -0.3730 H     1 <1>   0.1500 
 27 H       -0.5380    -1.7670     1.4950 H     1 <1>   0.0800 
 28 H        0.5740    -3.1370     1.4890 H     1 <1>   0.0800 
 29 H        0.5310    -4.5040    -1.0220 H     1 <1>   0.0800 
 30 H       -0.7360    -3.8300    -2.0420 H     1 <1>   0.0800 
 31 H       -2.3870    -3.1570     1.1990 H     1 <1>   0.0800 
 32 H       -1.3660    -4.2920     2.0500 H     1 <1>   0.0800 
 33 H       -1.1120    -5.5700     0.1110 H     1 <1>   0.0800 
 34 H       -2.3680    -4.5850    -0.5950 H     1 <1>   0.0800 
 35 H        3.3610     5.8570     0.3680 H     1 <1>   0.0800 
 36 H        5.4050     4.4180    -1.3540 H     1 <1>   0.0800 
 37 H        5.3680     6.1310    -1.0210 H     1 <1>   0.0800 
 38 H        4.0800     5.4050    -1.9440 H     1 <1>   0.0800 
 39 H        5.5710     3.9440     1.1880 H     1 <1>   0.0800 
 40 H        4.3540     4.6230     2.2540 H     1 <1>   0.0800 
 41 H        5.5330     5.6610     1.4990 H     1 <1>   0.0800 
@<TRIPOS>BOND
  1   1   2  2   
  2   2   3  am  
  3   2   4  1   
  4   3   5  1   
  5   3  19  1   
  6   4   6  1   
  7   4   7  1   
  8   4  20  1   
  9   5   8  1   
 10   5   9  2   
 11   6  10  1   
 12   6  11  1   
 13   6  21  1   
 14   7  22  1   
 15   7  23  1   
 16   7  24  1   
 17   8  12  2   
 18   8  25  1   
 19   9  13  1   
 20   9  26  1   
 21  10  14  1   
 22  10  27  1   
 23  10  28  1   
 24  11  15  1   
 25  11  29  1   
 26  11  30  1   
 27  12  13  1   
 28  13  16  1   
 29  14  15  1   
 30  14  31  1   
 31  14  32  1   
 32  15  33  1   
 33  15  34  1   
 34  16  17  1   
 35  16  18  1   
 36  16  35  1   
 37  17  36  1   
 38  17  37  1   
 39  17  38  1   
 40  18  39  1   
 41  18  40  1   
 42  18  41  1   
@<TRIPOS>SUBSTRUCTURE
  1 ****   3 GROUP 4 **** **** 0

# MOE 2024.06 (io_trps.svl 2023.06)
