@<TRIPOS>MOLECULE
NONAME
43 44 1 0 0 
SMALL
USER_CHARGES


@<TRIPOS>ATOM
  1 S       -0.7640     0.6400    -1.3550 S.o2  1 <1>   1.4470 
  2 O       -1.3610     1.7860    -2.0100 O.2   1 <1>  -0.6500 
  3 O       -0.5940    -0.5700    -2.1310 O.2   1 <1>  -0.6500 
  4 N       -1.7640     0.2870    -0.0280 N.am  1 <1>  -0.8490 
  5 C        0.8210     1.1500    -0.6290 C.ar  1 <1>  -0.0090 
  6 C       -1.2330    -0.6710     0.9600 C.3   1 <1>   0.1960 
  7 C       -3.1660     0.0280    -0.4070 C.3   1 <1>   0.1960 
  8 C        1.7910     0.2130    -0.2910 C.ar  1 <1>  -0.1500 
  9 C        1.0980     2.4860    -0.3680 C.ar  1 <1>  -0.1500 
 10 C       -1.2820    -2.1210     0.4720 C.3   1 <1>  -0.1860 
 11 C       -3.6590    -1.3810    -0.0470 C.3   1 <1>  -0.1600 
 12 C        2.9950     0.5790     0.2900 C.ar  1 <1>  -0.1440 
 13 C        2.2980     2.8750     0.1990 C.ar  1 <1>  -0.1500 
 14 C       -1.0250    -2.9620     1.7000 C.2   1 <1>   0.9060 
 15 C       -2.5720    -2.4170    -0.3230 C.3   1 <1>   0.2000 
 16 C        3.2590     1.9250     0.5310 C.ar  1 <1>   0.0820 
 17 C        3.9910    -0.5160     0.6550 C.3   1 <1>  -0.0170 
 18 O        0.1390    -3.0500     2.0960 O.co2 1 <1>  -0.9000 
 19 O       -1.9740    -3.4780     2.3060 O.co2 1 <1>  -0.9000 
 20 O       -3.0870    -3.6550    -0.0110 O.3   1 <1>  -0.6800 
 21 O        4.4550     2.2540     1.0850 O.3   1 <1>  -0.3630 
 22 C        4.9740    -0.7560    -0.4930 C.3   1 <1>  -0.2400 
 23 C        4.8140     3.5910     1.3480 C.3   1 <1>   0.0400 
 24 H       -0.2300    -0.4160     1.2510 H     1 <1>   0.0800 
 25 H       -1.8330    -0.5930     1.8530 H     1 <1>   0.0800 
 26 H       -3.7930     0.7540     0.0800 H     1 <1>   0.0800 
 27 H       -3.2860     0.1670    -1.4700 H     1 <1>   0.0800 
 28 H        1.5940    -0.8300    -0.4800 H     1 <1>   0.1500 
 29 H        0.3600     3.2310    -0.6150 H     1 <1>   0.1500 
 30 H       -0.4500    -2.2930    -0.1810 H     1 <1>   0.0800 
 31 H       -4.5340    -1.6090    -0.6260 H     1 <1>   0.0800 
 32 H       -3.9270    -1.4120     0.9950 H     1 <1>   0.0800 
 33 H        2.4630     3.9210     0.3750 H     1 <1>   0.1500 
 34 H       -2.3520    -2.4220    -1.3770 H     1 <1>   0.0800 
 35 H        4.5300    -0.2430     1.5450 H     1 <1>   0.0800 
 36 H        3.4620    -1.4290     0.8730 H     1 <1>   0.0800 
 37 H       -2.8600    -3.8140     0.9570 H     1 <1>   0.4000 
 38 H        5.5230     0.1450    -0.7010 H     1 <1>   0.0800 
 39 H        4.4420    -1.0510    -1.3800 H     1 <1>   0.0800 
 40 H        5.6680    -1.5330    -0.2280 H     1 <1>   0.0800 
 41 H        5.8010     3.5940     1.7740 H     1 <1>   0.0800 
 42 H        4.1130     4.0090     2.0480 H     1 <1>   0.0800 
 43 H        4.8130     4.1410     0.4230 H     1 <1>   0.0800 
@<TRIPOS>BOND
  1   1   2  2   
  2   1   3  2   
  3   1   4  am  
  4   1   5  1   
  5   4   6  1   
  6   4   7  1   
  7   5   8  ar  
  8   5   9  ar  
  9   6  10  1   
 10   6  24  1   
 11   6  25  1   
 12   7  11  1   
 13   7  26  1   
 14   7  27  1   
 15   8  12  ar  
 16   8  28  1   
 17   9  13  ar  
 18   9  29  1   
 19  10  14  1   
 20  10  15  1   
 21  10  30  1   
 22  11  15  1   
 23  11  31  1   
 24  11  32  1   
 25  12  16  ar  
 26  12  17  1   
 27  13  16  ar  
 28  13  33  1   
 29  14  18  ar  
 30  14  19  ar  
 31  15  20  1   
 32  15  34  1   
 33  16  21  1   
 34  17  22  1   
 35  17  35  1   
 36  17  36  1   
 37  20  37  1   
 38  21  23  1   
 39  22  38  1   
 40  22  39  1   
 41  22  40  1   
 42  23  41  1   
 43  23  42  1   
 44  23  43  1   
@<TRIPOS>SUBSTRUCTURE
  1 ****   8 GROUP 4 **** **** 0

# MOE 2024.06 (io_trps.svl 2023.06)
