@<TRIPOS>MOLECULE
NONAME
55 57 1 0 0 
SMALL
USER_CHARGES


@<TRIPOS>ATOM
  1 O       -0.0190     0.9620    -3.4190 O.2   1 <1>  -0.5700 
  2 C        0.2670     1.8660    -2.6650 C.2   1 <1>   0.5690 
  3 N       -0.7040     2.6300    -2.0610 N.am  1 <1>  -0.6600 
  4 C        1.7500     2.1210    -2.4230 C.3   1 <1>   0.0440 
  5 C       -0.3900     3.7600    -1.1350 C.3   1 <1>   0.1400 
  6 C       -2.1470     2.2830    -2.2260 C.3   1 <1>   0.1400 
  7 C        2.1600     1.9080    -0.9630 C.ar  1 <1>  -0.1440 
  8 C       -1.5850     4.7070    -1.0340 C.3   1 <1>  -0.1600 
  9 C       -2.9080     2.5350    -0.9220 C.3   1 <1>  -0.1600 
 10 C        2.7910     2.9010    -0.2150 C.ar  1 <1>   0.0820 
 11 C        1.8850     0.6830    -0.3740 C.ar  1 <1>  -0.1500 
 12 C       -2.8170     4.0000    -0.4300 C.3   1 <1>   0.2800 
 13 O        3.0460     4.0930    -0.8190 O.3   1 <1>  -0.3630 
 14 C        3.1310     2.6500     1.1110 C.ar  1 <1>  -0.1500 
 15 C        2.2230     0.4390     0.9440 C.ar  1 <1>  -0.1500 
 16 O       -2.6350     3.9020     0.9630 O.3   1 <1>  -0.5600 
 17 C       -4.1170     4.7850    -0.7460 C.3   1 <1>  -0.1600 
 18 C        3.7940     5.1010    -0.1750 C.3   1 <1>   0.0400 
 19 C        2.8490     1.4280     1.6940 C.ar  1 <1>   0.0820 
 20 C       -2.9390     5.0160     1.7530 C.3   1 <1>   0.1200 
 21 C       -5.1100     4.7820     0.4200 C.3   1 <1>   0.2800 
 22 O        3.2110     1.2740     2.9930 O.3   1 <1>  -0.3630 
 23 C       -4.4350     5.3580     1.6680 C.3   1 <1>  -0.1600 
 24 O       -5.4300     3.4810     0.7030 O.3   1 <1>  -0.6800 
 25 C       -6.4170     5.4930     0.0830 C.3   1 <1>  -0.2400 
 26 C        2.9310     0.0830     3.6940 C.3   1 <1>   0.0400 
 27 H        1.9790     3.1100    -2.7670 H     1 <1>   0.0800 
 28 H        2.3160     1.4420    -3.0330 H     1 <1>   0.0800 
 29 H        0.4630     4.3070    -1.4970 H     1 <1>   0.0800 
 30 H       -0.1560     3.3660    -0.1600 H     1 <1>   0.0800 
 31 H       -2.2480     1.2460    -2.4990 H     1 <1>   0.0800 
 32 H       -2.5620     2.8790    -3.0200 H     1 <1>   0.0800 
 33 H       -1.8120     5.0550    -2.0260 H     1 <1>   0.0800 
 34 H       -1.3130     5.5680    -0.4550 H     1 <1>   0.0800 
 35 H       -2.4940     1.8730    -0.1820 H     1 <1>   0.0800 
 36 H       -3.9320     2.2440    -1.0690 H     1 <1>   0.0800 
 37 H        1.3980    -0.0910    -0.9450 H     1 <1>   0.1500 
 38 H        3.6140     3.3870     1.7200 H     1 <1>   0.1500 
 39 H        1.9900    -0.5210     1.3650 H     1 <1>   0.1500 
 40 H       -4.5830     4.4020    -1.6360 H     1 <1>   0.0800 
 41 H       -3.8670     5.8080    -0.9580 H     1 <1>   0.0800 
 42 H        3.9140     5.9190    -0.8620 H     1 <1>   0.0800 
 43 H        4.7580     4.7030     0.0910 H     1 <1>   0.0800 
 44 H        3.2590     5.4310     0.6970 H     1 <1>   0.0800 
 45 H       -2.3390     5.8460     1.4250 H     1 <1>   0.0800 
 46 H       -2.6660     4.7820     2.7680 H     1 <1>   0.0800 
 47 H       -4.5190     6.4290     1.6590 H     1 <1>   0.0800 
 48 H       -4.9440     5.0170     2.5530 H     1 <1>   0.0800 
 49 H       -4.5970     3.0460     0.9890 H     1 <1>   0.4000 
 50 H       -6.2310     6.5240    -0.1570 H     1 <1>   0.0800 
 51 H       -7.0870     5.4530     0.9230 H     1 <1>   0.0800 
 52 H       -6.8870     5.0250    -0.7630 H     1 <1>   0.0800 
 53 H        3.2900     0.1950     4.7010 H     1 <1>   0.0800 
 54 H        3.4400    -0.7330     3.2120 H     1 <1>   0.0800 
 55 H        1.8670    -0.0760     3.7000 H     1 <1>   0.0800 
@<TRIPOS>BOND
  1   1   2  2   
  2   2   3  am  
  3   2   4  1   
  4   3   5  1   
  5   3   6  1   
  6   4   7  1   
  7   4  27  1   
  8   4  28  1   
  9   5   8  1   
 10   5  29  1   
 11   5  30  1   
 12   6   9  1   
 13   6  31  1   
 14   6  32  1   
 15   7  10  ar  
 16   7  11  ar  
 17   8  12  1   
 18   8  33  1   
 19   8  34  1   
 20   9  12  1   
 21   9  35  1   
 22   9  36  1   
 23  10  13  1   
 24  10  14  ar  
 25  11  15  ar  
 26  11  37  1   
 27  12  16  1   
 28  12  17  1   
 29  13  18  1   
 30  14  19  ar  
 31  14  38  1   
 32  15  19  ar  
 33  15  39  1   
 34  16  20  1   
 35  17  21  1   
 36  17  40  1   
 37  17  41  1   
 38  18  42  1   
 39  18  43  1   
 40  18  44  1   
 41  19  22  1   
 42  20  23  1   
 43  20  45  1   
 44  20  46  1   
 45  21  23  1   
 46  21  24  1   
 47  21  25  1   
 48  22  26  1   
 49  23  47  1   
 50  23  48  1   
 51  24  49  1   
 52  25  50  1   
 53  25  51  1   
 54  25  52  1   
 55  26  53  1   
 56  26  54  1   
 57  26  55  1   
@<TRIPOS>SUBSTRUCTURE
  1 ****   5 GROUP 4 **** **** 0

# MOE 2024.06 (io_trps.svl 2023.06)
