@<TRIPOS>MOLECULE
NONAME
53 55 1 0 0 
SMALL
USER_CHARGES


@<TRIPOS>ATOM
  1 CL       0.8720     4.0250     2.0720 Cl    1 <1>  -0.1770 
  2 C        0.2910     3.0990     0.7070 C.ar  1 <1>   0.1770 
  3 C        1.1180     2.1920     0.0540 C.ar  1 <1>  -0.1440 
  4 C       -1.0170     3.3030     0.3080 C.ar  1 <1>  -0.1500 
  5 C        0.5930     1.4860    -1.0230 C.ar  1 <1>  -0.1500 
  6 C        2.5660     1.9820     0.4920 C.3   1 <1>   0.3640 
  7 C       -1.5240     2.5910    -0.7650 C.ar  1 <1>  -0.1500 
  8 C       -0.7170     1.6830    -1.4280 C.ar  1 <1>  -0.1500 
  9 N        2.8250     0.5240     0.5890 N.am  1 <1>  -0.7300 
 10 C        3.5660     2.6680    -0.4710 C.3   1 <1>   0.2610 
 11 C        3.9600    -0.0640     0.1480 C.2   1 <1>   0.5690 
 12 O        4.8830     2.1730    -0.2570 O.3   1 <1>  -0.5600 
 13 C        3.5150     4.1830    -0.2750 C.2   1 <1>   0.5690 
 14 O        4.1200    -1.2520     0.2650 O.2   1 <1>  -0.5700 
 15 C        5.0320     0.7950    -0.5290 C.3   1 <1>   0.1810 
 16 O        2.6790     4.8250    -0.8650 O.2   1 <1>  -0.5700 
 17 N        4.4140     4.7700     0.5600 N.am  1 <1>  -0.7300 
 18 C        4.5230     6.2240     0.8360 C.3   1 <1>   0.1400 
 19 C        5.9190     6.8180     0.5240 C.3   1 <1>   0.0000 
 20 C        6.4500     6.4420    -0.8940 C.3   1 <1>   0.0000 
 21 C        7.1050     6.0040     1.1320 C.3   1 <1>   0.0000 
 22 C        5.9120     8.3330     0.8880 C.3   1 <1>  -0.1600 
 23 C        7.8150     6.0800    -0.2470 C.3   1 <1>   0.0000 
 24 C        7.2070     9.1850     0.8290 C.3   1 <1>  -0.0800 
 25 C        7.0440    10.4080     1.7430 C.3   1 <1>  -0.2400 
 26 C        7.5370     9.6920    -0.5830 C.3   1 <1>  -0.2400 
 27 H       -1.6290     4.0150     0.8320 H     1 <1>   0.1500 
 28 H        1.2000     0.7740    -1.5570 H     1 <1>   0.1500 
 29 H        2.7170     2.3960     1.4730 H     1 <1>   0.0800 
 30 H       -2.5410     2.7450    -1.0830 H     1 <1>   0.1500 
 31 H       -1.1100     1.1290    -2.2630 H     1 <1>   0.1500 
 32 H        2.1160    -0.0520     1.0460 H     1 <1>   0.3700 
 33 H        3.2950     2.4580    -1.4900 H     1 <1>   0.0800 
 34 H        4.9880     0.6520    -1.5930 H     1 <1>   0.0800 
 35 H        6.0030     0.4950    -0.1790 H     1 <1>   0.0800 
 36 H        5.1750     4.1840     0.9160 H     1 <1>   0.3700 
 37 H        3.7830     6.7500     0.2550 H     1 <1>   0.0800 
 38 H        4.2930     6.3860     1.8750 H     1 <1>   0.0800 
 39 H        5.9870     5.5730    -1.3250 H     1 <1>   0.0000 
 40 H        6.4820     7.2560    -1.5910 H     1 <1>   0.0000 
 41 H        7.6360     6.5050     1.9200 H     1 <1>   0.0000 
 42 H        6.8620     4.9890     1.3910 H     1 <1>   0.0000 
 43 H        5.1630     8.8190     0.2860 H     1 <1>   0.0800 
 44 H        5.5550     8.3830     1.9020 H     1 <1>   0.0800 
 45 H        8.5390     6.8720    -0.3030 H     1 <1>   0.0000 
 46 H        8.2030     5.1330    -0.5770 H     1 <1>   0.0000 
 47 H        8.0430     8.6230     1.2050 H     1 <1>   0.0800 
 48 H        6.2150    11.0150     1.4210 H     1 <1>   0.0800 
 49 H        7.9350    11.0100     1.7280 H     1 <1>   0.0800 
 50 H        6.8710    10.1000     2.7590 H     1 <1>   0.0800 
 51 H        6.6860    10.1810    -1.0220 H     1 <1>   0.0800 
 52 H        7.8470     8.8940    -1.2270 H     1 <1>   0.0800 
 53 H        8.3490    10.3970    -0.5440 H     1 <1>   0.0800 
@<TRIPOS>BOND
  1   1   2  1   
  2   2   3  ar  
  3   2   4  ar  
  4   3   5  ar  
  5   3   6  1   
  6   4   7  ar  
  7   4  27  1   
  8   5   8  ar  
  9   5  28  1   
 10   6   9  1   
 11   6  10  1   
 12   6  29  1   
 13   7   8  ar  
 14   7  30  1   
 15   8  31  1   
 16   9  11  am  
 17   9  32  1   
 18  10  12  1   
 19  10  13  1   
 20  10  33  1   
 21  11  14  2   
 22  11  15  1   
 23  12  15  1   
 24  13  16  2   
 25  13  17  am  
 26  15  34  1   
 27  15  35  1   
 28  17  18  1   
 29  17  36  1   
 30  18  19  1   
 31  18  37  1   
 32  18  38  1   
 33  19  20  1   
 34  19  21  1   
 35  19  22  1   
 36  20  23  1   
 37  20  39  1   
 38  20  40  1   
 39  21  23  1   
 40  21  41  1   
 41  21  42  1   
 42  22  24  1   
 43  22  43  1   
 44  22  44  1   
 45  23  45  1   
 46  23  46  1   
 47  24  25  1   
 48  24  26  1   
 49  24  47  1   
 50  25  48  1   
 51  25  49  1   
 52  25  50  1   
 53  26  51  1   
 54  26  52  1   
 55  26  53  1   
@<TRIPOS>SUBSTRUCTURE
  1 ****  13 GROUP 4 **** **** 0

# MOE 2024.06 (io_trps.svl 2023.06)
