@<TRIPOS>MOLECULE
NONAME
56 57 1 0 0 
SMALL
USER_CHARGES


@<TRIPOS>ATOM
  1 O       -1.5580    -0.4650     0.6970 O.2   1 <1>  -0.5700 
  2 C       -1.9460     0.4000    -0.0550 C.2   1 <1>   0.5690 
  3 N       -2.6810     0.0690    -1.1750 N.am  1 <1>  -0.6600 
  4 C       -1.5680     1.8370     0.3360 C.3   1 <1>  -0.0190 
  5 C       -2.8990    -1.3770    -1.5030 C.3   1 <1>   0.1400 
  6 C       -3.2230     1.0150    -2.1910 C.3   1 <1>   0.1400 
  7 C       -2.7790     2.7350     0.6730 C.3   1 <1>  -0.1600 
  8 C       -0.5650     2.4980    -0.6430 C.3   1 <1>  -0.1600 
  9 C       -3.9360    -2.0040    -0.5700 C.3   1 <1>   0.1200 
 10 C       -4.7450     1.0850    -2.0860 C.3   1 <1>  -0.2400 
 11 C       -2.3500     4.0960     1.2590 C.3   1 <1>   0.2000 
 12 C       -0.6540     4.0350    -0.6600 C.3   1 <1>  -0.1600 
 13 O       -4.3280    -3.2480    -1.1080 O.3   1 <1>  -0.3630 
 14 O       -3.3340     5.0410     0.9130 O.3   1 <1>  -0.5600 
 15 C       -0.9690     4.5780     0.7360 C.3   1 <1>   0.2000 
 16 C       -5.2660    -4.0110    -0.4930 C.ar  1 <1>   0.0820 
 17 C       -4.4520     5.0640     1.7460 C.3   1 <1>   0.0400 
 18 O       -0.9630     5.9560     0.6670 O.3   1 <1>  -0.6800 
 19 C       -5.6500    -5.1740    -1.1410 C.ar  1 <1>  -0.1500 
 20 C       -5.8490    -3.6890     0.7300 C.ar  1 <1>  -0.1500 
 21 C       -6.6040    -6.0060    -0.5850 C.ar  1 <1>  -0.1500 
 22 C       -6.8030    -4.5250     1.2830 C.ar  1 <1>  -0.1500 
 23 C       -7.1880    -5.6860     0.6310 C.ar  1 <1>  -0.1440 
 24 C       -8.2360    -6.6000     1.2450 C.3   1 <1>  -0.0170 
 25 C       -7.5760    -7.6360     2.1570 C.3   1 <1>  -0.2400 
 26 H       -1.0350     1.7400     1.2670 H     1 <1>   0.0800 
 27 H       -3.2350    -1.4730    -2.5210 H     1 <1>   0.0800 
 28 H       -1.9690    -1.9080    -1.4010 H     1 <1>   0.0800 
 29 H       -2.8150     1.9990    -2.0620 H     1 <1>   0.0800 
 30 H       -2.9400     0.6820    -3.1750 H     1 <1>   0.0800 
 31 H       -3.4070     2.2260     1.3820 H     1 <1>   0.0800 
 32 H       -3.3550     2.9150    -0.2130 H     1 <1>   0.0800 
 33 H        0.4280     2.2080    -0.3430 H     1 <1>   0.0800 
 34 H       -0.6960     2.1310    -1.6440 H     1 <1>   0.0800 
 35 H       -4.8090    -1.3810    -0.5010 H     1 <1>   0.0800 
 36 H       -3.5100    -2.1710     0.4040 H     1 <1>   0.0800 
 37 H       -5.0430     1.3510    -1.0880 H     1 <1>   0.0800 
 38 H       -5.1890     0.1430    -2.3530 H     1 <1>   0.0800 
 39 H       -5.1180     1.8320    -2.7630 H     1 <1>   0.0800 
 40 H       -2.2880     4.0340     2.3320 H     1 <1>   0.0800 
 41 H       -1.4350     4.3400    -1.3340 H     1 <1>   0.0800 
 42 H        0.2780     4.4450    -1.0100 H     1 <1>   0.0800 
 43 H       -0.1900     4.2790     1.4160 H     1 <1>   0.0800 
 44 H       -5.1230     5.8230     1.3840 H     1 <1>   0.0800 
 45 H       -4.1430     5.3060     2.7480 H     1 <1>   0.0800 
 46 H       -4.9420     4.1070     1.7200 H     1 <1>   0.0800 
 47 H       -1.9040     6.2190     0.5430 H     1 <1>   0.4000 
 48 H       -5.1960    -5.4210    -2.0830 H     1 <1>   0.1500 
 49 H       -5.5720    -2.8010     1.2640 H     1 <1>   0.1500 
 50 H       -6.8890    -6.9060    -1.1010 H     1 <1>   0.1500 
 51 H       -7.2460    -4.2690     2.2300 H     1 <1>   0.1500 
 52 H       -8.9410    -6.0160     1.8110 H     1 <1>   0.0800 
 53 H       -8.7820    -7.1020     0.4650 H     1 <1>   0.0800 
 54 H       -7.0400    -7.1430     2.9490 H     1 <1>   0.0800 
 55 H       -6.8830    -8.2370     1.5950 H     1 <1>   0.0800 
 56 H       -8.3210    -8.2780     2.5900 H     1 <1>   0.0800 
@<TRIPOS>BOND
  1   1   2  2   
  2   2   3  am  
  3   2   4  1   
  4   3   5  1   
  5   3   6  1   
  6   4   7  1   
  7   4   8  1   
  8   4  26  1   
  9   5   9  1   
 10   5  27  1   
 11   5  28  1   
 12   6  10  1   
 13   6  29  1   
 14   6  30  1   
 15   7  11  1   
 16   7  31  1   
 17   7  32  1   
 18   8  12  1   
 19   8  33  1   
 20   8  34  1   
 21   9  13  1   
 22   9  35  1   
 23   9  36  1   
 24  10  37  1   
 25  10  38  1   
 26  10  39  1   
 27  11  14  1   
 28  11  15  1   
 29  11  40  1   
 30  12  15  1   
 31  12  41  1   
 32  12  42  1   
 33  13  16  1   
 34  14  17  1   
 35  15  18  1   
 36  15  43  1   
 37  16  19  ar  
 38  16  20  ar  
 39  17  44  1   
 40  17  45  1   
 41  17  46  1   
 42  18  47  1   
 43  19  21  ar  
 44  19  48  1   
 45  20  22  ar  
 46  20  49  1   
 47  21  23  ar  
 48  21  50  1   
 49  22  23  ar  
 50  22  51  1   
 51  23  24  1   
 52  24  25  1   
 53  24  52  1   
 54  24  53  1   
 55  25  54  1   
 56  25  55  1   
 57  25  56  1   
@<TRIPOS>SUBSTRUCTURE
  1 ****   9 GROUP 4 **** **** 0

# MOE 2024.06 (io_trps.svl 2023.06)
