@<TRIPOS>MOLECULE
NONAME
44 45 1 0 0 
SMALL
USER_CHARGES


@<TRIPOS>ATOM
  1 O        0.1850     1.0000     0.1810 O.2   1 <1>  -0.5700 
  2 C       -0.9560     1.4230     0.1720 C.2   1 <1>   0.6900 
  3 N       -1.2240     2.6750    -0.3680 N.am  1 <1>  -0.4690 
  4 N       -1.9850     0.6680     0.6990 N.am  1 <1>  -0.4200 
  5 C       -2.4960     3.2670    -0.2320 C.2   1 <1>   0.1230 
  6 C       -0.1930     3.2710    -1.2750 C.3   1 <1>   0.0600 
  7 C       -3.2610     1.1860     0.7630 C.2   1 <1>   0.6160 
  8 C       -1.7110    -0.7010     1.2290 C.3   1 <1>   0.0600 
  9 C       -2.7420     4.6450    -0.6170 C.2   1 <1>   0.6160 
 10 C       -3.4840     2.5030     0.2980 C.2   1 <1>  -0.1360 
 11 O       -4.1730     0.5310     1.2330 O.2   1 <1>  -0.5700 
 12 O       -3.7130     4.9280    -1.2890 O.2   1 <1>  -0.5700 
 13 N       -1.8710     5.6190    -0.1920 N.am  1 <1>  -0.4940 
 14 C       -1.8950     7.0210    -0.3880 C.2   1 <1>  -0.0880 
 15 N       -0.8010     7.7680    -0.6970 N.pl3 1 <1>   0.3140 
 16 C       -2.9320     7.8900    -0.3050 C.2   1 <1>  -0.1810 
 17 N       -1.1050     9.0780    -0.8100 N.2   1 <1>  -0.7070 
 18 C        0.5630     7.2780    -0.9820 C.3   1 <1>   0.0960 
 19 C       -2.3790     9.1370    -0.5780 C.2   1 <1>   0.1390 
 20 C       -4.3920     7.6290     0.0160 C.3   1 <1>  -0.0590 
 21 C        1.3050     6.8980     0.3080 C.3   1 <1>  -0.1600 
 22 C        2.6860     6.3080    -0.0010 C.3   1 <1>  -0.1600 
 23 C        3.4030     5.8890     1.2850 C.3   1 <1>  -0.2400 
 24 H        0.3350     2.4890    -1.7960 H     1 <1>   0.0800 
 25 H        0.5170     3.8350    -0.6960 H     1 <1>   0.0800 
 26 H       -0.6490     3.9060    -2.0130 H     1 <1>   0.0800 
 27 H       -0.8790    -1.1470     0.7110 H     1 <1>   0.0800 
 28 H       -2.5710    -1.3350     1.0930 H     1 <1>   0.0800 
 29 H       -1.4820    -0.6400     2.2770 H     1 <1>   0.0800 
 30 H       -4.4870     2.8740     0.3990 H     1 <1>   0.1500 
 31 H       -1.0930     5.2650     0.3640 H     1 <1>   0.3700 
 32 H        1.0970     8.0560    -1.4970 H     1 <1>   0.0800 
 33 H        0.4840     6.4310    -1.6380 H     1 <1>   0.0800 
 34 H       -2.9380    10.0580    -0.5960 H     1 <1>   0.1500 
 35 H       -4.4890     6.7410     0.6130 H     1 <1>   0.0800 
 36 H       -4.9430     7.4930    -0.8970 H     1 <1>   0.0800 
 37 H       -4.8080     8.4570     0.5600 H     1 <1>   0.0800 
 38 H        0.7310     6.1800     0.8640 H     1 <1>   0.0800 
 39 H        1.4220     7.7820     0.9140 H     1 <1>   0.0800 
 40 H        3.2860     7.0400    -0.5170 H     1 <1>   0.0800 
 41 H        2.5850     5.4480    -0.6420 H     1 <1>   0.0800 
 42 H        3.5340     6.7360     1.9360 H     1 <1>   0.0800 
 43 H        4.3730     5.4870     1.0510 H     1 <1>   0.0800 
 44 H        2.8390     5.1350     1.8060 H     1 <1>   0.0800 
@<TRIPOS>BOND
  1   1   2  2   
  2   2   3  am  
  3   2   4  am  
  4   3   5  1   
  5   3   6  1   
  6   4   7  am  
  7   4   8  1   
  8   5   9  1   
  9   5  10  2   
 10   6  24  1   
 11   6  25  1   
 12   6  26  1   
 13   7  10  1   
 14   7  11  2   
 15   8  27  1   
 16   8  28  1   
 17   8  29  1   
 18   9  12  2   
 19   9  13  am  
 20  10  30  1   
 21  13  14  1   
 22  13  31  1   
 23  14  15  1   
 24  14  16  2   
 25  15  17  1   
 26  15  18  1   
 27  16  19  1   
 28  16  20  1   
 29  17  19  2   
 30  18  21  1   
 31  18  32  1   
 32  18  33  1   
 33  19  34  1   
 34  20  35  1   
 35  20  36  1   
 36  20  37  1   
 37  21  22  1   
 38  21  38  1   
 39  21  39  1   
 40  22  23  1   
 41  22  40  1   
 42  22  41  1   
 43  23  42  1   
 44  23  43  1   
 45  23  44  1   
@<TRIPOS>SUBSTRUCTURE
  1 ****  13 GROUP 4 **** **** 0

# MOE 2024.06 (io_trps.svl 2023.06)
