@<TRIPOS>MOLECULE
NONAME
47 49 1 0 0 
SMALL
USER_CHARGES


@<TRIPOS>ATOM
  1 S       -0.0240    -0.0320     1.1730 S.o2  1 <1>   1.5010 
  2 O       -0.8390     0.8150     2.0120 O.2   1 <1>  -0.6500 
  3 O        0.8610    -0.9920     1.7960 O.2   1 <1>  -0.6500 
  4 N       -1.0860    -0.9510     0.2220 N.am  1 <1>  -0.8490 
  5 C        0.8960     0.9340    -0.0300 C.2   1 <1>  -0.0630 
  6 C       -1.8220    -1.9170     1.0610 C.3   1 <1>   0.1960 
  7 C       -2.0310    -0.1170    -0.5370 C.3   1 <1>   0.1960 
  8 C        1.8030     0.5570    -0.9460 C.2   1 <1>  -0.0400 
  9 C        0.8070     2.2930    -0.2660 C.2   1 <1>   0.1080 
 10 C       -2.6670    -2.8760     0.1830 C.3   1 <1>   0.4230 
 11 C       -2.8720    -1.0120    -1.4600 C.3   1 <1>  -0.1600 
 12 O        2.2320     1.5720    -1.6640 O.3   1 <1>  -0.0190 
 13 C        2.3710    -0.8150    -1.2530 C.3   1 <1>  -0.0600 
 14 N        1.5930     2.6300    -1.2190 N.2   1 <1>  -0.4100 
 15 C       -0.0760     3.2880     0.4620 C.3   1 <1>  -0.0590 
 16 N       -3.3750    -3.9710     0.9340 N.4   1 <1>  -0.9590 
 17 C       -3.6770    -2.0650    -0.6520 C.3   1 <1>  -0.1060 
 18 C       -4.0510    -4.9280     0.0190 C.3   1 <1>   0.3430 
 19 C       -2.5830    -4.6520     1.9940 C.3   1 <1>   0.2630 
 20 C       -4.6690    -1.3690     0.3000 C.2   1 <1>   0.9060 
 21 C       -4.4160    -3.0100    -1.6270 C.3   1 <1>  -0.1600 
 22 C       -5.0500    -4.1960    -0.8820 C.3   1 <1>  -0.1600 
 23 O       -4.9560    -1.9200     1.3740 O.co2 1 <1>  -0.9000 
 24 O       -5.1380    -0.2770    -0.0130 O.co2 1 <1>  -0.9000 
 25 H       -1.1070    -2.4960     1.6170 H     1 <1>   0.0800 
 26 H       -2.4510    -1.3890     1.7610 H     1 <1>   0.0800 
 27 H       -2.6700     0.4390     0.1330 H     1 <1>   0.0800 
 28 H       -1.4960     0.5910    -1.1460 H     1 <1>   0.0800 
 29 H       -1.9790    -3.3420    -0.5000 H     1 <1>   0.0800 
 30 H       -3.5530    -0.3880    -2.0150 H     1 <1>   0.0800 
 31 H       -2.2200    -1.4890    -2.1700 H     1 <1>   0.0800 
 32 H        1.9330    -1.5650    -0.6200 H     1 <1>   0.0800 
 33 H        3.4350    -0.8100    -1.0970 H     1 <1>   0.0800 
 34 H        2.1730    -1.0690    -2.2790 H     1 <1>   0.0800 
 35 H       -1.1100     3.0140     0.3580 H     1 <1>   0.0800 
 36 H        0.0620     4.2730     0.0510 H     1 <1>   0.0800 
 37 H        0.1780     3.3130     1.5060 H     1 <1>   0.0800 
 38 H       -4.1500    -3.4200     1.3960 H     1 <1>   0.4500 
 39 H       -3.3140    -5.4250    -0.5900 H     1 <1>   0.0800 
 40 H       -4.5770    -5.6720     0.5950 H     1 <1>   0.0800 
 41 H       -1.7260    -5.1440     1.5640 H     1 <1>   0.0800 
 42 H       -3.1930    -5.3840     2.4970 H     1 <1>   0.0800 
 43 H       -2.2470    -3.9350     2.7250 H     1 <1>   0.0800 
 44 H       -5.1860    -2.4580    -2.1430 H     1 <1>   0.0800 
 45 H       -3.7280    -3.3850    -2.3660 H     1 <1>   0.0800 
 46 H       -5.4560    -4.8900    -1.5960 H     1 <1>   0.0800 
 47 H       -5.8710    -3.8470    -0.2790 H     1 <1>   0.0800 
@<TRIPOS>BOND
  1   1   2  2   
  2   1   3  2   
  3   1   4  am  
  4   1   5  1   
  5   4   6  1   
  6   4   7  1   
  7   5   8  2   
  8   5   9  1   
  9   6  10  1   
 10   6  25  1   
 11   6  26  1   
 12   7  11  1   
 13   7  27  1   
 14   7  28  1   
 15   8  12  1   
 16   8  13  1   
 17   9  14  2   
 18   9  15  1   
 19  10  16  1   
 20  10  17  1   
 21  10  29  1   
 22  11  17  1   
 23  11  30  1   
 24  11  31  1   
 25  12  14  1   
 26  13  32  1   
 27  13  33  1   
 28  13  34  1   
 29  15  35  1   
 30  15  36  1   
 31  15  37  1   
 32  16  18  1   
 33  16  19  1   
 34  16  38  1   
 35  17  20  1   
 36  17  21  1   
 37  18  22  1   
 38  18  39  1   
 39  18  40  1   
 40  19  41  1   
 41  19  42  1   
 42  19  43  1   
 43  20  23  ar  
 44  20  24  ar  
 45  21  22  1   
 46  21  44  1   
 47  21  45  1   
 48  22  46  1   
 49  22  47  1   
@<TRIPOS>SUBSTRUCTURE
  1 ****   4 GROUP 4 **** **** 0

# MOE 2024.06 (io_trps.svl 2023.06)
