@<TRIPOS>MOLECULE
NONAME
41 42 1 0 0 
SMALL
USER_CHARGES


@<TRIPOS>ATOM
  1 S       -2.2850    -0.4900     0.6020 S.o2  1 <1>   1.0900 
  2 O       -3.2790    -1.3330     1.2280 O.2   1 <1>  -0.6500 
  3 O       -2.1780     0.8850     1.0320 O.2   1 <1>  -0.6500 
  4 C       -0.6980    -1.2420     0.8570 C.3   1 <1>   0.0060 
  5 C       -2.5750    -0.5030    -1.1760 C.3   1 <1>  -0.0550 
  6 C       -0.7220    -2.6230     0.2860 C.2   1 <1>   0.5690 
  7 C       -1.5450     0.2770    -2.0110 C.3   1 <1>  -0.2400 
  8 O       -0.3790    -2.7770    -0.8600 O.2   1 <1>  -0.5700 
  9 N       -1.1410    -3.6590     1.0500 N.am  1 <1>  -0.7300 
 10 C       -1.2030    -5.0770     0.6190 C.3   1 <1>   0.2200 
 11 C       -2.6330    -5.4970     0.3070 C.3   1 <1>  -0.0800 
 12 C       -0.9210    -5.9610     1.8270 C.3   1 <1>   0.1200 
 13 C       -3.2080    -5.7920     1.6960 C.3   1 <1>   0.1200 
 14 C       -3.4630    -4.5080    -0.5300 C.3   1 <1>  -0.0160 
 15 O       -2.1150    -5.9770     2.5510 O.3   1 <1>  -0.5600 
 16 C       -4.8660    -5.0380    -0.7770 C.ar  1 <1>  -0.1430 
 17 C       -5.1250    -6.0190    -1.7120 C.ar  1 <1>  -0.1500 
 18 C       -5.9540    -4.5620    -0.0740 C.ar  1 <1>  -0.1500 
 19 C       -6.4230    -6.4690    -1.8900 C.ar  1 <1>   0.1600 
 20 C       -7.2130    -5.0800    -0.3290 C.ar  1 <1>   0.1600 
 21 N       -7.4730    -6.0240    -1.2190 N.ar  1 <1>  -0.6200 
 22 H        0.0710    -0.6740     0.3730 H     1 <1>   0.0800 
 23 H       -0.4760    -1.2920     1.9040 H     1 <1>   0.0800 
 24 H       -2.6090    -1.5160    -1.5300 H     1 <1>   0.0800 
 25 H       -3.5430    -0.0760    -1.3610 H     1 <1>   0.0800 
 26 H       -0.5690    -0.1690    -1.9300 H     1 <1>   0.0800 
 27 H       -1.4910     1.2990    -1.6780 H     1 <1>   0.0800 
 28 H       -1.8330     0.2690    -3.0480 H     1 <1>   0.0800 
 29 H       -1.5720    -3.5010     1.9690 H     1 <1>   0.3700 
 30 H       -0.5220    -5.2610    -0.1950 H     1 <1>   0.0800 
 31 H       -2.5920    -6.4310    -0.2260 H     1 <1>   0.0800 
 32 H       -0.1250    -5.5860     2.4450 H     1 <1>   0.0800 
 33 H       -0.7070    -6.9700     1.5210 H     1 <1>   0.0800 
 34 H       -3.8150    -6.6810     1.7000 H     1 <1>   0.0800 
 35 H       -3.7780    -4.9600     2.0730 H     1 <1>   0.0800 
 36 H       -2.9730    -4.3350    -1.4730 H     1 <1>   0.0800 
 37 H       -3.5370    -3.5640    -0.0250 H     1 <1>   0.0800 
 38 H       -4.3310    -6.4380    -2.3030 H     1 <1>   0.1500 
 39 H       -5.8360    -3.7930     0.6690 H     1 <1>   0.1500 
 40 H       -6.6070    -7.2360    -2.6230 H     1 <1>   0.1500 
 41 H       -8.0500    -4.6960     0.2290 H     1 <1>   0.1500 
@<TRIPOS>BOND
  1   1   2  2   
  2   1   3  2   
  3   1   4  1   
  4   1   5  1   
  5   4   6  1   
  6   4  22  1   
  7   4  23  1   
  8   5   7  1   
  9   5  24  1   
 10   5  25  1   
 11   6   8  2   
 12   6   9  am  
 13   7  26  1   
 14   7  27  1   
 15   7  28  1   
 16   9  10  1   
 17   9  29  1   
 18  10  11  1   
 19  10  12  1   
 20  10  30  1   
 21  11  13  1   
 22  11  14  1   
 23  11  31  1   
 24  12  15  1   
 25  12  32  1   
 26  12  33  1   
 27  13  15  1   
 28  13  34  1   
 29  13  35  1   
 30  14  16  1   
 31  14  36  1   
 32  14  37  1   
 33  16  17  ar  
 34  16  18  ar  
 35  17  19  ar  
 36  17  38  1   
 37  18  20  ar  
 38  18  39  1   
 39  19  21  ar  
 40  19  40  1   
 41  20  21  ar  
 42  20  41  1   
@<TRIPOS>SUBSTRUCTURE
  1 ****  14 GROUP 4 **** **** 0

# MOE 2024.06 (io_trps.svl 2023.06)
