@<TRIPOS>MOLECULE
NONAME
46 49 1 0 0 
SMALL
USER_CHARGES


@<TRIPOS>ATOM
  1 F       -1.1920    -2.3380     1.8240 F     1 <1>  -0.3400 
  2 C       -2.0490    -2.4000     0.8080 C.3   1 <1>   1.1640 
  3 F       -2.4600    -3.6640     0.7850 F     1 <1>  -0.3400 
  4 F       -1.3070    -2.2100    -0.2780 F     1 <1>  -0.3400 
  5 C       -3.1880    -1.3870     0.9600 C.ar  1 <1>  -0.1440 
  6 C       -4.1970    -1.3490    -0.0280 C.ar  1 <1>   0.3100 
  7 C       -3.2360    -0.5240     2.0340 C.ar  1 <1>  -0.1500 
  8 N       -4.1020    -2.1740    -1.1020 N.ar  1 <1>  -0.6200 
  9 C       -5.2720    -0.4380     0.1220 C.ar  1 <1>   0.0000 
 10 C       -4.2720     0.4000     2.1620 C.ar  1 <1>  -0.1500 
 11 C       -5.0400    -2.1130    -2.0000 C.ar  1 <1>   0.1600 
 12 C       -6.3020    -0.4330    -0.8550 C.ar  1 <1>   0.1000 
 13 C       -5.2620     0.4420     1.2220 C.ar  1 <1>  -0.1500 
 14 C       -6.1430    -1.2730    -1.9240 C.ar  1 <1>  -0.1500 
 15 N       -7.4370     0.3610    -0.7450 N.pl3 1 <1>  -0.8380 
 16 C       -8.4110     0.1570     0.3690 C.3   1 <1>   0.2090 
 17 C       -7.8920     1.2340    -1.8560 C.3   1 <1>   0.2090 
 18 C       -9.7890    -0.3390    -0.1360 C.3   1 <1>   0.0000 
 19 C       -9.2390     0.7400    -2.3910 C.3   1 <1>  -0.1600 
 20 C      -10.7510    -0.4020     1.0700 C.3   1 <1>   0.2000 
 21 C      -10.2820     0.5940    -1.2710 C.3   1 <1>  -0.1600 
 22 C       -9.7020    -1.8130    -0.5820 C.3   1 <1>  -0.1600 
 23 O      -12.0640    -0.4910     0.6420 O.3   1 <1>  -0.6800 
 24 C      -10.4210    -1.7180     1.7710 C.3   1 <1>  -0.1600 
 25 C       -9.9170    -2.6680     0.6760 C.3   1 <1>  -0.1600 
 26 H       -2.4790    -0.5290     2.8010 H     1 <1>   0.1500 
 27 H       -4.2790     1.0750     3.0010 H     1 <1>   0.1500 
 28 H       -4.9560    -2.7630    -2.8550 H     1 <1>   0.1500 
 29 H       -6.0510     1.1650     1.3100 H     1 <1>   0.1500 
 30 H       -6.8770    -1.3030    -2.7040 H     1 <1>   0.1500 
 31 H       -8.0000    -0.5470     1.0700 H     1 <1>   0.0800 
 32 H       -8.5370     1.0960     0.8800 H     1 <1>   0.0800 
 33 H       -7.9930     2.2400    -1.4860 H     1 <1>   0.0800 
 34 H       -7.1580     1.2400    -2.6440 H     1 <1>   0.0800 
 35 H       -9.5990     1.4360    -3.1270 H     1 <1>   0.0800 
 36 H       -9.0950    -0.2050    -2.8820 H     1 <1>   0.0800 
 37 H      -10.6720     0.4510     1.7220 H     1 <1>   0.0800 
 38 H      -11.2000     0.2240    -1.6930 H     1 <1>   0.0800 
 39 H      -10.4890     1.5660    -0.8570 H     1 <1>   0.0800 
 40 H      -10.4870    -2.0280    -1.2860 H     1 <1>   0.0800 
 41 H       -8.7610    -2.0400    -1.0520 H     1 <1>   0.0800 
 42 H      -12.1560    -1.2830     0.0800 H     1 <1>   0.4000 
 43 H       -9.6270    -1.5470     2.4770 H     1 <1>   0.0800 
 44 H      -11.2660    -2.1160     2.3070 H     1 <1>   0.0800 
 45 H       -8.9920    -3.1280     0.9820 H     1 <1>   0.0800 
 46 H      -10.6390    -3.4420     0.4800 H     1 <1>   0.0800 
@<TRIPOS>BOND
  1   1   2  1   
  2   2   3  1   
  3   2   4  1   
  4   2   5  1   
  5   5   6  ar  
  6   5   7  ar  
  7   6   8  ar  
  8   6   9  ar  
  9   7  10  ar  
 10   7  26  1   
 11   8  11  ar  
 12   9  12  ar  
 13   9  13  ar  
 14  10  13  ar  
 15  10  27  1   
 16  11  14  ar  
 17  11  28  1   
 18  12  14  ar  
 19  12  15  1   
 20  13  29  1   
 21  14  30  1   
 22  15  16  1   
 23  15  17  1   
 24  16  18  1   
 25  16  31  1   
 26  16  32  1   
 27  17  19  1   
 28  17  33  1   
 29  17  34  1   
 30  18  20  1   
 31  18  21  1   
 32  18  22  1   
 33  19  21  1   
 34  19  35  1   
 35  19  36  1   
 36  20  23  1   
 37  20  24  1   
 38  20  37  1   
 39  21  38  1   
 40  21  39  1   
 41  22  25  1   
 42  22  40  1   
 43  22  41  1   
 44  23  42  1   
 45  24  25  1   
 46  24  43  1   
 47  24  44  1   
 48  25  45  1   
 49  25  46  1   
@<TRIPOS>SUBSTRUCTURE
  1 ****  12 GROUP 4 **** **** 0

# MOE 2024.06 (io_trps.svl 2023.06)
