@<TRIPOS>MOLECULE
NONAME
46 48 1 0 0 
SMALL
USER_CHARGES


@<TRIPOS>ATOM
  1 O        2.1800    -0.5420    -2.7640 O.2   1 <1>  -0.5700 
  2 C        2.4750    -0.8480    -1.6260 C.2   1 <1>   0.5440 
  3 N        3.1280     0.0840    -0.8400 N.am  1 <1>  -0.6600 
  4 C        2.1230    -2.1580    -1.1210 C.ar  1 <1>   0.0860 
  5 C        3.4330    -0.1770     0.6190 C.3   1 <1>   0.2200 
  6 C        3.5050     1.3930    -1.4600 C.3   1 <1>   0.1400 
  7 C        0.8540    -2.4080    -0.6110 C.ar  1 <1>  -0.1500 
  8 C        3.0500    -3.1970    -1.0920 C.ar  1 <1>  -0.1500 
  9 C        2.8670     0.9170     1.5390 C.3   1 <1>   0.1200 
 10 C        4.9410    -0.3930     0.8760 C.3   1 <1>   0.3430 
 11 C        4.4470     2.2830    -0.6330 C.3   1 <1>  -0.0800 
 12 C        0.5360    -3.6400    -0.0720 C.ar  1 <1>   0.0820 
 13 C        2.7320    -4.4310    -0.5550 C.ar  1 <1>  -0.1500 
 14 O        3.7510     1.9910     1.6610 O.3   1 <1>  -0.5600 
 15 N        5.8150     0.1780    -0.2020 N.4   1 <1>  -0.9590 
 16 C        3.7560     2.8850     0.6000 C.3   1 <1>   0.1200 
 17 C        5.8170     1.6610    -0.3020 C.3   1 <1>   0.3430 
 18 O       -0.6990    -3.8180     0.4190 O.3   1 <1>  -0.5330 
 19 C        1.4700    -4.6690    -0.0350 C.ar  1 <1>  -0.1430 
 20 C        7.2150    -0.4130    -0.1080 C.3   1 <1>   0.2370 
 21 C        1.1440    -6.0340     0.5550 C.3   1 <1>  -0.0970 
 22 C        7.2760    -1.9410    -0.2360 C.2   1 <1>   0.9060 
 23 O        8.2270    -2.5420     0.2590 O.co2 1 <1>  -0.9000 
 24 O        6.3180    -2.5030    -0.7820 O.co2 1 <1>  -0.9000 
 25 H        2.9400    -1.0800     0.9250 H     1 <1>   0.0800 
 26 H        3.9730     1.1910    -2.4110 H     1 <1>   0.0800 
 27 H        2.5980     1.9350    -1.6710 H     1 <1>   0.0800 
 28 H        0.1080    -1.6340    -0.6350 H     1 <1>   0.1500 
 29 H        4.0370    -3.0370    -1.4940 H     1 <1>   0.1500 
 30 H        2.7440     0.5110     2.5280 H     1 <1>   0.0800 
 31 H        1.9060     1.2620     1.1970 H     1 <1>   0.0800 
 32 H        5.1050    -1.4580     0.9300 H     1 <1>   0.0800 
 33 H        5.2100     0.0220     1.8330 H     1 <1>   0.0800 
 34 H        4.6570     3.1300    -1.2600 H     1 <1>   0.0800 
 35 H        3.4860    -5.2010    -0.5490 H     1 <1>   0.1500 
 36 H        5.4070    -0.2380    -1.0610 H     1 <1>   0.4500 
 37 H        2.7440     3.1870     0.3850 H     1 <1>   0.0800 
 38 H        4.3000     3.7530     0.9320 H     1 <1>   0.0800 
 39 H        6.1810     2.0820     0.6210 H     1 <1>   0.0800 
 40 H        6.5050     1.9420    -1.0820 H     1 <1>   0.0800 
 41 H       -0.8440    -4.7280     0.7310 H     1 <1>   0.4500 
 42 H        7.8310    -0.0130    -0.8920 H     1 <1>   0.0800 
 43 H        7.6620    -0.1550     0.8340 H     1 <1>   0.0800 
 44 H        2.0010    -6.6830     0.5090 H     1 <1>   0.0800 
 45 H        0.3450    -6.4940     0.0020 H     1 <1>   0.0800 
 46 H        0.8550    -5.9330     1.5860 H     1 <1>   0.0800 
@<TRIPOS>BOND
  1   1   2  2   
  2   2   3  am  
  3   2   4  1   
  4   3   5  1   
  5   3   6  1   
  6   4   7  ar  
  7   4   8  ar  
  8   5   9  1   
  9   5  10  1   
 10   5  25  1   
 11   6  11  1   
 12   6  26  1   
 13   6  27  1   
 14   7  12  ar  
 15   7  28  1   
 16   8  13  ar  
 17   8  29  1   
 18   9  14  1   
 19   9  30  1   
 20   9  31  1   
 21  10  15  1   
 22  10  32  1   
 23  10  33  1   
 24  11  16  1   
 25  11  17  1   
 26  11  34  1   
 27  12  18  1   
 28  12  19  ar  
 29  13  19  ar  
 30  13  35  1   
 31  14  16  1   
 32  15  17  1   
 33  15  20  1   
 34  15  36  1   
 35  16  37  1   
 36  16  38  1   
 37  17  39  1   
 38  17  40  1   
 39  18  41  1   
 40  19  21  1   
 41  20  22  1   
 42  20  42  1   
 43  20  43  1   
 44  21  44  1   
 45  21  45  1   
 46  21  46  1   
 47  22  23  ar  
 48  22  24  ar  
@<TRIPOS>SUBSTRUCTURE
  1 ****   5 GROUP 4 **** **** 0

# MOE 2024.06 (io_trps.svl 2023.06)
