@<TRIPOS>MOLECULE
NONAME
47 50 1 0 0 
SMALL
USER_CHARGES


@<TRIPOS>ATOM
  1 F       -0.7030    -0.6550    -0.8650 F     1 <1>  -0.1900 
  2 C       -1.1740    -1.8430    -0.5780 C.ar  1 <1>   0.1900 
  3 C       -0.4320    -2.7810     0.1490 C.ar  1 <1>   0.0830 
  4 C       -2.4470    -2.1250    -1.0350 C.ar  1 <1>  -0.1500 
  5 O        0.8280    -2.6210     0.6490 O.3   1 <1>  -0.3630 
  6 C       -1.0200    -4.0100     0.3990 C.ar  1 <1>  -0.1500 
  7 C       -3.0040    -3.3620    -0.7680 C.ar  1 <1>  -0.1500 
  8 C        1.5630    -1.4250     0.5170 C.3   1 <1>   0.0400 
  9 C       -2.3060    -4.3310    -0.0440 C.ar  1 <1>   0.0530 
 10 C       -2.8890    -5.6220     0.2350 C.2   1 <1>   0.0870 
 11 O       -2.1370    -6.6560     0.5530 O.3   1 <1>  -0.0190 
 12 C       -4.1700    -6.0650     0.2350 C.2   1 <1>  -0.2330 
 13 N       -2.8290    -7.7550     0.7460 N.2   1 <1>  -0.4100 
 14 C       -4.0490    -7.4070     0.5530 C.2   1 <1>   0.3720 
 15 C       -5.4580    -5.5060    -0.0120 C.2   1 <1>   1.0330 
 16 N       -5.1780    -8.2040     0.6020 N.3   1 <1>  -0.5730 
 17 O       -5.9000    -5.4070    -1.1690 O.co2 1 <1>  -0.9000 
 18 O       -6.2480    -5.2850     0.9220 O.co2 1 <1>  -0.9000 
 19 C       -5.8480    -8.4200     1.9260 C.3   1 <1>   0.2450 
 20 C       -5.2900    -9.6660     0.3650 C.3   1 <1>   0.2450 
 21 C       -6.6340    -9.5320     1.1670 C.3   1 <1>   0.4720 
 22 N       -7.8780    -9.0630     0.3980 N.4   1 <1>  -0.9280 
 23 C       -8.2120    -9.9360    -0.7720 C.3   1 <1>   0.3430 
 24 C       -7.8720    -7.6080    -0.0520 C.3   1 <1>   0.3430 
 25 C       -9.4190    -9.3980    -1.5770 C.3   1 <1>   0.1200 
 26 C       -9.1930    -7.2160    -0.7410 C.3   1 <1>   0.1200 
 27 O      -10.0350    -8.3330    -0.9090 O.3   1 <1>  -0.5600 
 28 H       -2.9960    -1.3880    -1.5920 H     1 <1>   0.1500 
 29 H       -0.4610    -4.7380     0.9580 H     1 <1>   0.1500 
 30 H       -3.9930    -3.5780    -1.1350 H     1 <1>   0.1500 
 31 H        2.5080    -1.5570     1.0110 H     1 <1>   0.0800 
 32 H        1.0160    -0.6250     0.9830 H     1 <1>   0.0800 
 33 H        1.7230    -1.2260    -0.5280 H     1 <1>   0.0800 
 34 H       -6.4440    -7.5860     2.2490 H     1 <1>   0.0000 
 35 H       -5.1610    -8.7880     2.6690 H     1 <1>   0.0000 
 36 H       -4.5160   -10.2180     0.8700 H     1 <1>   0.0000 
 37 H       -5.4080    -9.9080    -0.6760 H     1 <1>   0.0000 
 38 H       -6.8510   -10.3960     1.7690 H     1 <1>   0.0000 
 39 H       -8.6870    -9.1040     1.0290 H     1 <1>   0.4500 
 40 H       -8.4350   -10.9330    -0.4310 H     1 <1>   0.0800 
 41 H       -7.3650   -10.0000    -1.4340 H     1 <1>   0.0800 
 42 H       -7.0620    -7.4310    -0.7410 H     1 <1>   0.0800 
 43 H       -7.7170    -6.9500     0.7870 H     1 <1>   0.0800 
 44 H      -10.1530   -10.1730    -1.7130 H     1 <1>   0.0800 
 45 H       -9.1040    -9.0560    -2.5480 H     1 <1>   0.0800 
 46 H       -8.9920    -6.7720    -1.7010 H     1 <1>   0.0800 
 47 H       -9.7150    -6.4900    -0.1410 H     1 <1>   0.0800 
@<TRIPOS>BOND
  1   1   2  1   
  2   2   3  ar  
  3   2   4  ar  
  4   3   5  1   
  5   3   6  ar  
  6   4   7  ar  
  7   4  28  1   
  8   5   8  1   
  9   6   9  ar  
 10   6  29  1   
 11   7   9  ar  
 12   7  30  1   
 13   8  31  1   
 14   8  32  1   
 15   8  33  1   
 16   9  10  1   
 17  10  11  1   
 18  10  12  2   
 19  11  13  1   
 20  12  14  1   
 21  12  15  1   
 22  13  14  2   
 23  14  16  1   
 24  15  17  ar  
 25  15  18  ar  
 26  16  19  1   
 27  16  20  1   
 28  19  21  1   
 29  19  34  1   
 30  19  35  1   
 31  20  21  1   
 32  20  36  1   
 33  20  37  1   
 34  21  22  1   
 35  21  38  1   
 36  22  23  1   
 37  22  24  1   
 38  22  39  1   
 39  23  25  1   
 40  23  40  1   
 41  23  41  1   
 42  24  26  1   
 43  24  42  1   
 44  24  43  1   
 45  25  27  1   
 46  25  44  1   
 47  25  45  1   
 48  26  27  1   
 49  26  46  1   
 50  26  47  1   
@<TRIPOS>SUBSTRUCTURE
  1 ****  12 GROUP 4 **** **** 0

# MOE 2024.06 (io_trps.svl 2023.06)
