@<TRIPOS>MOLECULE
NONAME
43 44 1 0 0 
SMALL
USER_CHARGES


@<TRIPOS>ATOM
  1 S       -0.5260     0.4230    -0.0940 S.3   1 <1>  -0.4600 
  2 C       -0.1380     2.0860     0.5100 C.3   1 <1>   0.0700 
  3 C       -2.1810     0.1230     0.5720 C.3   1 <1>   0.0700 
  4 C        1.2640     2.4440     0.0140 C.3   1 <1>  -0.0990 
  5 C       -2.6170    -1.2650     0.1130 C.3   1 <1>  -0.2400 
  6 C        1.7070     3.8280     0.4520 C.2   1 <1>   0.5690 
  7 O        0.9610     4.5110     1.1120 O.2   1 <1>  -0.5700 
  8 N        2.9430     4.2810     0.0880 N.am  1 <1>  -0.6600 
  9 C        3.4610     5.6210     0.4820 C.3   1 <1>   0.1400 
 10 C        3.9400     3.5800    -0.7490 C.3   1 <1>   0.1400 
 11 C        4.6280     5.9120    -0.4730 C.3   1 <1>   0.4240 
 12 C        5.1610     4.4970    -0.7330 C.3   1 <1>  -0.1600 
 13 O        4.0970     6.3410    -1.6780 O.3   1 <1>  -0.6800 
 14 C        5.6530     6.9590     0.0290 C.ar  1 <1>  -0.1440 
 15 C        5.2780     8.2270     0.4950 C.ar  1 <1>  -0.1440 
 16 C        7.0130     6.6480     0.0200 C.ar  1 <1>  -0.1500 
 17 C        6.2440     9.1070     0.9650 C.ar  1 <1>  -0.1500 
 18 C        3.8420     8.7400     0.5100 C.3   1 <1>  -0.0970 
 19 C        7.9660     7.5340     0.4860 C.ar  1 <1>  -0.1500 
 20 C        7.5810     8.7670     0.9670 C.ar  1 <1>  -0.1500 
 21 H       -0.1840     2.0650     1.5850 H     1 <1>   0.0800 
 22 H       -0.8810     2.7600     0.1190 H     1 <1>   0.0800 
 23 H       -2.8310     0.8910     0.1890 H     1 <1>   0.0800 
 24 H       -2.1170     0.1860     1.6450 H     1 <1>   0.0800 
 25 H        1.2740     2.4020    -1.0590 H     1 <1>   0.0800 
 26 H        1.9610     1.7230     0.3970 H     1 <1>   0.0800 
 27 H       -2.6390    -1.3090    -0.9610 H     1 <1>   0.0800 
 28 H       -3.6000    -1.4850     0.4890 H     1 <1>   0.0800 
 29 H       -1.9310    -2.0080     0.4810 H     1 <1>   0.0800 
 30 H        3.8220     5.5720     1.4940 H     1 <1>   0.0800 
 31 H        2.6840     6.3600     0.4160 H     1 <1>   0.0800 
 32 H        3.5590     3.4750    -1.7510 H     1 <1>   0.0800 
 33 H        4.1730     2.6090    -0.3430 H     1 <1>   0.0800 
 34 H        5.7340     4.4340    -1.6410 H     1 <1>   0.0800 
 35 H        5.7800     4.1910     0.0910 H     1 <1>   0.0800 
 36 H        3.2990     5.8120    -1.8560 H     1 <1>   0.4000 
 37 H        7.3720     5.7090    -0.3550 H     1 <1>   0.1500 
 38 H        5.9590    10.0770     1.3340 H     1 <1>   0.1500 
 39 H        3.3260     8.4630    -0.3910 H     1 <1>   0.0800 
 40 H        3.8220     9.8130     0.5660 H     1 <1>   0.0800 
 41 H        3.3180     8.3520     1.3630 H     1 <1>   0.0800 
 42 H        9.0080     7.2640     0.4710 H     1 <1>   0.1500 
 43 H        8.3170     9.4600     1.3340 H     1 <1>   0.1500 
@<TRIPOS>BOND
  1   1   2  1   
  2   1   3  1   
  3   2   4  1   
  4   2  21  1   
  5   2  22  1   
  6   3   5  1   
  7   3  23  1   
  8   3  24  1   
  9   4   6  1   
 10   4  25  1   
 11   4  26  1   
 12   5  27  1   
 13   5  28  1   
 14   5  29  1   
 15   6   7  2   
 16   6   8  am  
 17   8   9  1   
 18   8  10  1   
 19   9  11  1   
 20   9  30  1   
 21   9  31  1   
 22  10  12  1   
 23  10  32  1   
 24  10  33  1   
 25  11  12  1   
 26  11  13  1   
 27  11  14  1   
 28  12  34  1   
 29  12  35  1   
 30  13  36  1   
 31  14  15  ar  
 32  14  16  ar  
 33  15  17  ar  
 34  15  18  1   
 35  16  19  ar  
 36  16  37  1   
 37  17  20  ar  
 38  17  38  1   
 39  18  39  1   
 40  18  40  1   
 41  18  41  1   
 42  19  20  ar  
 43  19  42  1   
 44  20  43  1   
@<TRIPOS>SUBSTRUCTURE
  1 ****   8 GROUP 4 **** **** 0

# MOE 2024.06 (io_trps.svl 2023.06)
