@<TRIPOS>MOLECULE
NONAME
48 50 1 0 0 
SMALL
USER_CHARGES


@<TRIPOS>ATOM
  1 CL      -1.7360    -0.7460     2.0850 Cl    1 <1>  -0.1770 
  2 C       -2.4430    -1.2020     0.5460 C.ar  1 <1>   0.1770 
  3 C       -2.9280    -0.2270    -0.3360 C.ar  1 <1>   0.1000 
  4 C       -2.5070    -2.5490     0.2620 C.ar  1 <1>  -0.1500 
  5 N       -2.8730     1.1370    -0.0420 N.pl3 1 <1>  -0.8380 
  6 C       -3.4690    -0.6880    -1.5350 C.ar  1 <1>  -0.1500 
  7 C       -3.0780    -3.0030    -0.9260 C.ar  1 <1>   0.0860 
  8 C       -1.5570     1.8070     0.0820 C.3   1 <1>   0.2090 
  9 C       -3.9160     2.1140    -0.4460 C.3   1 <1>   0.2090 
 10 C       -3.5400    -2.0380    -1.8210 C.ar  1 <1>  -0.1500 
 11 C       -3.1940    -4.4140    -1.2240 C.2   1 <1>   0.5440 
 12 C       -1.7630     3.1940    -0.5120 C.3   1 <1>  -0.1600 
 13 C       -3.2480     3.4760    -0.3070 C.3   1 <1>  -0.1600 
 14 O       -2.7020    -4.8460    -2.2480 O.2   1 <1>  -0.5700 
 15 N       -3.8820    -5.2850    -0.4020 N.am  1 <1>  -0.6600 
 16 C       -3.6370    -6.7600    -0.5290 C.3   1 <1>   0.3200 
 17 C       -4.8330    -4.8010     0.6620 C.3   1 <1>   0.1400 
 18 C       -4.8240    -7.6140    -0.1150 C.2   1 <1>  -0.3320 
 19 C       -6.0460    -4.0650     0.0590 C.3   1 <1>   0.1200 
 20 N       -6.0830    -7.4380    -0.5590 N.pl3 1 <1>   0.0330 
 21 C       -4.8700    -8.6690     0.7290 C.2   1 <1>   0.0770 
 22 O       -6.4160    -4.6390    -1.1540 O.3   1 <1>  -0.6800 
 23 C       -6.8150    -8.3930     0.0520 C.2   1 <1>   0.0060 
 24 N       -6.1210    -9.1540     0.8320 N.2   1 <1>  -0.5650 
 25 C       -8.3060    -8.5340    -0.1590 C.3   1 <1>  -0.0600 
 26 H       -2.1120    -3.2560     0.9680 H     1 <1>   0.1500 
 27 H       -3.8280     0.0170    -2.2600 H     1 <1>   0.1500 
 28 H       -0.7890     1.2600    -0.4390 H     1 <1>   0.0800 
 29 H       -1.3010     1.8840     1.1250 H     1 <1>   0.0800 
 30 H       -4.7790     2.0320     0.1930 H     1 <1>   0.0800 
 31 H       -4.2050     1.9560    -1.4690 H     1 <1>   0.0800 
 32 H       -3.9580    -2.3620    -2.7590 H     1 <1>   0.1500 
 33 H       -1.5380     3.1590    -1.5640 H     1 <1>   0.0800 
 34 H       -1.1350     3.9280    -0.0410 H     1 <1>   0.0800 
 35 H       -3.4150     3.8450     0.6900 H     1 <1>   0.0800 
 36 H       -3.6350     4.1870    -1.0150 H     1 <1>   0.0800 
 37 H       -2.7870    -7.0190     0.0790 H     1 <1>   0.0800 
 38 H       -3.3910    -7.0060    -1.5480 H     1 <1>   0.0800 
 39 H       -4.3230    -4.1420     1.3410 H     1 <1>   0.0800 
 40 H       -5.1880    -5.6200     1.2620 H     1 <1>   0.0800 
 41 H       -5.8010    -3.0330    -0.1260 H     1 <1>   0.0800 
 42 H       -6.8880    -4.1020     0.7280 H     1 <1>   0.0800 
 43 H       -6.4280    -6.6810    -1.1630 H     1 <1>   0.2700 
 44 H       -4.0580    -9.1150     1.2790 H     1 <1>   0.1500 
 45 H       -5.6040    -4.7480    -1.6970 H     1 <1>   0.4000 
 46 H       -8.8050    -7.6240     0.1210 H     1 <1>   0.0800 
 47 H       -8.6840    -9.3380     0.4470 H     1 <1>   0.0800 
 48 H       -8.5120    -8.7510    -1.1910 H     1 <1>   0.0800 
@<TRIPOS>BOND
  1   1   2  1   
  2   2   3  ar  
  3   2   4  ar  
  4   3   5  1   
  5   3   6  ar  
  6   4   7  ar  
  7   4  26  1   
  8   5   8  1   
  9   5   9  1   
 10   6  10  ar  
 11   6  27  1   
 12   7  10  ar  
 13   7  11  1   
 14   8  12  1   
 15   8  28  1   
 16   8  29  1   
 17   9  13  1   
 18   9  30  1   
 19   9  31  1   
 20  10  32  1   
 21  11  14  2   
 22  11  15  am  
 23  12  13  1   
 24  12  33  1   
 25  12  34  1   
 26  13  35  1   
 27  13  36  1   
 28  15  16  1   
 29  15  17  1   
 30  16  18  1   
 31  16  37  1   
 32  16  38  1   
 33  17  19  1   
 34  17  39  1   
 35  17  40  1   
 36  18  20  1   
 37  18  21  2   
 38  19  22  1   
 39  19  41  1   
 40  19  42  1   
 41  20  23  1   
 42  20  43  1   
 43  21  24  1   
 44  21  44  1   
 45  22  45  1   
 46  23  24  2   
 47  23  25  1   
 48  25  46  1   
 49  25  47  1   
 50  25  48  1   
@<TRIPOS>SUBSTRUCTURE
  1 ****   7 GROUP 4 **** **** 0

# MOE 2024.06 (io_trps.svl 2023.06)
