@<TRIPOS>MOLECULE
NONAME
32 32 1 0 0 
SMALL
USER_CHARGES


@<TRIPOS>ATOM
  1 N        2.5150     2.5230     0.1980 N.4   1 <1>  -0.9590 
  2 C        2.6900     3.8040    -0.5780 C.3   1 <1>   0.3430 
  3 C        3.7420     1.6610     0.0600 C.3   1 <1>   0.3430 
  4 C        1.2990     1.7710    -0.2150 C.3   1 <1>   0.3430 
  5 C        3.9870     4.5430    -0.1820 C.3   1 <1>   0.1100 
  6 C        5.0260     2.4240     0.4530 C.3   1 <1>   0.1100 
  7 C        0.0360     2.4980     0.2500 C.3   1 <1>  -0.1600 
  8 N        5.1630     3.6700    -0.3170 N.3   1 <1>  -0.9000 
  9 C       -1.2150     1.6700    -0.0750 C.3   1 <1>  -0.1600 
 10 C       -2.4870     2.3880     0.3890 C.3   1 <1>  -0.1600 
 11 C       -3.7330     1.5600     0.0640 C.3   1 <1>  -0.2400 
 12 H        2.4240     2.7710     1.1900 H     1 <1>   0.4500 
 13 H        1.8500     4.4570    -0.4110 H     1 <1>   0.0800 
 14 H        2.7360     3.5850    -1.6320 H     1 <1>   0.0800 
 15 H        3.8440     1.3370    -0.9620 H     1 <1>   0.0800 
 16 H        3.6490     0.7850     0.6800 H     1 <1>   0.0800 
 17 H        1.3140     0.7890     0.2310 H     1 <1>   0.0800 
 18 H        1.2820     1.6530    -1.2870 H     1 <1>   0.0800 
 19 H        3.9080     4.8980     0.8320 H     1 <1>   0.0800 
 20 H        4.1120     5.4000    -0.8220 H     1 <1>   0.0800 
 21 H        5.8810     1.7980     0.2570 H     1 <1>   0.0800 
 22 H        5.0130     2.6430     1.5070 H     1 <1>   0.0800 
 23 H       -0.0490     3.4500    -0.2410 H     1 <1>   0.0800 
 24 H        0.0790     2.6550     1.3140 H     1 <1>   0.0800 
 25 H        6.0130     4.1760    -0.0180 H     1 <1>   0.3600 
 26 H       -1.1550     0.7110     0.4130 H     1 <1>   0.0800 
 27 H       -1.2750     1.5010    -1.1380 H     1 <1>   0.0800 
 28 H       -2.5680     3.3460    -0.0970 H     1 <1>   0.0800 
 29 H       -2.4470     2.5560     1.4520 H     1 <1>   0.0800 
 30 H       -3.8150     1.3970    -0.9960 H     1 <1>   0.0800 
 31 H       -4.6160     2.0790     0.3960 H     1 <1>   0.0800 
 32 H       -3.6950     0.6060     0.5600 H     1 <1>   0.0800 
@<TRIPOS>BOND
  1   1   2  1   
  2   1   3  1   
  3   1   4  1   
  4   1  12  1   
  5   2   5  1   
  6   2  13  1   
  7   2  14  1   
  8   3   6  1   
  9   3  15  1   
 10   3  16  1   
 11   4   7  1   
 12   4  17  1   
 13   4  18  1   
 14   5   8  1   
 15   5  19  1   
 16   5  20  1   
 17   6   8  1   
 18   6  21  1   
 19   6  22  1   
 20   7   9  1   
 21   7  23  1   
 22   7  24  1   
 23   8  25  1   
 24   9  10  1   
 25   9  26  1   
 26   9  27  1   
 27  10  11  1   
 28  10  28  1   
 29  10  29  1   
 30  11  30  1   
 31  11  31  1   
 32  11  32  1   
@<TRIPOS>SUBSTRUCTURE
  1 ****   4 GROUP 4 **** **** 0

# MOE 2024.06 (io_trps.svl 2023.06)
