@<TRIPOS>MOLECULE
NONAME
36 36 1 0 0 
SMALL
USER_CHARGES


@<TRIPOS>ATOM
  1 CL      -0.4430    -0.2920     1.2210 Cl    1 <1>  -0.1770 
  2 C       -0.2320    -2.0200     1.0910 C.ar  1 <1>   0.1770 
  3 C       -1.3010    -2.8070     0.7150 C.ar  1 <1>  -0.1500 
  4 C        1.0060    -2.5700     1.3690 C.ar  1 <1>  -0.1500 
  5 C       -1.1350    -4.1790     0.6110 C.ar  1 <1>   0.0830 
  6 C        1.1740    -3.9410     1.2660 C.ar  1 <1>  -0.1500 
  7 O       -2.2230    -4.8960     0.2370 O.3   1 <1>  -0.3630 
  8 C        0.1090    -4.7440     0.8900 C.ar  1 <1>  -0.1500 
  9 C       -2.1590    -6.2990     0.0800 C.3   1 <1>   0.1200 
 10 C       -3.5440    -6.8030    -0.3330 C.3   1 <1>   0.1100 
 11 N       -3.5710    -8.2780    -0.4540 N.3   1 <1>  -0.8100 
 12 C       -4.9600    -8.7680    -0.4230 C.3   1 <1>   0.1100 
 13 C       -2.8830    -8.7210    -1.6810 C.3   1 <1>   0.0300 
 14 C       -4.9910   -10.2140     0.0640 C.3   1 <1>  -0.0550 
 15 S       -6.6680   -10.8180     0.1370 S.o2  1 <1>   1.0900 
 16 O       -7.1660   -10.9190    -1.2150 O.2   1 <1>  -0.6500 
 17 O       -7.3900   -10.0440     1.1180 O.2   1 <1>  -0.6500 
 18 C       -6.4800   -12.4720     0.7750 C.3   1 <1>  -0.1350 
 19 H       -2.2550    -2.3620     0.5040 H     1 <1>   0.1500 
 20 H        1.8220    -1.9330     1.6600 H     1 <1>   0.1500 
 21 H        2.1330    -4.3820     1.4800 H     1 <1>   0.1500 
 22 H        0.2680    -5.8040     0.8200 H     1 <1>   0.1500 
 23 H       -1.8760    -6.7330     1.0220 H     1 <1>   0.0800 
 24 H       -1.4290    -6.5150    -0.6770 H     1 <1>   0.0800 
 25 H       -3.8390    -6.3500    -1.2630 H     1 <1>   0.0800 
 26 H       -4.2360    -6.4960     0.4330 H     1 <1>   0.0800 
 27 H       -5.4140    -8.6850    -1.3970 H     1 <1>   0.0800 
 28 H       -5.5440    -8.1790     0.2660 H     1 <1>   0.0800 
 29 H       -1.8530    -8.4130    -1.6660 H     1 <1>   0.0800 
 30 H       -3.3590    -8.3030    -2.5530 H     1 <1>   0.0800 
 31 H       -2.9010    -9.7930    -1.7580 H     1 <1>   0.0800 
 32 H       -4.5470   -10.2500     1.0400 H     1 <1>   0.0800 
 33 H       -4.4190   -10.8280    -0.6010 H     1 <1>   0.0800 
 34 H       -5.8730   -13.0640     0.1180 H     1 <1>   0.0800 
 35 H       -7.4420   -12.9400     0.8590 H     1 <1>   0.0800 
 36 H       -6.0280   -12.4520     1.7470 H     1 <1>   0.0800 
@<TRIPOS>BOND
  1   1   2  1   
  2   2   3  ar  
  3   2   4  ar  
  4   3   5  ar  
  5   3  19  1   
  6   4   6  ar  
  7   4  20  1   
  8   5   7  1   
  9   5   8  ar  
 10   6   8  ar  
 11   6  21  1   
 12   7   9  1   
 13   8  22  1   
 14   9  10  1   
 15   9  23  1   
 16   9  24  1   
 17  10  11  1   
 18  10  25  1   
 19  10  26  1   
 20  11  12  1   
 21  11  13  1   
 22  12  14  1   
 23  12  27  1   
 24  12  28  1   
 25  13  29  1   
 26  13  30  1   
 27  13  31  1   
 28  14  15  1   
 29  14  32  1   
 30  14  33  1   
 31  15  16  2   
 32  15  17  2   
 33  15  18  1   
 34  18  34  1   
 35  18  35  1   
 36  18  36  1   
@<TRIPOS>SUBSTRUCTURE
  1 ****   9 GROUP 4 **** **** 0

# MOE 2024.06 (io_trps.svl 2023.06)
