@<TRIPOS>MOLECULE
NONAME
55 57 1 0 0 
SMALL
USER_CHARGES


@<TRIPOS>ATOM
  1 O        2.9750     1.4610     0.5520 O.2   1 <1>  -0.5700 
  2 C        3.1630     0.2840     0.3260 C.2   1 <1>   0.7030 
  3 N        3.4340    -0.1020    -0.9800 N.am  1 <1>  -0.6600 
  4 C        3.1380    -0.6450     1.4450 C.2   1 <1>   0.2770 
  5 C        4.1510    -1.3730    -1.3500 C.3   1 <1>   0.1400 
  6 C        3.1290     0.8190    -2.1210 C.3   1 <1>   0.1400 
  7 N        2.3450    -1.7860     1.6110 N.pl3 1 <1>  -0.7640 
  8 C        3.8870    -0.5490     2.5720 C.2   1 <1>   0.2000 
  9 C        5.5520    -1.1270    -1.9580 C.3   1 <1>   0.3430 
 10 C        4.2590     1.8360    -2.3520 C.3   1 <1>  -0.1600 
 11 C        2.6360    -2.3150     2.7950 C.cat 1 <1>   0.6500 
 12 C        1.2620    -2.2220     0.6830 C.3   1 <1>   0.2740 
 13 N        3.5760    -1.5990     3.3900 N.pl3 1 <1>  -0.7000 
 14 N        6.0190     0.2600    -1.6780 N.4   1 <1>  -0.9590 
 15 C        5.6250     1.2470    -2.7120 C.3   1 <1>   0.3430 
 16 C        7.4240     0.3980    -1.1980 C.3   1 <1>   0.4860 
 17 C        7.4320     1.4940    -0.1300 C.ar  1 <1>   0.1670 
 18 N        6.3840     1.4750     0.6970 N.ar  1 <1>  -0.6200 
 19 C        8.4530     2.4370    -0.0940 C.ar  1 <1>  -0.1440 
 20 C        6.3260     2.4760     1.5650 C.ar  1 <1>   0.1600 
 21 C        8.3740     3.4450     0.8560 C.ar  1 <1>   0.0820 
 22 C        9.6250     2.3830    -1.0790 C.3   1 <1>  -0.0970 
 23 C        7.2690     3.4780     1.6900 C.ar  1 <1>  -0.1440 
 24 O        9.3260     4.3930     0.9450 O.3   1 <1>  -0.3630 
 25 C        7.0700     4.5880     2.7160 C.3   1 <1>  -0.0970 
 26 C       10.3470     4.1910     1.8970 C.3   1 <1>   0.0400 
 27 H        3.5550    -1.9290    -2.0540 H     1 <1>   0.0800 
 28 H        4.2710    -1.9950    -0.4800 H     1 <1>   0.0800 
 29 H        2.2200     1.3590    -1.9030 H     1 <1>   0.0800 
 30 H        2.9530     0.2490    -3.0180 H     1 <1>   0.0800 
 31 H        4.6120     0.2110     2.8220 H     1 <1>   0.1500 
 32 H        5.5170    -1.2910    -3.0230 H     1 <1>   0.0800 
 33 H        6.2400    -1.8450    -1.5430 H     1 <1>   0.0800 
 34 H        4.3620     2.4610    -1.4820 H     1 <1>   0.0800 
 35 H        3.9610     2.4870    -3.1540 H     1 <1>   0.0800 
 36 H        2.1660    -3.1940     3.2200 H     1 <1>   0.1500 
 37 H        1.6780    -2.5310    -0.2600 H     1 <1>   0.0800 
 38 H        0.5760    -1.4080     0.5120 H     1 <1>   0.0800 
 39 H        0.7130    -3.0480     1.1050 H     1 <1>   0.0800 
 40 H        3.9760    -1.7780     4.3190 H     1 <1>   0.4500 
 41 H        5.4960     0.5830    -0.8390 H     1 <1>   0.4500 
 42 H        6.3450     2.0500    -2.7490 H     1 <1>   0.0800 
 43 H        5.5890     0.7780    -3.6820 H     1 <1>   0.0800 
 44 H        8.0840     0.6380    -2.0130 H     1 <1>   0.0800 
 45 H        7.7520    -0.5200    -0.7400 H     1 <1>   0.0800 
 46 H        5.4680     2.5090     2.2150 H     1 <1>   0.1500 
 47 H       10.1330     1.4380    -1.0090 H     1 <1>   0.0800 
 48 H       10.3510     3.1520    -0.8850 H     1 <1>   0.0800 
 49 H        9.2730     2.5260    -2.0850 H     1 <1>   0.0800 
 50 H        6.0320     4.6890     2.9770 H     1 <1>   0.0800 
 51 H        7.4040     5.5300     2.3160 H     1 <1>   0.0800 
 52 H        7.6310     4.3730     3.6070 H     1 <1>   0.0800 
 53 H       11.0300     5.0200     1.8370 H     1 <1>   0.0800 
 54 H       10.8600     3.2730     1.6710 H     1 <1>   0.0800 
 55 H        9.9110     4.1440     2.8780 H     1 <1>   0.0800 
@<TRIPOS>BOND
  1   1   2  2   
  2   2   3  am  
  3   2   4  1   
  4   3   5  1   
  5   3   6  1   
  6   4   7  1   
  7   4   8  2   
  8   5   9  1   
  9   5  27  1   
 10   5  28  1   
 11   6  10  1   
 12   6  29  1   
 13   6  30  1   
 14   7  11  ar  
 15   7  12  1   
 16   8  13  1   
 17   8  31  1   
 18   9  14  1   
 19   9  32  1   
 20   9  33  1   
 21  10  15  1   
 22  10  34  1   
 23  10  35  1   
 24  11  13  ar  
 25  11  36  1   
 26  12  37  1   
 27  12  38  1   
 28  12  39  1   
 29  13  40  1   
 30  14  15  1   
 31  14  16  1   
 32  14  41  1   
 33  15  42  1   
 34  15  43  1   
 35  16  17  1   
 36  16  44  1   
 37  16  45  1   
 38  17  18  ar  
 39  17  19  ar  
 40  18  20  ar  
 41  19  21  ar  
 42  19  22  1   
 43  20  23  ar  
 44  20  46  1   
 45  21  23  ar  
 46  21  24  1   
 47  22  47  1   
 48  22  48  1   
 49  22  49  1   
 50  23  25  1   
 51  24  26  1   
 52  25  50  1   
 53  25  51  1   
 54  25  52  1   
 55  26  53  1   
 56  26  54  1   
 57  26  55  1   
@<TRIPOS>SUBSTRUCTURE
  1 ****  18 GROUP 4 **** **** 0

# MOE 2024.06 (io_trps.svl 2023.06)
