@<TRIPOS>MOLECULE
NONAME
65 67 1 0 0 
SMALL
USER_CHARGES


@<TRIPOS>ATOM
  1 O       -1.3340     0.3520     2.4970 O.2   1 <1>  -0.5700 
  2 C       -1.5860     0.7460     1.3840 C.2   1 <1>   0.5690 
  3 N       -2.0870    -0.1290     0.4400 N.am  1 <1>  -0.6600 
  4 C       -1.3580     2.2410     1.1260 C.3   1 <1>  -0.0190 
  5 C       -2.2650    -1.5760     0.7770 C.3   1 <1>   0.1400 
  6 C       -2.6760     0.2190    -0.8930 C.3   1 <1>   0.1400 
  7 C       -2.7010     3.0060     1.0370 C.3   1 <1>  -0.1600 
  8 C       -0.3670     2.5040    -0.0350 C.3   1 <1>  -0.1600 
  9 C       -3.7600    -1.9350     0.7750 C.3   1 <1>   0.3430 
 10 C       -4.1740    -0.1400    -0.9230 C.3   1 <1>   0.3430 
 11 C       -2.5500     4.4720     0.6150 C.3   1 <1>   0.2000 
 12 C       -0.2710     3.9900    -0.4040 C.3   1 <1>  -0.1600 
 13 N       -4.4280    -1.5720    -0.5320 N.4   1 <1>  -0.9590 
 14 O       -3.8420     4.9260     0.3170 O.3   1 <1>  -0.5600 
 15 C       -1.6470     4.6260    -0.6280 C.3   1 <1>   0.2000 
 16 C       -5.8830    -1.8800    -0.4970 C.3   1 <1>   0.4860 
 17 C       -4.0410     6.2960     0.4900 C.3   1 <1>   0.0400 
 18 O       -2.2660     4.0120    -1.7090 O.3   1 <1>  -0.6800 
 19 C       -6.0430    -3.3770    -0.3310 C.ar  1 <1>  -0.1440 
 20 C       -5.8100    -4.2310    -1.3960 C.ar  1 <1>  -0.1500 
 21 C       -6.4130    -3.9110     0.8920 C.ar  1 <1>  -0.1500 
 22 C       -5.9310    -5.5980    -1.2300 C.ar  1 <1>  -0.1500 
 23 C       -6.5310    -5.2800     1.0510 C.ar  1 <1>  -0.1500 
 24 C       -6.2880    -6.1530    -0.0060 C.ar  1 <1>  -0.1440 
 25 C       -6.4060    -7.6880     0.1260 C.3   1 <1>   0.1430 
 26 C       -6.8000    -8.1480     1.5400 C.3   1 <1>  -0.2400 
 27 C       -5.0570    -8.3400    -0.2120 C.3   1 <1>  -0.2400 
 28 C       -7.4790    -8.2050    -0.8440 C.3   1 <1>  -0.2400 
 29 H       -0.8680     2.6240     2.0050 H     1 <1>   0.0800 
 30 H       -1.7400    -2.1800     0.0580 H     1 <1>   0.0800 
 31 H       -1.8520    -1.8040     1.7450 H     1 <1>   0.0800 
 32 H       -2.5730     1.2610    -1.1190 H     1 <1>   0.0800 
 33 H       -2.1550    -0.3240    -1.6630 H     1 <1>   0.0800 
 34 H       -3.1780     2.9760     2.0010 H     1 <1>   0.0800 
 35 H       -3.3600     2.5310     0.3420 H     1 <1>   0.0800 
 36 H        0.6090     2.1500     0.2540 H     1 <1>   0.0800 
 37 H       -0.6370     1.9620    -0.9180 H     1 <1>   0.0800 
 38 H       -4.2340    -1.4090     1.5870 H     1 <1>   0.0800 
 39 H       -3.8660    -2.9920     0.9600 H     1 <1>   0.0800 
 40 H       -4.5590     0.0450    -1.9130 H     1 <1>   0.0800 
 41 H       -4.6890     0.5180    -0.2410 H     1 <1>   0.0800 
 42 H       -2.1490     5.0400     1.4380 H     1 <1>   0.0800 
 43 H        0.3270     4.1130    -1.2900 H     1 <1>   0.0800 
 44 H        0.2230     4.5170     0.3930 H     1 <1>   0.0800 
 45 H       -4.0210    -2.1870    -1.2460 H     1 <1>   0.4500 
 46 H       -1.5240     5.6680    -0.8670 H     1 <1>   0.0800 
 47 H       -6.3570    -1.3640     0.3220 H     1 <1>   0.0800 
 48 H       -6.3530    -1.5730    -1.4160 H     1 <1>   0.0800 
 49 H       -5.0620     6.5200     0.2350 H     1 <1>   0.0800 
 50 H       -3.3790     6.8440    -0.1570 H     1 <1>   0.0800 
 51 H       -3.8640     6.5530     1.5210 H     1 <1>   0.0800 
 52 H       -3.1980     4.3170    -1.7070 H     1 <1>   0.4000 
 53 H       -5.5390    -3.8530    -2.3670 H     1 <1>   0.1500 
 54 H       -6.6160    -3.2750     1.7370 H     1 <1>   0.1500 
 55 H       -5.7440    -6.2370    -2.0750 H     1 <1>   0.1500 
 56 H       -6.8200    -5.6460     2.0190 H     1 <1>   0.1500 
 57 H       -6.8650    -9.2210     1.5840 H     1 <1>   0.0800 
 58 H       -7.7590    -7.7480     1.8150 H     1 <1>   0.0800 
 59 H       -6.0660    -7.8310     2.2600 H     1 <1>   0.0800 
 60 H       -5.1110    -9.4080    -0.0920 H     1 <1>   0.0800 
 61 H       -4.2910    -7.9630     0.4410 H     1 <1>   0.0800 
 62 H       -4.7680    -8.1360    -1.2260 H     1 <1>   0.0800 
 63 H       -7.6030    -9.2690    -0.7420 H     1 <1>   0.0800 
 64 H       -7.2150    -7.9990    -1.8650 H     1 <1>   0.0800 
 65 H       -8.4220    -7.7310    -0.6370 H     1 <1>   0.0800 
@<TRIPOS>BOND
  1   1   2  2   
  2   2   3  am  
  3   2   4  1   
  4   3   5  1   
  5   3   6  1   
  6   4   7  1   
  7   4   8  1   
  8   4  29  1   
  9   5   9  1   
 10   5  30  1   
 11   5  31  1   
 12   6  10  1   
 13   6  32  1   
 14   6  33  1   
 15   7  11  1   
 16   7  34  1   
 17   7  35  1   
 18   8  12  1   
 19   8  36  1   
 20   8  37  1   
 21   9  13  1   
 22   9  38  1   
 23   9  39  1   
 24  10  13  1   
 25  10  40  1   
 26  10  41  1   
 27  11  14  1   
 28  11  15  1   
 29  11  42  1   
 30  12  15  1   
 31  12  43  1   
 32  12  44  1   
 33  13  16  1   
 34  13  45  1   
 35  14  17  1   
 36  15  18  1   
 37  15  46  1   
 38  16  19  1   
 39  16  47  1   
 40  16  48  1   
 41  17  49  1   
 42  17  50  1   
 43  17  51  1   
 44  18  52  1   
 45  19  20  ar  
 46  19  21  ar  
 47  20  22  ar  
 48  20  53  1   
 49  21  23  ar  
 50  21  54  1   
 51  22  24  ar  
 52  22  55  1   
 53  23  24  ar  
 54  23  56  1   
 55  24  25  1   
 56  25  26  1   
 57  25  27  1   
 58  25  28  1   
 59  26  57  1   
 60  26  58  1   
 61  26  59  1   
 62  27  60  1   
 63  27  61  1   
 64  27  62  1   
 65  28  63  1   
 66  28  64  1   
 67  28  65  1   
@<TRIPOS>SUBSTRUCTURE
  1 ****  13 GROUP 4 **** **** 0

# MOE 2024.06 (io_trps.svl 2023.06)
