@<TRIPOS>MOLECULE
NONAME
47 49 1 0 0 
SMALL
USER_CHARGES


@<TRIPOS>ATOM
  1 S       -0.2460    -0.0660     0.7230 S.o2  1 <1>   1.4470 
  2 O        0.0960    -1.3720     1.2530 O.2   1 <1>  -0.6500 
  3 O       -0.8650     0.8810     1.6190 O.2   1 <1>  -0.6500 
  4 N       -1.3220    -0.3790    -0.5640 N.am  1 <1>  -0.8490 
  5 C        1.2070     0.6600    -0.0660 C.ar  1 <1>  -0.0090 
  6 C       -1.4980    -1.7980    -0.8980 C.3   1 <1>   0.1960 
  7 C       -2.6040     0.3430    -0.5120 C.3   1 <1>   0.1960 
  8 C        1.1150     1.8390    -0.7930 C.ar  1 <1>   0.1900 
  9 C        2.4660     0.0730     0.0270 C.ar  1 <1>  -0.1500 
 10 C       -2.4190    -2.5140     0.1300 C.3   1 <1>   0.4230 
 11 C       -3.5710    -0.3160     0.4880 C.3   1 <1>  -0.1600 
 12 F       -0.0430     2.4310    -0.9100 F     1 <1>  -0.1900 
 13 C        2.1970     2.4410    -1.4180 C.ar  1 <1>  -0.1500 
 14 C        3.5490     0.6690    -0.5960 C.ar  1 <1>   0.1900 
 15 N       -2.4790    -4.0280    -0.0250 N.4   1 <1>  -0.9590 
 16 C       -3.8130    -1.8300     0.2260 C.3   1 <1>   0.0000 
 17 C        3.4420     1.8430    -1.3190 C.ar  1 <1>  -0.1500 
 18 F        4.7180     0.0990    -0.4970 F     1 <1>  -0.1900 
 19 C       -3.6450    -4.6660     0.6700 C.3   1 <1>   0.3430 
 20 C       -2.3720    -4.5460    -1.4280 C.3   1 <1>   0.2630 
 21 C       -4.5980    -2.4310     1.4290 C.3   1 <1>  -0.1600 
 22 C       -4.6070    -2.0320    -1.0970 C.3   1 <1>   0.1200 
 23 C       -4.1030    -3.8250     1.8600 C.3   1 <1>  -0.1600 
 24 O       -5.7620    -1.2690    -1.1230 O.3   1 <1>  -0.6800 
 25 H       -1.9170    -1.8610    -1.8860 H     1 <1>   0.0800 
 26 H       -0.5340    -2.2780    -0.9250 H     1 <1>   0.0800 
 27 H       -2.4400     1.3740    -0.2400 H     1 <1>   0.0800 
 28 H       -3.0500     0.3460    -1.4930 H     1 <1>   0.0800 
 29 H        2.6120    -0.8390     0.5810 H     1 <1>   0.1500 
 30 H       -1.9620    -2.3390     1.0900 H     1 <1>   0.0800 
 31 H       -3.1730    -0.1750     1.4780 H     1 <1>   0.0800 
 32 H       -4.5010     0.2250     0.4670 H     1 <1>   0.0800 
 33 H        2.0630     3.3560    -1.9680 H     1 <1>   0.1500 
 34 H       -1.6410    -4.3590     0.4810 H     1 <1>   0.4500 
 35 H        4.3100     2.2730    -1.7870 H     1 <1>   0.1500 
 36 H       -4.4710    -4.7620    -0.0170 H     1 <1>   0.0800 
 37 H       -3.3760    -5.6560     1.0040 H     1 <1>   0.0800 
 38 H       -3.2000    -4.1980    -2.0240 H     1 <1>   0.0800 
 39 H       -2.3800    -5.6240    -1.4290 H     1 <1>   0.0800 
 40 H       -1.4530    -4.2160    -1.8860 H     1 <1>   0.0800 
 41 H       -4.5270    -1.7870     2.2910 H     1 <1>   0.0800 
 42 H       -5.6470    -2.4920     1.1940 H     1 <1>   0.0800 
 43 H       -4.9000    -3.0580    -1.2280 H     1 <1>   0.0800 
 44 H       -4.0320    -1.7310    -1.9530 H     1 <1>   0.0800 
 45 H       -4.8980    -4.3380     2.3730 H     1 <1>   0.0800 
 46 H       -3.2890    -3.7300     2.5590 H     1 <1>   0.0800 
 47 H       -6.3770    -1.4990    -0.3980 H     1 <1>   0.4000 
@<TRIPOS>BOND
  1   1   2  2   
  2   1   3  2   
  3   1   4  am  
  4   1   5  1   
  5   4   6  1   
  6   4   7  1   
  7   5   8  ar  
  8   5   9  ar  
  9   6  10  1   
 10   6  25  1   
 11   6  26  1   
 12   7  11  1   
 13   7  27  1   
 14   7  28  1   
 15   8  12  1   
 16   8  13  ar  
 17   9  14  ar  
 18   9  29  1   
 19  10  15  1   
 20  10  16  1   
 21  10  30  1   
 22  11  16  1   
 23  11  31  1   
 24  11  32  1   
 25  13  17  ar  
 26  13  33  1   
 27  14  17  ar  
 28  14  18  1   
 29  15  19  1   
 30  15  20  1   
 31  15  34  1   
 32  16  21  1   
 33  16  22  1   
 34  17  35  1   
 35  19  23  1   
 36  19  36  1   
 37  19  37  1   
 38  20  38  1   
 39  20  39  1   
 40  20  40  1   
 41  21  23  1   
 42  21  41  1   
 43  21  42  1   
 44  22  24  1   
 45  22  43  1   
 46  22  44  1   
 47  23  45  1   
 48  23  46  1   
 49  24  47  1   
@<TRIPOS>SUBSTRUCTURE
  1 ****   4 GROUP 4 **** **** 0

# MOE 2024.06 (io_trps.svl 2023.06)
