@<TRIPOS>MOLECULE
NONAME
38 40 1 0 0 
SMALL
USER_CHARGES


@<TRIPOS>ATOM
  1 F       -1.1520    -0.7510    -0.0560 F     1 <1>  -0.3400 
  2 C       -2.0370    -1.5310     0.5610 C.3   1 <1>   0.8560 
  3 F       -2.3860    -0.8570     1.6560 F     1 <1>  -0.3400 
  4 N       -1.4050    -2.8420     0.9360 N.pl3 1 <1>   0.3140 
  5 N       -1.8900    -4.0390     0.5280 N.2   1 <1>  -0.7070 
  6 C       -0.3050    -3.0120     1.7020 C.2   1 <1>  -0.3020 
  7 C       -1.0870    -4.9610     1.0420 C.2   1 <1>   0.2030 
  8 C       -0.0800    -4.3350     1.7880 C.2   1 <1>  -0.1500 
  9 C       -1.1700    -6.4180     0.9040 C.2   1 <1>   0.7160 
 10 O       -0.3560    -7.1200     1.4830 O.2   1 <1>  -0.5700 
 11 N       -2.1290    -7.0680     0.1450 N.am  1 <1>  -0.6600 
 12 C       -3.2190    -6.4200    -0.6240 C.3   1 <1>   0.1400 
 13 C       -2.2310    -8.5440     0.0520 C.3   1 <1>   0.1400 
 14 C       -4.0160    -7.5720    -1.2380 C.3   1 <1>   0.2000 
 15 C       -3.6650    -8.8060    -0.4100 C.3   1 <1>  -0.0800 
 16 O       -5.3810    -7.3390    -1.1790 O.3   1 <1>  -0.6800 
 17 C       -3.8450   -10.1170    -1.1930 C.3   1 <1>  -0.0170 
 18 C       -3.5110   -11.3270    -0.3380 C.ar  1 <1>   0.1670 
 19 N       -2.2430   -11.7030    -0.3120 N.ar  1 <1>  -0.6200 
 20 C       -4.5200   -11.9750     0.3730 C.ar  1 <1>   0.1600 
 21 C       -2.0520   -12.7550     0.4660 C.ar  1 <1>   0.1600 
 22 N       -4.3320   -13.0270     1.1520 N.ar  1 <1>  -0.6200 
 23 C       -3.0620   -13.3960     1.1740 C.ar  1 <1>   0.1600 
 24 H       -2.8990    -1.6480    -0.0680 H     1 <1>   0.0800 
 25 H        0.2400    -2.1910     2.1330 H     1 <1>   0.1500 
 26 H        0.7060    -4.8520     2.3140 H     1 <1>   0.1500 
 27 H       -3.8310    -5.8390     0.0450 H     1 <1>   0.0800 
 28 H       -2.8070    -5.7880    -1.3910 H     1 <1>   0.0800 
 29 H       -1.5190    -8.9000    -0.6730 H     1 <1>   0.0800 
 30 H       -2.0310    -9.0110     1.0030 H     1 <1>   0.0800 
 31 H       -3.7360    -7.6980    -2.2710 H     1 <1>   0.0800 
 32 H       -4.2800    -8.8300     0.4730 H     1 <1>   0.0800 
 33 H       -5.6570    -7.1750    -0.2570 H     1 <1>   0.4000 
 34 H       -3.2140   -10.1170    -2.0650 H     1 <1>   0.0800 
 35 H       -4.8630   -10.1880    -1.5330 H     1 <1>   0.0800 
 36 H       -5.5270   -11.6040     0.2960 H     1 <1>   0.1500 
 37 H       -1.0470   -13.1300     0.5470 H     1 <1>   0.1500 
 38 H       -2.8080   -14.2460     1.7810 H     1 <1>   0.1500 
@<TRIPOS>BOND
  1   1   2  1   
  2   2   3  1   
  3   2   4  1   
  4   2  24  1   
  5   4   5  1   
  6   4   6  1   
  7   5   7  2   
  8   6   8  2   
  9   6  25  1   
 10   7   8  1   
 11   7   9  1   
 12   8  26  1   
 13   9  10  2   
 14   9  11  am  
 15  11  12  1   
 16  11  13  1   
 17  12  14  1   
 18  12  27  1   
 19  12  28  1   
 20  13  15  1   
 21  13  29  1   
 22  13  30  1   
 23  14  15  1   
 24  14  16  1   
 25  14  31  1   
 26  15  17  1   
 27  15  32  1   
 28  16  33  1   
 29  17  18  1   
 30  17  34  1   
 31  17  35  1   
 32  18  19  ar  
 33  18  20  ar  
 34  19  21  ar  
 35  20  22  ar  
 36  20  36  1   
 37  21  23  ar  
 38  21  37  1   
 39  22  23  ar  
 40  23  38  1   
@<TRIPOS>SUBSTRUCTURE
  1 ****  11 GROUP 4 **** **** 0

# MOE 2024.06 (io_trps.svl 2023.06)
