@<TRIPOS>MOLECULE
NONAME
52 55 1 0 0 
SMALL
USER_CHARGES


@<TRIPOS>ATOM
  1 CL      -0.9270    -0.2390    -2.3360 Cl    1 <1>  -0.1770 
  2 C       -1.9620    -0.9070    -1.0860 C.ar  1 <1>   0.1770 
  3 C       -2.7480    -0.0670    -0.2850 C.ar  1 <1>   0.1000 
  4 C       -1.9710    -2.2780    -0.9440 C.ar  1 <1>  -0.1500 
  5 N       -2.7450     1.3240    -0.4300 N.pl3 1 <1>  -0.8380 
  6 C       -3.5360    -0.6890     0.6810 C.ar  1 <1>  -0.1500 
  7 C       -2.7780    -2.8940     0.0100 C.ar  1 <1>   0.0860 
  8 C       -1.5050     2.0900    -0.1650 C.3   1 <1>   0.2090 
  9 C       -3.9400     2.1820    -0.2310 C.3   1 <1>   0.2090 
 10 C       -3.5490    -2.0630     0.8240 C.ar  1 <1>  -0.1500 
 11 C       -2.8000    -4.3340     0.1420 C.2   1 <1>   0.5440 
 12 C       -1.9770     3.3930     0.4660 C.3   1 <1>  -0.1600 
 13 C       -3.3840     3.5930    -0.0880 C.3   1 <1>  -0.1600 
 14 O       -1.7620    -4.9370     0.3400 O.2   1 <1>  -0.5700 
 15 N       -3.9690    -5.0540     0.0370 N.am  1 <1>  -0.6600 
 16 C       -5.2530    -4.5370    -0.5040 C.3   1 <1>   0.1400 
 17 C       -3.9970    -6.5410     0.0730 C.3   1 <1>   0.1400 
 18 C       -6.2340    -5.6910    -0.3120 C.3   1 <1>   0.2000 
 19 C       -5.3620    -6.9330    -0.5060 C.3   1 <1>  -0.0800 
 20 O       -6.6920    -5.6450     0.9970 O.3   1 <1>  -0.6800 
 21 C       -5.9300    -8.2420     0.0700 C.3   1 <1>   0.0210 
 22 C       -4.9840    -9.3980    -0.1880 C.2   1 <1>   0.1080 
 23 N       -4.6900    -9.8130    -1.3800 N.2   1 <1>  -0.7070 
 24 C       -4.3240   -10.1230     0.7990 C.2   1 <1>  -0.1500 
 25 N       -3.8260   -10.8270    -1.1840 N.pl3 1 <1>   0.3000 
 26 C       -3.5870   -11.0320     0.1280 C.2   1 <1>  -0.3320 
 27 C       -2.6540   -12.1010     0.6680 C.3   1 <1>  -0.0600 
 28 H       -1.3470    -2.8830    -1.5760 H     1 <1>   0.1500 
 29 H       -4.1370    -0.0910     1.3380 H     1 <1>   0.1500 
 30 H       -0.8410     1.5470     0.4870 H     1 <1>   0.0800 
 31 H       -1.0100     2.2880    -1.1010 H     1 <1>   0.0800 
 32 H       -4.6060     2.1040    -1.0730 H     1 <1>   0.0800 
 33 H       -4.4570     1.9040     0.6690 H     1 <1>   0.0800 
 34 H       -4.1620    -2.5120     1.5870 H     1 <1>   0.1500 
 35 H       -2.0160     3.2680     1.5340 H     1 <1>   0.0800 
 36 H       -1.3210     4.2120     0.2290 H     1 <1>   0.0800 
 37 H       -3.3320     4.0460    -1.0620 H     1 <1>   0.0800 
 38 H       -3.9970     4.2030     0.5520 H     1 <1>   0.0800 
 39 H       -5.5870    -3.6500     0.0040 H     1 <1>   0.0800 
 40 H       -5.1320    -4.3290    -1.5530 H     1 <1>   0.0800 
 41 H       -3.1930    -6.9570    -0.5120 H     1 <1>   0.0800 
 42 H       -3.8980    -6.8690     1.0930 H     1 <1>   0.0800 
 43 H       -7.0800    -5.6490    -0.9770 H     1 <1>   0.0800 
 44 H       -5.2260    -7.0720    -1.5650 H     1 <1>   0.0800 
 45 H       -5.9170    -5.5660     1.5890 H     1 <1>   0.4000 
 46 H       -6.8740    -8.4600    -0.3960 H     1 <1>   0.0800 
 47 H       -6.0950    -8.1530     1.1290 H     1 <1>   0.0800 
 48 H       -4.4020    -9.9680     1.8600 H     1 <1>   0.1500 
 49 H       -3.4180   -11.3560    -1.9640 H     1 <1>   0.2700 
 50 H       -2.6320   -12.0630     1.7430 H     1 <1>   0.0800 
 51 H       -1.6560   -11.9440     0.3000 H     1 <1>   0.0800 
 52 H       -2.9920   -13.0770     0.3660 H     1 <1>   0.0800 
@<TRIPOS>BOND
  1   1   2  1   
  2   2   3  ar  
  3   2   4  ar  
  4   3   5  1   
  5   3   6  ar  
  6   4   7  ar  
  7   4  28  1   
  8   5   8  1   
  9   5   9  1   
 10   6  10  ar  
 11   6  29  1   
 12   7  10  ar  
 13   7  11  1   
 14   8  12  1   
 15   8  30  1   
 16   8  31  1   
 17   9  13  1   
 18   9  32  1   
 19   9  33  1   
 20  10  34  1   
 21  11  14  2   
 22  11  15  am  
 23  12  13  1   
 24  12  35  1   
 25  12  36  1   
 26  13  37  1   
 27  13  38  1   
 28  15  16  1   
 29  15  17  1   
 30  16  18  1   
 31  16  39  1   
 32  16  40  1   
 33  17  19  1   
 34  17  41  1   
 35  17  42  1   
 36  18  19  1   
 37  18  20  1   
 38  18  43  1   
 39  19  21  1   
 40  19  44  1   
 41  20  45  1   
 42  21  22  1   
 43  21  46  1   
 44  21  47  1   
 45  22  23  2   
 46  22  24  1   
 47  23  25  1   
 48  24  26  2   
 49  24  48  1   
 50  25  26  1   
 51  25  49  1   
 52  26  27  1   
 53  27  50  1   
 54  27  51  1   
 55  27  52  1   
@<TRIPOS>SUBSTRUCTURE
  1 ****  11 GROUP 4 **** **** 0

# MOE 2024.06 (io_trps.svl 2023.06)
