@<TRIPOS>MOLECULE
NONAME
50 51 1 0 0 
SMALL
USER_CHARGES


@<TRIPOS>ATOM
  1 F       -1.1190    -0.7650    -0.4440 F     1 <1>  -0.1900 
  2 C       -0.8870    -2.0110    -0.7650 C.ar  1 <1>   0.1900 
  3 C       -0.4850    -2.9420     0.1930 C.ar  1 <1>   0.0820 
  4 C       -1.1020    -2.3700    -2.0820 C.ar  1 <1>  -0.1500 
  5 O       -0.2910    -2.6980     1.5140 O.3   1 <1>  -0.3630 
  6 C       -0.3040    -4.2560    -0.2090 C.ar  1 <1>  -0.1500 
  7 C       -0.9420    -3.6930    -2.4580 C.ar  1 <1>  -0.1500 
  8 C        0.2250    -1.4560     1.9520 C.3   1 <1>   0.0400 
  9 C       -0.5590    -4.6430    -1.5190 C.ar  1 <1>  -0.1440 
 10 C       -0.4460    -6.1070    -1.8970 C.3   1 <1>   0.4870 
 11 N       -1.5900    -6.8070    -1.2520 N.4   1 <1>  -0.9590 
 12 C       -1.4160    -8.2880    -1.2330 C.3   1 <1>   0.5240 
 13 C       -2.9580    -6.4020    -1.7500 C.3   1 <1>   0.3430 
 14 C       -2.2230    -8.8060    -0.0480 C.2   1 <1>   0.0460 
 15 C       -3.8940    -5.8320    -0.6430 C.3   1 <1>   0.3430 
 16 N       -2.3670    -8.0410     1.0610 N.2   1 <1>  -0.5650 
 17 C       -2.8610    -9.9900     0.0960 C.2   1 <1>  -0.3320 
 18 N       -3.3410    -4.6250     0.0790 N.4   1 <1>  -0.9590 
 19 C       -3.0610    -8.7890     1.8610 C.2   1 <1>   0.0360 
 20 N       -3.3970    -9.9850     1.3320 N.pl3 1 <1>   0.0330 
 21 C       -3.0030   -11.1830    -0.8380 C.3   1 <1>  -0.0600 
 22 C       -3.1920    -4.8750     1.5530 C.3   1 <1>   0.2630 
 23 C       -4.1980    -3.4120    -0.1240 C.3   1 <1>   0.2630 
 24 H       -1.3920    -1.6190    -2.7990 H     1 <1>   0.1500 
 25 H        0.0330    -4.9660     0.5300 H     1 <1>   0.1500 
 26 H       -1.1130    -3.9640    -3.4890 H     1 <1>   0.1500 
 27 H        0.6010    -1.5810     2.9520 H     1 <1>   0.0800 
 28 H       -0.5630    -0.7240     1.9540 H     1 <1>   0.0800 
 29 H        1.0250    -1.1520     1.2990 H     1 <1>   0.0800 
 30 H        0.4910    -6.4990    -1.5330 H     1 <1>   0.0800 
 31 H       -0.4780    -6.2260    -2.9690 H     1 <1>   0.0800 
 32 H       -1.5620    -6.6080    -0.2360 H     1 <1>   0.4500 
 33 H       -0.3800    -8.5380    -1.0710 H     1 <1>   0.0800 
 34 H       -1.7490    -8.7400    -2.1520 H     1 <1>   0.0800 
 35 H       -3.4440    -7.2580    -2.1900 H     1 <1>   0.0800 
 36 H       -2.8590    -5.6620    -2.5260 H     1 <1>   0.0800 
 37 H       -4.1000    -6.6160     0.0680 H     1 <1>   0.0800 
 38 H       -4.8360    -5.5720    -1.0980 H     1 <1>   0.0800 
 39 H       -2.4020    -4.3860    -0.2870 H     1 <1>   0.4500 
 40 H       -3.3530    -8.5170     2.8620 H     1 <1>   0.1500 
 41 H       -3.9280   -10.7360     1.7910 H     1 <1>   0.2700 
 42 H       -2.4990   -11.0110    -1.7710 H     1 <1>   0.0800 
 43 H       -4.0420   -11.3770    -1.0420 H     1 <1>   0.0800 
 44 H       -2.5770   -12.0620    -0.3830 H     1 <1>   0.0800 
 45 H       -4.1510    -5.0820     1.9990 H     1 <1>   0.0800 
 46 H       -2.7680    -4.0090     2.0360 H     1 <1>   0.0800 
 47 H       -2.5410    -5.7140     1.7340 H     1 <1>   0.0800 
 48 H       -5.1870    -3.5780     0.2720 H     1 <1>   0.0800 
 49 H       -4.2790    -3.1760    -1.1730 H     1 <1>   0.0800 
 50 H       -3.7660    -2.5630     0.3820 H     1 <1>   0.0800 
@<TRIPOS>BOND
  1   1   2  1   
  2   2   3  ar  
  3   2   4  ar  
  4   3   5  1   
  5   3   6  ar  
  6   4   7  ar  
  7   4  24  1   
  8   5   8  1   
  9   6   9  ar  
 10   6  25  1   
 11   7   9  ar  
 12   7  26  1   
 13   8  27  1   
 14   8  28  1   
 15   8  29  1   
 16   9  10  1   
 17  10  11  1   
 18  10  30  1   
 19  10  31  1   
 20  11  12  1   
 21  11  13  1   
 22  11  32  1   
 23  12  14  1   
 24  12  33  1   
 25  12  34  1   
 26  13  15  1   
 27  13  35  1   
 28  13  36  1   
 29  14  16  1   
 30  14  17  2   
 31  15  18  1   
 32  15  37  1   
 33  15  38  1   
 34  16  19  2   
 35  17  20  1   
 36  17  21  1   
 37  18  22  1   
 38  18  23  1   
 39  18  39  1   
 40  19  20  1   
 41  19  40  1   
 42  20  41  1   
 43  21  42  1   
 44  21  43  1   
 45  21  44  1   
 46  22  45  1   
 47  22  46  1   
 48  22  47  1   
 49  23  48  1   
 50  23  49  1   
 51  23  50  1   
@<TRIPOS>SUBSTRUCTURE
  1 ****  11 GROUP 4 **** **** 0

# MOE 2024.06 (io_trps.svl 2023.06)
