@<TRIPOS>MOLECULE
NONAME
37 39 1 0 0 
SMALL
USER_CHARGES


@<TRIPOS>ATOM
  1 O       -0.9440    -1.0150     0.6670 O.2   1 <1>  -0.5700 
  2 C       -2.1220    -1.2830     0.4580 C.2   1 <1>   0.7670 
  3 N       -2.4630    -2.6000     0.2770 N.2   1 <1>  -0.6610 
  4 C       -3.0940    -0.2710     0.4050 C.2   1 <1>  -0.1360 
  5 C       -3.6960    -2.8560     0.0550 C.2   1 <1>   0.4400 
  6 C       -4.3970    -0.5890     0.1740 C.2   1 <1>   0.2000 
  7 N       -4.6710    -1.9030    -0.0020 N.pl3 1 <1>  -0.5500 
  8 N       -5.4480     0.2830     0.0850 N.pl3 1 <1>  -0.8380 
  9 C       -6.8070     0.0040     0.6470 C.3   1 <1>   0.2090 
 10 C       -5.2870     1.6710    -0.4250 C.3   1 <1>   0.2090 
 11 C       -7.9050     0.2250    -0.4220 C.3   1 <1>   0.0000 
 12 C       -6.3510     1.9490    -1.4920 C.3   1 <1>  -0.1600 
 13 C       -9.3200    -0.0350     0.1330 C.3   1 <1>   0.2000 
 14 C       -7.7760     1.6580    -0.9860 C.3   1 <1>  -0.1600 
 15 C       -7.8080    -0.8430    -1.5270 C.3   1 <1>  -0.1600 
 16 O       -9.4750     0.3730     1.4470 O.3   1 <1>  -0.6800 
 17 C       -9.5770    -1.5400     0.0130 C.3   1 <1>  -0.1600 
 18 C       -8.5290    -2.0740    -0.9720 C.3   1 <1>  -0.1600 
 19 H       -2.7690     0.7350     0.5600 H     1 <1>   0.1500 
 20 H       -4.0080    -3.8740    -0.1020 H     1 <1>   0.0600 
 21 H       -5.6270    -2.1450    -0.2500 H     1 <1>   0.4000 
 22 H       -6.8540    -0.9950     1.0400 H     1 <1>   0.0800 
 23 H       -6.9670     0.6810     1.4680 H     1 <1>   0.0800 
 24 H       -5.3960     2.3630     0.3930 H     1 <1>   0.0800 
 25 H       -4.3090     1.8010    -0.8550 H     1 <1>   0.0800 
 26 H       -6.2830     2.9790    -1.7950 H     1 <1>   0.0800 
 27 H       -6.1380     1.3440    -2.3550 H     1 <1>   0.0800 
 28 H      -10.0440     0.4980    -0.4610 H     1 <1>   0.0800 
 29 H       -8.4800     1.8100    -1.7860 H     1 <1>   0.0800 
 30 H       -8.0180     2.3590    -0.2050 H     1 <1>   0.0800 
 31 H       -8.3390    -0.5020    -2.4000 H     1 <1>   0.0800 
 32 H       -6.7950    -1.0580    -1.8170 H     1 <1>   0.0800 
 33 H       -9.0780    -0.2760     2.0560 H     1 <1>   0.4000 
 34 H       -9.4780    -2.0410     0.9600 H     1 <1>   0.0800 
 35 H      -10.5690    -1.7040    -0.3710 H     1 <1>   0.0800 
 36 H       -7.8310    -2.7050    -0.4490 H     1 <1>   0.0800 
 37 H       -8.9850    -2.6470    -1.7630 H     1 <1>   0.0800 
@<TRIPOS>BOND
  1   1   2  2   
  2   2   3  1   
  3   2   4  1   
  4   3   5  2   
  5   4   6  2   
  6   4  19  1   
  7   5   7  1   
  8   5  20  1   
  9   6   7  1   
 10   6   8  1   
 11   7  21  1   
 12   8   9  1   
 13   8  10  1   
 14   9  11  1   
 15   9  22  1   
 16   9  23  1   
 17  10  12  1   
 18  10  24  1   
 19  10  25  1   
 20  11  13  1   
 21  11  14  1   
 22  11  15  1   
 23  12  14  1   
 24  12  26  1   
 25  12  27  1   
 26  13  16  1   
 27  13  17  1   
 28  13  28  1   
 29  14  29  1   
 30  14  30  1   
 31  15  18  1   
 32  15  31  1   
 33  15  32  1   
 34  16  33  1   
 35  17  18  1   
 36  17  34  1   
 37  17  35  1   
 38  18  36  1   
 39  18  37  1   
@<TRIPOS>SUBSTRUCTURE
  1 ****   8 GROUP 4 **** **** 0

# MOE 2024.06 (io_trps.svl 2023.06)
