@<TRIPOS>MOLECULE
NONAME
51 54 1 0 0 
SMALL
USER_CHARGES


@<TRIPOS>ATOM
  1 O        3.5080    -2.0460     2.3120 O.2   1 <1>  -0.5700 
  2 C        2.5650    -1.3540     2.0130 C.2   1 <1>   0.5690 
  3 N        2.7150    -0.3050     1.1320 N.am  1 <1>  -0.6600 
  4 C        1.1990    -1.7900     2.5270 C.3   1 <1>   0.0440 
  5 C        3.9920    -0.2380     0.3280 C.3   1 <1>   0.2200 
  6 C        1.6160     0.6430     0.7580 C.3   1 <1>   0.1400 
  7 C        0.4510    -2.4730     1.3840 C.ar  1 <1>  -0.1440 
  8 C        4.4610     1.1910     0.0080 C.3   1 <1>   0.1200 
  9 C        3.8420    -1.0790    -0.9640 C.3   1 <1>   0.3430 
 10 C        1.5850     1.0450    -0.7320 C.3   1 <1>  -0.0800 
 11 C        1.0070    -3.5990     0.7980 C.ar  1 <1>  -0.1500 
 12 C       -0.7460    -1.9730     0.8940 C.ar  1 <1>  -0.1500 
 13 O        3.8740     1.6540    -1.1710 O.3   1 <1>  -0.5600 
 14 N        2.4030    -1.3280    -1.3560 N.4   1 <1>  -0.9590 
 15 C        2.5920     2.1620    -1.0440 C.3   1 <1>   0.1200 
 16 C        1.6540    -0.0980    -1.7710 C.3   1 <1>   0.3430 
 17 C        0.4070    -4.1860    -0.2990 C.ar  1 <1>  -0.1500 
 18 C       -1.3440    -2.5550    -0.2090 C.ar  1 <1>  -0.1500 
 19 C        2.3050    -2.3800    -2.4090 C.3   1 <1>   0.2630 
 20 C       -0.7600    -3.6520    -0.8310 C.ar  1 <1>  -0.0230 
 21 N       -1.3110    -4.1960    -2.0190 N.pl3 1 <1>   0.5930 
 22 N       -0.7530    -4.0030    -3.2030 N.2   1 <1>  -0.4180 
 23 C       -2.3970    -4.9350    -2.2230 C.2   1 <1>   0.0060 
 24 N       -1.4900    -4.6050    -4.0630 N.2   1 <1>   0.0000 
 25 N       -2.5220    -5.1930    -3.4670 N.2   1 <1>  -0.3380 
 26 C       -3.3480    -5.4070    -1.1370 C.3   1 <1>  -0.0600 
 27 H        1.3330    -2.4900     3.3330 H     1 <1>   0.0800 
 28 H        0.6590    -0.9480     2.9160 H     1 <1>   0.0800 
 29 H        4.7890    -0.6700     0.9070 H     1 <1>   0.0800 
 30 H        0.6630     0.2190     1.0010 H     1 <1>   0.0800 
 31 H        1.7190     1.5300     1.3600 H     1 <1>   0.0800 
 32 H        5.5230     1.1790    -0.1680 H     1 <1>   0.0800 
 33 H        4.2660     1.8710     0.8200 H     1 <1>   0.0800 
 34 H        4.3230    -2.0260    -0.7880 H     1 <1>   0.0800 
 35 H        4.3680    -0.5940    -1.7700 H     1 <1>   0.0800 
 36 H        0.6280     1.5120    -0.8800 H     1 <1>   0.0800 
 37 H        1.9180    -4.0230     1.1950 H     1 <1>   0.1500 
 38 H       -1.2180    -1.1260     1.3640 H     1 <1>   0.1500 
 39 H        1.9460    -1.6740    -0.4940 H     1 <1>   0.4500 
 40 H        2.5900     2.9300    -0.2880 H     1 <1>   0.0800 
 41 H        2.3460     2.6240    -1.9860 H     1 <1>   0.0800 
 42 H        2.0890     0.2920    -2.6780 H     1 <1>   0.0800 
 43 H        0.6430    -0.3900    -2.0040 H     1 <1>   0.0800 
 44 H        0.8540    -5.0590    -0.7480 H     1 <1>   0.1500 
 45 H       -2.2660    -2.1470    -0.5910 H     1 <1>   0.1500 
 46 H        2.7970    -2.0540    -3.3110 H     1 <1>   0.0800 
 47 H        1.2720    -2.5870    -2.6370 H     1 <1>   0.0800 
 48 H        2.7690    -3.2920    -2.0710 H     1 <1>   0.0800 
 49 H       -4.1160    -6.0260    -1.5670 H     1 <1>   0.0800 
 50 H       -3.8140    -4.5660    -0.6570 H     1 <1>   0.0800 
 51 H       -2.8160    -5.9840    -0.4020 H     1 <1>   0.0800 
@<TRIPOS>BOND
  1   1   2  2   
  2   2   3  am  
  3   2   4  1   
  4   3   5  1   
  5   3   6  1   
  6   4   7  1   
  7   4  27  1   
  8   4  28  1   
  9   5   8  1   
 10   5   9  1   
 11   5  29  1   
 12   6  10  1   
 13   6  30  1   
 14   6  31  1   
 15   7  11  ar  
 16   7  12  ar  
 17   8  13  1   
 18   8  32  1   
 19   8  33  1   
 20   9  14  1   
 21   9  34  1   
 22   9  35  1   
 23  10  15  1   
 24  10  16  1   
 25  10  36  1   
 26  11  17  ar  
 27  11  37  1   
 28  12  18  ar  
 29  12  38  1   
 30  13  15  1   
 31  14  16  1   
 32  14  19  1   
 33  14  39  1   
 34  15  40  1   
 35  15  41  1   
 36  16  42  1   
 37  16  43  1   
 38  17  20  ar  
 39  17  44  1   
 40  18  20  ar  
 41  18  45  1   
 42  19  46  1   
 43  19  47  1   
 44  19  48  1   
 45  20  21  1   
 46  21  22  1   
 47  21  23  1   
 48  22  24  2   
 49  23  25  2   
 50  23  26  1   
 51  24  25  1   
 52  26  49  1   
 53  26  50  1   
 54  26  51  1   
@<TRIPOS>SUBSTRUCTURE
  1 ****  14 GROUP 4 **** **** 0

# MOE 2024.06 (io_trps.svl 2023.06)
