@<TRIPOS>MOLECULE
NONAME
47 49 1 0 0 
SMALL
USER_CHARGES


@<TRIPOS>ATOM
  1 O       -0.2710    -3.2930     1.6730 O.2   1 <1>  -0.5700 
  2 C        0.6640    -2.7720     1.0990 C.2   1 <1>   0.6900 
  3 N        0.5950    -2.4420    -0.2240 N.am  1 <1>  -0.6600 
  4 N        1.7720    -2.5190     1.8020 N.am  1 <1>  -0.8000 
  5 C       -0.7220    -2.5090    -0.9470 C.3   1 <1>   0.2010 
  6 C        1.7880    -2.2730    -1.1010 C.3   1 <1>   0.0600 
  7 C       -1.0820    -3.9180    -1.4210 C.2   1 <1>   0.5690 
  8 O       -1.2900    -4.1150    -2.5950 O.2   1 <1>  -0.5700 
  9 N       -1.1600    -4.9110    -0.5020 N.am  1 <1>  -0.7300 
 10 C       -1.4480    -6.3340    -0.7720 C.3   1 <1>   0.2200 
 11 C       -2.6800    -6.7510     0.0130 C.3   1 <1>  -0.0800 
 12 C       -0.3470    -7.2160    -0.1740 C.3   1 <1>   0.1200 
 13 C       -2.0590    -7.1390     1.3530 C.3   1 <1>   0.1200 
 14 C       -3.3960    -7.9380    -0.6610 C.3   1 <1>  -0.0170 
 15 O       -0.8300    -7.7160     1.0420 O.3   1 <1>  -0.5600 
 16 C       -4.6470    -8.3600     0.1040 C.ar  1 <1>  -0.1440 
 17 C       -5.8610    -7.6360     0.0360 C.ar  1 <1>   0.0000 
 18 C       -4.6210    -9.4740     0.8900 C.ar  1 <1>  -0.1500 
 19 C       -6.9560    -8.1160     0.7960 C.ar  1 <1>   0.3100 
 20 C       -6.0550    -6.4700    -0.7410 C.ar  1 <1>  -0.1500 
 21 C       -5.7630    -9.8640     1.6000 C.ar  1 <1>   0.1600 
 22 N       -6.8910    -9.2280     1.5710 N.ar  1 <1>  -0.6200 
 23 C       -8.1730    -7.4160     0.7510 C.ar  1 <1>  -0.1500 
 24 C       -7.2550    -5.8120    -0.7630 C.ar  1 <1>  -0.1500 
 25 C       -8.3290    -6.2890    -0.0080 C.ar  1 <1>  -0.1500 
 26 H        1.7430    -2.6800     2.8070 H     1 <1>   0.3700 
 27 H        2.4620    -1.8570     1.4610 H     1 <1>   0.3700 
 28 H       -1.5020    -2.1660    -0.2920 H     1 <1>   0.0800 
 29 H       -0.6970    -1.8510    -1.7970 H     1 <1>   0.0800 
 30 H        1.6670    -2.8580    -1.9970 H     1 <1>   0.0800 
 31 H        2.6820    -2.6040    -0.6030 H     1 <1>   0.0800 
 32 H        1.8950    -1.2370    -1.3710 H     1 <1>   0.0800 
 33 H       -0.9140    -4.6710     0.4730 H     1 <1>   0.3700 
 34 H       -1.5520    -6.4920    -1.8330 H     1 <1>   0.0800 
 35 H       -3.3680    -5.9330     0.1320 H     1 <1>   0.0800 
 36 H        0.5610    -6.6670     0.0040 H     1 <1>   0.0800 
 37 H       -0.1460    -8.0580    -0.8110 H     1 <1>   0.0800 
 38 H       -2.6510    -7.8380     1.9170 H     1 <1>   0.0800 
 39 H       -1.8670    -6.2640     1.9520 H     1 <1>   0.0800 
 40 H       -2.7200    -8.7740    -0.7260 H     1 <1>   0.0800 
 41 H       -3.6670    -7.6810    -1.6690 H     1 <1>   0.0800 
 42 H       -3.7340   -10.0740     0.9880 H     1 <1>   0.1500 
 43 H       -5.2430    -6.0860    -1.3310 H     1 <1>   0.1500 
 44 H       -5.6970   -10.7490     2.2100 H     1 <1>   0.1500 
 45 H       -8.9850    -7.8020     1.3390 H     1 <1>   0.1500 
 46 H       -7.3870    -4.9250    -1.3590 H     1 <1>   0.1500 
 47 H       -9.2680    -5.7630    -0.0330 H     1 <1>   0.1500 
@<TRIPOS>BOND
  1   1   2  2   
  2   2   3  am  
  3   2   4  am  
  4   3   5  1   
  5   3   6  1   
  6   4  26  1   
  7   4  27  1   
  8   5   7  1   
  9   5  28  1   
 10   5  29  1   
 11   6  30  1   
 12   6  31  1   
 13   6  32  1   
 14   7   8  2   
 15   7   9  am  
 16   9  10  1   
 17   9  33  1   
 18  10  11  1   
 19  10  12  1   
 20  10  34  1   
 21  11  13  1   
 22  11  14  1   
 23  11  35  1   
 24  12  15  1   
 25  12  36  1   
 26  12  37  1   
 27  13  15  1   
 28  13  38  1   
 29  13  39  1   
 30  14  16  1   
 31  14  40  1   
 32  14  41  1   
 33  16  17  ar  
 34  16  18  ar  
 35  17  19  ar  
 36  17  20  ar  
 37  18  21  ar  
 38  18  42  1   
 39  19  22  ar  
 40  19  23  ar  
 41  20  24  ar  
 42  20  43  1   
 43  21  22  ar  
 44  21  44  1   
 45  23  25  ar  
 46  23  45  1   
 47  24  25  ar  
 48  24  46  1   
 49  25  47  1   
@<TRIPOS>SUBSTRUCTURE
  1 ****  11 GROUP 4 **** **** 0

# MOE 2024.06 (io_trps.svl 2023.06)
