@<TRIPOS>MOLECULE
NONAME
46 48 1 0 0 
SMALL
USER_CHARGES


@<TRIPOS>ATOM
  1 O        0.5820     0.2190     1.0610 O.co2 1 <1>  -0.9030 
  2 C        1.2040    -0.8520     1.1500 C.2   1 <1>   0.9770 
  3 O        0.6100    -1.8820     1.5030 O.co2 1 <1>  -0.9030 
  4 C        2.6240    -0.8850     0.8400 C.ar  1 <1>  -0.1870 
  5 C        3.2850     0.2740     0.4460 C.ar  1 <1>  -0.1170 
  6 C        3.3720    -2.0750     0.9250 C.ar  1 <1>  -0.1580 
  7 C        4.6360     0.2280     0.1570 C.ar  1 <1>   0.3020 
  8 C        4.7210    -2.1180     0.6360 C.ar  1 <1>  -0.1170 
  9 N        5.5190     1.2020    -0.2490 N.pl3 1 <1>  -0.7040 
 10 C        5.3580    -0.9440     0.2500 C.ar  1 <1>   0.3020 
 11 C        6.7240     0.6660    -0.4120 C.cat 1 <1>   1.0690 
 12 N        6.6750    -0.6460    -0.0940 N.pl3 1 <1>  -0.7680 
 13 N        7.7940     1.3840    -0.8310 N.pl3 1 <1>  -0.5970 
 14 C        7.7710    -1.6330     0.0820 C.3   1 <1>   0.2670 
 15 C        7.7910     2.8770    -0.8790 C.3   1 <1>   0.1600 
 16 C        9.0700     0.8000    -1.3440 C.3   1 <1>   0.0790 
 17 C        8.5320     3.4380     0.3380 C.3   1 <1>  -0.1680 
 18 C        8.4600     4.9670     0.3810 C.3   1 <1>   0.1920 
 19 O        8.8650     5.4450    -0.8640 O.3   1 <1>  -0.5650 
 20 C        9.3650     5.5520     1.4760 C.3   1 <1>  -0.1680 
 21 C        8.7730     6.8300    -1.0230 C.3   1 <1>   0.1120 
 22 C        9.3800     7.0820     1.4140 C.3   1 <1>  -0.1680 
 23 C        9.6940     7.5300    -0.0170 C.3   1 <1>  -0.1680 
 24 H        2.7390     1.2000     0.3680 H     1 <1>   0.1420 
 25 H        2.8530    -2.9720     1.2290 H     1 <1>   0.1420 
 26 H        5.2610    -3.0440     0.7080 H     1 <1>   0.1420 
 27 H        5.2670     2.1670    -0.4300 H     1 <1>   0.4440 
 28 H        7.4900    -2.3770     0.8070 H     1 <1>   0.0720 
 29 H        8.6620    -1.1470     0.4390 H     1 <1>   0.0720 
 30 H        7.9780    -2.1220    -0.8550 H     1 <1>   0.0720 
 31 H        6.7890     3.2670    -0.8930 H     1 <1>   0.0720 
 32 H        8.2700     3.2120    -1.7850 H     1 <1>   0.0720 
 33 H        8.8950    -0.1580    -1.8000 H     1 <1>   0.0720 
 34 H        9.7770     0.6980    -0.5390 H     1 <1>   0.0720 
 35 H        9.5000     1.4410    -2.0960 H     1 <1>   0.0720 
 36 H        9.5660     3.1440     0.2990 H     1 <1>   0.0720 
 37 H        8.1020     3.0510     1.2430 H     1 <1>   0.0720 
 38 H        7.4410     5.2820     0.5390 H     1 <1>   0.0720 
 39 H       10.3670     5.1800     1.3450 H     1 <1>   0.0720 
 40 H        9.0190     5.2350     2.4440 H     1 <1>   0.0720 
 41 H        7.7480     7.1260    -0.8790 H     1 <1>   0.0720 
 42 H        9.0690     7.0660    -2.0300 H     1 <1>   0.0720 
 43 H       10.1150     7.4750     2.0950 H     1 <1>   0.0720 
 44 H        8.4160     7.4620     1.7030 H     1 <1>   0.0720 
 45 H        9.5760     8.5960    -0.1010 H     1 <1>   0.0720 
 46 H       10.7150     7.2910    -0.2600 H     1 <1>   0.0720 
@<TRIPOS>BOND
  1   1   2  ar  
  2   2   3  ar  
  3   2   4  1   
  4   4   5  ar  
  5   4   6  ar  
  6   5   7  ar  
  7   5  24  1   
  8   6   8  ar  
  9   6  25  1   
 10   7   9  1   
 11   7  10  ar  
 12   8  10  ar  
 13   8  26  1   
 14   9  11  ar  
 15   9  27  1   
 16  10  12  1   
 17  11  12  ar  
 18  11  13  ar  
 19  12  14  1   
 20  13  15  1   
 21  13  16  1   
 22  14  28  1   
 23  14  29  1   
 24  14  30  1   
 25  15  17  1   
 26  15  31  1   
 27  15  32  1   
 28  16  33  1   
 29  16  34  1   
 30  16  35  1   
 31  17  18  1   
 32  17  36  1   
 33  17  37  1   
 34  18  19  1   
 35  18  20  1   
 36  18  38  1   
 37  19  21  1   
 38  20  22  1   
 39  20  39  1   
 40  20  40  1   
 41  21  23  1   
 42  21  41  1   
 43  21  42  1   
 44  22  23  1   
 45  22  43  1   
 46  22  44  1   
 47  23  45  1   
 48  23  46  1   
@<TRIPOS>SUBSTRUCTURE
  1 ****   9 GROUP 4 **** **** 0

# MOE 2024.06 (io_trps.svl 2023.06)
