@<TRIPOS>MOLECULE
NONAME
51 55 1 0 0 
SMALL
USER_CHARGES


@<TRIPOS>ATOM
  1 O        0.5380     1.5860    -1.2330 O.2   1 <1>  -0.5700 
  2 C        0.1350     2.7110    -1.0460 C.2   1 <1>   0.5690 
  3 N       -0.8170     3.0310    -0.1140 N.am  1 <1>  -0.5090 
  4 C        0.7210     3.8360    -1.8890 C.3   1 <1>   0.1810 
  5 C       -1.2590     4.4520     0.0780 C.3   1 <1>   0.3640 
  6 C       -1.2480     2.0650     0.9290 C.3   1 <1>   0.0490 
  7 O        0.8610     5.0030    -1.1260 O.3   1 <1>  -0.5600 
  8 C       -2.6900     4.6300    -0.4290 C.ar  1 <1>  -0.1440 
  9 C       -0.3530     5.5210    -0.6010 C.3   1 <1>   0.2610 
 10 C       -1.8460     0.7620     0.4990 C.3   1 <1>  -0.2000 
 11 C       -2.7020     1.7870     1.1670 C.3   1 <1>  -0.2000 
 12 C       -3.1300     4.0140    -1.5940 C.ar  1 <1>   0.1600 
 13 C       -3.5770     5.4310     0.2660 C.ar  1 <1>  -0.1500 
 14 C       -0.0700     6.6520     0.3950 C.2   1 <1>   0.5690 
 15 N       -4.3420     4.1370    -2.1090 N.ar  1 <1>  -0.6200 
 16 C       -4.8460     5.5650    -0.2530 C.ar  1 <1>  -0.1500 
 17 O       -0.9960     7.2300     0.9140 O.2   1 <1>  -0.5700 
 18 N        1.2090     6.9830     0.6880 N.am  1 <1>  -0.7300 
 19 C       -5.1730     4.9080    -1.4260 C.ar  1 <1>   0.1600 
 20 C        1.6590     8.1220     1.5070 C.3   1 <1>   0.3210 
 21 C        2.9740     8.6440     0.9410 C.2   1 <1>   0.1080 
 22 N        3.9150     7.8720     0.4780 N.2   1 <1>  -0.7070 
 23 C        3.3130     9.9910     0.8510 C.2   1 <1>  -0.1500 
 24 N        4.8840     8.7210     0.0790 N.pl3 1 <1>   0.3000 
 25 C        4.5430    10.0070     0.2960 C.2   1 <1>  -0.2370 
 26 C        5.4410    11.1760    -0.0530 C.3   1 <1>  -0.0150 
 27 C        4.8480    12.4810    -0.4760 C.3   1 <1>  -0.2000 
 28 C        5.5570    11.6150    -1.4760 C.3   1 <1>  -0.2000 
 29 H        0.0900     4.0400    -2.7350 H     1 <1>   0.0800 
 30 H        1.6970     3.5520    -2.2370 H     1 <1>   0.0800 
 31 H       -1.2590     4.6400     1.1390 H     1 <1>   0.0800 
 32 H       -0.5760     2.0500     1.7720 H     1 <1>   0.1000 
 33 H       -0.8830     5.9590    -1.4280 H     1 <1>   0.0800 
 34 H       -1.9740     0.5780    -0.5530 H     1 <1>   0.1000 
 35 H       -1.5840    -0.1280     1.0440 H     1 <1>   0.1000 
 36 H       -3.0340     1.5860     2.1700 H     1 <1>   0.1000 
 37 H       -3.4680     2.2450     0.5680 H     1 <1>   0.1000 
 38 H       -2.4550     3.3780    -2.1390 H     1 <1>   0.1500 
 39 H       -3.2970     5.9400     1.1740 H     1 <1>   0.1500 
 40 H       -5.5780     6.1750     0.2450 H     1 <1>   0.1500 
 41 H        1.9840     6.5290     0.1860 H     1 <1>   0.3700 
 42 H       -6.1670     5.0220    -1.8220 H     1 <1>   0.1500 
 43 H        0.9140     8.8980     1.5000 H     1 <1>   0.0800 
 44 H        1.8140     7.7920     2.5180 H     1 <1>   0.0800 
 45 H        2.7100    10.8250     1.1630 H     1 <1>   0.1500 
 46 H        5.7630     8.3970    -0.3390 H     1 <1>   0.2700 
 47 H        6.3270    11.2170     0.5590 H     1 <1>   0.1000 
 48 H        3.7780    12.5700    -0.5440 H     1 <1>   0.1000 
 49 H        5.3190    13.3910    -0.1480 H     1 <1>   0.1000 
 50 H        6.5160    11.9320    -1.8450 H     1 <1>   0.1000 
 51 H        4.9680    11.1140    -2.2240 H     1 <1>   0.1000 
@<TRIPOS>BOND
  1   1   2  2   
  2   2   3  am  
  3   2   4  1   
  4   3   5  1   
  5   3   6  1   
  6   4   7  1   
  7   4  29  1   
  8   4  30  1   
  9   5   8  1   
 10   5   9  1   
 11   5  31  1   
 12   6  10  1   
 13   6  11  1   
 14   6  32  1   
 15   7   9  1   
 16   8  12  ar  
 17   8  13  ar  
 18   9  14  1   
 19   9  33  1   
 20  10  11  1   
 21  10  34  1   
 22  10  35  1   
 23  11  36  1   
 24  11  37  1   
 25  12  15  ar  
 26  12  38  1   
 27  13  16  ar  
 28  13  39  1   
 29  14  17  2   
 30  14  18  am  
 31  15  19  ar  
 32  16  19  ar  
 33  16  40  1   
 34  18  20  1   
 35  18  41  1   
 36  19  42  1   
 37  20  21  1   
 38  20  43  1   
 39  20  44  1   
 40  21  22  2   
 41  21  23  1   
 42  22  24  1   
 43  23  25  2   
 44  23  45  1   
 45  24  25  1   
 46  24  46  1   
 47  25  26  1   
 48  26  27  1   
 49  26  28  1   
 50  26  47  1   
 51  27  28  1   
 52  27  48  1   
 53  27  49  1   
 54  28  50  1   
 55  28  51  1   
@<TRIPOS>SUBSTRUCTURE
  1 ****  14 GROUP 4 **** **** 0

# MOE 2024.06 (io_trps.svl 2023.06)
