@<TRIPOS>MOLECULE
NONAME
49 51 1 0 0 
SMALL
USER_CHARGES


@<TRIPOS>ATOM
  1 CL       0.1980     1.2340    -1.7470 Cl    1 <1>  -0.1770 
  2 C       -1.3300     1.8000    -1.1250 C.ar  1 <1>   0.1770 
  3 C       -1.3660     2.4740     0.0780 C.ar  1 <1>  -0.1500 
  4 C       -2.4850     1.5670    -1.8430 C.ar  1 <1>  -0.1500 
  5 C       -2.5820     2.9250     0.5620 C.ar  1 <1>  -0.1500 
  6 C       -3.6970     2.0220    -1.3510 C.ar  1 <1>  -0.1500 
  7 C       -3.7660     2.7160    -0.1430 C.ar  1 <1>  -0.1430 
  8 C       -5.0850     3.2690     0.4630 C.3   1 <1>   0.2040 
  9 C       -4.9180     4.7890     0.7130 C.2   1 <1>   0.5690 
 10 C       -5.3210     2.4840     1.7900 C.3   1 <1>  -0.1600 
 11 C       -6.3210     3.1160    -0.4740 C.3   1 <1>  -0.1600 
 12 O       -5.4880     5.3200     1.6410 O.2   1 <1>  -0.5700 
 13 N       -4.1340     5.5020    -0.1510 N.am  1 <1>  -0.4930 
 14 C       -6.8050     2.3270     2.1540 C.3   1 <1>  -0.1600 
 15 C       -7.0010     1.7440    -0.3450 C.3   1 <1>  -0.1600 
 16 C       -3.8220     6.8820    -0.1520 C.2   1 <1>   0.0630 
 17 C       -7.5690     1.5420     1.0720 C.3   1 <1>  -0.1600 
 18 C       -4.3200     7.9060     0.6550 C.2   1 <1>   0.1390 
 19 C       -2.9410     7.4930    -0.9700 C.2   1 <1>  -0.3020 
 20 N       -3.7920     9.0610     0.3700 N.2   1 <1>  -0.7070 
 21 N       -2.9370     8.8050    -0.6420 N.pl3 1 <1>   0.3140 
 22 C       -2.1160     9.8630    -1.2480 C.3   1 <1>   0.1570 
 23 C       -0.9160    10.1530    -0.3750 C.2   1 <1>   0.5690 
 24 O        0.1600    10.2800    -0.9080 O.2   1 <1>  -0.5700 
 25 N       -1.0780    10.2750     0.9700 N.am  1 <1>  -0.7300 
 26 C       -0.0090    10.5620     1.9580 C.3   1 <1>   0.0600 
 27 H       -0.4560     2.6410     0.6250 H     1 <1>   0.1500 
 28 H       -2.4320     1.0330    -2.7750 H     1 <1>   0.1500 
 29 H       -2.5940     3.4470     1.5060 H     1 <1>   0.1500 
 30 H       -4.5730     1.8100    -1.9350 H     1 <1>   0.1500 
 31 H       -4.8030     2.9660     2.6000 H     1 <1>   0.0800 
 32 H       -4.9070     1.4940     1.6960 H     1 <1>   0.0800 
 33 H       -6.0600     3.3250    -1.4950 H     1 <1>   0.0800 
 34 H       -7.0550     3.8570    -0.2020 H     1 <1>   0.0800 
 35 H       -3.6370     4.9440    -0.8470 H     1 <1>   0.3700 
 36 H       -7.2420     3.3060     2.2640 H     1 <1>   0.0800 
 37 H       -6.9020     1.8240     3.1010 H     1 <1>   0.0800 
 38 H       -6.2850     0.9670    -0.5500 H     1 <1>   0.0800 
 39 H       -7.7960     1.6550    -1.0650 H     1 <1>   0.0800 
 40 H       -8.6000     1.8490     1.0940 H     1 <1>   0.0800 
 41 H       -7.5430     0.4910     1.3050 H     1 <1>   0.0800 
 42 H       -5.0560     7.7600     1.4280 H     1 <1>   0.1500 
 43 H       -2.3250     7.0800    -1.7460 H     1 <1>   0.1500 
 44 H       -2.7110    10.7510    -1.3430 H     1 <1>   0.0800 
 45 H       -1.7910     9.5470    -2.2200 H     1 <1>   0.0800 
 46 H       -2.0150    10.0670     1.3520 H     1 <1>   0.3700 
 47 H        0.9290    10.7250     1.4560 H     1 <1>   0.0800 
 48 H        0.0960     9.7290     2.6310 H     1 <1>   0.0800 
 49 H       -0.2620    11.4440     2.5200 H     1 <1>   0.0800 
@<TRIPOS>BOND
  1   1   2  1   
  2   2   3  ar  
  3   2   4  ar  
  4   3   5  ar  
  5   3  27  1   
  6   4   6  ar  
  7   4  28  1   
  8   5   7  ar  
  9   5  29  1   
 10   6   7  ar  
 11   6  30  1   
 12   7   8  1   
 13   8   9  1   
 14   8  10  1   
 15   8  11  1   
 16   9  12  2   
 17   9  13  am  
 18  10  14  1   
 19  10  31  1   
 20  10  32  1   
 21  11  15  1   
 22  11  33  1   
 23  11  34  1   
 24  13  16  1   
 25  13  35  1   
 26  14  17  1   
 27  14  36  1   
 28  14  37  1   
 29  15  17  1   
 30  15  38  1   
 31  15  39  1   
 32  16  18  1   
 33  16  19  2   
 34  17  40  1   
 35  17  41  1   
 36  18  20  2   
 37  18  42  1   
 38  19  21  1   
 39  19  43  1   
 40  20  21  1   
 41  21  22  1   
 42  22  23  1   
 43  22  44  1   
 44  22  45  1   
 45  23  24  2   
 46  23  25  am  
 47  25  26  1   
 48  25  46  1   
 49  26  47  1   
 50  26  48  1   
 51  26  49  1   
@<TRIPOS>SUBSTRUCTURE
  1 ****  13 GROUP 4 **** **** 0

# MOE 2024.06 (io_trps.svl 2023.06)
