@<TRIPOS>MOLECULE
NONAME
44 45 1 0 0 
SMALL
USER_CHARGES


@<TRIPOS>ATOM
  1 S        0.9330     0.2590     0.7120 S.o2  1 <1>   1.3330 
  2 O        1.1300    -1.1100     1.1320 O.2   1 <1>  -0.6500 
  3 O        0.6110     1.2680     1.6960 O.2   1 <1>  -0.6500 
  4 N       -0.2900     0.2610    -0.4670 N.am  1 <1>  -0.8490 
  5 C        2.3790     0.8080    -0.1930 C.3   1 <1>  -0.0550 
  6 C       -1.6220     0.4320     0.1200 C.3   1 <1>   0.1160 
  7 C       -0.2730    -0.9250    -1.3290 C.3   1 <1>   0.1160 
  8 C        3.6200     1.0050     0.6970 C.3   1 <1>  -0.0800 
  9 C        4.8400     1.4150    -0.0990 C.3   1 <1>   0.2200 
 10 C        4.1110    -0.2610     1.3930 C.3   1 <1>   0.1200 
 11 N        4.8680     2.8750    -0.3200 N.am  1 <1>  -0.7300 
 12 C        5.9960     0.9200     0.7640 C.3   1 <1>   0.1200 
 13 O        5.4860    -0.1010     1.5700 O.3   1 <1>  -0.5600 
 14 C        4.4570     3.5070    -1.4480 C.2   1 <1>   0.5690 
 15 O        3.9300     2.9040    -2.3520 O.2   1 <1>  -0.5700 
 16 C        4.6380     5.0040    -1.5760 C.3   1 <1>   0.1570 
 17 N        5.9730     5.3930    -1.0980 N.pl3 1 <1>   0.3140 
 18 N        6.2810     5.4270     0.2170 N.2   1 <1>  -0.7070 
 19 C        7.0330     5.7460    -1.8530 C.2   1 <1>  -0.3020 
 20 C        7.5200     5.8030     0.2600 C.2   1 <1>   0.1080 
 21 C        8.0480     6.0170    -1.0070 C.2   1 <1>  -0.1500 
 22 C        8.2700     5.9790     1.5600 C.3   1 <1>  -0.0590 
 23 H        2.6050     0.1000    -0.9660 H     1 <1>   0.0800 
 24 H        2.1500     1.7420    -0.6680 H     1 <1>   0.0800 
 25 H       -2.3710     0.4490    -0.6520 H     1 <1>   0.0800 
 26 H       -1.6720     1.3660     0.6550 H     1 <1>   0.0800 
 27 H       -1.8350    -0.3710     0.8060 H     1 <1>   0.0800 
 28 H       -1.0140    -0.8280    -2.1040 H     1 <1>   0.0800 
 29 H       -0.4820    -1.8120    -0.7540 H     1 <1>   0.0800 
 30 H        0.6910    -1.0330    -1.7950 H     1 <1>   0.0800 
 31 H        3.4120     1.7410     1.4560 H     1 <1>   0.0800 
 32 H        4.8680     0.8980    -1.0450 H     1 <1>   0.0800 
 33 H        3.9600    -1.1330     0.7800 H     1 <1>   0.0800 
 34 H        3.6460    -0.4080     2.3540 H     1 <1>   0.0800 
 35 H        5.3640     3.4440     0.3850 H     1 <1>   0.3700 
 36 H        6.3590     1.6950     1.4160 H     1 <1>   0.0800 
 37 H        6.7980     0.5230     0.1680 H     1 <1>   0.0800 
 38 H        3.8990     5.5050    -0.9830 H     1 <1>   0.0800 
 39 H        4.5300     5.2960    -2.6020 H     1 <1>   0.0800 
 40 H        7.0100     5.7830    -2.9270 H     1 <1>   0.1500 
 41 H        9.0510     6.3320    -1.2350 H     1 <1>   0.1500 
 42 H        9.2560     6.3620     1.3760 H     1 <1>   0.0800 
 43 H        8.3460     5.0320     2.0620 H     1 <1>   0.0800 
 44 H        7.7370     6.6660     2.1910 H     1 <1>   0.0800 
@<TRIPOS>BOND
  1   1   2  2   
  2   1   3  2   
  3   1   4  am  
  4   1   5  1   
  5   4   6  1   
  6   4   7  1   
  7   5   8  1   
  8   5  23  1   
  9   5  24  1   
 10   6  25  1   
 11   6  26  1   
 12   6  27  1   
 13   7  28  1   
 14   7  29  1   
 15   7  30  1   
 16   8   9  1   
 17   8  10  1   
 18   8  31  1   
 19   9  11  1   
 20   9  12  1   
 21   9  32  1   
 22  10  13  1   
 23  10  33  1   
 24  10  34  1   
 25  11  14  am  
 26  11  35  1   
 27  12  13  1   
 28  12  36  1   
 29  12  37  1   
 30  14  15  2   
 31  14  16  1   
 32  16  17  1   
 33  16  38  1   
 34  16  39  1   
 35  17  18  1   
 36  17  19  1   
 37  18  20  2   
 38  19  21  2   
 39  19  40  1   
 40  20  21  1   
 41  20  22  1   
 42  21  41  1   
 43  22  42  1   
 44  22  43  1   
 45  22  44  1   
@<TRIPOS>SUBSTRUCTURE
  1 ****  11 GROUP 4 **** **** 0

# MOE 2024.06 (io_trps.svl 2023.06)
