@<TRIPOS>MOLECULE
NONAME
45 47 1 0 0 
SMALL
USER_CHARGES


@<TRIPOS>ATOM
  1 O       -2.3910     1.0980    -1.7920 O.2   1 <1>  -0.5700 
  2 C       -2.0970     1.0450    -0.6240 C.2   1 <1>   0.5690 
  3 N       -2.1050    -0.1200     0.0640 N.am  1 <1>  -0.7300 
  4 C       -1.7120     2.3120     0.1050 C.3   1 <1>  -0.0990 
  5 C       -2.4490    -1.4400    -0.5120 C.3   1 <1>   0.2200 
  6 C       -0.9820     3.2880    -0.8250 C.3   1 <1>   0.0960 
  7 C       -3.8160    -1.8650    -0.0010 C.3   1 <1>  -0.0800 
  8 C       -1.5480    -2.5060     0.1000 C.3   1 <1>   0.1200 
  9 N       -0.5260     4.4680    -0.0640 N.pl3 1 <1>   0.0480 
 10 C       -3.4810    -2.5240     1.3440 C.3   1 <1>   0.1200 
 11 C       -4.5010    -2.8420    -0.9760 C.3   1 <1>  -0.0170 
 12 O       -2.1080    -2.7950     1.3440 O.3   1 <1>  -0.5600 
 13 C        0.6720     4.6880     0.5330 C.2   1 <1>   0.0060 
 14 C       -1.2530     5.5640     0.2150 C.2   1 <1>  -0.3020 
 15 C       -5.8800    -3.2500    -0.4780 C.ar  1 <1>  -0.1440 
 16 N        0.7430     5.8200     1.1530 N.2   1 <1>  -0.5650 
 17 C        1.8290     3.7100     0.4860 C.3   1 <1>  -0.0600 
 18 C       -0.4660     6.3740     0.9540 C.2   1 <1>   0.0770 
 19 C       -6.1280    -4.4960     0.0620 C.ar  1 <1>  -0.1500 
 20 C       -6.9570    -2.3890    -0.5440 C.ar  1 <1>  -0.1500 
 21 C       -7.4030    -4.8100     0.5020 C.ar  1 <1>   0.1600 
 22 C       -8.1930    -2.8020    -0.0750 C.ar  1 <1>   0.1600 
 23 N       -8.4420    -3.9910     0.4490 N.ar  1 <1>  -0.6200 
 24 H       -1.8850    -0.1510     1.0620 H     1 <1>   0.3700 
 25 H       -2.6070     2.7730     0.4790 H     1 <1>   0.0800 
 26 H       -1.0750     2.0630     0.9340 H     1 <1>   0.0800 
 27 H       -2.3810    -1.4130    -1.5870 H     1 <1>   0.0800 
 28 H       -1.6400     3.6150    -1.6100 H     1 <1>   0.0800 
 29 H       -0.1320     2.8080    -1.2760 H     1 <1>   0.0800 
 30 H       -4.4590    -1.0140     0.1380 H     1 <1>   0.0800 
 31 H       -0.5330    -2.1730     0.2260 H     1 <1>   0.0800 
 32 H       -1.5670    -3.4070    -0.4870 H     1 <1>   0.0800 
 33 H       -4.0140    -3.4450     1.5060 H     1 <1>   0.0800 
 34 H       -3.6800    -1.8510     2.1610 H     1 <1>   0.0800 
 35 H       -3.8940    -3.7200    -1.1150 H     1 <1>   0.0800 
 36 H       -4.6110    -2.3690    -1.9370 H     1 <1>   0.0800 
 37 H       -2.2650     5.7080    -0.1170 H     1 <1>   0.1500 
 38 H        2.6560     4.1010     1.0520 H     1 <1>   0.0800 
 39 H        2.1480     3.5640    -0.5290 H     1 <1>   0.0800 
 40 H        1.5370     2.7690     0.9120 H     1 <1>   0.0800 
 41 H       -0.7090     7.3420     1.3590 H     1 <1>   0.1500 
 42 H       -5.3450    -5.2270     0.1450 H     1 <1>   0.1500 
 43 H       -6.8480    -1.4030    -0.9560 H     1 <1>   0.1500 
 44 H       -7.5780    -5.7860     0.9210 H     1 <1>   0.1500 
 45 H       -9.0220    -2.1170    -0.1340 H     1 <1>   0.1500 
@<TRIPOS>BOND
  1   1   2  2   
  2   2   3  am  
  3   2   4  1   
  4   3   5  1   
  5   3  24  1   
  6   4   6  1   
  7   4  25  1   
  8   4  26  1   
  9   5   7  1   
 10   5   8  1   
 11   5  27  1   
 12   6   9  1   
 13   6  28  1   
 14   6  29  1   
 15   7  10  1   
 16   7  11  1   
 17   7  30  1   
 18   8  12  1   
 19   8  31  1   
 20   8  32  1   
 21   9  13  1   
 22   9  14  1   
 23  10  12  1   
 24  10  33  1   
 25  10  34  1   
 26  11  15  1   
 27  11  35  1   
 28  11  36  1   
 29  13  16  2   
 30  13  17  1   
 31  14  18  2   
 32  14  37  1   
 33  15  19  ar  
 34  15  20  ar  
 35  16  18  1   
 36  17  38  1   
 37  17  39  1   
 38  17  40  1   
 39  18  41  1   
 40  19  21  ar  
 41  19  42  1   
 42  20  22  ar  
 43  20  43  1   
 44  21  23  ar  
 45  21  44  1   
 46  22  23  ar  
 47  22  45  1   
@<TRIPOS>SUBSTRUCTURE
  1 ****   3 GROUP 4 **** **** 0

# MOE 2024.06 (io_trps.svl 2023.06)
