@<TRIPOS>MOLECULE
NONAME
40 41 1 0 0 
SMALL
USER_CHARGES


@<TRIPOS>ATOM
  1 S       -0.2830    -0.2510     0.5740 S.o2  1 <1>   1.0900 
  2 O       -1.1860     0.6730     1.3820 O.2   1 <1>  -0.6500 
  3 O        0.8670    -0.9750     1.2610 O.2   1 <1>  -0.6500 
  4 C       -1.2440    -1.3730    -0.1750 C.3   1 <1>  -0.0550 
  5 C        0.3530     0.6340    -0.6810 C.3   1 <1>  -0.1350 
  6 C       -1.9070    -2.2910     0.8450 C.3   1 <1>   0.1100 
  7 N       -2.7770    -3.2440     0.1490 N.3   1 <1>  -0.8100 
  8 C       -4.0640    -2.6710    -0.3080 C.3   1 <1>   0.1100 
  9 C       -3.0840    -4.4180     0.9810 C.3   1 <1>   0.1100 
 10 C       -5.1780    -3.5760     0.2290 C.3   1 <1>   0.2000 
 11 C       -4.4710    -4.8880     0.5410 C.3   1 <1>  -0.0800 
 12 O       -5.6500    -3.0360     1.4160 O.3   1 <1>  -0.6800 
 13 C       -4.3950    -5.7930    -0.7030 C.3   1 <1>   0.0210 
 14 C       -3.6350    -7.0730    -0.4130 C.2   1 <1>   0.1080 
 15 N       -4.0810    -7.9940     0.3820 N.2   1 <1>  -0.7070 
 16 C       -2.3930    -7.3960    -0.9480 C.2   1 <1>  -0.1500 
 17 N       -3.1260    -8.9420     0.3730 N.pl3 1 <1>   0.3000 
 18 C       -2.0910    -8.6020    -0.4240 C.2   1 <1>  -0.3320 
 19 C       -0.8590    -9.4620    -0.6380 C.3   1 <1>  -0.0600 
 20 H       -2.0050    -0.8730    -0.7420 H     1 <1>   0.0800 
 21 H       -0.6560    -1.9770    -0.8390 H     1 <1>   0.0800 
 22 H       -0.4260     1.1050    -1.2490 H     1 <1>   0.0800 
 23 H        0.9340     0.0090    -1.3320 H     1 <1>   0.0800 
 24 H        0.9960     1.4020    -0.2930 H     1 <1>   0.0800 
 25 H       -2.4750    -1.7210     1.5640 H     1 <1>   0.0800 
 26 H       -1.1370    -2.8290     1.3750 H     1 <1>   0.0800 
 27 H       -4.2040    -1.6540     0.0170 H     1 <1>   0.0800 
 28 H       -4.0780    -2.6950    -1.3830 H     1 <1>   0.0800 
 29 H       -2.3310    -5.1780     0.8650 H     1 <1>   0.0800 
 30 H       -3.1250    -4.1350     2.0200 H     1 <1>   0.0800 
 31 H       -6.0090    -3.6760    -0.4480 H     1 <1>   0.0800 
 32 H       -4.9680    -5.4300     1.3280 H     1 <1>   0.0800 
 33 H       -4.8980    -2.9050     2.0240 H     1 <1>   0.4000 
 34 H       -3.9150    -5.2760    -1.5140 H     1 <1>   0.0800 
 35 H       -5.3890    -6.0560    -1.0150 H     1 <1>   0.0800 
 36 H       -1.8210    -6.7900    -1.6280 H     1 <1>   0.1500 
 37 H       -3.2100    -9.8060     0.9210 H     1 <1>   0.2700 
 38 H       -0.1840    -8.9760    -1.3200 H     1 <1>   0.0800 
 39 H       -1.1380   -10.4140    -1.0530 H     1 <1>   0.0800 
 40 H       -0.3490    -9.6190     0.2950 H     1 <1>   0.0800 
@<TRIPOS>BOND
  1   1   2  2   
  2   1   3  2   
  3   1   4  1   
  4   1   5  1   
  5   4   6  1   
  6   4  20  1   
  7   4  21  1   
  8   5  22  1   
  9   5  23  1   
 10   5  24  1   
 11   6   7  1   
 12   6  25  1   
 13   6  26  1   
 14   7   8  1   
 15   7   9  1   
 16   8  10  1   
 17   8  27  1   
 18   8  28  1   
 19   9  11  1   
 20   9  29  1   
 21   9  30  1   
 22  10  11  1   
 23  10  12  1   
 24  10  31  1   
 25  11  13  1   
 26  11  32  1   
 27  12  33  1   
 28  13  14  1   
 29  13  34  1   
 30  13  35  1   
 31  14  15  2   
 32  14  16  1   
 33  15  17  1   
 34  16  18  2   
 35  16  36  1   
 36  17  18  1   
 37  17  37  1   
 38  18  19  1   
 39  19  38  1   
 40  19  39  1   
 41  19  40  1   
@<TRIPOS>SUBSTRUCTURE
  1 ****   9 GROUP 4 **** **** 0

# MOE 2024.06 (io_trps.svl 2023.06)
