@<TRIPOS>MOLECULE
NONAME
42 44 1 0 0 
SMALL
USER_CHARGES


@<TRIPOS>ATOM
  1 O        3.0120    -0.8410    -3.4160 O.2   1 <1>  -0.5700 
  2 C        2.2060    -1.1490    -2.5750 C.2   1 <1>   0.5690 
  3 N        1.9690    -0.4240    -1.4420 N.am  1 <1>  -0.4940 
  4 C        1.3990    -2.4230    -2.7810 C.3   1 <1>   0.0450 
  5 C        2.5870     0.7170    -0.9310 C.2   1 <1>   0.2040 
  6 C        0.5020    -2.7270    -1.5810 C.ar  1 <1>  -0.1440 
  7 O        3.6050     1.3020    -1.5160 O.3   1 <1>  -0.0190 
  8 C        2.3110     1.3990     0.1970 C.2   1 <1>  -0.1810 
  9 C        1.0240    -3.3740    -0.4730 C.ar  1 <1>  -0.1500 
 10 C       -0.8190    -2.3070    -1.5670 C.ar  1 <1>  -0.1500 
 11 N        4.0270     2.3360    -0.8300 N.2   1 <1>  -0.4100 
 12 C        3.2670     2.4130     0.2030 C.2   1 <1>   0.1080 
 13 C        1.2220     1.1300     1.2230 C.3   1 <1>   0.0210 
 14 C        0.2400    -3.5810     0.6470 C.ar  1 <1>  -0.1500 
 15 C       -1.6040    -2.5150    -0.4470 C.ar  1 <1>  -0.1500 
 16 C        3.4180     3.4780     1.2680 C.3   1 <1>  -0.0590 
 17 C        1.6930     0.1050     2.2550 C.3   1 <1>  -0.2400 
 18 C       -1.0810    -3.1490     0.6750 C.ar  1 <1>  -0.0230 
 19 N       -1.8750    -3.3430     1.8360 N.pl3 1 <1>   0.5930 
 20 N       -1.7080    -2.6750     2.9650 N.2   1 <1>  -0.4180 
 21 C       -2.8940    -4.1750     2.0360 C.2   1 <1>   0.0070 
 22 N       -2.5970    -3.1010     3.7860 N.2   1 <1>   0.0000 
 23 N       -3.3470    -4.0400     3.2210 N.2   1 <1>  -0.3380 
 24 C       -3.4360    -5.1520     1.0070 C.3   1 <1>  -0.0600 
 25 H        1.2510    -0.8230    -0.8370 H     1 <1>   0.3700 
 26 H        2.0820    -3.2360    -2.9430 H     1 <1>   0.0800 
 27 H        0.8080    -2.3120    -3.6710 H     1 <1>   0.0800 
 28 H        2.0480    -3.7100    -0.4710 H     1 <1>   0.1500 
 29 H       -1.2400    -1.8060    -2.4230 H     1 <1>   0.1500 
 30 H        0.3450     0.7560     0.7240 H     1 <1>   0.0800 
 31 H        0.9490     2.0470     1.7160 H     1 <1>   0.0800 
 32 H        0.6600    -4.0750     1.5090 H     1 <1>   0.1500 
 33 H       -2.6260    -2.1740    -0.4450 H     1 <1>   0.1500 
 34 H        3.5010     3.0200     2.2360 H     1 <1>   0.0800 
 35 H        2.5660     4.1320     1.2530 H     1 <1>   0.0800 
 36 H        4.3040     4.0580     1.0820 H     1 <1>   0.0800 
 37 H        1.9510    -0.8210     1.7720 H     1 <1>   0.0800 
 38 H        0.9120    -0.0870     2.9700 H     1 <1>   0.0800 
 39 H        2.5580     0.4730     2.7770 H     1 <1>   0.0800 
 40 H       -2.6530    -5.8040     0.6640 H     1 <1>   0.0800 
 41 H       -3.8460    -4.6200     0.1680 H     1 <1>   0.0800 
 42 H       -4.2140    -5.7520     1.4460 H     1 <1>   0.0800 
@<TRIPOS>BOND
  1   1   2  2   
  2   2   3  am  
  3   2   4  1   
  4   3   5  1   
  5   3  25  1   
  6   4   6  1   
  7   4  26  1   
  8   4  27  1   
  9   5   7  1   
 10   5   8  2   
 11   6   9  ar  
 12   6  10  ar  
 13   7  11  1   
 14   8  12  1   
 15   8  13  1   
 16   9  14  ar  
 17   9  28  1   
 18  10  15  ar  
 19  10  29  1   
 20  11  12  2   
 21  12  16  1   
 22  13  17  1   
 23  13  30  1   
 24  13  31  1   
 25  14  18  ar  
 26  14  32  1   
 27  15  18  ar  
 28  15  33  1   
 29  16  34  1   
 30  16  35  1   
 31  16  36  1   
 32  17  37  1   
 33  17  38  1   
 34  17  39  1   
 35  18  19  1   
 36  19  20  1   
 37  19  21  1   
 38  20  22  2   
 39  21  23  2   
 40  21  24  1   
 41  22  23  1   
 42  24  40  1   
 43  24  41  1   
 44  24  42  1   
@<TRIPOS>SUBSTRUCTURE
  1 ****   9 GROUP 4 **** **** 0

# MOE 2024.06 (io_trps.svl 2023.06)
