@<TRIPOS>MOLECULE
NONAME
52 55 1 0 0 
SMALL
USER_CHARGES


@<TRIPOS>ATOM
  1 O        0.8440    -0.9310     0.4430 O.3   1 <1>  -0.5600 
  2 C        0.2060    -2.1880     0.5340 C.3   1 <1>   0.2800 
  3 C        0.0740     0.2050     0.7320 C.3   1 <1>   0.1200 
  4 C       -1.2420    -2.1110    -0.0120 C.3   1 <1>  -0.1600 
  5 C        0.2560    -2.6490     2.0030 C.3   1 <1>  -0.1600 
  6 C        1.0680    -3.1650    -0.2960 C.3   1 <1>  -0.1600 
  7 C       -1.0620     0.3730    -0.2900 C.3   1 <1>  -0.1600 
  8 C       -1.4520    -0.9410    -0.9760 C.3   1 <1>   0.2800 
  9 C        1.6810    -2.7050     2.5750 C.3   1 <1>   0.3430 
 10 C        2.3870    -3.5760     0.3700 C.3   1 <1>   0.3430 
 11 O       -0.6030    -1.1100    -2.0380 O.3   1 <1>  -0.6800 
 12 C       -2.8650    -0.9010    -1.5500 C.3   1 <1>  -0.2400 
 13 N        2.6920    -2.6450     1.4860 N.4   1 <1>  -0.9590 
 14 C        4.0990    -2.7090     1.9590 C.3   1 <1>   0.4860 
 15 C        5.0120    -2.3720     0.7930 C.ar  1 <1>  -0.1440 
 16 C        5.8590    -3.3310     0.2220 C.ar  1 <1>  -0.1440 
 17 C        4.9790    -1.0740     0.2860 C.ar  1 <1>  -0.1500 
 18 C        6.6610    -2.9910    -0.8640 C.ar  1 <1>  -0.1500 
 19 C        5.9430    -4.7550     0.7570 C.3   1 <1>  -0.0970 
 20 C        5.7830    -0.7710    -0.7910 C.ar  1 <1>   0.0820 
 21 C        6.6010    -1.7030    -1.3520 C.ar  1 <1>   0.0820 
 22 O        5.9010     0.3950    -1.4330 O.3   1 <1>  -0.3620 
 23 O        7.2740    -1.1690    -2.3760 O.3   1 <1>  -0.3620 
 24 C        6.8630     0.1940    -2.4690 C.3   1 <1>   0.4000 
 25 H        0.7230     1.0640     0.7100 H     1 <1>   0.0800 
 26 H       -0.3260     0.1040     1.7260 H     1 <1>   0.0800 
 27 H       -1.9230    -1.9830     0.8100 H     1 <1>   0.0800 
 28 H       -1.5250    -3.0320    -0.4890 H     1 <1>   0.0800 
 29 H       -0.1730    -3.6330     2.0690 H     1 <1>   0.0800 
 30 H       -0.3500    -2.0140     2.6230 H     1 <1>   0.0800 
 31 H        1.2820    -2.7370    -1.2580 H     1 <1>   0.0800 
 32 H        0.5150    -4.0670    -0.4840 H     1 <1>   0.0800 
 33 H       -0.7940     1.1090    -1.0280 H     1 <1>   0.0800 
 34 H       -1.9110     0.7660     0.2380 H     1 <1>   0.0800 
 35 H        1.8030    -3.6090     3.1510 H     1 <1>   0.0800 
 36 H        1.8250    -1.8640     3.2340 H     1 <1>   0.0800 
 37 H        3.1740    -3.5530    -0.3670 H     1 <1>   0.0800 
 38 H        2.3070    -4.5810     0.7500 H     1 <1>   0.0800 
 39 H        0.3000    -0.9060    -1.7280 H     1 <1>   0.4000 
 40 H       -3.5870    -0.7800    -0.7630 H     1 <1>   0.0800 
 41 H       -3.0820    -1.8160    -2.0730 H     1 <1>   0.0800 
 42 H       -2.9650    -0.0770    -2.2330 H     1 <1>   0.0800 
 43 H        2.5550    -1.7120     1.0530 H     1 <1>   0.4500 
 44 H        4.3190    -3.6900     2.3420 H     1 <1>   0.0800 
 45 H        4.2570    -1.9910     2.7470 H     1 <1>   0.0800 
 46 H        4.3530    -0.3030     0.6980 H     1 <1>   0.1500 
 47 H        7.3250    -3.6970    -1.3310 H     1 <1>   0.1500 
 48 H        4.9850    -5.2390     0.7040 H     1 <1>   0.0800 
 49 H        6.2870    -4.7510     1.7760 H     1 <1>   0.0800 
 50 H        6.6390    -5.3390     0.1790 H     1 <1>   0.0800 
 51 H        7.7090     0.8380    -2.3060 H     1 <1>   0.0800 
 52 H        6.4060     0.3700    -3.4260 H     1 <1>   0.0800 
@<TRIPOS>BOND
  1   1   2  1   
  2   1   3  1   
  3   2   4  1   
  4   2   5  1   
  5   2   6  1   
  6   3   7  1   
  7   3  25  1   
  8   3  26  1   
  9   4   8  1   
 10   4  27  1   
 11   4  28  1   
 12   5   9  1   
 13   5  29  1   
 14   5  30  1   
 15   6  10  1   
 16   6  31  1   
 17   6  32  1   
 18   7   8  1   
 19   7  33  1   
 20   7  34  1   
 21   8  11  1   
 22   8  12  1   
 23   9  13  1   
 24   9  35  1   
 25   9  36  1   
 26  10  13  1   
 27  10  37  1   
 28  10  38  1   
 29  11  39  1   
 30  12  40  1   
 31  12  41  1   
 32  12  42  1   
 33  13  14  1   
 34  13  43  1   
 35  14  15  1   
 36  14  44  1   
 37  14  45  1   
 38  15  16  ar  
 39  15  17  ar  
 40  16  18  ar  
 41  16  19  1   
 42  17  20  ar  
 43  17  46  1   
 44  18  21  ar  
 45  18  47  1   
 46  19  48  1   
 47  19  49  1   
 48  19  50  1   
 49  20  21  ar  
 50  20  22  1   
 51  21  23  1   
 52  22  24  1   
 53  23  24  1   
 54  24  51  1   
 55  24  52  1   
@<TRIPOS>SUBSTRUCTURE
  1 ****  13 GROUP 4 **** **** 0

# MOE 2024.06 (io_trps.svl 2023.06)
