@<TRIPOS>MOLECULE
NONAME
48 50 1 0 0 
SMALL
USER_CHARGES


@<TRIPOS>ATOM
  1 CL       2.9230    -0.8020    -0.2020 Cl    1 <1>  -0.1770 
  2 C        4.4120    -0.2930     0.5570 C.ar  1 <1>   0.1770 
  3 C        4.6620     1.0510     0.7770 C.ar  1 <1>   0.0860 
  4 C        5.3410    -1.2510     0.9210 C.ar  1 <1>   0.1600 
  5 C        3.7400     2.1010     0.4240 C.2   1 <1>   0.5440 
  6 C        5.8850     1.3250     1.3720 C.ar  1 <1>  -0.1500 
  7 N        6.5120    -0.9870     1.4850 N.ar  1 <1>  -0.6200 
  8 O        3.0070     2.5470     1.2860 O.2   1 <1>  -0.5700 
  9 N        3.7040     2.6460    -0.8430 N.am  1 <1>  -0.6600 
 10 C        6.7560     0.3000     1.6920 C.ar  1 <1>   0.1600 
 11 C        4.3750     2.0150    -2.0270 C.3   1 <1>   0.1400 
 12 C        3.2040     4.0360    -1.0270 C.3   1 <1>   0.1400 
 13 C        5.3220     2.9660    -2.7780 C.3   1 <1>   0.1400 
 14 C        4.2890     5.0440    -0.6120 C.3   1 <1>  -0.1600 
 15 N        6.1070     3.8090    -1.8300 N.am  1 <1>  -0.6600 
 16 C        5.5030     5.1400    -1.5500 C.3   1 <1>   0.1400 
 17 C        7.2020     3.2820    -1.1590 C.2   1 <1>   0.7160 
 18 O        7.5800     2.1720    -1.5100 O.2   1 <1>  -0.5700 
 19 C        7.9070     3.9690    -0.0730 C.2   1 <1>   0.2030 
 20 N        7.3490     4.6890     0.8870 N.2   1 <1>  -0.7070 
 21 C        9.3030     3.9340     0.1190 C.2   1 <1>  -0.1810 
 22 N        8.3550     5.1020     1.6640 N.pl3 1 <1>   0.3000 
 23 C        9.5500     4.6640     1.2270 C.2   1 <1>  -0.3320 
 24 C       10.3010     3.2040    -0.7670 C.3   1 <1>  -0.0590 
 25 C       10.8510     4.9980     1.9380 C.3   1 <1>   0.0200 
 26 C       10.9420     4.2460     3.2650 C.3   1 <1>  -0.2400 
 27 H        5.1080    -2.2840     0.7350 H     1 <1>   0.1500 
 28 H        6.1520     2.3460     1.5810 H     1 <1>   0.1500 
 29 H        7.7020     0.5520     2.1410 H     1 <1>   0.1500 
 30 H        3.6210     1.6610    -2.7070 H     1 <1>   0.0800 
 31 H        4.9500     1.1600    -1.7210 H     1 <1>   0.0800 
 32 H        2.3340     4.1800    -0.4090 H     1 <1>   0.0800 
 33 H        2.9050     4.1940    -2.0490 H     1 <1>   0.0800 
 34 H        4.7510     3.5950    -3.4370 H     1 <1>   0.0800 
 35 H        5.9910     2.3880    -3.3920 H     1 <1>   0.0800 
 36 H        4.6240     4.8110     0.3830 H     1 <1>   0.0800 
 37 H        3.8380     6.0170    -0.5620 H     1 <1>   0.0800 
 38 H        6.2390     5.7950    -1.1180 H     1 <1>   0.0800 
 39 H        5.1980     5.5840    -2.4820 H     1 <1>   0.0800 
 40 H        8.2040     5.6850     2.4960 H     1 <1>   0.2700 
 41 H       10.1670     3.4980    -1.7920 H     1 <1>   0.0800 
 42 H       10.1450     2.1420    -0.6910 H     1 <1>   0.0800 
 43 H       11.3120     3.4210    -0.4790 H     1 <1>   0.0800 
 44 H       10.9070     6.0590     2.1120 H     1 <1>   0.0800 
 45 H       11.6900     4.7280     1.3220 H     1 <1>   0.0800 
 46 H       10.1410     4.5340     3.9220 H     1 <1>   0.0800 
 47 H       11.8780     4.4610     3.7480 H     1 <1>   0.0800 
 48 H       10.8800     3.1860     3.0900 H     1 <1>   0.0800 
@<TRIPOS>BOND
  1   1   2  1   
  2   2   3  ar  
  3   2   4  ar  
  4   3   5  1   
  5   3   6  ar  
  6   4   7  ar  
  7   4  27  1   
  8   5   8  2   
  9   5   9  am  
 10   6  10  ar  
 11   6  28  1   
 12   7  10  ar  
 13   9  11  1   
 14   9  12  1   
 15  10  29  1   
 16  11  13  1   
 17  11  30  1   
 18  11  31  1   
 19  12  14  1   
 20  12  32  1   
 21  12  33  1   
 22  13  15  1   
 23  13  34  1   
 24  13  35  1   
 25  14  16  1   
 26  14  36  1   
 27  14  37  1   
 28  15  16  1   
 29  15  17  am  
 30  16  38  1   
 31  16  39  1   
 32  17  18  2   
 33  17  19  1   
 34  19  20  2   
 35  19  21  1   
 36  20  22  1   
 37  21  23  2   
 38  21  24  1   
 39  22  23  1   
 40  22  40  1   
 41  23  25  1   
 42  24  41  1   
 43  24  42  1   
 44  24  43  1   
 45  25  26  1   
 46  25  44  1   
 47  25  45  1   
 48  26  46  1   
 49  26  47  1   
 50  26  48  1   
@<TRIPOS>SUBSTRUCTURE
  1 ****  17 GROUP 4 **** **** 0

# MOE 2024.06 (io_trps.svl 2023.06)
