@<TRIPOS>MOLECULE
NONAME
51 53 1 0 0 
SMALL
USER_CHARGES


@<TRIPOS>ATOM
  1 O       -1.8360     0.6170    -1.7660 O.2   1 <1>  -0.5700 
  2 C       -1.8400     0.6410    -0.5600 C.2   1 <1>   0.5690 
  3 N       -1.9210    -0.5020     0.1720 N.am  1 <1>  -0.7300 
  4 C       -1.7100     2.0070     0.1350 C.3   1 <1>   0.4040 
  5 C       -1.9660    -1.8750    -0.3940 C.3   1 <1>   0.2200 
  6 N       -0.3040     2.5730     0.1570 N.4   1 <1>  -0.9590 
  7 C       -3.3370    -2.5120    -0.1900 C.3   1 <1>  -0.0800 
  8 C       -1.1180    -2.7740     0.4930 C.3   1 <1>   0.1200 
  9 C       -0.2350     3.8300     0.9560 C.3   1 <1>   0.3430 
 10 C        0.2100     2.7760    -1.2350 C.3   1 <1>   0.3430 
 11 C       -3.2480    -3.0880     1.2310 C.3   1 <1>   0.1200 
 12 C       -4.5520    -1.5980    -0.4320 C.3   1 <1>  -0.0170 
 13 O       -1.9100    -2.9700     1.6210 O.3   1 <1>  -0.5600 
 14 C        1.2170     4.3000     1.0500 C.3   1 <1>  -0.1600 
 15 C        1.6680     3.2320    -1.1830 C.3   1 <1>  -0.1600 
 16 C       -5.8490    -2.3830    -0.3220 C.ar  1 <1>  -0.1430 
 17 C        1.8370     4.5030    -0.3390 C.3   1 <1>  -0.0800 
 18 C       -6.3310    -3.1330    -1.3760 C.ar  1 <1>  -0.1500 
 19 C       -6.6120    -2.3910     0.8290 C.ar  1 <1>  -0.1500 
 20 C        3.3180     4.8790    -0.2200 C.3   1 <1>  -0.2400 
 21 C       -7.5140    -3.8380    -1.2320 C.ar  1 <1>   0.1600 
 22 C       -7.7820    -3.1320     0.8700 C.ar  1 <1>   0.1600 
 23 N       -8.2500    -3.8570    -0.1330 N.ar  1 <1>  -0.6200 
 24 H       -1.9520    -0.5210     1.1980 H     1 <1>   0.3700 
 25 H       -2.0710     1.9020     1.1430 H     1 <1>   0.0800 
 26 H       -2.3620     2.6940    -0.3770 H     1 <1>   0.0800 
 27 H       -1.6460    -1.8870    -1.4230 H     1 <1>   0.0800 
 28 H        0.3170     1.8830     0.5990 H     1 <1>   0.4500 
 29 H       -3.4120    -3.3470    -0.8660 H     1 <1>   0.0800 
 30 H       -0.1800    -2.3310     0.7760 H     1 <1>   0.0800 
 31 H       -0.9490    -3.7320     0.0310 H     1 <1>   0.0800 
 32 H       -0.8290     4.5970     0.4840 H     1 <1>   0.0800 
 33 H       -0.6210     3.6620     1.9490 H     1 <1>   0.0800 
 34 H        0.1480     1.8570    -1.7970 H     1 <1>   0.0800 
 35 H       -0.3830     3.5190    -1.7420 H     1 <1>   0.0800 
 36 H       -3.5270    -4.1280     1.2540 H     1 <1>   0.0800 
 37 H       -3.8470    -2.5370     1.9350 H     1 <1>   0.0800 
 38 H       -4.4840    -1.1660    -1.4150 H     1 <1>   0.0800 
 39 H       -4.5660    -0.7910     0.2790 H     1 <1>   0.0800 
 40 H        1.2450     5.2300     1.5920 H     1 <1>   0.0800 
 41 H        1.7880     3.5830     1.6140 H     1 <1>   0.0800 
 42 H        2.2750     2.4360    -0.7880 H     1 <1>   0.0800 
 43 H        2.0060     3.4230    -2.1880 H     1 <1>   0.0800 
 44 H        1.3240     5.3150    -0.8320 H     1 <1>   0.0800 
 45 H       -5.8000    -3.1760    -2.3090 H     1 <1>   0.1500 
 46 H       -6.3140    -1.8310     1.6960 H     1 <1>   0.1500 
 47 H        3.8780     4.0990     0.2660 H     1 <1>   0.0800 
 48 H        3.4310     5.7850     0.3510 H     1 <1>   0.0800 
 49 H        3.7420     5.0460    -1.1950 H     1 <1>   0.0800 
 50 H       -7.8750    -4.4170    -2.0650 H     1 <1>   0.1500 
 51 H       -8.3650    -3.1270     1.7750 H     1 <1>   0.1500 
@<TRIPOS>BOND
  1   1   2  2   
  2   2   3  am  
  3   2   4  1   
  4   3   5  1   
  5   3  24  1   
  6   4   6  1   
  7   4  25  1   
  8   4  26  1   
  9   5   7  1   
 10   5   8  1   
 11   5  27  1   
 12   6   9  1   
 13   6  10  1   
 14   6  28  1   
 15   7  11  1   
 16   7  12  1   
 17   7  29  1   
 18   8  13  1   
 19   8  30  1   
 20   8  31  1   
 21   9  14  1   
 22   9  32  1   
 23   9  33  1   
 24  10  15  1   
 25  10  34  1   
 26  10  35  1   
 27  11  13  1   
 28  11  36  1   
 29  11  37  1   
 30  12  16  1   
 31  12  38  1   
 32  12  39  1   
 33  14  17  1   
 34  14  40  1   
 35  14  41  1   
 36  15  17  1   
 37  15  42  1   
 38  15  43  1   
 39  16  18  ar  
 40  16  19  ar  
 41  17  20  1   
 42  17  44  1   
 43  18  21  ar  
 44  18  45  1   
 45  19  22  ar  
 46  19  46  1   
 47  20  47  1   
 48  20  48  1   
 49  20  49  1   
 50  21  23  ar  
 51  21  50  1   
 52  22  23  ar  
 53  22  51  1   
@<TRIPOS>SUBSTRUCTURE
  1 ****   3 GROUP 4 **** **** 0

# MOE 2024.06 (io_trps.svl 2023.06)
