@<TRIPOS>MOLECULE
NONAME
51 54 1 0 0 
SMALL
USER_CHARGES


@<TRIPOS>ATOM
  1 O        1.4060    -2.0420     2.2180 O.3   1 <1>  -0.3630 
  2 C        2.3210    -1.6830     1.2780 C.ar  1 <1>   0.0830 
  3 C        0.0210    -1.9680     1.9230 C.3   1 <1>   0.2580 
  4 C        2.0060    -1.7360    -0.0820 C.ar  1 <1>   0.0280 
  5 C        3.5780    -1.2840     1.6960 C.ar  1 <1>  -0.1500 
  6 C       -0.2530    -2.3680     0.4740 C.2   1 <1>  -0.2760 
  7 C        0.7040    -2.2150    -0.4530 C.2   1 <1>  -0.1780 
  8 C        2.9690    -1.3600    -1.0110 C.ar  1 <1>  -0.1500 
  9 C        4.5310    -0.9220     0.7610 C.ar  1 <1>  -0.1500 
 10 C       -1.6240    -2.9170     0.1760 C.3   1 <1>   0.4810 
 11 C        4.2320    -0.9550    -0.5930 C.ar  1 <1>   0.0830 
 12 N       -1.4740    -4.3840     0.2140 N.4   1 <1>  -0.9590 
 13 O        5.2260    -0.5850    -1.4410 O.3   1 <1>  -0.3620 
 14 C       -2.4430    -5.1490    -0.6240 C.3   1 <1>   0.3430 
 15 C       -1.4480    -5.0220     1.5550 C.3   1 <1>   0.3430 
 16 C        5.0050    -0.4920    -2.8320 C.3   1 <1>   0.0400 
 17 C       -2.6230    -6.5110     0.0660 C.3   1 <1>   0.2000 
 18 C       -1.7060    -6.5100     1.2970 C.3   1 <1>  -0.0800 
 19 O       -3.9410    -6.6380     0.4870 O.3   1 <1>  -0.6800 
 20 C       -0.3970    -7.3090     1.0780 C.3   1 <1>   0.0200 
 21 C        0.6170    -6.5720     0.2200 C.2   1 <1>  -0.0400 
 22 O        0.3380    -6.2780    -1.0200 O.3   1 <1>  -0.0190 
 23 C        1.8340    -6.0820     0.4970 C.2   1 <1>  -0.1500 
 24 N        1.2750    -5.5710    -1.5720 N.2   1 <1>  -0.4100 
 25 C        2.2060    -5.4600    -0.6910 C.2   1 <1>   0.1080 
 26 C        3.5280    -4.7570    -0.9160 C.3   1 <1>  -0.0590 
 27 H       -0.4790    -2.6170     2.6180 H     1 <1>   0.0800 
 28 H       -0.2970    -0.9550     2.1000 H     1 <1>   0.0800 
 29 H        3.8070    -1.2570     2.7460 H     1 <1>   0.1500 
 30 H        0.5680    -2.4530    -1.4960 H     1 <1>   0.1500 
 31 H        2.7160    -1.3960    -2.0530 H     1 <1>   0.1500 
 32 H        5.5110    -0.6090     1.0730 H     1 <1>   0.1500 
 33 H       -1.9140    -2.6100    -0.8170 H     1 <1>   0.0800 
 34 H       -2.3610    -2.5700     0.8810 H     1 <1>   0.0800 
 35 H       -0.5380    -4.5630    -0.2040 H     1 <1>   0.4500 
 36 H       -3.3930    -4.6440    -0.6830 H     1 <1>   0.0800 
 37 H       -2.0450    -5.2840    -1.6170 H     1 <1>   0.0800 
 38 H       -0.5020    -4.8620     2.0490 H     1 <1>   0.0800 
 39 H       -2.2420    -4.6210     2.1640 H     1 <1>   0.0800 
 40 H        5.9130    -0.1440    -3.2910 H     1 <1>   0.0800 
 41 H        4.2120     0.2130    -3.0140 H     1 <1>   0.0800 
 42 H        4.7540    -1.4650    -3.2130 H     1 <1>   0.0800 
 43 H       -2.4210    -7.3230    -0.6120 H     1 <1>   0.0800 
 44 H       -2.2080    -6.9520     2.1420 H     1 <1>   0.0800 
 45 H       -4.1660    -6.0680     1.2480 H     1 <1>   0.4000 
 46 H       -0.6150    -8.2660     0.6340 H     1 <1>   0.0800 
 47 H        0.0560    -7.5010     2.0350 H     1 <1>   0.0800 
 48 H        2.4170    -6.1210     1.3990 H     1 <1>   0.1500 
 49 H        3.7640    -4.1310    -0.0760 H     1 <1>   0.0800 
 50 H        3.4790    -4.1500    -1.8010 H     1 <1>   0.0800 
 51 H        4.3090    -5.4840    -1.0410 H     1 <1>   0.0800 
@<TRIPOS>BOND
  1   1   2  1   
  2   1   3  1   
  3   2   4  ar  
  4   2   5  ar  
  5   3   6  1   
  6   3  27  1   
  7   3  28  1   
  8   4   7  1   
  9   4   8  ar  
 10   5   9  ar  
 11   5  29  1   
 12   6   7  2   
 13   6  10  1   
 14   7  30  1   
 15   8  11  ar  
 16   8  31  1   
 17   9  11  ar  
 18   9  32  1   
 19  10  12  1   
 20  10  33  1   
 21  10  34  1   
 22  11  13  1   
 23  12  14  1   
 24  12  15  1   
 25  12  35  1   
 26  13  16  1   
 27  14  17  1   
 28  14  36  1   
 29  14  37  1   
 30  15  18  1   
 31  15  38  1   
 32  15  39  1   
 33  16  40  1   
 34  16  41  1   
 35  16  42  1   
 36  17  18  1   
 37  17  19  1   
 38  17  43  1   
 39  18  20  1   
 40  18  44  1   
 41  19  45  1   
 42  20  21  1   
 43  20  46  1   
 44  20  47  1   
 45  21  22  1   
 46  21  23  2   
 47  22  24  1   
 48  23  25  1   
 49  23  48  1   
 50  24  25  2   
 51  25  26  1   
 52  26  49  1   
 53  26  50  1   
 54  26  51  1   
@<TRIPOS>SUBSTRUCTURE
  1 ****   7 GROUP 4 **** **** 0

# MOE 2024.06 (io_trps.svl 2023.06)
