@<TRIPOS>MOLECULE
NONAME
48 50 1 0 0 
SMALL
USER_CHARGES


@<TRIPOS>ATOM
  1 S       -0.2120    -0.4010    -0.7160 S.o2  1 <1>   1.4470 
  2 O       -0.8420    -1.6690    -1.0210 O.2   1 <1>  -0.6500 
  3 O       -0.2540     0.6700    -1.6890 O.2   1 <1>  -0.6500 
  4 N       -0.9060     0.1700     0.7240 N.am  1 <1>  -0.8490 
  5 C        1.5040    -0.7140    -0.2170 C.ar  1 <1>  -0.0090 
  6 C       -2.3530    -0.0610     0.8760 C.3   1 <1>   0.1960 
  7 C       -0.4520     1.5060     1.1510 C.3   1 <1>   0.1960 
  8 C        2.5580     0.0190    -0.7500 C.ar  1 <1>  -0.1500 
  9 C        1.8040    -1.6870     0.7280 C.ar  1 <1>  -0.1500 
 10 C       -3.2540     0.9740     0.1300 C.3   1 <1>   0.0000 
 11 C       -1.5750     2.5560     1.1870 C.3   1 <1>  -0.1600 
 12 C        3.8700    -0.2010    -0.3590 C.ar  1 <1>  -0.1430 
 13 C        3.1060    -1.9220     1.1310 C.ar  1 <1>  -0.1500 
 14 C       -4.6560     1.0800     0.7740 C.3   1 <1>   0.2000 
 15 C       -2.5660     2.3580     0.0350 C.3   1 <1>  -0.1600 
 16 C       -3.6440     0.4550    -1.2660 C.3   1 <1>  -0.1600 
 17 C        4.1500    -1.1790     0.5900 C.ar  1 <1>   0.0820 
 18 C        4.9900     0.6270    -0.9720 C.3   1 <1>  -0.0970 
 19 O       -4.6500     1.1290     2.1580 O.3   1 <1>  -0.6800 
 20 C       -5.4440    -0.1340     0.2900 C.3   1 <1>  -0.1600 
 21 C       -4.8040    -0.5230    -1.0490 C.3   1 <1>  -0.1600 
 22 O        5.4480    -1.3620     0.9460 O.3   1 <1>  -0.3620 
 23 C        5.8330    -2.3490     1.8760 C.3   1 <1>   0.0400 
 24 H       -2.6030    -1.0640     0.5760 H     1 <1>   0.0800 
 25 H       -2.5480    -0.0070     1.9310 H     1 <1>   0.0800 
 26 H       -0.0190     1.4250     2.1340 H     1 <1>   0.0800 
 27 H        0.3240     1.8560     0.4910 H     1 <1>   0.0800 
 28 H        2.3430     0.7750    -1.4860 H     1 <1>   0.1500 
 29 H        1.0010    -2.2660     1.1520 H     1 <1>   0.1500 
 30 H       -2.0970     2.4900     2.1260 H     1 <1>   0.0800 
 31 H       -1.1390     3.5380     1.1310 H     1 <1>   0.0800 
 32 H        3.2850    -2.6860     1.8630 H     1 <1>   0.1500 
 33 H       -5.1450     1.9740     0.4230 H     1 <1>   0.0800 
 34 H       -2.0210     2.4280    -0.8910 H     1 <1>   0.0800 
 35 H       -3.2930     3.1500     0.0370 H     1 <1>   0.0800 
 36 H       -3.9970     1.2770    -1.8660 H     1 <1>   0.0800 
 37 H       -2.8310    -0.0100    -1.7920 H     1 <1>   0.0800 
 38 H        4.6100     1.3340    -1.6860 H     1 <1>   0.0800 
 39 H        5.6890    -0.0210    -1.4690 H     1 <1>   0.0800 
 40 H        5.5100     1.1640    -0.1990 H     1 <1>   0.0800 
 41 H       -4.4920     0.2410     2.5260 H     1 <1>   0.4000 
 42 H       -5.3570    -0.9560     0.9790 H     1 <1>   0.0800 
 43 H       -6.4820     0.1200     0.1610 H     1 <1>   0.0800 
 44 H       -4.4290    -1.5320    -0.9970 H     1 <1>   0.0800 
 45 H       -5.5120    -0.4610    -1.8590 H     1 <1>   0.0800 
 46 H        6.9020    -2.3080     1.9830 H     1 <1>   0.0800 
 47 H        5.5400    -3.3140     1.5020 H     1 <1>   0.0800 
 48 H        5.3630    -2.1410     2.8210 H     1 <1>   0.0800 
@<TRIPOS>BOND
  1   1   2  2   
  2   1   3  2   
  3   1   4  am  
  4   1   5  1   
  5   4   6  1   
  6   4   7  1   
  7   5   8  ar  
  8   5   9  ar  
  9   6  10  1   
 10   6  24  1   
 11   6  25  1   
 12   7  11  1   
 13   7  26  1   
 14   7  27  1   
 15   8  12  ar  
 16   8  28  1   
 17   9  13  ar  
 18   9  29  1   
 19  10  14  1   
 20  10  15  1   
 21  10  16  1   
 22  11  15  1   
 23  11  30  1   
 24  11  31  1   
 25  12  17  ar  
 26  12  18  1   
 27  13  17  ar  
 28  13  32  1   
 29  14  19  1   
 30  14  20  1   
 31  14  33  1   
 32  15  34  1   
 33  15  35  1   
 34  16  21  1   
 35  16  36  1   
 36  16  37  1   
 37  17  22  1   
 38  18  38  1   
 39  18  39  1   
 40  18  40  1   
 41  19  41  1   
 42  20  21  1   
 43  20  42  1   
 44  20  43  1   
 45  21  44  1   
 46  21  45  1   
 47  22  23  1   
 48  23  46  1   
 49  23  47  1   
 50  23  48  1   
@<TRIPOS>SUBSTRUCTURE
  1 ****   4 GROUP 4 **** **** 0

# MOE 2024.06 (io_trps.svl 2023.06)
