@<TRIPOS>MOLECULE
NONAME
63 67 1 0 0 
SMALL
USER_CHARGES


@<TRIPOS>ATOM
  1 O       -1.1980    -2.9130     1.4030 O.2   1 <1>  -0.5700 
  2 C       -0.1730    -3.3310     0.9330 C.2   1 <1>   0.5690 
  3 N       -0.1530    -4.0010    -0.2380 N.am  1 <1>  -0.7300 
  4 C        1.1460    -3.1310     1.6460 C.3   1 <1>  -0.0990 
  5 C        1.0820    -4.5520    -0.8330 C.3   1 <1>   0.1400 
  6 C        2.2420    -2.7230     0.6440 C.3   1 <1>  -0.0800 
  7 C        2.2410    -3.5470    -0.6690 C.3   1 <1>  -0.0800 
  8 C        3.6580    -2.8270     1.2300 C.3   1 <1>  -0.1600 
  9 C        3.6200    -4.2120    -0.7450 C.3   1 <1>  -0.1600 
 10 C        4.5270    -3.2870     0.0640 C.3   1 <1>   0.2200 
 11 N        5.8050    -3.9210     0.5060 N.am  1 <1>  -0.6600 
 12 C        7.0350    -3.3680     0.2090 C.2   1 <1>   0.5440 
 13 C        5.7470    -5.2780     1.1350 C.3   1 <1>   0.0600 
 14 O        8.0300    -4.0640     0.2740 O.2   1 <1>  -0.5700 
 15 C        7.1910    -1.9810    -0.1820 C.ar  1 <1>   0.0860 
 16 C        7.7600    -1.6460    -1.4080 C.ar  1 <1>  -0.1500 
 17 C        6.7980    -0.9370     0.6530 C.ar  1 <1>  -0.1500 
 18 C        7.9360    -0.3280    -1.7860 C.ar  1 <1>  -0.1500 
 19 C        6.9700     0.3850     0.2840 C.ar  1 <1>  -0.1500 
 20 C        7.5530     0.6980    -0.9350 C.ar  1 <1>  -0.1430 
 21 C        7.7930     2.1440    -1.3280 C.3   1 <1>   0.4860 
 22 N        8.9270     2.6670    -0.5220 N.4   1 <1>  -0.9590 
 23 C        9.1310     4.1260    -0.7190 C.3   1 <1>   0.4860 
 24 C       10.2050     1.9290    -0.7600 C.3   1 <1>   0.3430 
 25 C       10.2500     4.6210     0.1810 C.ar  1 <1>  -0.1430 
 26 C       11.2190     2.2760     0.3330 C.3   1 <1>  -0.0170 
 27 C       11.2340     3.7620     0.6630 C.ar  1 <1>  -0.1430 
 28 C       10.2930     5.9660     0.5190 C.ar  1 <1>  -0.1500 
 29 C       12.2430     4.2580     1.4730 C.ar  1 <1>  -0.1500 
 30 C       11.3030     6.4540     1.3270 C.ar  1 <1>  -0.1500 
 31 C       12.2790     5.6000     1.8040 C.ar  1 <1>  -0.1500 
 32 H       -1.0480    -4.1690    -0.7030 H     1 <1>   0.3700 
 33 H        1.0330    -2.3770     2.4030 H     1 <1>   0.0800 
 34 H        1.3990    -4.0580     2.1260 H     1 <1>   0.0800 
 35 H        1.3130    -5.4760    -0.3300 H     1 <1>   0.0800 
 36 H        0.9230    -4.7640    -1.8770 H     1 <1>   0.0800 
 37 H        2.0620    -1.6950     0.3720 H     1 <1>   0.0800 
 38 H        2.1720    -2.8460    -1.4840 H     1 <1>   0.0800 
 39 H        3.6780    -3.5580     2.0170 H     1 <1>   0.0800 
 40 H        3.9880    -1.8810     1.6180 H     1 <1>   0.0800 
 41 H        3.9620    -4.3060    -1.7610 H     1 <1>   0.0800 
 42 H        3.5700    -5.1840    -0.2920 H     1 <1>   0.0800 
 43 H        4.7350    -2.4300    -0.5540 H     1 <1>   0.0800 
 44 H        4.8630    -5.3880     1.7350 H     1 <1>   0.0800 
 45 H        6.6050    -5.4300     1.7660 H     1 <1>   0.0800 
 46 H        5.7520    -6.0300     0.3660 H     1 <1>   0.0800 
 47 H        8.0700    -2.4440    -2.0630 H     1 <1>   0.1500 
 48 H        6.3600    -1.1790     1.6070 H     1 <1>   0.1500 
 49 H        8.3800    -0.1200    -2.7460 H     1 <1>   0.1500 
 50 H        6.6480     1.1570     0.9630 H     1 <1>   0.1500 
 51 H        6.9010     2.7180    -1.1340 H     1 <1>   0.0800 
 52 H        8.0210     2.2060    -2.3800 H     1 <1>   0.0800 
 53 H        8.6970     2.5330     0.4700 H     1 <1>   0.4500 
 54 H        9.3890     4.3300    -1.7450 H     1 <1>   0.0800 
 55 H        8.2250     4.6610    -0.4820 H     1 <1>   0.0800 
 56 H       10.0370     0.8630    -0.7520 H     1 <1>   0.0800 
 57 H       10.6090     2.2030    -1.7210 H     1 <1>   0.0800 
 58 H       10.9800     1.7220     1.2230 H     1 <1>   0.0800 
 59 H       12.1970     1.9640     0.0120 H     1 <1>   0.0800 
 60 H        9.5460     6.6540     0.1580 H     1 <1>   0.1500 
 61 H       13.0110     3.6050     1.8540 H     1 <1>   0.1500 
 62 H       11.3330     7.4990     1.5870 H     1 <1>   0.1500 
 63 H       13.0660     5.9800     2.4330 H     1 <1>   0.1500 
@<TRIPOS>BOND
  1   1   2  2   
  2   2   3  am  
  3   2   4  1   
  4   3   5  1   
  5   3  32  1   
  6   4   6  1   
  7   4  33  1   
  8   4  34  1   
  9   5   7  1   
 10   5  35  1   
 11   5  36  1   
 12   6   7  1   
 13   6   8  1   
 14   6  37  1   
 15   7   9  1   
 16   7  38  1   
 17   8  10  1   
 18   8  39  1   
 19   8  40  1   
 20   9  10  1   
 21   9  41  1   
 22   9  42  1   
 23  10  11  1   
 24  10  43  1   
 25  11  12  am  
 26  11  13  1   
 27  12  14  2   
 28  12  15  1   
 29  13  44  1   
 30  13  45  1   
 31  13  46  1   
 32  15  16  ar  
 33  15  17  ar  
 34  16  18  ar  
 35  16  47  1   
 36  17  19  ar  
 37  17  48  1   
 38  18  20  ar  
 39  18  49  1   
 40  19  20  ar  
 41  19  50  1   
 42  20  21  1   
 43  21  22  1   
 44  21  51  1   
 45  21  52  1   
 46  22  23  1   
 47  22  24  1   
 48  22  53  1   
 49  23  25  1   
 50  23  54  1   
 51  23  55  1   
 52  24  26  1   
 53  24  56  1   
 54  24  57  1   
 55  25  27  ar  
 56  25  28  ar  
 57  26  27  1   
 58  26  58  1   
 59  26  59  1   
 60  27  29  ar  
 61  28  30  ar  
 62  28  60  1   
 63  29  31  ar  
 64  29  61  1   
 65  30  31  ar  
 66  30  62  1   
 67  31  63  1   
@<TRIPOS>SUBSTRUCTURE
  1 ****  17 GROUP 4 **** **** 0

# MOE 2024.06 (io_trps.svl 2023.06)
