@<TRIPOS>MOLECULE
NONAME
48 50 1 0 0 
SMALL
USER_CHARGES


@<TRIPOS>ATOM
  1 CL      -1.0730    -0.2110    -1.0240 Cl    1 <1>  -0.1770 
  2 C       -2.4330     0.6740    -0.3760 C.ar  1 <1>   0.1770 
  3 C       -3.3540     0.0510     0.4520 C.ar  1 <1>   0.0860 
  4 C       -2.5720     2.0100    -0.7060 C.ar  1 <1>   0.1600 
  5 C       -3.2790    -1.3390     0.8330 C.2   1 <1>   0.5440 
  6 C       -4.3720     0.8760     0.9110 C.ar  1 <1>  -0.1500 
  7 N       -3.5560     2.7890    -0.2810 N.ar  1 <1>  -0.6200 
  8 O       -3.0150    -1.6080     1.9870 O.2   1 <1>  -0.5700 
  9 N       -3.5460    -2.3510    -0.0600 N.am  1 <1>  -0.6600 
 10 C       -4.4290     2.2030     0.5240 C.ar  1 <1>   0.1600 
 11 C       -3.5110    -3.7950     0.3710 C.3   1 <1>   0.3640 
 12 C       -4.0770    -2.0850    -1.4360 C.3   1 <1>   0.1400 
 13 C       -2.2390    -4.5180    -0.1080 C.ar  1 <1>  -0.1430 
 14 C       -4.7940    -4.5650    -0.0840 C.3   1 <1>   0.2000 
 15 C       -4.6080    -3.3560    -2.1150 C.3   1 <1>   0.1200 
 16 C       -1.9800    -5.7820     0.4090 C.ar  1 <1>  -0.1500 
 17 C       -1.3320    -3.9810    -1.0160 C.ar  1 <1>  -0.1500 
 18 O       -5.4350    -4.0350    -1.2250 O.3   1 <1>  -0.5600 
 19 C       -5.8460    -4.6010     1.0300 C.3   1 <1>   0.1200 
 20 C       -0.8680    -6.5090     0.0180 C.ar  1 <1>   0.0830 
 21 C       -0.2060    -4.6880    -1.4000 C.ar  1 <1>  -0.1500 
 22 O       -5.4370    -5.4540     2.0510 O.3   1 <1>  -0.6800 
 23 O       -0.7250    -7.7540     0.5380 O.3   1 <1>  -0.3630 
 24 C        0.0430    -5.9450    -0.8800 C.ar  1 <1>   0.0830 
 25 C       -0.7370    -8.8280    -0.3770 C.3   1 <1>   0.0400 
 26 O        1.1830    -6.5690    -1.2640 O.3   1 <1>  -0.3630 
 27 C        2.1670    -6.7200    -0.2650 C.3   1 <1>   0.0400 
 28 H       -1.8350     2.4560    -1.3520 H     1 <1>   0.1500 
 29 H       -5.1180     0.4750     1.5750 H     1 <1>   0.1500 
 30 H       -5.2340     2.8170     0.8970 H     1 <1>   0.1500 
 31 H       -3.4770    -3.8420     1.4460 H     1 <1>   0.0800 
 32 H       -4.8820    -1.3740    -1.3740 H     1 <1>   0.0800 
 33 H       -3.3020    -1.6590    -2.0480 H     1 <1>   0.0800 
 34 H       -4.5360    -5.5780    -0.3320 H     1 <1>   0.0800 
 35 H       -3.8070    -4.0080    -2.4190 H     1 <1>   0.0800 
 36 H       -5.1910    -3.1000    -2.9820 H     1 <1>   0.0800 
 37 H       -2.6460    -6.2250     1.1290 H     1 <1>   0.1500 
 38 H       -1.4780    -3.0020    -1.4300 H     1 <1>   0.1500 
 39 H       -6.7880    -4.9610     0.6530 H     1 <1>   0.0800 
 40 H       -5.9760    -3.6180     1.4500 H     1 <1>   0.0800 
 41 H        0.4920    -4.2620    -2.0980 H     1 <1>   0.1500 
 42 H       -5.5810    -6.3890     1.8040 H     1 <1>   0.4000 
 43 H       -0.7900    -9.7440     0.1830 H     1 <1>   0.0800 
 44 H        0.1650    -8.8100    -0.9610 H     1 <1>   0.0800 
 45 H       -1.5980    -8.7340    -1.0140 H     1 <1>   0.0800 
 46 H        3.0380    -7.1600    -0.7150 H     1 <1>   0.0800 
 47 H        1.7900    -7.3600     0.5120 H     1 <1>   0.0800 
 48 H        2.4060    -5.7500     0.1340 H     1 <1>   0.0800 
@<TRIPOS>BOND
  1   1   2  1   
  2   2   3  ar  
  3   2   4  ar  
  4   3   5  1   
  5   3   6  ar  
  6   4   7  ar  
  7   4  28  1   
  8   5   8  2   
  9   5   9  am  
 10   6  10  ar  
 11   6  29  1   
 12   7  10  ar  
 13   9  11  1   
 14   9  12  1   
 15  10  30  1   
 16  11  13  1   
 17  11  14  1   
 18  11  31  1   
 19  12  15  1   
 20  12  32  1   
 21  12  33  1   
 22  13  16  ar  
 23  13  17  ar  
 24  14  18  1   
 25  14  19  1   
 26  14  34  1   
 27  15  18  1   
 28  15  35  1   
 29  15  36  1   
 30  16  20  ar  
 31  16  37  1   
 32  17  21  ar  
 33  17  38  1   
 34  19  22  1   
 35  19  39  1   
 36  19  40  1   
 37  20  23  1   
 38  20  24  ar  
 39  21  24  ar  
 40  21  41  1   
 41  22  42  1   
 42  23  25  1   
 43  24  26  1   
 44  25  43  1   
 45  25  44  1   
 46  25  45  1   
 47  26  27  1   
 48  27  46  1   
 49  27  47  1   
 50  27  48  1   
@<TRIPOS>SUBSTRUCTURE
  1 ****  11 GROUP 4 **** **** 0

# MOE 2024.06 (io_trps.svl 2023.06)
