@<TRIPOS>MOLECULE
NONAME
47 49 1 0 0 
SMALL
USER_CHARGES


@<TRIPOS>ATOM
  1 F       -0.1750     0.8750    -0.1230 F     1 <1>  -0.1900 
  2 C       -1.4670     1.0510    -0.0090 C.ar  1 <1>   0.1900 
  3 C       -2.1130     2.1730    -0.5410 C.ar  1 <1>   0.0830 
  4 C       -2.1630     0.0690     0.6690 C.ar  1 <1>  -0.1500 
  5 O       -1.5400     3.2050    -1.2240 O.3   1 <1>  -0.3630 
  6 C       -3.4840     2.2670    -0.3650 C.ar  1 <1>  -0.1500 
  7 C       -3.5310     0.1960     0.8270 C.ar  1 <1>  -0.1500 
  8 C       -0.1620     3.2600    -1.5200 C.3   1 <1>   0.0400 
  9 C       -4.2210     1.2930     0.3100 C.ar  1 <1>   0.0530 
 10 C       -5.6450     1.4430     0.4740 C.2   1 <1>   0.0870 
 11 O       -6.1190     2.6000     0.8610 O.3   1 <1>  -0.0190 
 12 C       -6.7120     0.6110     0.3090 C.2   1 <1>  -0.0860 
 13 N       -7.4180     2.6080     0.9830 N.2   1 <1>  -0.4100 
 14 C       -7.8000     1.4230     0.6610 C.2   1 <1>   0.3720 
 15 C       -6.7860    -0.7500    -0.1350 C.2   1 <1>   0.7160 
 16 N       -9.1480     1.0290     0.6890 N.pl3 1 <1>  -0.8210 
 17 O       -5.7850    -1.4190    -0.3060 O.2   1 <1>  -0.5700 
 18 N       -8.0010    -1.3160    -0.3680 N.am  1 <1>  -0.6550 
 19 C      -10.0650     1.9910     0.0130 C.3   1 <1>   0.1290 
 20 C       -9.6190     0.7140     2.0660 C.3   1 <1>   0.1290 
 21 C       -8.3240    -2.7260    -0.6610 C.3   1 <1>   0.2250 
 22 C       -7.9300    -3.7050     0.4840 C.3   1 <1>   0.0000 
 23 C       -9.8070    -3.0430    -0.3130 C.3   1 <1>   0.0000 
 24 C       -7.9000    -3.1250    -2.0730 C.3   1 <1>  -0.2400 
 25 C       -9.3230    -3.4290     1.1110 C.3   1 <1>   0.0000 
 26 H       -1.6410    -0.7830     1.0660 H     1 <1>   0.1500 
 27 H       -3.9940     3.1240    -0.7670 H     1 <1>   0.1500 
 28 H       -4.0730    -0.5680     1.3580 H     1 <1>   0.1500 
 29 H        0.0250     4.1600    -2.0760 H     1 <1>   0.0800 
 30 H        0.1040     2.4030    -2.1140 H     1 <1>   0.0800 
 31 H        0.3940     3.2790    -0.5990 H     1 <1>   0.0800 
 32 H       -8.8020    -0.7040    -0.1550 H     1 <1>   0.3700 
 33 H       -9.6650     2.2600    -0.9510 H     1 <1>   0.0800 
 34 H      -10.1700     2.8850     0.6040 H     1 <1>   0.0800 
 35 H      -11.0330     1.5420    -0.1280 H     1 <1>   0.0800 
 36 H       -8.9450     0.0160     2.5330 H     1 <1>   0.0800 
 37 H      -10.6010     0.2740     2.0290 H     1 <1>   0.0800 
 38 H       -9.6540     1.6120     2.6600 H     1 <1>   0.0800 
 39 H       -7.1050    -3.3830     1.0960 H     1 <1>   0.0000 
 40 H       -7.8350    -4.7240     0.1510 H     1 <1>   0.0000 
 41 H      -10.1940    -3.8930    -0.8480 H     1 <1>   0.0000 
 42 H      -10.4640    -2.1910    -0.3370 H     1 <1>   0.0000 
 43 H       -6.8320    -3.0490    -2.1720 H     1 <1>   0.0800 
 44 H       -8.3700    -2.4850    -2.7960 H     1 <1>   0.0800 
 45 H       -8.1850    -4.1410    -2.2770 H     1 <1>   0.0800 
 46 H       -9.3170    -2.5940     1.7910 H     1 <1>   0.0000 
 47 H       -9.8010    -4.3060     1.5100 H     1 <1>   0.0000 
@<TRIPOS>BOND
  1   1   2  1   
  2   2   3  ar  
  3   2   4  ar  
  4   3   5  1   
  5   3   6  ar  
  6   4   7  ar  
  7   4  26  1   
  8   5   8  1   
  9   6   9  ar  
 10   6  27  1   
 11   7   9  ar  
 12   7  28  1   
 13   8  29  1   
 14   8  30  1   
 15   8  31  1   
 16   9  10  1   
 17  10  11  1   
 18  10  12  2   
 19  11  13  1   
 20  12  14  1   
 21  12  15  1   
 22  13  14  2   
 23  14  16  1   
 24  15  17  2   
 25  15  18  am  
 26  16  19  1   
 27  16  20  1   
 28  18  21  1   
 29  18  32  1   
 30  19  33  1   
 31  19  34  1   
 32  19  35  1   
 33  20  36  1   
 34  20  37  1   
 35  20  38  1   
 36  21  22  1   
 37  21  23  1   
 38  21  24  1   
 39  22  25  1   
 40  22  39  1   
 41  22  40  1   
 42  23  25  1   
 43  23  41  1   
 44  23  42  1   
 45  24  43  1   
 46  24  44  1   
 47  24  45  1   
 48  25  46  1   
 49  25  47  1   
@<TRIPOS>SUBSTRUCTURE
  1 ****  12 GROUP 4 **** **** 0

# MOE 2024.06 (io_trps.svl 2023.06)
