@<TRIPOS>MOLECULE
NONAME
46 48 1 0 0 
SMALL
USER_CHARGES


@<TRIPOS>ATOM
  1 F        0.2270     1.2260    -1.3390 F     1 <1>  -0.1900 
  2 C        0.2250     2.5040    -1.0700 C.ar  1 <1>   0.1900 
  3 C       -0.0960     2.9150     0.2090 C.ar  1 <1>  -0.1500 
  4 C        0.5460     3.3980    -2.0720 C.ar  1 <1>  -0.1500 
  5 C       -0.0960     4.2710     0.4900 C.ar  1 <1>  -0.1500 
  6 C        0.5430     4.7510    -1.7780 C.ar  1 <1>  -0.1500 
  7 C        0.2230     5.1960    -0.4990 C.ar  1 <1>  -0.1430 
  8 C        0.2280     6.6850    -0.1580 C.3   1 <1>   0.3440 
  9 O       -0.2160     7.4220    -1.2680 O.3   1 <1>  -0.5600 
 10 C        1.6390     7.1490     0.2460 C.3   1 <1>   0.1400 
 11 C       -0.3100     8.7990    -1.0430 C.3   1 <1>   0.1200 
 12 N        1.6880     8.6340     0.4440 N.am  1 <1>  -0.6600 
 13 C        1.0600     9.3970    -0.6760 C.3   1 <1>   0.1400 
 14 C        2.0960     9.2000     1.6380 C.2   1 <1>   0.7150 
 15 O        2.0910     8.4920     2.6300 O.2   1 <1>  -0.5700 
 16 C        2.5120    10.5820     1.7690 C.2   1 <1>   0.0550 
 17 O        2.8430    11.3370     0.7230 O.3   1 <1>  -0.2800 
 18 C        2.6650    11.3340     2.8950 C.2   1 <1>  -0.1500 
 19 C        3.1930    12.5380     1.1360 C.2   1 <1>   0.1600 
 20 C        3.1000    12.5920     2.4850 C.2   1 <1>  -0.1500 
 21 C        3.5870    13.5300     0.1870 C.1   1 <1>  -0.0200 
 22 C        3.9170    14.3560    -0.6060 C.1   1 <1>  -0.2000 
 23 C        4.3320    15.3810    -1.6000 C.3   1 <1>   0.4800 
 24 O        3.1920    15.8200    -2.2120 O.3   1 <1>  -0.6800 
 25 C        5.2210    14.7740    -2.6780 C.3   1 <1>  -0.2400 
 26 C        4.9810    16.5850    -0.9290 C.3   1 <1>  -0.2400 
 27 H       -0.3410     2.1880     0.9620 H     1 <1>   0.1500 
 28 H        0.7890     3.0420    -3.0570 H     1 <1>   0.1500 
 29 H       -0.3440     4.6020     1.4840 H     1 <1>   0.1500 
 30 H        0.7860     5.4620    -2.5500 H     1 <1>   0.1500 
 31 H       -0.4550     6.8660     0.6540 H     1 <1>   0.0800 
 32 H        2.3300     6.8750    -0.5310 H     1 <1>   0.0800 
 33 H        1.9350     6.6310     1.1410 H     1 <1>   0.0800 
 34 H       -1.0210     8.9720    -0.2530 H     1 <1>   0.0800 
 35 H       -0.6820     9.2540    -1.9440 H     1 <1>   0.0800 
 36 H        0.9150    10.4270    -0.4040 H     1 <1>   0.0800 
 37 H        1.7080     9.3660    -1.5350 H     1 <1>   0.0800 
 38 H        2.4910    11.0230     3.9110 H     1 <1>   0.1500 
 39 H        3.3150    13.4270     3.1280 H     1 <1>   0.1500 
 40 H        2.6380    15.0420    -2.3990 H     1 <1>   0.4000 
 41 H        4.7300    13.9420    -3.1480 H     1 <1>   0.0800 
 42 H        6.1360    14.4210    -2.2370 H     1 <1>   0.0800 
 43 H        5.4630    15.5130    -3.4200 H     1 <1>   0.0800 
 44 H        4.3110    17.0090    -0.2030 H     1 <1>   0.0800 
 45 H        5.2270    17.3320    -1.6620 H     1 <1>   0.0800 
 46 H        5.8820    16.2840    -0.4280 H     1 <1>   0.0800 
@<TRIPOS>BOND
  1   1   2  1   
  2   2   3  ar  
  3   2   4  ar  
  4   3   5  ar  
  5   3  27  1   
  6   4   6  ar  
  7   4  28  1   
  8   5   7  ar  
  9   5  29  1   
 10   6   7  ar  
 11   6  30  1   
 12   7   8  1   
 13   8   9  1   
 14   8  10  1   
 15   8  31  1   
 16   9  11  1   
 17  10  12  1   
 18  10  32  1   
 19  10  33  1   
 20  11  13  1   
 21  11  34  1   
 22  11  35  1   
 23  12  13  1   
 24  12  14  am  
 25  13  36  1   
 26  13  37  1   
 27  14  15  2   
 28  14  16  1   
 29  16  17  1   
 30  16  18  2   
 31  17  19  1   
 32  18  20  1   
 33  18  38  1   
 34  19  20  2   
 35  19  21  1   
 36  20  39  1   
 37  21  22  3   
 38  22  23  1   
 39  23  24  1   
 40  23  25  1   
 41  23  26  1   
 42  24  40  1   
 43  25  41  1   
 44  25  42  1   
 45  25  43  1   
 46  26  44  1   
 47  26  45  1   
 48  26  46  1   
@<TRIPOS>SUBSTRUCTURE
  1 ****  12 GROUP 4 **** **** 0

# MOE 2024.06 (io_trps.svl 2023.06)
