@<TRIPOS>MOLECULE
NONAME
55 57 1 0 0 
SMALL
USER_CHARGES


@<TRIPOS>ATOM
  1 O        0.2200    -2.0490    -2.1180 O.2   1 <1>  -0.5700 
  2 C       -0.1680    -1.8330    -0.9870 C.2   1 <1>   0.5440 
  3 N        0.4050    -0.8040    -0.2870 N.am  1 <1>  -0.7300 
  4 C       -1.2030    -2.6550    -0.4000 C.ar  1 <1>   0.0860 
  5 C        1.4710     0.0840    -0.7920 C.3   1 <1>   0.1400 
  6 C       -1.5150    -3.8980    -0.9520 C.ar  1 <1>   0.1600 
  7 C       -1.9400    -2.2750     0.7200 C.ar  1 <1>  -0.1500 
  8 C        2.5000     0.2840     0.3130 C.3   1 <1>  -0.2400 
  9 N       -2.4280    -4.7460    -0.5070 N.ar  1 <1>  -0.6200 
 10 C       -2.8940    -3.1420     1.1960 C.ar  1 <1>  -0.1500 
 11 C       -3.1110    -4.3630     0.5630 C.ar  1 <1>   0.4100 
 12 N       -4.0610    -5.2240     1.0480 N.pl3 1 <1>  -0.8690 
 13 C       -4.4740    -6.4480     0.3520 C.3   1 <1>   0.2890 
 14 C       -5.9260    -6.7620     0.6890 C.3   1 <1>  -0.1600 
 15 C       -3.5590    -7.5890     0.7850 C.3   1 <1>  -0.1600 
 16 C       -6.3380    -8.0820     0.0410 C.3   1 <1>   0.3430 
 17 C       -3.9980    -8.8890     0.1280 C.3   1 <1>   0.3430 
 18 N       -5.4210    -9.1800     0.4820 N.4   1 <1>  -0.9590 
 19 C       -5.8170   -10.5090    -0.0810 C.3   1 <1>   0.3430 
 20 C       -7.1320   -11.0230     0.5090 C.3   1 <1>  -0.0170 
 21 C       -7.3890   -12.4110    -0.0410 C.ar  1 <1>  -0.1440 
 22 C       -6.9160   -13.5280     0.6320 C.ar  1 <1>  -0.1500 
 23 C       -8.0890   -12.5750    -1.2270 C.ar  1 <1>  -0.1500 
 24 C       -7.1350   -14.7950     0.1190 C.ar  1 <1>  -0.1500 
 25 C       -8.3070   -13.8420    -1.7390 C.ar  1 <1>  -0.1500 
 26 C       -7.8290   -14.9520    -1.0670 C.ar  1 <1>  -0.1500 
 27 H        0.1400    -0.6490     0.6850 H     1 <1>   0.3700 
 28 H        1.0410     1.0290    -1.0790 H     1 <1>   0.0800 
 29 H        1.9410    -0.3540    -1.6580 H     1 <1>   0.0800 
 30 H       -0.9610    -4.2040    -1.8240 H     1 <1>   0.1500 
 31 H       -1.7760    -1.3280     1.1990 H     1 <1>   0.1500 
 32 H        2.0500     0.7500     1.1710 H     1 <1>   0.0800 
 33 H        3.2900     0.9200    -0.0430 H     1 <1>   0.0800 
 34 H        2.9290    -0.6610     0.5960 H     1 <1>   0.0800 
 35 H       -3.4810    -2.8870     2.0580 H     1 <1>   0.1500 
 36 H       -4.6530    -4.9000     1.8150 H     1 <1>   0.4000 
 37 H       -4.3850    -6.3000    -0.7140 H     1 <1>   0.0800 
 38 H       -6.5540    -5.9760     0.3090 H     1 <1>   0.0800 
 39 H       -6.0630    -6.8250     1.7530 H     1 <1>   0.0800 
 40 H       -3.5660    -7.6940     1.8550 H     1 <1>   0.0800 
 41 H       -2.5520    -7.3680     0.4780 H     1 <1>   0.0800 
 42 H       -6.2960    -7.9820    -1.0330 H     1 <1>   0.0800 
 43 H       -7.3540    -8.3090     0.3190 H     1 <1>   0.0800 
 44 H       -3.3610    -9.6920     0.4640 H     1 <1>   0.0800 
 45 H       -3.8960    -8.8010    -0.9420 H     1 <1>   0.0800 
 46 H       -5.4690    -9.2410     1.5090 H     1 <1>   0.4500 
 47 H       -5.0490   -11.2340     0.1360 H     1 <1>   0.0800 
 48 H       -5.9100   -10.4440    -1.1540 H     1 <1>   0.0800 
 49 H       -7.9520   -10.3820     0.2410 H     1 <1>   0.0800 
 50 H       -7.0660   -11.0710     1.5820 H     1 <1>   0.0800 
 51 H       -6.3780   -13.4300     1.5580 H     1 <1>   0.1500 
 52 H       -8.4750   -11.7260    -1.7650 H     1 <1>   0.1500 
 53 H       -6.7670   -15.6610     0.6430 H     1 <1>   0.1500 
 54 H       -8.8510   -13.9680    -2.6590 H     1 <1>   0.1500 
 55 H       -7.9990   -15.9380    -1.4650 H     1 <1>   0.1500 
@<TRIPOS>BOND
  1   1   2  2   
  2   2   3  am  
  3   2   4  1   
  4   3   5  1   
  5   3  27  1   
  6   4   6  ar  
  7   4   7  ar  
  8   5   8  1   
  9   5  28  1   
 10   5  29  1   
 11   6   9  ar  
 12   6  30  1   
 13   7  10  ar  
 14   7  31  1   
 15   8  32  1   
 16   8  33  1   
 17   8  34  1   
 18   9  11  ar  
 19  10  11  ar  
 20  10  35  1   
 21  11  12  1   
 22  12  13  1   
 23  12  36  1   
 24  13  14  1   
 25  13  15  1   
 26  13  37  1   
 27  14  16  1   
 28  14  38  1   
 29  14  39  1   
 30  15  17  1   
 31  15  40  1   
 32  15  41  1   
 33  16  18  1   
 34  16  42  1   
 35  16  43  1   
 36  17  18  1   
 37  17  44  1   
 38  17  45  1   
 39  18  19  1   
 40  18  46  1   
 41  19  20  1   
 42  19  47  1   
 43  19  48  1   
 44  20  21  1   
 45  20  49  1   
 46  20  50  1   
 47  21  22  ar  
 48  21  23  ar  
 49  22  24  ar  
 50  22  51  1   
 51  23  25  ar  
 52  23  52  1   
 53  24  26  ar  
 54  24  53  1   
 55  25  26  ar  
 56  25  54  1   
 57  26  55  1   
@<TRIPOS>SUBSTRUCTURE
  1 ****  13 GROUP 4 **** **** 0

# MOE 2024.06 (io_trps.svl 2023.06)
