@<TRIPOS>MOLECULE
NONAME
57 60 1 0 0 
SMALL
USER_CHARGES


@<TRIPOS>ATOM
  1 O        2.1490    -0.2730     0.6340 O.3   1 <1>  -0.5600 
  2 C        2.9720    -1.2280    -0.0030 C.3   1 <1>   0.4240 
  3 C        0.8160    -0.1860     0.2170 C.3   1 <1>   0.1200 
  4 C        2.2110    -2.5250    -0.3380 C.ar  1 <1>  -0.1440 
  5 C        4.1010    -1.5160     0.9950 C.3   1 <1>  -0.1600 
  6 C        3.5710    -0.5630    -1.2570 C.3   1 <1>  -0.1600 
  7 C        0.1020    -1.4940     0.5430 C.3   1 <1>  -0.0160 
  8 C        0.8550    -2.6540    -0.0760 C.ar  1 <1>  -0.1440 
  9 C        2.8730    -3.6030    -0.9110 C.ar  1 <1>  -0.1500 
 10 C        4.8670    -0.2560     1.4160 C.3   1 <1>   0.3430 
 11 C        4.6940     0.4360    -0.9510 C.3   1 <1>   0.3430 
 12 C        0.1890    -3.8310    -0.3760 C.ar  1 <1>  -0.1500 
 13 C        2.2270    -4.7870    -1.2230 C.ar  1 <1>   0.0820 
 14 N        4.6190     0.8740     0.4710 N.4   1 <1>  -0.9590 
 15 C        0.8540    -4.9120    -0.9500 C.ar  1 <1>   0.0820 
 16 O        3.0490    -5.7240    -1.7810 O.3   1 <1>  -0.3630 
 17 C        5.4260     2.0780     0.8050 C.3   1 <1>   0.3430 
 18 O        0.1900    -6.0700    -1.2410 O.3   1 <1>  -0.3620 
 19 C        2.6120    -6.9990    -2.1950 C.3   1 <1>   0.0400 
 20 C        4.8420     3.3030     0.1060 C.3   1 <1>  -0.1600 
 21 C       -1.1740    -6.2640    -0.9350 C.3   1 <1>   0.0400 
 22 C        5.4790     4.6040     0.6240 C.3   1 <1>   0.0960 
 23 N        4.8380     5.7740    -0.0070 N.pl3 1 <1>   0.3140 
 24 N        3.5160     5.9930     0.1050 N.2   1 <1>  -0.7070 
 25 C        5.4330     6.7280    -0.7480 C.2   1 <1>  -0.3020 
 26 C        3.3030     7.0860    -0.5640 C.2   1 <1>   0.1390 
 27 C        4.4690     7.5940    -1.1230 C.2   1 <1>  -0.1500 
 28 H        0.7840     0.0120    -0.8410 H     1 <1>   0.0800 
 29 H        0.3540     0.6320     0.7420 H     1 <1>   0.0800 
 30 H        4.8000    -2.2050     0.5600 H     1 <1>   0.0800 
 31 H        3.6950    -1.9990     1.8660 H     1 <1>   0.0800 
 32 H        2.7970    -0.0790    -1.8220 H     1 <1>   0.0800 
 33 H        3.9840    -1.3140    -1.9040 H     1 <1>   0.0800 
 34 H       -0.9010    -1.4530     0.1580 H     1 <1>   0.0800 
 35 H        0.0490    -1.6210     1.6090 H     1 <1>   0.0800 
 36 H        3.9230    -3.5510    -1.1330 H     1 <1>   0.1500 
 37 H        5.9200    -0.4780     1.4670 H     1 <1>   0.0800 
 38 H        4.5360     0.0340     2.4010 H     1 <1>   0.0800 
 39 H        4.6030     1.2800    -1.6140 H     1 <1>   0.0800 
 40 H        5.6500    -0.0310    -1.1290 H     1 <1>   0.0800 
 41 H       -0.8580    -3.8850    -0.1520 H     1 <1>   0.1500 
 42 H        3.6150     1.0960     0.6240 H     1 <1>   0.4500 
 43 H        6.4540     1.9330     0.5130 H     1 <1>   0.0800 
 44 H        5.3950     2.2390     1.8710 H     1 <1>   0.0800 
 45 H        3.4540    -7.5250    -2.6060 H     1 <1>   0.0800 
 46 H        1.8520    -6.8790    -2.9470 H     1 <1>   0.0800 
 47 H        2.2300    -7.5300    -1.3420 H     1 <1>   0.0800 
 48 H        3.7840     3.3440     0.3000 H     1 <1>   0.0800 
 49 H        5.0050     3.2430    -0.9550 H     1 <1>   0.0800 
 50 H       -1.4450    -7.2590    -1.2400 H     1 <1>   0.0800 
 51 H       -1.7600    -5.5440    -1.4780 H     1 <1>   0.0800 
 52 H       -1.3120    -6.1580     0.1260 H     1 <1>   0.0800 
 53 H        6.5310     4.6300     0.4050 H     1 <1>   0.0800 
 54 H        5.3410     4.6940     1.6870 H     1 <1>   0.0800 
 55 H        6.4860     6.7460    -0.9640 H     1 <1>   0.1500 
 56 H        2.3310     7.5400    -0.6670 H     1 <1>   0.1500 
 57 H        4.5500     8.4860    -1.7190 H     1 <1>   0.1500 
@<TRIPOS>BOND
  1   1   2  1   
  2   1   3  1   
  3   2   4  1   
  4   2   5  1   
  5   2   6  1   
  6   3   7  1   
  7   3  28  1   
  8   3  29  1   
  9   4   8  ar  
 10   4   9  ar  
 11   5  10  1   
 12   5  30  1   
 13   5  31  1   
 14   6  11  1   
 15   6  32  1   
 16   6  33  1   
 17   7   8  1   
 18   7  34  1   
 19   7  35  1   
 20   8  12  ar  
 21   9  13  ar  
 22   9  36  1   
 23  10  14  1   
 24  10  37  1   
 25  10  38  1   
 26  11  14  1   
 27  11  39  1   
 28  11  40  1   
 29  12  15  ar  
 30  12  41  1   
 31  13  15  ar  
 32  13  16  1   
 33  14  17  1   
 34  14  42  1   
 35  15  18  1   
 36  16  19  1   
 37  17  20  1   
 38  17  43  1   
 39  17  44  1   
 40  18  21  1   
 41  19  45  1   
 42  19  46  1   
 43  19  47  1   
 44  20  22  1   
 45  20  48  1   
 46  20  49  1   
 47  21  50  1   
 48  21  51  1   
 49  21  52  1   
 50  22  23  1   
 51  22  53  1   
 52  22  54  1   
 53  23  24  1   
 54  23  25  1   
 55  24  26  2   
 56  25  27  2   
 57  25  55  1   
 58  26  27  1   
 59  26  56  1   
 60  27  57  1   
@<TRIPOS>SUBSTRUCTURE
  1 ****   2 GROUP 4 **** **** 0

# MOE 2024.06 (io_trps.svl 2023.06)
