@<TRIPOS>MOLECULE
NONAME
36 37 1 0 0 
SMALL
USER_CHARGES


@<TRIPOS>ATOM
  1 S       -0.8180     0.7020     1.1080 S.o2  1 <1>   1.4470 
  2 O       -0.7780    -0.2750     2.1730 O.2   1 <1>  -0.6500 
  3 O       -1.3140     2.0210     1.4330 O.2   1 <1>  -0.6500 
  4 N       -1.7620     0.0940    -0.1640 N.am  1 <1>  -0.8490 
  5 C        0.8450     0.8530     0.3580 C.ar  1 <1>  -0.0090 
  6 C       -1.3900    -1.2380    -0.6830 C.3   1 <1>   0.1960 
  7 C       -3.2080     0.2640     0.0010 C.3   1 <1>   0.1960 
  8 C        1.2510     1.8770    -0.5170 C.ar  1 <1>  -0.1440 
  9 C        1.7680    -0.1440     0.6660 C.ar  1 <1>  -0.1500 
 10 C       -1.9830    -2.3950     0.1290 C.3   1 <1>  -0.1860 
 11 C       -3.8190    -0.8390     0.8680 C.3   1 <1>  -0.1600 
 12 C        2.5560     1.8650    -1.0150 C.ar  1 <1>  -0.1500 
 13 C        0.3200     3.0330    -0.9500 C.3   1 <1>   1.1640 
 14 C        3.0510    -0.1480     0.1590 C.ar  1 <1>  -0.1500 
 15 C       -1.6710    -3.7130    -0.5450 C.2   1 <1>   0.9060 
 16 C       -3.4910    -2.2030     0.2720 C.3   1 <1>   0.2000 
 17 C        3.4490     0.8650    -0.6840 C.ar  1 <1>  -0.1500 
 18 F       -0.8890     2.6470    -1.3250 F     1 <1>  -0.3400 
 19 F        0.1680     3.9400     0.0030 F     1 <1>  -0.3400 
 20 F        0.7990     3.7030    -1.9930 F     1 <1>  -0.3400 
 21 O       -0.8550    -3.7410    -1.4710 O.co2 1 <1>  -0.9000 
 22 O       -2.2540    -4.7310    -0.1490 O.co2 1 <1>  -0.9000 
 23 O       -3.9910    -3.1790     1.1030 O.3   1 <1>  -0.6800 
 24 H       -1.7490    -1.3180    -1.6960 H     1 <1>   0.0800 
 25 H       -0.3190    -1.3420    -0.7260 H     1 <1>   0.0800 
 26 H       -3.4250     1.2300     0.4260 H     1 <1>   0.0800 
 27 H       -3.6660     0.2330    -0.9730 H     1 <1>   0.0800 
 28 H        1.4780    -0.9500     1.3220 H     1 <1>   0.1500 
 29 H       -1.5270    -2.4240     1.0980 H     1 <1>   0.0800 
 30 H       -4.8860    -0.7130     0.9040 H     1 <1>   0.0800 
 31 H       -3.4330    -0.7710     1.8690 H     1 <1>   0.0800 
 32 H        2.9060     2.6400    -1.6770 H     1 <1>   0.1500 
 33 H        3.7340    -0.9390     0.4200 H     1 <1>   0.1500 
 34 H       -3.9660    -2.3210    -0.6890 H     1 <1>   0.0800 
 35 H        4.4490     0.8740    -1.0840 H     1 <1>   0.1500 
 36 H       -3.5290    -4.0240     0.8250 H     1 <1>   0.4000 
@<TRIPOS>BOND
  1   1   2  2   
  2   1   3  2   
  3   1   4  am  
  4   1   5  1   
  5   4   6  1   
  6   4   7  1   
  7   5   8  ar  
  8   5   9  ar  
  9   6  10  1   
 10   6  24  1   
 11   6  25  1   
 12   7  11  1   
 13   7  26  1   
 14   7  27  1   
 15   8  12  ar  
 16   8  13  1   
 17   9  14  ar  
 18   9  28  1   
 19  10  15  1   
 20  10  16  1   
 21  10  29  1   
 22  11  16  1   
 23  11  30  1   
 24  11  31  1   
 25  12  17  ar  
 26  12  32  1   
 27  13  18  1   
 28  13  19  1   
 29  13  20  1   
 30  14  17  ar  
 31  14  33  1   
 32  15  21  ar  
 33  15  22  ar  
 34  16  23  1   
 35  16  34  1   
 36  17  35  1   
 37  23  36  1   
@<TRIPOS>SUBSTRUCTURE
  1 ****   4 GROUP 4 **** **** 0

# MOE 2024.06 (io_trps.svl 2023.06)
