@<TRIPOS>MOLECULE
NONAME
42 44 1 0 0 
SMALL
USER_CHARGES


@<TRIPOS>ATOM
  1 O       -0.3480     1.8310     2.2830 O.2   1 <1>  -0.5700 
  2 C       -0.0880     2.7200     1.4870 C.2   1 <1>   0.5440 
  3 N       -1.1350     3.4940     1.0090 N.am  1 <1>  -0.6600 
  4 C        1.2950     2.9020     1.0340 C.ar  1 <1>   0.3960 
  5 C       -2.5370     3.3290     1.4910 C.3   1 <1>   0.1400 
  6 C       -1.0030     4.4810    -0.0920 C.3   1 <1>   0.1400 
  7 N        1.9130     4.0650     1.3110 N.ar  1 <1>  -0.6200 
  8 C        1.9400     1.8810     0.3160 C.ar  1 <1>  -0.1440 
  9 C       -3.4360     2.7910     0.3530 C.3   1 <1>   0.0000 
 10 C       -1.8530     4.0200    -1.2800 C.3   1 <1>  -0.1600 
 11 C        3.1570     4.2020     0.8990 C.ar  1 <1>   0.1600 
 12 C        3.2420     2.0510    -0.1080 C.ar  1 <1>  -0.1500 
 13 C        1.2330     0.5700    -0.0160 C.3   1 <1>  -0.0970 
 14 C       -4.9190     2.6860     0.7660 C.3   1 <1>   0.2000 
 15 C       -3.3120     3.7320    -0.8770 C.3   1 <1>  -0.1600 
 16 C       -3.0810     1.3370    -0.0240 C.3   1 <1>  -0.1600 
 17 C        3.8590     3.2420     0.1960 C.ar  1 <1>  -0.1500 
 18 O       -5.0320     2.1940     2.0550 O.3   1 <1>  -0.6800 
 19 C       -5.5190     1.6380    -0.1670 C.3   1 <1>  -0.1600 
 20 C       -4.3770     0.6750    -0.5150 C.3   1 <1>  -0.1600 
 21 H       -2.5660     2.6670     2.3380 H     1 <1>   0.0800 
 22 H       -2.9060     4.2840     1.8210 H     1 <1>   0.0800 
 23 H       -1.3460     5.4400     0.2570 H     1 <1>   0.0800 
 24 H        0.0210     4.5900    -0.4030 H     1 <1>   0.0800 
 25 H       -1.8350     4.7810    -2.0390 H     1 <1>   0.0800 
 26 H       -1.4030     3.1390    -1.7030 H     1 <1>   0.0800 
 27 H        3.6490     5.1310     1.1340 H     1 <1>   0.1500 
 28 H        3.7660     1.2860    -0.6560 H     1 <1>   0.1500 
 29 H        1.8180    -0.0300    -0.6900 H     1 <1>   0.0800 
 30 H        0.2810     0.7640    -0.4770 H     1 <1>   0.0800 
 31 H        1.0690     0.0050     0.8850 H     1 <1>   0.0800 
 32 H       -5.4390     3.6290     0.7250 H     1 <1>   0.0800 
 33 H       -3.8330     3.3190    -1.7230 H     1 <1>   0.0800 
 34 H       -3.7800     4.6720    -0.6380 H     1 <1>   0.0800 
 35 H       -2.3030     1.2780    -0.7620 H     1 <1>   0.0800 
 36 H       -2.7360     0.8150     0.8530 H     1 <1>   0.0800 
 37 H        4.8740     3.4270    -0.1060 H     1 <1>   0.1500 
 38 H       -4.5730     1.3340     2.1040 H     1 <1>   0.4000 
 39 H       -6.3650     1.1380     0.2730 H     1 <1>   0.0800 
 40 H       -5.8490     2.1280    -1.0670 H     1 <1>   0.0800 
 41 H       -4.5160    -0.2730    -0.0250 H     1 <1>   0.0800 
 42 H       -4.3410     0.5120    -1.5790 H     1 <1>   0.0800 
@<TRIPOS>BOND
  1   1   2  2   
  2   2   3  am  
  3   2   4  1   
  4   3   5  1   
  5   3   6  1   
  6   4   7  ar  
  7   4   8  ar  
  8   5   9  1   
  9   5  21  1   
 10   5  22  1   
 11   6  10  1   
 12   6  23  1   
 13   6  24  1   
 14   7  11  ar  
 15   8  12  ar  
 16   8  13  1   
 17   9  14  1   
 18   9  15  1   
 19   9  16  1   
 20  10  15  1   
 21  10  25  1   
 22  10  26  1   
 23  11  17  ar  
 24  11  27  1   
 25  12  17  ar  
 26  12  28  1   
 27  13  29  1   
 28  13  30  1   
 29  13  31  1   
 30  14  18  1   
 31  14  19  1   
 32  14  32  1   
 33  15  33  1   
 34  15  34  1   
 35  16  20  1   
 36  16  35  1   
 37  16  36  1   
 38  17  37  1   
 39  18  38  1   
 40  19  20  1   
 41  19  39  1   
 42  19  40  1   
 43  20  41  1   
 44  20  42  1   
@<TRIPOS>SUBSTRUCTURE
  1 ****   3 GROUP 4 **** **** 0

# MOE 2024.06 (io_trps.svl 2023.06)
