@<TRIPOS>MOLECULE
NONAME
45 47 1 0 0 
SMALL
USER_CHARGES


@<TRIPOS>ATOM
  1 O        1.0770    -0.1420    -1.2720 O.2   1 <1>  -0.5700 
  2 C        2.0820    -0.7510    -0.9440 C.2   1 <1>   0.5440 
  3 N        3.3050    -0.1170    -1.1350 N.am  1 <1>  -0.6600 
  4 C        1.9200    -2.1080    -0.4130 C.ar  1 <1>   0.3960 
  5 C        4.6150    -0.8430    -1.0790 C.3   1 <1>   0.1400 
  6 C        3.3480     1.3110    -1.5810 C.3   1 <1>   0.1400 
  7 N        2.7250    -2.5930     0.5490 N.ar  1 <1>  -0.6200 
  8 C        0.8820    -2.8900    -0.9350 C.ar  1 <1>   0.1600 
  9 C        5.3080    -0.6690     0.2800 C.3   1 <1>   0.1400 
 10 C        4.5480     2.1130    -1.0600 C.3   1 <1>  -0.1600 
 11 C        2.4290    -3.8270     0.9100 C.ar  1 <1>   0.1600 
 12 N        0.5910    -4.1320    -0.5780 N.ar  1 <1>  -0.6200 
 13 N        5.9020     0.6940     0.4380 N.am  1 <1>  -0.6600 
 14 C        4.9210     1.8130     0.3950 C.3   1 <1>   0.1400 
 15 C        1.3950    -4.5810     0.3650 C.ar  1 <1>   0.1670 
 16 C        7.2650     0.8810     0.6290 C.2   1 <1>   0.5440 
 17 C        1.1300    -5.9950     0.8420 C.3   1 <1>  -0.0960 
 18 O        7.9550    -0.1080     0.8230 O.2   1 <1>  -0.5700 
 19 C        7.9150     2.1960     0.6420 C.ar  1 <1>   0.3960 
 20 N        7.6370     3.1030    -0.3120 N.ar  1 <1>  -0.6200 
 21 C        8.8290     2.4670     1.6620 C.ar  1 <1>  -0.1500 
 22 C        8.2530     4.2600    -0.2270 C.ar  1 <1>   0.4100 
 23 C        9.4700     3.6850     1.7400 C.ar  1 <1>  -0.1500 
 24 N        7.9370     5.1300    -1.2170 N.pl3 1 <1>  -0.9000 
 25 C        9.1640     4.6000     0.7640 C.ar  1 <1>  -0.1500 
 26 H        5.2660    -0.4950    -1.8620 H     1 <1>   0.0800 
 27 H        4.4510    -1.8910    -1.2520 H     1 <1>   0.0800 
 28 H        2.4540     1.8070    -1.2390 H     1 <1>   0.0800 
 29 H        3.3380     1.3400    -2.6570 H     1 <1>   0.0800 
 30 H        0.2600    -2.4510    -1.6950 H     1 <1>   0.1500 
 31 H        6.0750    -1.4190     0.3580 H     1 <1>   0.0800 
 32 H        4.6070    -0.8460     1.0760 H     1 <1>   0.0800 
 33 H        4.2950     3.1540    -1.1340 H     1 <1>   0.0800 
 34 H        5.4020     1.9590    -1.6960 H     1 <1>   0.0800 
 35 H        3.0380    -4.2680     1.6800 H     1 <1>   0.1500 
 36 H        4.0430     1.5550     0.9640 H     1 <1>   0.0800 
 37 H        5.3480     2.6910     0.8450 H     1 <1>   0.0800 
 38 H        1.8250    -6.2860     1.6080 H     1 <1>   0.0800 
 39 H        1.2180    -6.6760     0.0150 H     1 <1>   0.0800 
 40 H        0.1320    -6.0600     1.2350 H     1 <1>   0.0800 
 41 H        9.0310     1.7060     2.3950 H     1 <1>   0.1500 
 42 H       10.1730     3.9040     2.5250 H     1 <1>   0.1500 
 43 H        8.6880     5.7230    -1.5690 H     1 <1>   0.4000 
 44 H        7.3970     4.6890    -1.9630 H     1 <1>   0.4000 
 45 H        9.6150     5.5740     0.7570 H     1 <1>   0.1500 
@<TRIPOS>BOND
  1   1   2  2   
  2   2   3  am  
  3   2   4  1   
  4   3   5  1   
  5   3   6  1   
  6   4   7  ar  
  7   4   8  ar  
  8   5   9  1   
  9   5  26  1   
 10   5  27  1   
 11   6  10  1   
 12   6  28  1   
 13   6  29  1   
 14   7  11  ar  
 15   8  12  ar  
 16   8  30  1   
 17   9  13  1   
 18   9  31  1   
 19   9  32  1   
 20  10  14  1   
 21  10  33  1   
 22  10  34  1   
 23  11  15  ar  
 24  11  35  1   
 25  12  15  ar  
 26  13  14  1   
 27  13  16  am  
 28  14  36  1   
 29  14  37  1   
 30  15  17  1   
 31  16  18  2   
 32  16  19  1   
 33  17  38  1   
 34  17  39  1   
 35  17  40  1   
 36  19  20  ar  
 37  19  21  ar  
 38  20  22  ar  
 39  21  23  ar  
 40  21  41  1   
 41  22  24  1   
 42  22  25  ar  
 43  23  25  ar  
 44  23  42  1   
 45  24  43  1   
 46  24  44  1   
 47  25  45  1   
@<TRIPOS>SUBSTRUCTURE
  1 ****   9 GROUP 4 **** **** 0

# MOE 2024.06 (io_trps.svl 2023.06)
