@<TRIPOS>MOLECULE
NONAME
55 57 1 0 0 
SMALL
USER_CHARGES


@<TRIPOS>ATOM
  1 O       -0.6680     0.6170     1.8090 O.2   1 <1>  -0.5700 
  2 C       -1.5160     1.3820     1.4150 C.2   1 <1>   0.5690 
  3 N       -2.8030     0.9640     1.1570 N.am  1 <1>  -0.6600 
  4 C       -1.0790     2.8230     1.2200 C.3   1 <1>  -0.0990 
  5 C       -3.8560     1.8400     0.5540 C.3   1 <1>   0.2200 
  6 C       -3.1790    -0.4460     1.4950 C.3   1 <1>   0.0600 
  7 C       -0.5340     3.0500    -0.1950 C.3   1 <1>  -0.0160 
  8 C       -4.8800     2.3030     1.5870 C.3   1 <1>  -0.1600 
  9 C       -4.6880     1.1790    -0.5480 C.3   1 <1>  -0.1600 
 10 C       -0.1790     4.5140    -0.4050 C.ar  1 <1>  -0.1440 
 11 C       -6.1120     2.7000     0.7620 C.3   1 <1>  -0.0800 
 12 C       -5.9790     2.0080    -0.5990 C.3   1 <1>  -0.0800 
 13 C        1.0070     5.0190     0.1080 C.ar  1 <1>  -0.1500 
 14 C       -1.0320     5.3540    -1.1060 C.ar  1 <1>  -0.1500 
 15 C       -7.4610     2.2410     1.3350 C.3   1 <1>  -0.1600 
 16 C       -7.2730     1.1990    -0.7880 C.3   1 <1>  -0.1600 
 17 C        1.3380     6.3500    -0.0770 C.ar  1 <1>  -0.1500 
 18 C       -0.7060     6.6870    -1.2930 C.ar  1 <1>  -0.1500 
 19 C       -8.3140     1.8630     0.1190 C.3   1 <1>   0.4230 
 20 C        0.4810     7.1800    -0.7760 C.ar  1 <1>   0.0820 
 21 N       -8.8910     3.0840    -0.5320 N.4   1 <1>  -0.9590 
 22 O        0.8130     8.4680    -0.9510 O.3   1 <1>  -0.5330 
 23 C       -9.8120     3.8440     0.3740 C.3   1 <1>   0.2630 
 24 C       -9.6330     2.7680    -1.7960 C.3   1 <1>   0.2630 
 25 H       -1.8840     3.4990     1.4320 H     1 <1>   0.0800 
 26 H       -0.3000     3.0350     1.9290 H     1 <1>   0.0800 
 27 H       -3.4060     2.7130     0.1170 H     1 <1>   0.0800 
 28 H       -4.1930    -0.5000     1.8440 H     1 <1>   0.0800 
 29 H       -2.5400    -0.8320     2.2720 H     1 <1>   0.0800 
 30 H       -3.0660    -1.0680     0.6250 H     1 <1>   0.0800 
 31 H       -1.2610     2.7420    -0.9250 H     1 <1>   0.0800 
 32 H        0.3440     2.4430    -0.3400 H     1 <1>   0.0800 
 33 H       -5.1120     1.4970     2.2580 H     1 <1>   0.0800 
 34 H       -4.5030     3.1340     2.1580 H     1 <1>   0.0800 
 35 H       -4.1670     1.2010    -1.4890 H     1 <1>   0.0800 
 36 H       -4.9170     0.1610    -0.2990 H     1 <1>   0.0800 
 37 H       -6.1150     3.7680     0.6120 H     1 <1>   0.0800 
 38 H       -5.8930     2.7610    -1.3660 H     1 <1>   0.0800 
 39 H        1.6780     4.3770     0.6520 H     1 <1>   0.1500 
 40 H       -1.9530     4.9750    -1.5110 H     1 <1>   0.1500 
 41 H       -7.8980     2.9700     1.9900 H     1 <1>   0.0800 
 42 H       -7.3170     1.3430     1.9110 H     1 <1>   0.0800 
 43 H       -7.1280     0.1980    -0.4180 H     1 <1>   0.0800 
 44 H       -7.5550     1.1160    -1.8200 H     1 <1>   0.0800 
 45 H        2.2550     6.7480     0.3180 H     1 <1>   0.1500 
 46 H       -1.3730     7.3290    -1.8380 H     1 <1>   0.1500 
 47 H       -9.1000     1.1740     0.3880 H     1 <1>   0.0800 
 48 H       -8.0910     3.6890    -0.7660 H     1 <1>   0.4500 
 49 H        0.1550     8.9670    -1.4650 H     1 <1>   0.4500 
 50 H      -10.6130     3.2080     0.7130 H     1 <1>   0.0800 
 51 H      -10.2390     4.6860    -0.1480 H     1 <1>   0.0800 
 52 H       -9.2810     4.2190     1.2330 H     1 <1>   0.0800 
 53 H      -10.4240     2.0630    -1.6000 H     1 <1>   0.0800 
 54 H       -8.9710     2.3490    -2.5360 H     1 <1>   0.0800 
 55 H      -10.0670     3.6650    -2.2080 H     1 <1>   0.0800 
@<TRIPOS>BOND
  1   1   2  2   
  2   2   3  am  
  3   2   4  1   
  4   3   5  1   
  5   3   6  1   
  6   4   7  1   
  7   4  25  1   
  8   4  26  1   
  9   5   8  1   
 10   5   9  1   
 11   5  27  1   
 12   6  28  1   
 13   6  29  1   
 14   6  30  1   
 15   7  10  1   
 16   7  31  1   
 17   7  32  1   
 18   8  11  1   
 19   8  33  1   
 20   8  34  1   
 21   9  12  1   
 22   9  35  1   
 23   9  36  1   
 24  10  13  ar  
 25  10  14  ar  
 26  11  12  1   
 27  11  15  1   
 28  11  37  1   
 29  12  16  1   
 30  12  38  1   
 31  13  17  ar  
 32  13  39  1   
 33  14  18  ar  
 34  14  40  1   
 35  15  19  1   
 36  15  41  1   
 37  15  42  1   
 38  16  19  1   
 39  16  43  1   
 40  16  44  1   
 41  17  20  ar  
 42  17  45  1   
 43  18  20  ar  
 44  18  46  1   
 45  19  21  1   
 46  19  47  1   
 47  20  22  1   
 48  21  23  1   
 49  21  24  1   
 50  21  48  1   
 51  22  49  1   
 52  23  50  1   
 53  23  51  1   
 54  23  52  1   
 55  24  53  1   
 56  24  54  1   
 57  24  55  1   
@<TRIPOS>SUBSTRUCTURE
  1 ****   5 GROUP 4 **** **** 0

# MOE 2024.06 (io_trps.svl 2023.06)
