@<TRIPOS>MOLECULE
NONAME
48 50 1 0 0 
SMALL
USER_CHARGES


@<TRIPOS>ATOM
  1 O       -1.9580     1.0290    -2.0230 O.2   1 <1>  -0.5700 
  2 C       -1.9280     1.1900    -0.8280 C.2   1 <1>   0.5690 
  3 N       -2.1590     0.1780     0.0420 N.am  1 <1>  -0.7300 
  4 C       -1.6120     2.5570    -0.2740 C.3   1 <1>  -0.0990 
  5 C       -2.4570    -1.2180    -0.3450 C.3   1 <1>   0.2200 
  6 C       -0.1030     2.7290    -0.0910 C.3   1 <1>   0.0210 
  7 C       -3.9190    -1.5140    -0.0580 C.3   1 <1>  -0.0800 
  8 C       -1.7490    -2.1770     0.6070 C.3   1 <1>   0.1200 
  9 C        0.1930     4.0620     0.5630 C.2   1 <1>   0.1080 
 10 C       -3.8830    -1.8710     1.4310 C.3   1 <1>   0.1200 
 11 C       -4.4400    -2.6760    -0.9260 C.3   1 <1>  -0.0170 
 12 O       -2.5940    -2.3360     1.7090 O.3   1 <1>  -0.5600 
 13 N        0.1000     4.2240     1.8450 N.2   1 <1>  -0.7070 
 14 C        0.5730     5.2320    -0.0940 C.2   1 <1>  -0.1810 
 15 C       -5.9100    -2.9580    -0.6550 C.ar  1 <1>  -0.1440 
 16 N        0.4280     5.5120     2.0470 N.pl3 1 <1>   0.3000 
 17 C        0.7170     6.1460     0.8910 C.2   1 <1>  -0.3320 
 18 C        0.7650     5.3930    -1.5910 C.3   1 <1>  -0.0590 
 19 C       -6.9070    -2.1370    -1.1410 C.ar  1 <1>  -0.1500 
 20 C       -6.3240    -4.0460     0.0870 C.ar  1 <1>  -0.1500 
 21 C        1.1170     7.6120     0.8400 C.3   1 <1>  -0.0600 
 22 C       -8.2320    -2.4320    -0.8650 C.ar  1 <1>   0.1600 
 23 C       -7.6770    -4.2510     0.3050 C.ar  1 <1>   0.1600 
 24 N       -8.6410    -3.4680    -0.1520 N.ar  1 <1>  -0.6200 
 25 H       -2.1180     0.3440     1.0500 H     1 <1>   0.3700 
 26 H       -1.9810     3.3050    -0.9510 H     1 <1>   0.0800 
 27 H       -2.1080     2.6870     0.6700 H     1 <1>   0.0800 
 28 H       -2.1820    -1.3880    -1.3730 H     1 <1>   0.0800 
 29 H        0.3930     2.6610    -1.0420 H     1 <1>   0.0800 
 30 H        0.2800     1.9470     0.5400 H     1 <1>   0.0800 
 31 H       -4.5330    -0.6490    -0.2340 H     1 <1>   0.0800 
 32 H       -0.7930    -1.8070     0.9340 H     1 <1>   0.0800 
 33 H       -1.6270    -3.1430     0.1500 H     1 <1>   0.0800 
 34 H       -4.5970    -2.6280     1.7050 H     1 <1>   0.0800 
 35 H       -4.0460    -0.9940     2.0330 H     1 <1>   0.0800 
 36 H       -3.8640    -3.5670    -0.7450 H     1 <1>   0.0800 
 37 H       -4.3260    -2.4220    -1.9660 H     1 <1>   0.0800 
 38 H        0.4450     5.9290     2.9840 H     1 <1>   0.2700 
 39 H       -0.1210     5.0750    -2.1100 H     1 <1>   0.0800 
 40 H        1.5950     4.7950    -1.9180 H     1 <1>   0.0800 
 41 H        0.9580     6.4180    -1.8470 H     1 <1>   0.0800 
 42 H       -6.6680    -1.2720    -1.7320 H     1 <1>   0.1500 
 43 H       -5.6100    -4.7350     0.4990 H     1 <1>   0.1500 
 44 H        1.3260     7.9170    -0.1680 H     1 <1>   0.0800 
 45 H        2.0000     7.7740     1.4320 H     1 <1>   0.0800 
 46 H        0.3210     8.2250     1.2230 H     1 <1>   0.0800 
 47 H       -8.9970    -1.7800    -1.2520 H     1 <1>   0.1500 
 48 H       -7.9810    -5.1040     0.8870 H     1 <1>   0.1500 
@<TRIPOS>BOND
  1   1   2  2   
  2   2   3  am  
  3   2   4  1   
  4   3   5  1   
  5   3  25  1   
  6   4   6  1   
  7   4  26  1   
  8   4  27  1   
  9   5   7  1   
 10   5   8  1   
 11   5  28  1   
 12   6   9  1   
 13   6  29  1   
 14   6  30  1   
 15   7  10  1   
 16   7  11  1   
 17   7  31  1   
 18   8  12  1   
 19   8  32  1   
 20   8  33  1   
 21   9  13  2   
 22   9  14  1   
 23  10  12  1   
 24  10  34  1   
 25  10  35  1   
 26  11  15  1   
 27  11  36  1   
 28  11  37  1   
 29  13  16  1   
 30  14  17  2   
 31  14  18  1   
 32  15  19  ar  
 33  15  20  ar  
 34  16  17  1   
 35  16  38  1   
 36  17  21  1   
 37  18  39  1   
 38  18  40  1   
 39  18  41  1   
 40  19  22  ar  
 41  19  42  1   
 42  20  23  ar  
 43  20  43  1   
 44  21  44  1   
 45  21  45  1   
 46  21  46  1   
 47  22  24  ar  
 48  22  47  1   
 49  23  24  ar  
 50  23  48  1   
@<TRIPOS>SUBSTRUCTURE
  1 ****   3 GROUP 4 **** **** 0

# MOE 2024.06 (io_trps.svl 2023.06)
