@<TRIPOS>MOLECULE
NONAME
53 56 1 0 0 
SMALL
USER_CHARGES


@<TRIPOS>ATOM
  1 O       -0.9080     1.3280    -2.5280 O.3   1 <1>  -0.8290 
  2 C       -2.0020     1.8080    -2.1510 C.ar  1 <1>   0.1390 
  3 N       -2.1190     2.2820    -0.8870 N.ar  1 <1>  -0.3100 
  4 C       -3.0650     1.8400    -3.0470 C.ar  1 <1>  -0.1500 
  5 N       -3.2570     2.7920    -0.4810 N.ar  1 <1>  -0.3100 
  6 C       -4.2450     2.3760    -2.6170 C.ar  1 <1>  -0.1500 
  7 C       -4.2900     2.8460    -1.3150 C.ar  1 <1>   0.1670 
  8 C       -5.5670     3.4750    -0.7820 C.3   1 <1>  -0.0160 
  9 C       -5.3410     4.9570    -0.4390 C.3   1 <1>  -0.0990 
 10 C       -6.6010     5.7010    -0.0190 C.2   1 <1>   0.5690 
 11 O       -7.5930     5.0480     0.2090 O.2   1 <1>  -0.5700 
 12 N       -6.5920     7.0720     0.0880 N.am  1 <1>  -0.6600 
 13 C       -7.8620     7.8180     0.4220 C.3   1 <1>   0.2200 
 14 C       -5.3230     7.8670     0.1670 C.3   1 <1>   0.1400 
 15 C       -7.6630     9.3330     0.7530 C.3   1 <1>   0.1380 
 16 C       -9.0110     7.5700    -0.5740 C.3   1 <1>  -0.1600 
 17 C       -5.2610     8.7370     1.4360 C.3   1 <1>  -0.1600 
 18 C       -7.1930    10.2630    -0.4120 C.2   1 <1>  -0.2760 
 19 C       -9.0330     9.8530     1.2870 C.3   1 <1>   0.1200 
 20 C       -6.6070     9.3480     1.8810 C.3   1 <1>  -0.1600 
 21 C      -10.0530     8.6920    -0.5050 C.3   1 <1>   0.1200 
 22 C       -7.0680     9.9340    -1.7060 C.2   1 <1>  -0.2880 
 23 C       -6.8140    11.6970    -0.0180 C.3   1 <1>  -0.0220 
 24 O      -10.1410     9.1300     0.8140 O.3   1 <1>  -0.5600 
 25 C       -6.5800    10.8780    -2.7980 C.3   1 <1>   0.2580 
 26 C       -6.7530    12.6200    -1.2420 C.3   1 <1>   0.1200 
 27 O       -5.9930    12.0140    -2.2390 O.3   1 <1>  -0.5600 
 28 H       -2.9110     1.4450    -4.0310 H     1 <1>   0.1500 
 29 H       -5.0960     2.4290    -3.2660 H     1 <1>   0.1500 
 30 H       -6.3500     3.3890    -1.5130 H     1 <1>   0.0800 
 31 H       -5.8760     2.9410     0.1000 H     1 <1>   0.0800 
 32 H       -4.9250     5.4450    -1.3010 H     1 <1>   0.0800 
 33 H       -4.6280     5.0150     0.3620 H     1 <1>   0.0800 
 34 H       -8.2100     7.3790     1.3430 H     1 <1>   0.0800 
 35 H       -4.4570     7.2330     0.1540 H     1 <1>   0.0800 
 36 H       -5.2520     8.4940    -0.7030 H     1 <1>   0.0800 
 37 H       -9.5030     6.6520    -0.3080 H     1 <1>   0.0800 
 38 H       -8.6580     7.4570    -1.5790 H     1 <1>   0.0800 
 39 H       -4.8640     8.1440     2.2420 H     1 <1>   0.0800 
 40 H       -4.5560     9.5290     1.2540 H     1 <1>   0.0800 
 41 H       -9.1950    10.8800     1.0210 H     1 <1>   0.0800 
 42 H       -9.0650     9.7820     2.3600 H     1 <1>   0.0800 
 43 H       -6.4540    10.3390     2.2670 H     1 <1>   0.0800 
 44 H       -6.9790     8.7570     2.7010 H     1 <1>   0.0800 
 45 H      -11.0210     8.3310    -0.8060 H     1 <1>   0.0800 
 46 H       -9.7820     9.5290    -1.1270 H     1 <1>   0.0800 
 47 H       -7.2830     8.9660    -2.1090 H     1 <1>   0.1500 
 48 H       -5.8460    11.6980     0.4490 H     1 <1>   0.0800 
 49 H       -7.5120    12.1210     0.6790 H     1 <1>   0.0800 
 50 H       -7.3950    11.1880    -3.4290 H     1 <1>   0.0800 
 51 H       -5.8300    10.3980    -3.4010 H     1 <1>   0.0800 
 52 H       -6.2850    13.5550    -0.9880 H     1 <1>   0.0800 
 53 H       -7.7390    12.8130    -1.6300 H     1 <1>   0.0800 
@<TRIPOS>BOND
  1   1   2  1   
  2   2   3  ar  
  3   2   4  ar  
  4   3   5  ar  
  5   4   6  ar  
  6   4  28  1   
  7   5   7  ar  
  8   6   7  ar  
  9   6  29  1   
 10   7   8  1   
 11   8   9  1   
 12   8  30  1   
 13   8  31  1   
 14   9  10  1   
 15   9  32  1   
 16   9  33  1   
 17  10  11  2   
 18  10  12  am  
 19  12  13  1   
 20  12  14  1   
 21  13  15  1   
 22  13  16  1   
 23  13  34  1   
 24  14  17  1   
 25  14  35  1   
 26  14  36  1   
 27  15  18  1   
 28  15  19  1   
 29  15  20  1   
 30  16  21  1   
 31  16  37  1   
 32  16  38  1   
 33  17  20  1   
 34  17  39  1   
 35  17  40  1   
 36  18  22  2   
 37  18  23  1   
 38  19  24  1   
 39  19  41  1   
 40  19  42  1   
 41  20  43  1   
 42  20  44  1   
 43  21  24  1   
 44  21  45  1   
 45  21  46  1   
 46  22  25  1   
 47  22  47  1   
 48  23  26  1   
 49  23  48  1   
 50  23  49  1   
 51  25  27  1   
 52  25  50  1   
 53  25  51  1   
 54  26  27  1   
 55  26  52  1   
 56  26  53  1   
@<TRIPOS>SUBSTRUCTURE
  1 ****  12 GROUP 4 **** **** 0

# MOE 2024.06 (io_trps.svl 2023.06)
