@<TRIPOS>MOLECULE
NONAME
51 52 1 0 0 
SMALL
USER_CHARGES


@<TRIPOS>ATOM
  1 O       -0.6710     1.7070     0.7840 O.2   1 <1>  -0.5700 
  2 C       -1.8130     2.0760     0.9570 C.2   1 <1>   0.7060 
  3 O       -2.7470     1.6920     0.0800 O.3   1 <1>  -0.2320 
  4 C       -2.2120     2.9020     2.0520 C.2   1 <1>  -0.1360 
  5 C       -4.0470     2.0570     0.1890 C.ar  1 <1>   0.0820 
  6 C       -3.4960     3.2890     2.2070 C.2   1 <1>  -0.1780 
  7 C       -4.4690     2.8610     1.2540 C.ar  1 <1>   0.0280 
  8 C       -4.9460     1.6240    -0.7700 C.ar  1 <1>  -0.1500 
  9 C       -5.8140     3.2110     1.3220 C.ar  1 <1>  -0.1500 
 10 C       -6.2840     1.9890    -0.6930 C.ar  1 <1>   0.0830 
 11 C       -6.7220     2.7950     0.3620 C.ar  1 <1>  -0.1430 
 12 O       -7.1980     1.5960    -1.6120 O.3   1 <1>  -0.3630 
 13 C       -8.1840     3.2450     0.4540 C.3   1 <1>   0.3430 
 14 C       -6.8430     0.8730    -2.7700 C.3   1 <1>   0.0400 
 15 O       -8.6600     2.7540     1.6650 O.3   1 <1>  -0.6800 
 16 C       -8.3590     4.7840     0.3960 C.3   1 <1>   0.2000 
 17 O       -7.4190     5.3110    -0.5430 O.3   1 <1>  -0.4300 
 18 C       -9.7930     5.2680     0.0180 C.3   1 <1>   0.2800 
 19 C       -6.3540     6.0440    -0.2150 C.2   1 <1>   0.7060 
 20 O      -10.1460     4.7740    -1.2210 O.3   1 <1>  -0.6800 
 21 C      -10.8790     4.7950     0.9890 C.3   1 <1>  -0.2400 
 22 C       -9.8560     6.7960    -0.0980 C.3   1 <1>  -0.2400 
 23 O       -6.2260     6.4010     0.9370 O.2   1 <1>  -0.5700 
 24 C       -5.3940     6.3350    -1.2730 C.2   1 <1>  -0.1240 
 25 C       -4.3870     7.2370    -1.2760 C.2   1 <1>  -0.2880 
 26 C       -5.5660     5.4820    -2.5320 C.3   1 <1>  -0.1020 
 27 C       -3.9820     8.2220    -0.1880 C.3   1 <1>  -0.1020 
 28 H       -1.4320     3.1900     2.7310 H     1 <1>   0.1500 
 29 H       -3.8240     3.9150     3.0200 H     1 <1>   0.1500 
 30 H       -4.5740     1.0050    -1.5630 H     1 <1>   0.1500 
 31 H       -6.1450     3.8320     2.1370 H     1 <1>   0.1500 
 32 H       -8.7780     2.7970    -0.3220 H     1 <1>   0.0800 
 33 H       -7.7320     0.7240    -3.3550 H     1 <1>   0.0800 
 34 H       -6.4340    -0.0780    -2.4770 H     1 <1>   0.0800 
 35 H       -6.1270     1.4450    -3.3330 H     1 <1>   0.0800 
 36 H       -8.4170     1.8110     1.7220 H     1 <1>   0.4000 
 37 H       -8.1250     5.1730     1.3700 H     1 <1>   0.0800 
 38 H      -11.0060     5.1480    -1.4830 H     1 <1>   0.4000 
 39 H      -10.6220     5.0850     1.9920 H     1 <1>   0.0800 
 40 H      -10.9750     3.7240     0.9640 H     1 <1>   0.0800 
 41 H      -11.8310     5.2300     0.7470 H     1 <1>   0.0800 
 42 H       -9.5510     7.2430     0.8310 H     1 <1>   0.0800 
 43 H      -10.8530     7.1290    -0.3210 H     1 <1>   0.0800 
 44 H       -9.1920     7.1460    -0.8690 H     1 <1>   0.0800 
 45 H       -3.7360     7.3370    -2.1290 H     1 <1>   0.1500 
 46 H       -5.5070     4.4380    -2.2780 H     1 <1>   0.0800 
 47 H       -4.8060     5.6930    -3.2620 H     1 <1>   0.0800 
 48 H       -6.5250     5.6710    -2.9800 H     1 <1>   0.0800 
 49 H       -3.9560     9.2170    -0.5940 H     1 <1>   0.0800 
 50 H       -3.0020     7.9760     0.1780 H     1 <1>   0.0800 
 51 H       -4.6630     8.2230     0.6410 H     1 <1>   0.0800 
@<TRIPOS>BOND
  1   1   2  2   
  2   2   3  1   
  3   2   4  1   
  4   3   5  1   
  5   4   6  2   
  6   4  28  1   
  7   5   7  ar  
  8   5   8  ar  
  9   6   7  1   
 10   6  29  1   
 11   7   9  ar  
 12   8  10  ar  
 13   8  30  1   
 14   9  11  ar  
 15   9  31  1   
 16  10  11  ar  
 17  10  12  1   
 18  11  13  1   
 19  12  14  1   
 20  13  15  1   
 21  13  16  1   
 22  13  32  1   
 23  14  33  1   
 24  14  34  1   
 25  14  35  1   
 26  15  36  1   
 27  16  17  1   
 28  16  18  1   
 29  16  37  1   
 30  17  19  1   
 31  18  20  1   
 32  18  21  1   
 33  18  22  1   
 34  19  23  2   
 35  19  24  1   
 36  20  38  1   
 37  21  39  1   
 38  21  40  1   
 39  21  41  1   
 40  22  42  1   
 41  22  43  1   
 42  22  44  1   
 43  24  25  2   
 44  24  26  1   
 45  25  27  1   
 46  25  45  1   
 47  26  46  1   
 48  26  47  1   
 49  26  48  1   
 50  27  49  1   
 51  27  50  1   
 52  27  51  1   
@<TRIPOS>SUBSTRUCTURE
  1 ****  11 GROUP 4 **** **** 0

# MOE 2024.06 (io_trps.svl 2023.06)
