@<TRIPOS>MOLECULE
NONAME
59 62 1 0 0 
SMALL
USER_CHARGES


@<TRIPOS>ATOM
  1 O       -0.4770     2.1200    -1.9090 O.2   1 <1>  -0.5700 
  2 C       -1.5920     2.4450    -1.5590 C.2   1 <1>   0.5690 
  3 N       -2.5680     1.4850    -1.3770 N.am  1 <1>  -0.6600 
  4 C       -1.8420     3.9620    -1.4030 C.3   1 <1>   0.2610 
  5 C       -2.3040     0.0800    -1.8080 C.3   1 <1>   0.1400 
  6 C       -3.8590     1.7400    -0.6660 C.3   1 <1>   0.1400 
  7 O       -2.2960     4.3260    -0.1090 O.3   1 <1>  -0.3630 
  8 C       -2.8470     4.5200    -2.4180 C.3   1 <1>  -0.2400 
  9 C       -3.6040    -0.6350    -2.1860 C.3   1 <1>  -0.1600 
 10 C       -4.3690     0.4600    -0.0110 C.3   1 <1>  -0.1600 
 11 C       -1.3410     4.5580     0.8220 C.ar  1 <1>   0.0830 
 12 C       -4.6690    -0.6170    -1.0690 C.3   1 <1>   0.4240 
 13 C       -0.9210     3.5560     1.6980 C.ar  1 <1>   0.0830 
 14 C       -0.7860     5.8250     0.9010 C.ar  1 <1>  -0.1500 
 15 O       -5.8590    -0.2370    -1.7200 O.3   1 <1>  -0.5600 
 16 C       -4.7880    -2.0140    -0.4160 C.ar  1 <1>  -0.1430 
 17 O       -1.4750     2.3190     1.6270 O.3   1 <1>  -0.3630 
 18 C        0.0570     3.8380     2.6420 C.ar  1 <1>  -0.1500 
 19 C        0.1940     6.0980     1.8400 C.ar  1 <1>  -0.1500 
 20 C       -7.0720    -0.6030    -1.1370 C.3   1 <1>   0.1200 
 21 C       -5.9820    -2.7260    -0.4540 C.ar  1 <1>  -0.1430 
 22 C       -3.6950    -2.5880     0.2250 C.ar  1 <1>  -0.1500 
 23 C       -0.5970     1.2250     1.4830 C.3   1 <1>   0.0400 
 24 C        0.6150     5.1050     2.7090 C.ar  1 <1>  -0.1500 
 25 C       -7.1880    -2.1230    -1.1430 C.3   1 <1>  -0.0170 
 26 C       -6.0730    -3.9790     0.1300 C.ar  1 <1>  -0.1500 
 27 C       -3.7840    -3.8380     0.8120 C.ar  1 <1>  -0.1500 
 28 C       -4.9810    -4.5440     0.7660 C.ar  1 <1>   0.0830 
 29 O       -5.1580    -5.7730     1.3120 O.3   1 <1>  -0.3620 
 30 C       -4.1080    -6.4370     1.9760 C.3   1 <1>   0.0400 
 31 H       -0.9020     4.4600    -1.5630 H     1 <1>   0.0800 
 32 H       -1.8100    -0.4410    -1.0080 H     1 <1>   0.0800 
 33 H       -1.6430     0.0800    -2.6590 H     1 <1>   0.0800 
 34 H       -4.5900     2.1020    -1.3680 H     1 <1>   0.0800 
 35 H       -3.7250     2.4770     0.1040 H     1 <1>   0.0800 
 36 H       -3.8200     4.0930    -2.2660 H     1 <1>   0.0800 
 37 H       -2.5210     4.2820    -3.4140 H     1 <1>   0.0800 
 38 H       -2.9080     5.5890    -2.3230 H     1 <1>   0.0800 
 39 H       -3.3780    -1.6490    -2.4570 H     1 <1>   0.0800 
 40 H       -3.9890    -0.1520    -3.0670 H     1 <1>   0.0800 
 41 H       -5.2460     0.6700     0.5710 H     1 <1>   0.0800 
 42 H       -3.6200     0.1180     0.6770 H     1 <1>   0.0800 
 43 H       -1.1240     6.5940     0.2290 H     1 <1>   0.1500 
 44 H        0.3780     3.0790     3.3300 H     1 <1>   0.1500 
 45 H        0.6260     7.0820     1.8970 H     1 <1>   0.1500 
 46 H       -7.8630    -0.1630    -1.7190 H     1 <1>   0.0800 
 47 H       -7.1170    -0.2180    -0.1340 H     1 <1>   0.0800 
 48 H       -2.7590    -2.0640     0.2740 H     1 <1>   0.1500 
 49 H       -1.1810     0.3590     1.2320 H     1 <1>   0.0800 
 50 H       -0.0790     1.0610     2.4100 H     1 <1>   0.0800 
 51 H        0.0980     1.4380     0.6890 H     1 <1>   0.0800 
 52 H        1.3740     5.3190     3.4410 H     1 <1>   0.1500 
 53 H       -7.2410    -2.4750    -2.1570 H     1 <1>   0.0800 
 54 H       -8.0900    -2.4120    -0.6340 H     1 <1>   0.0800 
 55 H       -6.9930    -4.5330     0.0980 H     1 <1>   0.1500 
 56 H       -2.9180    -4.2450     1.2960 H     1 <1>   0.1500 
 57 H       -4.4780    -7.3860     2.3210 H     1 <1>   0.0800 
 58 H       -3.7920    -5.8420     2.8140 H     1 <1>   0.0800 
 59 H       -3.2990    -6.5900     1.2840 H     1 <1>   0.0800 
@<TRIPOS>BOND
  1   1   2  2   
  2   2   3  am  
  3   2   4  1   
  4   3   5  1   
  5   3   6  1   
  6   4   7  1   
  7   4   8  1   
  8   4  31  1   
  9   5   9  1   
 10   5  32  1   
 11   5  33  1   
 12   6  10  1   
 13   6  34  1   
 14   6  35  1   
 15   7  11  1   
 16   8  36  1   
 17   8  37  1   
 18   8  38  1   
 19   9  12  1   
 20   9  39  1   
 21   9  40  1   
 22  10  12  1   
 23  10  41  1   
 24  10  42  1   
 25  11  13  ar  
 26  11  14  ar  
 27  12  15  1   
 28  12  16  1   
 29  13  17  1   
 30  13  18  ar  
 31  14  19  ar  
 32  14  43  1   
 33  15  20  1   
 34  16  21  ar  
 35  16  22  ar  
 36  17  23  1   
 37  18  24  ar  
 38  18  44  1   
 39  19  24  ar  
 40  19  45  1   
 41  20  25  1   
 42  20  46  1   
 43  20  47  1   
 44  21  25  1   
 45  21  26  ar  
 46  22  27  ar  
 47  22  48  1   
 48  23  49  1   
 49  23  50  1   
 50  23  51  1   
 51  24  52  1   
 52  25  53  1   
 53  25  54  1   
 54  26  28  ar  
 55  26  55  1   
 56  27  28  ar  
 57  27  56  1   
 58  28  29  1   
 59  29  30  1   
 60  30  57  1   
 61  30  58  1   
 62  30  59  1   
@<TRIPOS>SUBSTRUCTURE
  1 ****  10 GROUP 4 **** **** 0

# MOE 2024.06 (io_trps.svl 2023.06)
