@<TRIPOS>MOLECULE
NONAME
58 61 1 0 0 
SMALL
USER_CHARGES


@<TRIPOS>ATOM
  1 O       -0.2320    -0.8900    -1.0670 O.3   1 <1>  -0.6800 
  2 C        0.6940    -1.8740    -0.7770 C.3   1 <1>   0.1200 
  3 C        1.4960    -1.5050     0.5110 C.3   1 <1>   0.0000 
  4 C        2.8700    -2.2290     0.5150 C.3   1 <1>   0.4230 
  5 C        1.7730     0.0220     0.5980 C.3   1 <1>  -0.1600 
  6 C        0.6840    -1.9100     1.7730 C.3   1 <1>  -0.1600 
  7 N        2.7520    -3.7560     0.5570 N.4   1 <1>  -0.9590 
  8 C        3.8050    -1.6540    -0.6040 C.3   1 <1>   0.3430 
  9 C        2.5740     0.5420    -0.5920 C.3   1 <1>   0.3430 
 10 C        1.0940    -3.2710     2.3650 C.3   1 <1>  -0.1600 
 11 C        1.5360    -4.2600     1.2910 C.3   1 <1>   0.3430 
 12 C        2.8520    -4.4850    -0.7540 C.3   1 <1>   0.2630 
 13 N        3.9060    -0.1460    -0.6180 N.4   1 <1>  -0.9590 
 14 C        4.7290     0.3670    -1.7520 C.3   1 <1>   0.5240 
 15 C        5.0830     1.8000    -1.4330 C.2   1 <1>  -0.1810 
 16 C        4.6300     2.9210    -2.1190 C.2   1 <1>   0.1390 
 17 C        5.8640     2.3000    -0.4490 C.2   1 <1>  -0.3020 
 18 N        5.0720     4.0160    -1.5980 N.2   1 <1>  -0.7070 
 19 N        5.8640     3.6540    -0.5590 N.pl3 1 <1>   0.5930 
 20 C        6.4980     4.5700     0.3220 C.ar  1 <1>  -0.0230 
 21 C        7.8890     4.6430     0.4420 C.ar  1 <1>  -0.1430 
 22 C        5.7080     5.4110     1.1010 C.ar  1 <1>  -0.1500 
 23 C        8.4520     5.5260     1.3500 C.ar  1 <1>  -0.1500 
 24 C        8.8150     3.7870    -0.4140 C.3   1 <1>  -0.0970 
 25 C        6.2800     6.2900     2.0020 C.ar  1 <1>  -0.1500 
 26 C        7.6550     6.3440     2.1290 C.ar  1 <1>  -0.1500 
 27 H       -0.9350    -1.2050    -1.6780 H     1 <1>   0.4000 
 28 H        0.1560    -2.7980    -0.6480 H     1 <1>   0.0800 
 29 H        1.3260    -1.9640    -1.6410 H     1 <1>   0.0800 
 30 H        3.3300    -1.9440     1.4470 H     1 <1>   0.0800 
 31 H        2.3020     0.2650     1.5040 H     1 <1>   0.0800 
 32 H        0.8430     0.5660     0.6430 H     1 <1>   0.0800 
 33 H        0.7900    -1.1750     2.5550 H     1 <1>   0.0800 
 34 H       -0.3670    -1.9270     1.5310 H     1 <1>   0.0800 
 35 H        3.5430    -4.0880     1.1340 H     1 <1>   0.4500 
 36 H        3.4270    -1.9760    -1.5600 H     1 <1>   0.0800 
 37 H        4.7910    -2.0700    -0.4770 H     1 <1>   0.0800 
 38 H        2.7060     1.6090    -0.4960 H     1 <1>   0.0800 
 39 H        2.0290     0.3530    -1.5040 H     1 <1>   0.0800 
 40 H        0.2560    -3.6840     2.9020 H     1 <1>   0.0800 
 41 H        1.8880    -3.1440     3.0810 H     1 <1>   0.0800 
 42 H        0.7200    -4.3990     0.6000 H     1 <1>   0.0800 
 43 H        1.7490    -5.2170     1.7430 H     1 <1>   0.0800 
 44 H        2.0420    -4.2050    -1.4080 H     1 <1>   0.0800 
 45 H        2.7970    -5.5510    -0.5910 H     1 <1>   0.0800 
 46 H        3.7890    -4.2730    -1.2430 H     1 <1>   0.0800 
 47 H        4.4090     0.1880     0.2190 H     1 <1>   0.4500 
 48 H        5.6390    -0.2050    -1.8470 H     1 <1>   0.0800 
 49 H        4.1840     0.3110    -2.6810 H     1 <1>   0.0800 
 50 H        3.9820     2.9120    -2.9830 H     1 <1>   0.1500 
 51 H        6.4280     1.8170     0.3280 H     1 <1>   0.1500 
 52 H        4.6370     5.3810     0.9990 H     1 <1>   0.1500 
 53 H        9.5220     5.5880     1.4570 H     1 <1>   0.1500 
 54 H        9.8240     4.1550    -0.3680 H     1 <1>   0.0800 
 55 H        8.5030     3.8120    -1.4430 H     1 <1>   0.0800 
 56 H        8.8100     2.7700    -0.0660 H     1 <1>   0.0800 
 57 H        5.6580     6.9340     2.6000 H     1 <1>   0.1500 
 58 H        8.1040     7.0260     2.8300 H     1 <1>   0.1500 
@<TRIPOS>BOND
  1   1   2  1   
  2   1  27  1   
  3   2   3  1   
  4   2  28  1   
  5   2  29  1   
  6   3   4  1   
  7   3   5  1   
  8   3   6  1   
  9   4   7  1   
 10   4   8  1   
 11   4  30  1   
 12   5   9  1   
 13   5  31  1   
 14   5  32  1   
 15   6  10  1   
 16   6  33  1   
 17   6  34  1   
 18   7  11  1   
 19   7  12  1   
 20   7  35  1   
 21   8  13  1   
 22   8  36  1   
 23   8  37  1   
 24   9  13  1   
 25   9  38  1   
 26   9  39  1   
 27  10  11  1   
 28  10  40  1   
 29  10  41  1   
 30  11  42  1   
 31  11  43  1   
 32  12  44  1   
 33  12  45  1   
 34  12  46  1   
 35  13  14  1   
 36  13  47  1   
 37  14  15  1   
 38  14  48  1   
 39  14  49  1   
 40  15  16  1   
 41  15  17  2   
 42  16  18  2   
 43  16  50  1   
 44  17  19  1   
 45  17  51  1   
 46  18  19  1   
 47  19  20  1   
 48  20  21  ar  
 49  20  22  ar  
 50  21  23  ar  
 51  21  24  1   
 52  22  25  ar  
 53  22  52  1   
 54  23  26  ar  
 55  23  53  1   
 56  24  54  1   
 57  24  55  1   
 58  24  56  1   
 59  25  26  ar  
 60  25  57  1   
 61  26  58  1   
@<TRIPOS>SUBSTRUCTURE
  1 ****  13 GROUP 4 **** **** 0

# MOE 2024.06 (io_trps.svl 2023.06)
