@<TRIPOS>MOLECULE
NONAME
47 50 1 0 0 
SMALL
USER_CHARGES


@<TRIPOS>ATOM
  1 O       -0.3170     0.1510     0.7940 O.2   1 <1>  -0.5700 
  2 C       -1.3520     0.7910     0.8130 C.2   1 <1>   0.5440 
  3 N       -2.5420     0.1180     0.6410 N.am  1 <1>  -0.6600 
  4 C       -1.3080     2.2300     0.9870 C.ar  1 <1>   0.0860 
  5 C       -3.7880     0.7400     0.1240 C.3   1 <1>   0.1400 
  6 C       -2.5930    -1.3570     0.4750 C.3   1 <1>   0.1400 
  7 C       -0.3960     3.0020     0.2840 C.ar  1 <1>  -0.1500 
  8 C       -2.1860     2.8880     1.8760 C.ar  1 <1>  -0.1500 
  9 C       -4.4930    -0.3790    -0.6390 C.3   1 <1>   0.2000 
 10 C       -4.0210    -1.6690     0.0240 C.3   1 <1>  -0.0800 
 11 C       -0.3730     4.3890     0.4390 C.ar  1 <1>  -0.1520 
 12 C       -2.1720     4.2530     2.0350 C.ar  1 <1>  -0.1500 
 13 O       -5.8720    -0.2690    -0.5520 O.3   1 <1>  -0.6800 
 14 C       -4.1200    -2.8950    -0.8960 C.3   1 <1>   0.0210 
 15 N        0.4210     5.3490    -0.1430 N.pl3 1 <1>   0.0480 
 16 C       -1.2590     5.0200     1.3060 C.ar  1 <1>   0.0000 
 17 C       -3.5560    -4.1270    -0.2150 C.2   1 <1>   0.1080 
 18 C        0.0350     6.5630     0.3470 C.2   1 <1>  -0.3020 
 19 C        1.5040     5.1050    -1.1090 C.3   1 <1>   0.0160 
 20 C       -0.9820     6.3980     1.2280 C.2   1 <1>  -0.1500 
 21 N       -4.0830    -4.6430     0.8510 N.2   1 <1>  -0.7070 
 22 C       -2.4290    -4.8240    -0.6360 C.2   1 <1>  -0.1500 
 23 N       -3.2980    -5.6980     1.1420 N.pl3 1 <1>   0.3000 
 24 C       -2.2880    -5.8270     0.2560 C.2   1 <1>  -0.3320 
 25 C       -1.2330    -6.9160     0.3180 C.3   1 <1>  -0.0600 
 26 H       -4.3880     1.0690     0.9540 H     1 <1>   0.0800 
 27 H       -3.5640     1.5670    -0.5280 H     1 <1>   0.0800 
 28 H       -1.8780    -1.6520    -0.2750 H     1 <1>   0.0800 
 29 H       -2.3570    -1.8530     1.4010 H     1 <1>   0.0800 
 30 H        0.2980     2.5240    -0.3830 H     1 <1>   0.1500 
 31 H       -2.8760     2.2890     2.4440 H     1 <1>   0.1500 
 32 H       -4.2120    -0.3410    -1.6780 H     1 <1>   0.0800 
 33 H       -4.5980    -1.8510     0.9140 H     1 <1>   0.0800 
 34 H       -2.8440     4.7480     2.7120 H     1 <1>   0.1500 
 35 H       -6.1710    -0.4840     0.3530 H     1 <1>   0.4000 
 36 H       -3.5850    -2.7170    -1.8110 H     1 <1>   0.0800 
 37 H       -5.1510    -3.0780    -1.1400 H     1 <1>   0.0800 
 38 H        0.5080     7.4790     0.0420 H     1 <1>   0.1500 
 39 H        1.9580     6.0390    -1.3860 H     1 <1>   0.0800 
 40 H        1.0990     4.6280    -1.9820 H     1 <1>   0.0800 
 41 H        2.2420     4.4670    -0.6580 H     1 <1>   0.0800 
 42 H       -1.5060     7.1530     1.7860 H     1 <1>   0.1500 
 43 H       -1.8180    -4.5910    -1.4900 H     1 <1>   0.1500 
 44 H       -3.4780    -6.3070     1.9480 H     1 <1>   0.2700 
 45 H       -0.5380    -6.8040    -0.4950 H     1 <1>   0.0800 
 46 H       -1.6930    -7.8850     0.2460 H     1 <1>   0.0800 
 47 H       -0.6880    -6.8530     1.2440 H     1 <1>   0.0800 
@<TRIPOS>BOND
  1   1   2  2   
  2   2   3  am  
  3   2   4  1   
  4   3   5  1   
  5   3   6  1   
  6   4   7  ar  
  7   4   8  ar  
  8   5   9  1   
  9   5  26  1   
 10   5  27  1   
 11   6  10  1   
 12   6  28  1   
 13   6  29  1   
 14   7  11  ar  
 15   7  30  1   
 16   8  12  ar  
 17   8  31  1   
 18   9  10  1   
 19   9  13  1   
 20   9  32  1   
 21  10  14  1   
 22  10  33  1   
 23  11  15  1   
 24  11  16  ar  
 25  12  16  ar  
 26  12  34  1   
 27  13  35  1   
 28  14  17  1   
 29  14  36  1   
 30  14  37  1   
 31  15  18  1   
 32  15  19  1   
 33  16  20  1   
 34  17  21  2   
 35  17  22  1   
 36  18  20  2   
 37  18  38  1   
 38  19  39  1   
 39  19  40  1   
 40  19  41  1   
 41  20  42  1   
 42  21  23  1   
 43  22  24  2   
 44  22  43  1   
 45  23  24  1   
 46  23  44  1   
 47  24  25  1   
 48  25  45  1   
 49  25  46  1   
 50  25  47  1   
@<TRIPOS>SUBSTRUCTURE
  1 ****   3 GROUP 4 **** **** 0

# MOE 2024.06 (io_trps.svl 2023.06)
