@<TRIPOS>MOLECULE
NONAME
46 47 1 0 0 
SMALL
USER_CHARGES


@<TRIPOS>ATOM
  1 S        1.2380     1.9010    -0.3240 S.o2  1 <1>   1.3330 
  2 O        0.4420     2.4750    -1.3820 O.2   1 <1>  -0.6500 
  3 O        2.3000     2.7180     0.2270 O.2   1 <1>  -0.6500 
  4 N        1.8580     0.4060    -0.8110 N.am  1 <1>  -0.8490 
  5 C        0.1360     1.5070     1.0430 C.3   1 <1>  -0.0550 
  6 C        0.9710    -0.3310    -1.7200 C.3   1 <1>   0.1160 
  7 C        3.1950     0.5140    -1.4080 C.3   1 <1>   0.1160 
  8 C       -0.5480     2.7080     1.7540 C.3   1 <1>  -0.0800 
  9 C       -1.3820     3.5840     0.8100 C.3   1 <1>   0.2000 
 10 C        0.4420     3.7010     2.3740 C.3   1 <1>   0.3430 
 11 O       -2.4800     4.0620     1.5120 O.3   1 <1>  -0.6800 
 12 C       -0.4790     4.7640     0.4110 C.3   1 <1>   0.3430 
 13 N        0.7250     4.6880     1.3030 N.4   1 <1>  -0.9590 
 14 C        1.2570     5.9990     1.7440 C.3   1 <1>   0.4860 
 15 C        1.7310     6.7480     0.5090 C.ar  1 <1>  -0.1440 
 16 C        2.8180     6.2770    -0.2220 C.ar  1 <1>  -0.1500 
 17 C        1.0740     7.9020     0.1040 C.ar  1 <1>  -0.1500 
 18 C        3.2580     6.9420    -1.3650 C.ar  1 <1>  -0.1440 
 19 C        1.4970     8.5780    -1.0260 C.ar  1 <1>  -0.1500 
 20 C        2.5760     8.0880    -1.7370 C.ar  1 <1>   0.1900 
 21 C        4.4450     6.4570    -2.2050 C.3   1 <1>   1.1630 
 22 F        2.9460     8.7510    -2.7990 F     1 <1>  -0.1900 
 23 F        4.1060     6.1790    -3.4560 F     1 <1>  -0.3400 
 24 F        5.4300     7.3430    -2.2580 F     1 <1>  -0.3400 
 25 F        4.9820     5.3430    -1.7190 F     1 <1>  -0.3400 
 26 H       -0.6330     0.8520     0.6800 H     1 <1>   0.0800 
 27 H        0.6930     0.9510     1.7730 H     1 <1>   0.0800 
 28 H        1.3810    -1.3050    -1.9290 H     1 <1>   0.0800 
 29 H        0.8540     0.2040    -2.6490 H     1 <1>   0.0800 
 30 H        0.0010    -0.4630    -1.2730 H     1 <1>   0.0800 
 31 H        3.5660    -0.4620    -1.6720 H     1 <1>   0.0800 
 32 H        3.8830     0.9520    -0.7040 H     1 <1>   0.0800 
 33 H        3.1640     1.1290    -2.2920 H     1 <1>   0.0800 
 34 H       -1.1710     2.2930     2.5290 H     1 <1>   0.0800 
 35 H       -1.7560     3.0550    -0.0520 H     1 <1>   0.0800 
 36 H        1.3440     3.2120     2.7090 H     1 <1>   0.0800 
 37 H       -0.0250     4.1960     3.2100 H     1 <1>   0.0800 
 38 H       -2.2550     4.4780     2.3660 H     1 <1>   0.4000 
 39 H       -1.0100     5.6930     0.5360 H     1 <1>   0.0800 
 40 H       -0.1750     4.6680    -0.6200 H     1 <1>   0.0800 
 41 H        1.4870     4.2680     0.7290 H     1 <1>   0.4500 
 42 H        0.4940     6.5630     2.2540 H     1 <1>   0.0800 
 43 H        2.0890     5.8560     2.4140 H     1 <1>   0.0800 
 44 H        3.3300     5.3820     0.1000 H     1 <1>   0.1500 
 45 H        0.2340     8.2890     0.6570 H     1 <1>   0.1500 
 46 H        1.0030     9.4750    -1.3570 H     1 <1>   0.1500 
@<TRIPOS>BOND
  1   1   2  2   
  2   1   3  2   
  3   1   4  am  
  4   1   5  1   
  5   4   6  1   
  6   4   7  1   
  7   5   8  1   
  8   5  26  1   
  9   5  27  1   
 10   6  28  1   
 11   6  29  1   
 12   6  30  1   
 13   7  31  1   
 14   7  32  1   
 15   7  33  1   
 16   8   9  1   
 17   8  10  1   
 18   8  34  1   
 19   9  11  1   
 20   9  12  1   
 21   9  35  1   
 22  10  13  1   
 23  10  36  1   
 24  10  37  1   
 25  11  38  1   
 26  12  13  1   
 27  12  39  1   
 28  12  40  1   
 29  13  14  1   
 30  13  41  1   
 31  14  15  1   
 32  14  42  1   
 33  14  43  1   
 34  15  16  ar  
 35  15  17  ar  
 36  16  18  ar  
 37  16  44  1   
 38  17  19  ar  
 39  17  45  1   
 40  18  20  ar  
 41  18  21  1   
 42  19  20  ar  
 43  19  46  1   
 44  20  22  1   
 45  21  23  1   
 46  21  24  1   
 47  21  25  1   
@<TRIPOS>SUBSTRUCTURE
  1 ****  16 GROUP 4 **** **** 0

# MOE 2024.06 (io_trps.svl 2023.06)
