@<TRIPOS>MOLECULE
NONAME
53 55 1 0 0 
SMALL
USER_CHARGES


@<TRIPOS>ATOM
  1 O       -0.4110     1.0660    -0.7820 O.2   1 <1>  -0.5700 
  2 C       -0.5270     2.2690    -0.7640 C.2   1 <1>   0.5690 
  3 N       -1.4100     2.9400     0.0440 N.am  1 <1>  -0.6600 
  4 C        0.3600     3.0740    -1.7090 C.3   1 <1>   0.1810 
  5 C       -1.5090     4.4390    -0.0150 C.3   1 <1>   0.3640 
  6 C       -2.2670     2.3000     1.0800 C.3   1 <1>   0.2200 
  7 O        0.6960     4.3230    -1.1640 O.3   1 <1>  -0.5600 
  8 C       -2.8990     4.8290    -0.5250 C.ar  1 <1>  -0.1440 
  9 C       -0.4240     5.1480    -0.8760 C.3   1 <1>   0.2610 
 10 C       -1.3960     1.6680     2.1660 C.3   1 <1>  -0.2400 
 11 C       -3.2330     1.2880     0.4610 C.3   1 <1>  -0.2400 
 12 C       -3.6250     5.8150     0.1290 C.ar  1 <1>  -0.1500 
 13 C       -3.4540     4.2200    -1.6440 C.ar  1 <1>  -0.1500 
 14 C        0.0390     6.4370    -0.1820 C.2   1 <1>   0.5690 
 15 C       -4.8800     6.1830    -0.3220 C.ar  1 <1>  -0.1500 
 16 C       -4.7100     4.5860    -2.0970 C.ar  1 <1>  -0.1500 
 17 O       -0.7740     7.2100     0.2670 O.2   1 <1>  -0.5700 
 18 N        1.3690     6.6850    -0.0780 N.am  1 <1>  -0.7300 
 19 C       -5.4240     5.5690    -1.4350 C.ar  1 <1>  -0.1500 
 20 C        1.9780     7.9090     0.4530 C.3   1 <1>   0.3200 
 21 C        3.1550     8.2980    -0.4200 C.2   1 <1>  -0.3320 
 22 N        4.0330     9.2750    -0.1050 N.pl3 1 <1>   0.0480 
 23 C        3.5540     7.8050    -1.6170 C.2   1 <1>   0.0770 
 24 C        4.9070     9.2980    -1.1360 C.2   1 <1>   0.0360 
 25 C        4.0640    10.1500     1.0870 C.3   1 <1>   0.0960 
 26 N        4.6570     8.4310    -2.0610 N.2   1 <1>  -0.5650 
 27 C        3.1270    11.3470     0.9030 C.3   1 <1>  -0.2400 
 28 H       -0.1420     3.2250    -2.6470 H     1 <1>   0.0800 
 29 H        1.2740     2.5360    -1.8830 H     1 <1>   0.0800 
 30 H       -1.4080     4.7990     0.9950 H     1 <1>   0.0800 
 31 H       -2.8670     3.0620     1.5500 H     1 <1>   0.0800 
 32 H       -0.8550     5.4320    -1.8190 H     1 <1>   0.0800 
 33 H       -0.8250     0.8480     1.7690 H     1 <1>   0.0800 
 34 H       -2.0180     1.2910     2.9570 H     1 <1>   0.0800 
 35 H       -0.7270     2.4000     2.5780 H     1 <1>   0.0800 
 36 H       -2.7060     0.4500     0.0450 H     1 <1>   0.0800 
 37 H       -3.8210     1.7560    -0.3060 H     1 <1>   0.0800 
 38 H       -3.9010     0.9180     1.2170 H     1 <1>   0.0800 
 39 H       -3.2140     6.3120     0.9930 H     1 <1>   0.1500 
 40 H       -2.9160     3.4500    -2.1670 H     1 <1>   0.1500 
 41 H       -5.4320     6.9510     0.1920 H     1 <1>   0.1500 
 42 H       -5.1320     4.1060    -2.9620 H     1 <1>   0.1500 
 43 H        2.0190     5.9820    -0.4400 H     1 <1>   0.3700 
 44 H       -6.4000     5.8550    -1.7860 H     1 <1>   0.1500 
 45 H        1.2520     8.7050     0.4710 H     1 <1>   0.0800 
 46 H        2.3100     7.7200     1.4590 H     1 <1>   0.0800 
 47 H        3.0960     7.0210    -2.1970 H     1 <1>   0.1500 
 48 H        5.7330     9.9860    -1.1670 H     1 <1>   0.1500 
 49 H        3.7730     9.5780     1.9500 H     1 <1>   0.0800 
 50 H        5.0720    10.4940     1.2350 H     1 <1>   0.0800 
 51 H        2.1120    11.0180     0.7700 H     1 <1>   0.0800 
 52 H        3.4250    11.9270     0.0470 H     1 <1>   0.0800 
 53 H        3.1680    11.9790     1.7720 H     1 <1>   0.0800 
@<TRIPOS>BOND
  1   1   2  2   
  2   2   3  am  
  3   2   4  1   
  4   3   5  1   
  5   3   6  1   
  6   4   7  1   
  7   4  28  1   
  8   4  29  1   
  9   5   8  1   
 10   5   9  1   
 11   5  30  1   
 12   6  10  1   
 13   6  11  1   
 14   6  31  1   
 15   7   9  1   
 16   8  12  ar  
 17   8  13  ar  
 18   9  14  1   
 19   9  32  1   
 20  10  33  1   
 21  10  34  1   
 22  10  35  1   
 23  11  36  1   
 24  11  37  1   
 25  11  38  1   
 26  12  15  ar  
 27  12  39  1   
 28  13  16  ar  
 29  13  40  1   
 30  14  17  2   
 31  14  18  am  
 32  15  19  ar  
 33  15  41  1   
 34  16  19  ar  
 35  16  42  1   
 36  18  20  1   
 37  18  43  1   
 38  19  44  1   
 39  20  21  1   
 40  20  45  1   
 41  20  46  1   
 42  21  22  1   
 43  21  23  2   
 44  22  24  1   
 45  22  25  1   
 46  23  26  1   
 47  23  47  1   
 48  24  26  2   
 49  24  48  1   
 50  25  27  1   
 51  25  49  1   
 52  25  50  1   
 53  27  51  1   
 54  27  52  1   
 55  27  53  1   
@<TRIPOS>SUBSTRUCTURE
  1 ****   9 GROUP 4 **** **** 0

# MOE 2024.06 (io_trps.svl 2023.06)
