@<TRIPOS>MOLECULE
NONAME
48 51 1 0 0 
SMALL
USER_CHARGES


@<TRIPOS>ATOM
  1 O        2.8500    -0.6900     2.4880 O.2   1 <1>  -0.5700 
  2 C        3.2110    -1.3810     1.5550 C.2   1 <1>   0.5440 
  3 N        4.4470    -1.1120     0.9960 N.am  1 <1>  -0.6600 
  4 C        2.3120    -2.3730     1.0180 C.ar  1 <1>   0.0860 
  5 C        5.3240    -0.0450     1.6130 C.3   1 <1>   0.1400 
  6 C        4.7910    -1.5270    -0.4030 C.3   1 <1>   0.1400 
  7 C        1.4220    -2.0430    -0.0070 C.ar  1 <1>   0.0830 
  8 C        2.3070    -3.6810     1.5040 C.ar  1 <1>  -0.1500 
  9 C        5.0820     1.3640     1.0000 C.3   1 <1>   0.4230 
 10 C        5.1190    -0.3450    -1.3440 C.3   1 <1>  -0.0800 
 11 O        1.4380    -0.7840    -0.5230 O.3   1 <1>  -0.3630 
 12 C        0.5380    -3.0020    -0.5050 C.ar  1 <1>   0.0830 
 13 C        1.4450    -4.6340     0.9920 C.ar  1 <1>  -0.1500 
 14 N        3.8580     1.3020     0.1210 N.4   1 <1>  -0.9590 
 15 C        6.3750     1.9260     0.3360 C.3   1 <1>   0.1200 
 16 C        6.5920     0.0930    -1.2130 C.3   1 <1>   0.1200 
 17 C        4.1340     0.8480    -1.2770 C.3   1 <1>   0.3430 
 18 C        0.6600    -0.5170    -1.6810 C.3   1 <1>   0.1200 
 19 O       -0.3620    -2.6900    -1.4690 O.3   1 <1>  -0.3630 
 20 C        0.5570    -4.2940    -0.0140 C.ar  1 <1>  -0.1500 
 21 C        3.0700     2.6010     0.1330 C.3   1 <1>   0.2370 
 22 O        6.6790     1.4530    -0.9540 O.3   1 <1>  -0.5600 
 23 C       -0.6470    -1.3180    -1.6510 C.3   1 <1>   0.1200 
 24 C        3.7270     3.8060    -0.5390 C.2   1 <1>   0.9060 
 25 O        3.5860     3.9340    -1.7580 O.co2 1 <1>  -0.9000 
 26 O        4.4150     4.5520     0.1640 O.co2 1 <1>  -0.9000 
 27 H        5.1280     0.0160     2.6700 H     1 <1>   0.0800 
 28 H        6.3560    -0.3310     1.5270 H     1 <1>   0.0800 
 29 H        5.6260    -2.2060    -0.3660 H     1 <1>   0.0800 
 30 H        3.9720    -2.0740    -0.8350 H     1 <1>   0.0800 
 31 H        2.9870    -3.9460     2.2960 H     1 <1>   0.1500 
 32 H        4.8630     2.0170     1.8280 H     1 <1>   0.0800 
 33 H        5.0380    -0.7360    -2.3410 H     1 <1>   0.0800 
 34 H        1.4570    -5.6400     1.3790 H     1 <1>   0.1500 
 35 H        3.2770     0.5720     0.5620 H     1 <1>   0.4500 
 36 H        7.2240     1.7270     0.9650 H     1 <1>   0.0800 
 37 H        6.2930     2.9950     0.2560 H     1 <1>   0.0800 
 38 H        7.0970    -0.0700    -2.1500 H     1 <1>   0.0800 
 39 H        7.1330    -0.4450    -0.4540 H     1 <1>   0.0800 
 40 H        3.2040     0.5690    -1.7390 H     1 <1>   0.0800 
 41 H        4.5420     1.6720    -1.8460 H     1 <1>   0.0800 
 42 H        0.4580     0.5390    -1.7110 H     1 <1>   0.0800 
 43 H        1.2390    -0.7910    -2.5450 H     1 <1>   0.0800 
 44 H       -0.1240    -5.0240    -0.4140 H     1 <1>   0.1500 
 45 H        2.1310     2.4490    -0.3650 H     1 <1>   0.0800 
 46 H        2.8620     2.8840     1.1480 H     1 <1>   0.0800 
 47 H       -1.1860    -1.2090    -2.5750 H     1 <1>   0.0800 
 48 H       -1.2720    -0.9930    -0.8370 H     1 <1>   0.0800 
@<TRIPOS>BOND
  1   1   2  2   
  2   2   3  am  
  3   2   4  1   
  4   3   5  1   
  5   3   6  1   
  6   4   7  ar  
  7   4   8  ar  
  8   5   9  1   
  9   5  27  1   
 10   5  28  1   
 11   6  10  1   
 12   6  29  1   
 13   6  30  1   
 14   7  11  1   
 15   7  12  ar  
 16   8  13  ar  
 17   8  31  1   
 18   9  14  1   
 19   9  15  1   
 20   9  32  1   
 21  10  16  1   
 22  10  17  1   
 23  10  33  1   
 24  11  18  1   
 25  12  19  1   
 26  12  20  ar  
 27  13  20  ar  
 28  13  34  1   
 29  14  17  1   
 30  14  21  1   
 31  14  35  1   
 32  15  22  1   
 33  15  36  1   
 34  15  37  1   
 35  16  22  1   
 36  16  38  1   
 37  16  39  1   
 38  17  40  1   
 39  17  41  1   
 40  18  23  1   
 41  18  42  1   
 42  18  43  1   
 43  19  23  1   
 44  20  44  1   
 45  21  24  1   
 46  21  45  1   
 47  21  46  1   
 48  23  47  1   
 49  23  48  1   
 50  24  25  ar  
 51  24  26  ar  
@<TRIPOS>SUBSTRUCTURE
  1 ****  14 GROUP 4 **** **** 0

# MOE 2024.06 (io_trps.svl 2023.06)
