@<TRIPOS>MOLECULE
NONAME
45 47 1 0 0 
SMALL
USER_CHARGES


@<TRIPOS>ATOM
  1 O        0.7510     1.5230     0.1790 O.2   1 <1>  -0.5700 
  2 C        0.4610     2.6700    -0.0520 C.2   1 <1>   0.5690 
  3 N       -0.5170     3.2900     0.6420 N.am  1 <1>  -0.7300 
  4 C        1.1710     3.4360    -1.1670 C.3   1 <1>   0.1810 
  5 C       -1.0090     4.6570     0.3390 C.3   1 <1>   0.3640 
  6 O        1.0740     4.8310    -0.9960 O.3   1 <1>  -0.5600 
  7 C       -2.5070     4.5580     0.0530 C.ar  1 <1>  -0.1440 
  8 C       -0.2520     5.3320    -0.8410 C.3   1 <1>   0.2610 
  9 C       -3.0180     3.5810    -0.7930 C.ar  1 <1>  -0.1500 
 10 C       -3.3850     5.4580     0.6420 C.ar  1 <1>  -0.1500 
 11 C       -0.2130     6.8530    -0.6360 C.2   1 <1>   0.5690 
 12 C       -4.3770     3.5030    -1.0420 C.ar  1 <1>  -0.1500 
 13 C       -4.7450     5.3820     0.3940 C.ar  1 <1>  -0.1500 
 14 O       -1.2310     7.4630    -0.4100 O.2   1 <1>  -0.5700 
 15 N        0.9750     7.5020    -0.6990 N.am  1 <1>  -0.7300 
 16 C       -5.2420     4.4040    -0.4480 C.ar  1 <1>  -0.1500 
 17 C        1.1830     8.9500    -0.4420 C.3   1 <1>   0.3210 
 18 C        2.6330     9.2680    -0.0780 C.2   1 <1>   0.3350 
 19 N        3.6140     8.4540    -0.1450 N.2   1 <1>  -0.4100 
 20 N        2.9820    10.4740     0.3490 N.2   1 <1>  -0.5650 
 21 O        4.6730     9.0970     0.2430 O.3   1 <1>  -0.0190 
 22 C        4.2330    10.2990     0.5250 C.2   1 <1>   0.2980 
 23 C        5.2460    11.3330     1.0200 C.3   1 <1>   0.1000 
 24 C        4.5740    12.5620     1.6530 C.3   1 <1>  -0.2400 
 25 C        6.1690    11.7770    -0.1230 C.3   1 <1>  -0.2400 
 26 H       -1.0320     2.7570     1.3440 H     1 <1>   0.3700 
 27 H        0.7420     3.1750    -2.1170 H     1 <1>   0.0800 
 28 H        2.2140     3.1760    -1.1690 H     1 <1>   0.0800 
 29 H       -0.8630     5.2570     1.2210 H     1 <1>   0.0800 
 30 H       -0.7770     5.1380    -1.7580 H     1 <1>   0.0800 
 31 H       -2.3640     2.8670    -1.2630 H     1 <1>   0.1500 
 32 H       -3.0160     6.2330     1.2920 H     1 <1>   0.1500 
 33 H       -4.7630     2.7420    -1.6970 H     1 <1>   0.1500 
 34 H       -5.4150     6.0870     0.8540 H     1 <1>   0.1500 
 35 H        1.8330     6.9530    -0.8360 H     1 <1>   0.3700 
 36 H       -6.2990     4.3460    -0.6410 H     1 <1>   0.1500 
 37 H        0.9170     9.5060    -1.3230 H     1 <1>   0.0800 
 38 H        0.5430     9.2660     0.3620 H     1 <1>   0.0800 
 39 H        5.8460    10.8580     1.7770 H     1 <1>   0.0800 
 40 H        3.9710    13.0770     0.9250 H     1 <1>   0.0800 
 41 H        5.3140    13.2430     2.0340 H     1 <1>   0.0800 
 42 H        3.9390    12.2560     2.4660 H     1 <1>   0.0800 
 43 H        5.5940    12.2440    -0.9040 H     1 <1>   0.0800 
 44 H        6.6810    10.9270    -0.5380 H     1 <1>   0.0800 
 45 H        6.9030    12.4770     0.2340 H     1 <1>   0.0800 
@<TRIPOS>BOND
  1   1   2  2   
  2   2   3  am  
  3   2   4  1   
  4   3   5  1   
  5   3  26  1   
  6   4   6  1   
  7   4  27  1   
  8   4  28  1   
  9   5   7  1   
 10   5   8  1   
 11   5  29  1   
 12   6   8  1   
 13   7   9  ar  
 14   7  10  ar  
 15   8  11  1   
 16   8  30  1   
 17   9  12  ar  
 18   9  31  1   
 19  10  13  ar  
 20  10  32  1   
 21  11  14  2   
 22  11  15  am  
 23  12  16  ar  
 24  12  33  1   
 25  13  16  ar  
 26  13  34  1   
 27  15  17  1   
 28  15  35  1   
 29  16  36  1   
 30  17  18  1   
 31  17  37  1   
 32  17  38  1   
 33  18  19  2   
 34  18  20  1   
 35  19  21  1   
 36  20  22  2   
 37  21  22  1   
 38  22  23  1   
 39  23  24  1   
 40  23  25  1   
 41  23  39  1   
 42  24  40  1   
 43  24  41  1   
 44  24  42  1   
 45  25  43  1   
 46  25  44  1   
 47  25  45  1   
@<TRIPOS>SUBSTRUCTURE
  1 ****  11 GROUP 4 **** **** 0

# MOE 2024.06 (io_trps.svl 2023.06)
