@<TRIPOS>MOLECULE
NONAME
51 53 1 0 0 
SMALL
USER_CHARGES


@<TRIPOS>ATOM
  1 O        0.5800    -0.1560     1.7820 O.2   1 <1>  -0.5700 
  2 C        1.3170    -0.6110     0.9280 C.2   1 <1>   0.5440 
  3 N        2.1350     0.2450     0.2130 N.am  1 <1>  -0.6600 
  4 C        1.3250    -2.0400     0.6900 C.ar  1 <1>   0.0860 
  5 C        3.0720    -0.2490    -0.8450 C.3   1 <1>   0.1400 
  6 C        2.1170     1.7170     0.4600 C.3   1 <1>   0.1400 
  7 C        0.5250    -2.6400    -0.2910 C.ar  1 <1>  -0.1440 
  8 C        2.1620    -2.8600     1.4450 C.ar  1 <1>  -0.1500 
  9 C        4.4430    -0.6070    -0.2540 C.3   1 <1>   0.1400 
 10 C        3.5160     2.3430     0.5580 C.3   1 <1>  -0.1600 
 11 C        0.5910    -4.0070    -0.5120 C.ar  1 <1>  -0.1500 
 12 C       -0.4350    -1.7930    -1.1180 C.3   1 <1>  -0.0960 
 13 C        2.2260    -4.2210     1.2230 C.ar  1 <1>  -0.1500 
 14 N        5.2260     0.6040     0.1550 N.am  1 <1>  -0.6600 
 15 C        4.5720     1.4390     1.2050 C.3   1 <1>   0.1400 
 16 C        1.4470    -4.8060     0.2400 C.ar  1 <1>   0.0820 
 17 C        6.4260     0.8930    -0.4590 C.2   1 <1>   0.5690 
 18 O        1.5680    -6.1430     0.0780 O.3   1 <1>  -0.3630 
 19 O        6.8220     0.2230    -1.3850 O.2   1 <1>  -0.5700 
 20 C        7.2950     2.0690    -0.0010 C.3   1 <1>  -0.0190 
 21 C        0.7980    -6.8520    -0.8670 C.3   1 <1>   0.0400 
 22 C        6.7580     3.4460    -0.4510 C.3   1 <1>  -0.0220 
 23 C        8.7790     2.0300    -0.4430 C.3   1 <1>  -0.0220 
 24 C        8.0170     4.2500    -0.6500 C.2   1 <1>  -0.2880 
 25 C        9.1040     3.4900    -0.6420 C.2   1 <1>  -0.2880 
 26 H        3.1920     0.4950    -1.6130 H     1 <1>   0.0800 
 27 H        2.6600    -1.1250    -1.3120 H     1 <1>   0.0800 
 28 H        1.6000     1.9180     1.3830 H     1 <1>   0.0800 
 29 H        1.5600     2.1960    -0.3260 H     1 <1>   0.0800 
 30 H        2.7650    -2.4160     2.2170 H     1 <1>   0.1500 
 31 H        4.9860    -1.1690    -0.9930 H     1 <1>   0.0800 
 32 H        4.3150    -1.2520     0.5960 H     1 <1>   0.0800 
 33 H        3.4230     3.2370     1.1480 H     1 <1>   0.0800 
 34 H        3.8430     2.6490    -0.4190 H     1 <1>   0.0800 
 35 H       -0.0290    -4.4430    -1.2710 H     1 <1>   0.1500 
 36 H       -1.1050    -1.2600    -0.4660 H     1 <1>   0.0800 
 37 H       -1.0230    -2.4030    -1.7800 H     1 <1>   0.0800 
 38 H        0.1120    -1.0790    -1.7080 H     1 <1>   0.0800 
 39 H        2.8790    -4.8420     1.8100 H     1 <1>   0.1500 
 40 H        4.1200     0.8060     1.9510 H     1 <1>   0.0800 
 41 H        5.2990     2.0480     1.7090 H     1 <1>   0.0800 
 42 H        7.3220     2.0660     1.0720 H     1 <1>   0.0800 
 43 H        1.0620    -7.8920    -0.8000 H     1 <1>   0.0800 
 44 H        1.0240    -6.4790    -1.8500 H     1 <1>   0.0800 
 45 H       -0.2440    -6.7240    -0.6340 H     1 <1>   0.0800 
 46 H        6.1280     3.8860     0.3010 H     1 <1>   0.0800 
 47 H        6.2240     3.3710    -1.3830 H     1 <1>   0.0800 
 48 H        8.9210     1.5110    -1.3740 H     1 <1>   0.0800 
 49 H        9.3960     1.5830     0.3170 H     1 <1>   0.0800 
 50 H        7.9410     5.3160    -0.7890 H     1 <1>   0.1500 
 51 H       10.1340     3.7790    -0.7720 H     1 <1>   0.1500 
@<TRIPOS>BOND
  1   1   2  2   
  2   2   3  am  
  3   2   4  1   
  4   3   5  1   
  5   3   6  1   
  6   4   7  ar  
  7   4   8  ar  
  8   5   9  1   
  9   5  26  1   
 10   5  27  1   
 11   6  10  1   
 12   6  28  1   
 13   6  29  1   
 14   7  11  ar  
 15   7  12  1   
 16   8  13  ar  
 17   8  30  1   
 18   9  14  1   
 19   9  31  1   
 20   9  32  1   
 21  10  15  1   
 22  10  33  1   
 23  10  34  1   
 24  11  16  ar  
 25  11  35  1   
 26  12  36  1   
 27  12  37  1   
 28  12  38  1   
 29  13  16  ar  
 30  13  39  1   
 31  14  15  1   
 32  14  17  am  
 33  15  40  1   
 34  15  41  1   
 35  16  18  1   
 36  17  19  2   
 37  17  20  1   
 38  18  21  1   
 39  20  22  1   
 40  20  23  1   
 41  20  42  1   
 42  21  43  1   
 43  21  44  1   
 44  21  45  1   
 45  22  24  1   
 46  22  46  1   
 47  22  47  1   
 48  23  25  1   
 49  23  48  1   
 50  23  49  1   
 51  24  25  2   
 52  24  50  1   
 53  25  51  1   
@<TRIPOS>SUBSTRUCTURE
  1 ****   9 GROUP 4 **** **** 0

# MOE 2024.06 (io_trps.svl 2023.06)
