@<TRIPOS>MOLECULE
NONAME
52 55 1 0 0 
SMALL
USER_CHARGES


@<TRIPOS>ATOM
  1 O        2.0680    -0.2810    -0.4220 O.co2 1 <1>  -0.9000 
  2 C        1.7220    -0.9880     0.5450 C.2   1 <1>   0.9790 
  3 O        1.6420    -0.4540     1.6660 O.co2 1 <1>  -0.9000 
  4 C        1.5290    -2.4040     0.3860 C.ar  1 <1>  -0.1790 
  5 C        0.2890    -2.9710     0.0490 C.ar  1 <1>   0.4100 
  6 C        2.5980    -3.2590     0.5940 C.ar  1 <1>  -0.1500 
  7 N        0.0860    -4.2820    -0.0460 N.ar  1 <1>  -0.6200 
  8 N       -0.8420    -2.2210    -0.2100 N.pl3 1 <1>  -0.8380 
  9 C        2.3840    -4.6090     0.4760 C.ar  1 <1>  -0.1500 
 10 C        1.1170    -5.0900     0.1660 C.ar  1 <1>   0.3100 
 11 C       -2.0760    -2.4220     0.5990 C.3   1 <1>   0.2090 
 12 C       -0.8270    -1.0050    -1.0600 C.3   1 <1>   0.2090 
 13 C        0.8890    -6.5190     0.0580 C.ar  1 <1>   0.0000 
 14 C       -3.3200    -2.4870    -0.3200 C.3   1 <1>   0.0000 
 15 C       -2.0650    -0.9930    -1.9660 C.3   1 <1>  -0.1600 
 16 C        0.1510    -7.0470    -1.0010 C.ar  1 <1>  -0.1500 
 17 C        1.3900    -7.4160     1.0020 C.ar  1 <1>  -0.1500 
 18 C       -4.6110    -2.6910     0.4900 C.3   1 <1>   0.2000 
 19 C       -3.3750    -1.2060    -1.1830 C.3   1 <1>  -0.1600 
 20 C       -3.2920    -3.7680    -1.1740 C.3   1 <1>  -0.1600 
 21 C       -0.0640    -8.4080    -1.1250 C.ar  1 <1>  -0.1500 
 22 C        1.1810    -8.7780     0.8840 C.ar  1 <1>  -0.1500 
 23 O       -4.6230    -1.9230     1.6570 O.3   1 <1>  -0.5600 
 24 C       -4.6710    -4.1890     0.8070 C.3   1 <1>  -0.1600 
 25 C       -3.8140    -4.8820    -0.2610 C.3   1 <1>  -0.1600 
 26 C        0.4540    -9.2770    -0.1820 C.ar  1 <1>  -0.1500 
 27 C       -5.8630    -1.8120     2.2780 C.3   1 <1>   0.0400 
 28 H        3.5640    -2.8530     0.8430 H     1 <1>   0.1500 
 29 H        3.1950    -5.2950     0.6230 H     1 <1>   0.1500 
 30 H       -1.9880    -3.3200     1.1840 H     1 <1>   0.0800 
 31 H       -2.1670    -1.5960     1.2830 H     1 <1>   0.0800 
 32 H       -0.8120    -0.1340    -0.4260 H     1 <1>   0.0800 
 33 H        0.0600    -0.9970    -1.6690 H     1 <1>   0.0800 
 34 H       -2.1010    -0.0530    -2.4860 H     1 <1>   0.0800 
 35 H       -1.9480    -1.7690    -2.7000 H     1 <1>   0.0800 
 36 H       -0.2570    -6.3680    -1.7310 H     1 <1>   0.1500 
 37 H        1.9450    -7.0370     1.8410 H     1 <1>   0.1500 
 38 H       -5.4530    -2.4120    -0.1210 H     1 <1>   0.0800 
 39 H       -4.2020    -1.2510    -1.8690 H     1 <1>   0.0800 
 40 H       -3.5300    -0.3620    -0.5330 H     1 <1>   0.0800 
 41 H       -3.9560    -3.6610    -2.0130 H     1 <1>   0.0800 
 42 H       -2.3060    -3.9930    -1.5440 H     1 <1>   0.0800 
 43 H       -0.6350    -8.7880    -1.9540 H     1 <1>   0.1500 
 44 H        1.5790    -9.4510     1.6230 H     1 <1>   0.1500 
 45 H       -4.2500    -4.3800     1.7790 H     1 <1>   0.0800 
 46 H       -5.6850    -4.5430     0.7730 H     1 <1>   0.0800 
 47 H       -2.9780    -5.3740     0.2090 H     1 <1>   0.0800 
 48 H       -4.3750    -5.6090    -0.8200 H     1 <1>   0.0800 
 49 H        0.2890   -10.3360    -0.2760 H     1 <1>   0.1500 
 50 H       -5.7450    -1.1850     3.1450 H     1 <1>   0.0800 
 51 H       -6.2010    -2.7870     2.5820 H     1 <1>   0.0800 
 52 H       -6.5620    -1.3600     1.5970 H     1 <1>   0.0800 
@<TRIPOS>BOND
  1   1   2  ar  
  2   2   3  ar  
  3   2   4  1   
  4   4   5  ar  
  5   4   6  ar  
  6   5   7  ar  
  7   5   8  1   
  8   6   9  ar  
  9   6  28  1   
 10   7  10  ar  
 11   8  11  1   
 12   8  12  1   
 13   9  10  ar  
 14   9  29  1   
 15  10  13  1   
 16  11  14  1   
 17  11  30  1   
 18  11  31  1   
 19  12  15  1   
 20  12  32  1   
 21  12  33  1   
 22  13  16  ar  
 23  13  17  ar  
 24  14  18  1   
 25  14  19  1   
 26  14  20  1   
 27  15  19  1   
 28  15  34  1   
 29  15  35  1   
 30  16  21  ar  
 31  16  36  1   
 32  17  22  ar  
 33  17  37  1   
 34  18  23  1   
 35  18  24  1   
 36  18  38  1   
 37  19  39  1   
 38  19  40  1   
 39  20  25  1   
 40  20  41  1   
 41  20  42  1   
 42  21  26  ar  
 43  21  43  1   
 44  22  26  ar  
 45  22  44  1   
 46  23  27  1   
 47  24  25  1   
 48  24  45  1   
 49  24  46  1   
 50  25  47  1   
 51  25  48  1   
 52  26  49  1   
 53  27  50  1   
 54  27  51  1   
 55  27  52  1   
@<TRIPOS>SUBSTRUCTURE
  1 ****   7 GROUP 4 **** **** 0

# MOE 2024.06 (io_trps.svl 2023.06)
