@<TRIPOS>MOLECULE
NONAME
47 50 1 0 0 
SMALL
USER_CHARGES


@<TRIPOS>ATOM
  1 S       -2.4480    -1.8930    -2.8620 S.3   1 <1>  -0.1570 
  2 C       -3.4860    -1.4690    -1.4860 C.2   1 <1>   0.2420 
  3 C       -1.0790    -1.0240    -2.1190 C.2   1 <1>  -0.0490 
  4 N       -4.7200    -1.7260    -1.2110 N.2   1 <1>  -0.5650 
  5 N       -2.7940    -0.7380    -0.5920 N.pl3 1 <1>   0.3340 
  6 C       -1.4500    -0.4890    -0.9430 C.2   1 <1>  -0.1810 
  7 C       -4.8630    -1.1000    -0.0100 C.2   1 <1>   0.0460 
  8 C       -3.7050    -0.4990     0.3760 C.2   1 <1>  -0.3020 
  9 C       -6.1870    -1.1260     0.7550 C.3   1 <1>   0.4010 
 10 N       -6.5840    -2.5180     0.9610 N.am  1 <1>  -0.7300 
 11 C       -7.2950    -0.4240    -0.0260 C.3   1 <1>  -0.2400 
 12 C       -7.1290    -3.0430     2.0820 C.2   1 <1>   0.5690 
 13 O       -7.3770    -2.3610     3.0480 O.2   1 <1>  -0.5700 
 14 C       -7.4330    -4.5450     2.1210 C.3   1 <1>   0.1710 
 15 N       -7.6850    -5.1690     0.7900 N.3   1 <1>  -0.8100 
 16 C       -8.9730    -4.6980     0.2160 C.3   1 <1>   0.1100 
 17 C       -7.6930    -6.6480     0.8960 C.3   1 <1>   0.1100 
 18 C       -9.2740    -5.3470    -1.1470 C.3   1 <1>   0.2090 
 19 C       -7.9810    -7.3350    -0.4540 C.3   1 <1>   0.2090 
 20 N       -9.2680    -6.8370    -1.0250 N.pl3 1 <1>  -0.8380 
 21 C      -10.4230    -7.5890    -0.9930 C.ar  1 <1>   0.7200 
 22 N      -10.2810    -8.9150    -0.9790 N.ar  1 <1>  -0.6200 
 23 N      -11.5830    -6.9320    -0.9720 N.ar  1 <1>  -0.6200 
 24 C      -11.3840    -9.6210    -0.9560 C.ar  1 <1>   0.1600 
 25 C      -12.6690    -7.6640    -0.9460 C.ar  1 <1>   0.1600 
 26 C      -12.6250    -9.0350    -0.9380 C.ar  1 <1>  -0.1500 
 27 H       -0.1520    -1.0230    -2.6670 H     1 <1>   0.1500 
 28 H       -0.8520     0.0880    -0.2630 H     1 <1>   0.1500 
 29 H       -3.4770     0.0670     1.2590 H     1 <1>   0.1500 
 30 H       -6.0590    -0.6430     1.7090 H     1 <1>   0.0800 
 31 H       -6.3860    -3.1390     0.1690 H     1 <1>   0.3700 
 32 H       -7.4440    -0.9060    -0.9760 H     1 <1>   0.0800 
 33 H       -7.0200     0.5990    -0.2020 H     1 <1>   0.0800 
 34 H       -8.2100    -0.4440     0.5370 H     1 <1>   0.0800 
 35 H       -8.2800    -4.7060     2.7630 H     1 <1>   0.0800 
 36 H       -6.5830    -5.0220     2.5750 H     1 <1>   0.0800 
 37 H       -8.9430    -3.6300     0.0860 H     1 <1>   0.0800 
 38 H       -9.7820    -4.9290     0.8880 H     1 <1>   0.0800 
 39 H       -8.4420    -6.9600     1.6030 H     1 <1>   0.0800 
 40 H       -6.7340    -6.9820     1.2530 H     1 <1>   0.0800 
 41 H       -8.5170    -5.0500    -1.8520 H     1 <1>   0.0800 
 42 H      -10.2170    -4.9890    -1.5200 H     1 <1>   0.0800 
 43 H       -8.0010    -8.4000    -0.3100 H     1 <1>   0.0800 
 44 H       -7.1830    -7.1140    -1.1410 H     1 <1>   0.0800 
 45 H      -11.2950   -10.6940    -0.9500 H     1 <1>   0.1500 
 46 H      -13.6180    -7.1560    -0.9320 H     1 <1>   0.1500 
 47 H      -13.5220    -9.6240    -0.9180 H     1 <1>   0.1500 
@<TRIPOS>BOND
  1   1   2  1   
  2   1   3  1   
  3   2   4  2   
  4   2   5  1   
  5   3   6  2   
  6   3  27  1   
  7   4   7  1   
  8   5   6  1   
  9   5   8  1   
 10   6  28  1   
 11   7   8  2   
 12   7   9  1   
 13   8  29  1   
 14   9  10  1   
 15   9  11  1   
 16   9  30  1   
 17  10  12  am  
 18  10  31  1   
 19  11  32  1   
 20  11  33  1   
 21  11  34  1   
 22  12  13  2   
 23  12  14  1   
 24  14  15  1   
 25  14  35  1   
 26  14  36  1   
 27  15  16  1   
 28  15  17  1   
 29  16  18  1   
 30  16  37  1   
 31  16  38  1   
 32  17  19  1   
 33  17  39  1   
 34  17  40  1   
 35  18  20  1   
 36  18  41  1   
 37  18  42  1   
 38  19  20  1   
 39  19  43  1   
 40  19  44  1   
 41  20  21  1   
 42  21  22  ar  
 43  21  23  ar  
 44  22  24  ar  
 45  23  25  ar  
 46  24  26  ar  
 47  24  45  1   
 48  25  26  ar  
 49  25  46  1   
 50  26  47  1   
@<TRIPOS>SUBSTRUCTURE
  1 ****  15 GROUP 4 **** **** 0

# MOE 2024.06 (io_trps.svl 2023.06)
