@<TRIPOS>MOLECULE
NONAME
38 39 1 0 0 
SMALL
USER_CHARGES


@<TRIPOS>ATOM
  1 O       -0.6830    -1.0370     0.1740 O.2   1 <1>  -0.5700 
  2 C       -0.1300    -1.8890     0.8350 C.2   1 <1>   0.5440 
  3 N       -0.7640    -2.2630     1.9720 N.am  1 <1>  -0.8000 
  4 C        1.1380    -2.4460     0.4320 C.ar  1 <1>   0.0860 
  5 C        1.3990    -3.8270     0.4820 C.ar  1 <1>   0.4100 
  6 C        2.1470    -1.6200    -0.0370 C.ar  1 <1>  -0.1500 
  7 N        2.5610    -4.3700     0.1390 N.ar  1 <1>  -0.6200 
  8 N        0.4360    -4.7220     0.8860 N.pl3 1 <1>  -0.8690 
  9 C        3.3530    -2.1780    -0.4020 C.ar  1 <1>  -0.1430 
 10 C        3.5080    -3.5570    -0.2860 C.ar  1 <1>   0.1670 
 11 C        0.3850    -6.1040     0.3800 C.3   1 <1>   0.3900 
 12 C        4.4640    -1.2710    -0.9170 C.3   1 <1>  -0.0970 
 13 C        4.8150    -4.2320    -0.6600 C.3   1 <1>  -0.0970 
 14 C       -1.0720    -6.4600     0.1770 C.2   1 <1>  -0.1810 
 15 C       -1.8330    -7.3810     0.7900 C.2   1 <1>  -0.0400 
 16 C       -1.9530    -5.8680    -0.7290 C.2   1 <1>   0.1080 
 17 O       -3.0310    -7.3170     0.2770 O.3   1 <1>  -0.0190 
 18 C       -1.5500    -8.3890     1.8850 C.3   1 <1>  -0.0600 
 19 N       -3.1180    -6.4030    -0.6450 N.2   1 <1>  -0.4100 
 20 C       -1.6230    -4.7420    -1.6890 C.3   1 <1>  -0.0590 
 21 H       -1.6220    -1.7790     2.2430 H     1 <1>   0.3700 
 22 H       -0.3330    -2.8730     2.6710 H     1 <1>   0.3700 
 23 H        1.9730    -0.5600    -0.1080 H     1 <1>   0.1500 
 24 H       -0.5080    -4.3470     1.0270 H     1 <1>   0.4000 
 25 H        0.8450    -6.7620     1.0960 H     1 <1>   0.0800 
 26 H        0.9130    -6.1880    -0.5550 H     1 <1>   0.0800 
 27 H        4.1060    -0.2660    -1.0580 H     1 <1>   0.0800 
 28 H        4.8300    -1.6300    -1.8620 H     1 <1>   0.0800 
 29 H        5.2760    -1.2450    -0.2130 H     1 <1>   0.0800 
 30 H        4.8390    -5.2360    -0.2780 H     1 <1>   0.0800 
 31 H        5.6490    -3.6970    -0.2470 H     1 <1>   0.0800 
 32 H        4.9080    -4.2700    -1.7300 H     1 <1>   0.0800 
 33 H       -0.5310    -8.3170     2.2170 H     1 <1>   0.0800 
 34 H       -1.7280    -9.3830     1.5160 H     1 <1>   0.0800 
 35 H       -2.2020    -8.2070     2.7200 H     1 <1>   0.0800 
 36 H       -0.6370    -4.8720    -2.0960 H     1 <1>   0.0800 
 37 H       -1.6710    -3.8000    -1.1750 H     1 <1>   0.0800 
 38 H       -2.3320    -4.7320    -2.4970 H     1 <1>   0.0800 
@<TRIPOS>BOND
  1   1   2  2   
  2   2   3  am  
  3   2   4  1   
  4   3  21  1   
  5   3  22  1   
  6   4   5  ar  
  7   4   6  ar  
  8   5   7  ar  
  9   5   8  1   
 10   6   9  ar  
 11   6  23  1   
 12   7  10  ar  
 13   8  11  1   
 14   8  24  1   
 15   9  10  ar  
 16   9  12  1   
 17  10  13  1   
 18  11  14  1   
 19  11  25  1   
 20  11  26  1   
 21  12  27  1   
 22  12  28  1   
 23  12  29  1   
 24  13  30  1   
 25  13  31  1   
 26  13  32  1   
 27  14  15  2   
 28  14  16  1   
 29  15  17  1   
 30  15  18  1   
 31  16  19  2   
 32  16  20  1   
 33  17  19  1   
 34  18  33  1   
 35  18  34  1   
 36  18  35  1   
 37  20  36  1   
 38  20  37  1   
 39  20  38  1   
@<TRIPOS>SUBSTRUCTURE
  1 ****   8 GROUP 4 **** **** 0

# MOE 2024.06 (io_trps.svl 2023.06)
