@<TRIPOS>MOLECULE
NONAME
44 46 1 0 0 
SMALL
USER_CHARGES


@<TRIPOS>ATOM
  1 O        1.4390     1.4950    -1.3380 O.3   1 <1>  -0.0190 
  2 N        2.3860     0.6080    -1.3780 N.2   1 <1>  -0.4100 
  3 C        0.9300     1.6120    -0.1410 C.2   1 <1>  -0.0400 
  4 C        2.4720     0.1220    -0.1910 C.2   1 <1>   0.1080 
  5 C        1.5570     0.7370     0.6600 C.2   1 <1>  -0.1500 
  6 C       -0.1570     2.6360     0.1210 C.3   1 <1>   0.0200 
  7 C        3.4400    -0.9680     0.2130 C.3   1 <1>  -0.0590 
  8 C        0.2060     3.9820    -0.5410 C.3   1 <1>  -0.0800 
  9 C       -0.6430     5.1890    -0.1490 C.3   1 <1>   0.2000 
 10 C        1.6390     4.4410    -0.2740 C.3   1 <1>   0.3430 
 11 O       -0.8400     5.2180     1.2280 O.3   1 <1>  -0.6800 
 12 C        0.2210     6.3870    -0.5590 C.3   1 <1>   0.3430 
 13 N        1.6480     5.9070    -0.5600 N.4   1 <1>  -0.9590 
 14 C        2.5260     6.6890     0.3490 C.3   1 <1>   0.5240 
 15 C        2.5360     8.1190    -0.1340 C.2   1 <1>  -0.1810 
 16 C        3.2380     8.6010    -1.2320 C.2   1 <1>   0.1390 
 17 C        1.8930     9.2010     0.3620 C.2   1 <1>  -0.3020 
 18 N        3.0370     9.8650    -1.4170 N.2   1 <1>  -0.7070 
 19 N        2.2140    10.2480    -0.4250 N.pl3 1 <1>   0.3140 
 20 C        1.7680    11.6500    -0.2760 C.3   1 <1>   0.0960 
 21 C        2.5110    12.3500     0.8680 C.3   1 <1>  -0.2400 
 22 H        1.4210     0.5260     1.7050 H     1 <1>   0.1500 
 23 H       -1.0870     2.2760    -0.2860 H     1 <1>   0.0800 
 24 H       -0.2820     2.7360     1.1850 H     1 <1>   0.0800 
 25 H        4.0550    -0.6330     1.0280 H     1 <1>   0.0800 
 26 H        4.0730    -1.2250    -0.6180 H     1 <1>   0.0800 
 27 H        2.8960    -1.8440     0.5160 H     1 <1>   0.0800 
 28 H        0.1160     3.8490    -1.6060 H     1 <1>   0.0800 
 29 H       -1.6100     5.2020    -0.6240 H     1 <1>   0.0800 
 30 H        2.3420     3.9070    -0.8960 H     1 <1>   0.0800 
 31 H        1.8820     4.2630     0.7610 H     1 <1>   0.0800 
 32 H       -0.0180     5.1150     1.7420 H     1 <1>   0.4000 
 33 H        0.0680     7.2140     0.1160 H     1 <1>   0.0800 
 34 H       -0.0500     6.6970    -1.5540 H     1 <1>   0.0800 
 35 H        2.0110     6.0560    -1.5120 H     1 <1>   0.4500 
 36 H        2.1510     6.6500     1.3580 H     1 <1>   0.0800 
 37 H        3.5300     6.2960     0.3350 H     1 <1>   0.0800 
 38 H        3.8800     8.0200    -1.8740 H     1 <1>   0.1500 
 39 H        1.2420     9.3020     1.2130 H     1 <1>   0.1500 
 40 H        1.9580    12.1640    -1.2020 H     1 <1>   0.0800 
 41 H        0.7090    11.6570    -0.0940 H     1 <1>   0.0800 
 42 H        3.5700    12.3450     0.6780 H     1 <1>   0.0800 
 43 H        2.3140    11.8610     1.8050 H     1 <1>   0.0800 
 44 H        2.1850    13.3720     0.9420 H     1 <1>   0.0800 
@<TRIPOS>BOND
  1   1   2  1   
  2   1   3  1   
  3   2   4  2   
  4   3   5  2   
  5   3   6  1   
  6   4   5  1   
  7   4   7  1   
  8   5  22  1   
  9   6   8  1   
 10   6  23  1   
 11   6  24  1   
 12   7  25  1   
 13   7  26  1   
 14   7  27  1   
 15   8   9  1   
 16   8  10  1   
 17   8  28  1   
 18   9  11  1   
 19   9  12  1   
 20   9  29  1   
 21  10  13  1   
 22  10  30  1   
 23  10  31  1   
 24  11  32  1   
 25  12  13  1   
 26  12  33  1   
 27  12  34  1   
 28  13  14  1   
 29  13  35  1   
 30  14  15  1   
 31  14  36  1   
 32  14  37  1   
 33  15  16  1   
 34  15  17  2   
 35  16  18  2   
 36  16  38  1   
 37  17  19  1   
 38  17  39  1   
 39  18  19  1   
 40  19  20  1   
 41  20  21  1   
 42  20  40  1   
 43  20  41  1   
 44  21  42  1   
 45  21  43  1   
 46  21  44  1   
@<TRIPOS>SUBSTRUCTURE
  1 ****  13 GROUP 4 **** **** 0

# MOE 2024.06 (io_trps.svl 2023.06)
