@<TRIPOS>MOLECULE
NONAME
45 47 1 0 0 
SMALL
USER_CHARGES


@<TRIPOS>ATOM
  1 O        0.3810    -1.1900     1.4330 O.3   1 <1>  -0.5600 
  2 C        0.5000    -1.7780     0.1710 C.3   1 <1>   0.2000 
  3 C       -0.9120    -1.1610     1.9480 C.3   1 <1>   0.0400 
  4 C        1.8610    -1.4650    -0.4730 C.3   1 <1>   0.0000 
  5 C        0.4210    -3.3060     0.2570 C.3   1 <1>  -0.1600 
  6 C        3.0050    -1.5290     0.5690 C.3   1 <1>   0.2090 
  7 C        1.8640    -0.0760    -1.1500 C.3   1 <1>  -0.1600 
  8 C        1.9930    -2.6120    -1.4910 C.3   1 <1>  -0.1600 
  9 C        1.3930    -3.8420    -0.8030 C.3   1 <1>  -0.1600 
 10 N        4.3220    -1.1970    -0.0640 N.pl3 1 <1>  -0.8380 
 11 C        3.2460     0.2720    -1.7300 C.3   1 <1>  -0.1600 
 12 C        5.3870    -2.0750    -0.0930 C.ar  1 <1>   0.7200 
 13 C        4.3600     0.1550    -0.6830 C.3   1 <1>   0.2090 
 14 N        5.1380    -3.3490     0.2100 N.ar  1 <1>  -0.6200 
 15 N        6.5780    -1.5770    -0.4250 N.ar  1 <1>  -0.6200 
 16 C        6.1590    -4.1690     0.1750 C.ar  1 <1>   0.1600 
 17 C        7.5780    -2.4220    -0.4500 C.ar  1 <1>   0.1600 
 18 C        7.4280    -3.7560    -0.1560 C.ar  1 <1>  -0.1440 
 19 C        8.6010    -4.7230    -0.1920 C.3   1 <1>  -0.0170 
 20 C        9.2740    -4.8020     1.1800 C.3   1 <1>  -0.2400 
 21 H       -0.2840    -1.4050    -0.4660 H     1 <1>   0.0800 
 22 H       -0.8790    -0.6710     2.9050 H     1 <1>   0.0800 
 23 H       -1.2730    -2.1670     2.0710 H     1 <1>   0.0800 
 24 H       -1.5490    -0.6070     1.2800 H     1 <1>   0.0800 
 25 H        0.7340    -3.6420     1.2310 H     1 <1>   0.0800 
 26 H       -0.5820    -3.6420     0.0620 H     1 <1>   0.0800 
 27 H        3.0270    -2.4970     1.0370 H     1 <1>   0.0800 
 28 H        2.8200    -0.8100     1.3480 H     1 <1>   0.0800 
 29 H        1.1250    -0.0390    -1.9310 H     1 <1>   0.0800 
 30 H        1.6010     0.6650    -0.4140 H     1 <1>   0.0800 
 31 H        1.4140    -2.3870    -2.3690 H     1 <1>   0.0800 
 32 H        3.0130    -2.7860    -1.7900 H     1 <1>   0.0800 
 33 H        2.1780    -4.4010    -0.3220 H     1 <1>   0.0800 
 34 H        0.8980    -4.4800    -1.5140 H     1 <1>   0.0800 
 35 H        3.2330     1.2740    -2.1160 H     1 <1>   0.0800 
 36 H        3.4780    -0.3890    -2.5470 H     1 <1>   0.0800 
 37 H        4.2180     0.8930     0.0880 H     1 <1>   0.0800 
 38 H        5.3080     0.3470    -1.1550 H     1 <1>   0.0800 
 39 H        5.9760    -5.2010     0.4190 H     1 <1>   0.1500 
 40 H        8.5480    -2.0360    -0.7130 H     1 <1>   0.1500 
 41 H        8.2560    -5.7010    -0.4820 H     1 <1>   0.0800 
 42 H        9.3170    -4.3990    -0.9270 H     1 <1>   0.0800 
 43 H        8.5730    -5.1430     1.9210 H     1 <1>   0.0800 
 44 H        9.6400    -3.8340     1.4730 H     1 <1>   0.0800 
 45 H       10.1020    -5.4880     1.1470 H     1 <1>   0.0800 
@<TRIPOS>BOND
  1   1   2  1   
  2   1   3  1   
  3   2   4  1   
  4   2   5  1   
  5   2  21  1   
  6   3  22  1   
  7   3  23  1   
  8   3  24  1   
  9   4   6  1   
 10   4   7  1   
 11   4   8  1   
 12   5   9  1   
 13   5  25  1   
 14   5  26  1   
 15   6  10  1   
 16   6  27  1   
 17   6  28  1   
 18   7  11  1   
 19   7  29  1   
 20   7  30  1   
 21   8   9  1   
 22   8  31  1   
 23   8  32  1   
 24   9  33  1   
 25   9  34  1   
 26  10  12  1   
 27  10  13  1   
 28  11  13  1   
 29  11  35  1   
 30  11  36  1   
 31  12  14  ar  
 32  12  15  ar  
 33  13  37  1   
 34  13  38  1   
 35  14  16  ar  
 36  15  17  ar  
 37  16  18  ar  
 38  16  39  1   
 39  17  18  ar  
 40  17  40  1   
 41  18  19  1   
 42  19  20  1   
 43  19  41  1   
 44  19  42  1   
 45  20  43  1   
 46  20  44  1   
 47  20  45  1   
@<TRIPOS>SUBSTRUCTURE
  1 ****  10 GROUP 4 **** **** 0

# MOE 2024.06 (io_trps.svl 2023.06)
