@<TRIPOS>MOLECULE
NONAME
24 24 1 0 0 
SMALL
USER_CHARGES


@<TRIPOS>ATOM
  1 O       -0.2100    -0.1420    -0.1240 O.2   1 <1>  -0.5700 
  2 C       -1.2860    -0.6950    -0.0440 C.2   1 <1>   0.6420 
  3 C       -1.3400    -2.1270     0.1320 C.2   1 <1>  -0.0860 
  4 C       -2.4990     0.0890    -0.1270 C.2   1 <1>  -0.1360 
  5 C       -2.3910    -2.9830     0.2580 C.2   1 <1>  -0.0100 
  6 C       -0.2350    -2.9800     0.2150 C.2   1 <1>  -0.1500 
  7 C       -2.6000     1.4260    -0.2780 C.2   1 <1>  -0.2880 
  8 O       -2.0600    -4.2520     0.4060 O.3   1 <1>  -0.2800 
  9 C       -0.7350    -4.2180     0.3760 C.2   1 <1>  -0.0100 
 10 C       -3.8590     2.2790    -0.3690 C.3   1 <1>   0.0580 
 11 C       -3.8910     3.2470     0.8140 C.3   1 <1>  -0.2400 
 12 C       -5.1480     1.4510    -0.4030 C.3   1 <1>  -0.2400 
 13 H       -3.3870    -0.5030    -0.0550 H     1 <1>   0.1500 
 14 H       -3.4410    -2.7520     0.2510 H     1 <1>   0.1500 
 15 H        0.7930    -2.6620     0.1550 H     1 <1>   0.1500 
 16 H       -1.7100     2.0310    -0.3500 H     1 <1>   0.1500 
 17 H       -0.2070    -5.1500     0.4790 H     1 <1>   0.1500 
 18 H       -3.8070     2.8530    -1.2800 H     1 <1>   0.0800 
 19 H       -3.9270     2.7040     1.7420 H     1 <1>   0.0800 
 20 H       -4.7540     3.8870     0.7530 H     1 <1>   0.0800 
 21 H       -3.0100     3.8650     0.8130 H     1 <1>   0.0800 
 22 H       -5.2620     0.8860     0.5050 H     1 <1>   0.0800 
 23 H       -5.1340     0.7760    -1.2400 H     1 <1>   0.0800 
 24 H       -6.0000     2.0990    -0.5090 H     1 <1>   0.0800 
@<TRIPOS>BOND
  1   1   2  2   
  2   2   3  1   
  3   2   4  1   
  4   3   5  2   
  5   3   6  1   
  6   4   7  2   
  7   4  13  1   
  8   5   8  1   
  9   5  14  1   
 10   6   9  2   
 11   6  15  1   
 12   7  10  1   
 13   7  16  1   
 14   8   9  1   
 15   9  17  1   
 16  10  11  1   
 17  10  12  1   
 18  10  18  1   
 19  11  19  1   
 20  11  20  1   
 21  11  21  1   
 22  12  22  1   
 23  12  23  1   
 24  12  24  1   
@<TRIPOS>SUBSTRUCTURE
  1 ****   4 GROUP 4 **** **** 0

# MOE 2024.06 (io_trps.svl 2023.06)
