@<TRIPOS>MOLECULE
NONAME
50 53 1 0 0 
SMALL
USER_CHARGES


@<TRIPOS>ATOM
  1 S       -0.9350     1.8460     1.4550 S.3   1 <1>  -0.0800 
  2 C       -1.5020     2.1080    -0.1890 C.2   1 <1>  -0.1400 
  3 C        0.7190     1.6560     0.9010 C.2   1 <1>  -0.1100 
  4 C       -0.4740     2.0480    -1.0550 C.2   1 <1>  -0.1500 
  5 C       -2.9840     2.3600    -0.3910 C.3   1 <1>   0.0200 
  6 C        0.7910     1.7900    -0.4360 C.2   1 <1>  -0.1500 
  7 C       -3.8050     1.0870    -0.1510 C.3   1 <1>  -0.1600 
  8 C       -5.3130     1.3370    -0.3450 C.3   1 <1>  -0.0990 
  9 C       -6.1960     0.1080    -0.1400 C.2   1 <1>   0.5690 
 10 O       -5.6650    -0.9540     0.0870 O.2   1 <1>  -0.5700 
 11 N       -7.5610     0.2170    -0.2190 N.am  1 <1>  -0.6600 
 12 C       -8.3190     1.4780    -0.4910 C.3   1 <1>   0.1400 
 13 C       -8.4070    -1.0050    -0.0500 C.3   1 <1>   0.1400 
 14 C       -9.3140     1.7900     0.6510 C.3   1 <1>   0.1430 
 15 C       -9.8880    -0.6660     0.1950 C.3   1 <1>  -0.1600 
 16 C      -10.2870     2.8310     0.1230 C.ar  1 <1>   0.1670 
 17 C      -10.0270     0.5120     1.1710 C.3   1 <1>  -0.1600 
 18 C       -8.6240     2.5550     1.8130 C.3   1 <1>  -0.1600 
 19 N      -11.2640     2.6010    -0.7270 N.ar  1 <1>  -0.6200 
 20 C      -10.0180     4.0710     0.6210 C.ar  1 <1>  -0.1430 
 21 C       -8.8340     4.0570     1.5540 C.3   1 <1>  -0.0170 
 22 C      -11.9760     3.6720    -1.0470 C.ar  1 <1>   0.4770 
 23 C      -10.8200     5.1110     0.2200 C.ar  1 <1>   0.1600 
 24 N      -11.8130     4.9190    -0.6230 N.ar  1 <1>  -0.6200 
 25 C      -13.1160     3.4500    -2.0110 C.3   1 <1>  -0.0970 
 26 H        1.4700     1.4620     1.6460 H     1 <1>   0.1500 
 27 H       -0.5460     2.1750    -2.1210 H     1 <1>   0.1500 
 28 H       -3.1420     2.7030    -1.3980 H     1 <1>   0.0800 
 29 H       -3.2990     3.1380     0.2820 H     1 <1>   0.0800 
 30 H        1.6890     1.7170    -1.0240 H     1 <1>   0.1500 
 31 H       -3.6320     0.7280     0.8500 H     1 <1>   0.0800 
 32 H       -3.4770     0.3210    -0.8320 H     1 <1>   0.0800 
 33 H       -5.4810     1.6990    -1.3420 H     1 <1>   0.0800 
 34 H       -5.6240     2.0930     0.3510 H     1 <1>   0.0800 
 35 H       -8.8700     1.3420    -1.4060 H     1 <1>   0.0800 
 36 H       -7.6650     2.3160    -0.6410 H     1 <1>   0.0800 
 37 H       -8.0330    -1.5640     0.7920 H     1 <1>   0.0800 
 38 H       -8.3130    -1.6260    -0.9240 H     1 <1>   0.0800 
 39 H      -10.3870    -1.5320     0.5910 H     1 <1>   0.0800 
 40 H      -10.3630    -0.4220    -0.7400 H     1 <1>   0.0800 
 41 H      -11.0680     0.7170     1.3540 H     1 <1>   0.0800 
 42 H       -9.5900     0.2050     2.1050 H     1 <1>   0.0800 
 43 H       -7.5840     2.2990     1.9100 H     1 <1>   0.0800 
 44 H       -9.1160     2.3180     2.7400 H     1 <1>   0.0800 
 45 H       -7.9780     4.4850     1.0610 H     1 <1>   0.0800 
 46 H       -9.0380     4.5910     2.4660 H     1 <1>   0.0800 
 47 H      -10.6490     6.1080     0.5890 H     1 <1>   0.1500 
 48 H      -12.9600     2.5470    -2.5720 H     1 <1>   0.0800 
 49 H      -13.1860     4.2770    -2.6920 H     1 <1>   0.0800 
 50 H      -14.0340     3.3680    -1.4600 H     1 <1>   0.0800 
@<TRIPOS>BOND
  1   1   2  1   
  2   1   3  1   
  3   2   4  2   
  4   2   5  1   
  5   3   6  2   
  6   3  26  1   
  7   4   6  1   
  8   4  27  1   
  9   5   7  1   
 10   5  28  1   
 11   5  29  1   
 12   6  30  1   
 13   7   8  1   
 14   7  31  1   
 15   7  32  1   
 16   8   9  1   
 17   8  33  1   
 18   8  34  1   
 19   9  10  2   
 20   9  11  am  
 21  11  12  1   
 22  11  13  1   
 23  12  14  1   
 24  12  35  1   
 25  12  36  1   
 26  13  15  1   
 27  13  37  1   
 28  13  38  1   
 29  14  16  1   
 30  14  17  1   
 31  14  18  1   
 32  15  17  1   
 33  15  39  1   
 34  15  40  1   
 35  16  19  ar  
 36  16  20  ar  
 37  17  41  1   
 38  17  42  1   
 39  18  21  1   
 40  18  43  1   
 41  18  44  1   
 42  19  22  ar  
 43  20  21  1   
 44  20  23  ar  
 45  21  45  1   
 46  21  46  1   
 47  22  24  ar  
 48  22  25  1   
 49  23  24  ar  
 50  23  47  1   
 51  25  48  1   
 52  25  49  1   
 53  25  50  1   
@<TRIPOS>SUBSTRUCTURE
  1 ****  12 GROUP 4 **** **** 0

# MOE 2024.06 (io_trps.svl 2023.06)
