@<TRIPOS>MOLECULE
NONAME
39 41 1 0 0 
SMALL
USER_CHARGES


@<TRIPOS>ATOM
  1 CL       1.2120     0.3940    -1.4790 Cl    1 <1>  -0.1770 
  2 C        0.5230     1.7350    -0.5910 C.ar  1 <1>   0.1770 
  3 C        1.2770     2.4750     0.3160 C.ar  1 <1>  -0.1440 
  4 C       -0.8070     2.0280    -0.8320 C.ar  1 <1>  -0.1500 
  5 C        0.6550     3.5280     0.9760 C.ar  1 <1>  -0.1500 
  6 C        2.7470     2.1900     0.6130 C.3   1 <1>   0.3640 
  7 C       -1.4100     3.0790    -0.1650 C.ar  1 <1>  -0.1500 
  8 C       -0.6770     3.8270     0.7380 C.ar  1 <1>  -0.1500 
  9 N        2.8900     0.8180     1.1530 N.am  1 <1>  -0.7300 
 10 C        3.6700     2.4620    -0.6050 C.3   1 <1>   0.2610 
 11 C        3.8170    -0.0620     0.7140 C.2   1 <1>   0.5690 
 12 O        4.8970     1.7460    -0.5190 O.3   1 <1>  -0.5600 
 13 C        3.8840     3.9760    -0.7410 C.2   1 <1>   0.5690 
 14 O        3.9190    -1.1510     1.2180 O.2   1 <1>  -0.5700 
 15 C        4.7370     0.3460    -0.4390 C.3   1 <1>   0.1810 
 16 O        3.2190     4.5390    -1.5780 O.2   1 <1>  -0.5700 
 17 N        4.7550     4.6880     0.0550 N.am  1 <1>  -0.6600 
 18 C        5.0930     6.1230    -0.2800 C.3   1 <1>   0.2010 
 19 C        5.6510     4.1190     1.1120 C.3   1 <1>   0.1400 
 20 C        6.6020     6.4020    -0.3340 C.2   1 <1>   0.5690 
 21 C        7.1140     4.1350     0.6380 C.3   1 <1>   0.1400 
 22 O        6.9990     7.4530    -0.7690 O.2   1 <1>  -0.5700 
 23 N        7.4880     5.4780     0.1190 N.am  1 <1>  -0.7300 
 24 H       -1.3620     1.4380    -1.5390 H     1 <1>   0.1500 
 25 H        1.1990     4.1330     1.6820 H     1 <1>   0.1500 
 26 H        3.0550     2.8590     1.3970 H     1 <1>   0.0800 
 27 H       -2.4440     3.3140    -0.3490 H     1 <1>   0.1500 
 28 H       -1.1440     4.6480     1.2560 H     1 <1>   0.1500 
 29 H        2.2300     0.5130     1.8700 H     1 <1>   0.3700 
 30 H        3.1850     2.1350    -1.5050 H     1 <1>   0.0800 
 31 H        4.3300    -0.0070    -1.3690 H     1 <1>   0.0800 
 32 H        5.7080    -0.0900    -0.2940 H     1 <1>   0.0800 
 33 H        4.6780     6.3960    -1.2340 H     1 <1>   0.0800 
 34 H        4.6590     6.7670     0.4610 H     1 <1>   0.0800 
 35 H        5.5660     4.7200     2.0010 H     1 <1>   0.0800 
 36 H        5.3700     3.1180     1.3790 H     1 <1>   0.0800 
 37 H        7.2440     3.4040    -0.1420 H     1 <1>   0.0800 
 38 H        7.7600     3.8740     1.4580 H     1 <1>   0.0800 
 39 H        8.4810     5.6930     0.0000 H     1 <1>   0.3700 
@<TRIPOS>BOND
  1   1   2  1   
  2   2   3  ar  
  3   2   4  ar  
  4   3   5  ar  
  5   3   6  1   
  6   4   7  ar  
  7   4  24  1   
  8   5   8  ar  
  9   5  25  1   
 10   6   9  1   
 11   6  10  1   
 12   6  26  1   
 13   7   8  ar  
 14   7  27  1   
 15   8  28  1   
 16   9  11  am  
 17   9  29  1   
 18  10  12  1   
 19  10  13  1   
 20  10  30  1   
 21  11  14  2   
 22  11  15  1   
 23  12  15  1   
 24  13  16  2   
 25  13  17  am  
 26  15  31  1   
 27  15  32  1   
 28  17  18  1   
 29  17  19  1   
 30  18  20  1   
 31  18  33  1   
 32  18  34  1   
 33  19  21  1   
 34  19  35  1   
 35  19  36  1   
 36  20  22  2   
 37  20  23  am  
 38  21  23  1   
 39  21  37  1   
 40  21  38  1   
 41  23  39  1   
@<TRIPOS>SUBSTRUCTURE
  1 ****  10 GROUP 4 **** **** 0

# MOE 2024.06 (io_trps.svl 2023.06)
