@<TRIPOS>MOLECULE
NONAME
49 51 1 0 0 
SMALL
USER_CHARGES


@<TRIPOS>ATOM
  1 O       -0.1910     0.5870     1.0240 O.2   1 <1>  -0.5700 
  2 C        0.0470     1.7510     0.7580 C.2   1 <1>   0.6900 
  3 N       -0.9510     2.6930     0.8080 N.am  1 <1>  -0.6600 
  4 N        1.3030     2.1600     0.4190 N.am  1 <1>  -0.5470 
  5 C       -2.3010     2.3490     1.3410 C.3   1 <1>   0.1400 
  6 C       -0.8540     4.0270     0.1400 C.3   1 <1>   0.1400 
  7 C        2.5320     1.5110     0.2030 C.ar  1 <1>   0.1170 
  8 C       -3.3400     2.2840     0.1990 C.3   1 <1>   0.0000 
  9 C       -2.2310     4.5410    -0.3180 C.3   1 <1>  -0.1600 
 10 C        3.6630     2.3080    -0.0110 C.ar  1 <1>   0.0820 
 11 C        2.6740     0.1280     0.1850 C.ar  1 <1>  -0.1500 
 12 C       -4.7610     2.3250     0.7910 C.3   1 <1>   0.2000 
 13 C       -3.0850     3.3910    -0.8750 C.3   1 <1>  -0.1600 
 14 C       -3.3550     0.9070    -0.4860 C.3   1 <1>  -0.1600 
 15 O        3.4800     3.6650     0.0050 O.3   1 <1>  -0.3630 
 16 C        4.9030     1.7160    -0.2290 C.ar  1 <1>  -0.1500 
 17 C        3.9100    -0.4560    -0.0330 C.ar  1 <1>  -0.1500 
 18 O       -5.1910     3.6130     1.0550 O.3   1 <1>  -0.6800 
 19 C       -5.6740     1.6490    -0.2340 C.3   1 <1>  -0.1600 
 20 C       -4.7530     0.7780    -1.1000 C.3   1 <1>  -0.1600 
 21 C        4.5640     4.5510    -0.1480 C.3   1 <1>   0.1200 
 22 C        5.0240     0.3370    -0.2390 C.ar  1 <1>  -0.1500 
 23 C        4.0240     5.9740    -0.0540 C.3   1 <1>  -0.2400 
 24 H        1.3980     3.1700     0.3830 H     1 <1>   0.3700 
 25 H       -2.2750     1.4190     1.8820 H     1 <1>   0.0800 
 26 H       -2.5890     3.1130     2.0430 H     1 <1>   0.0800 
 27 H       -0.4070     4.7350     0.8170 H     1 <1>   0.0800 
 28 H       -0.2220     3.9370    -0.7270 H     1 <1>   0.0800 
 29 H       -2.7350     5.0030     0.5140 H     1 <1>   0.0800 
 30 H       -2.0920     5.2960    -1.0710 H     1 <1>   0.0800 
 31 H        1.8210    -0.5050     0.3400 H     1 <1>   0.1500 
 32 H       -4.7930     1.7700     1.7140 H     1 <1>   0.0800 
 33 H       -2.5400     2.9710    -1.7030 H     1 <1>   0.0800 
 34 H       -4.0070     3.7700    -1.2780 H     1 <1>   0.0800 
 35 H       -2.5700     0.7900    -1.2140 H     1 <1>   0.0800 
 36 H       -3.2300     0.1350     0.2540 H     1 <1>   0.0800 
 37 H        5.7860     2.3020    -0.3940 H     1 <1>   0.1500 
 38 H        3.9990    -1.5280    -0.0410 H     1 <1>   0.1500 
 39 H       -5.1160     4.1490     0.2450 H     1 <1>   0.4000 
 40 H       -6.4050     1.0440     0.2720 H     1 <1>   0.0800 
 41 H       -6.1760     2.3740    -0.8500 H     1 <1>   0.0800 
 42 H       -5.0750    -0.2490    -1.1170 H     1 <1>   0.0800 
 43 H       -4.7420     1.1560    -2.1080 H     1 <1>   0.0800 
 44 H        5.2750     4.3600     0.6380 H     1 <1>   0.0800 
 45 H        5.0130     4.3780    -1.1110 H     1 <1>   0.0800 
 46 H        5.9840    -0.1200    -0.4080 H     1 <1>   0.1500 
 47 H        3.5630     6.1320     0.9050 H     1 <1>   0.0800 
 48 H        3.3050     6.1500    -0.8340 H     1 <1>   0.0800 
 49 H        4.8300     6.6760    -0.1660 H     1 <1>   0.0800 
@<TRIPOS>BOND
  1   1   2  2   
  2   2   3  am  
  3   2   4  am  
  4   3   5  1   
  5   3   6  1   
  6   4   7  1   
  7   4  24  1   
  8   5   8  1   
  9   5  25  1   
 10   5  26  1   
 11   6   9  1   
 12   6  27  1   
 13   6  28  1   
 14   7  10  ar  
 15   7  11  ar  
 16   8  12  1   
 17   8  13  1   
 18   8  14  1   
 19   9  13  1   
 20   9  29  1   
 21   9  30  1   
 22  10  15  1   
 23  10  16  ar  
 24  11  17  ar  
 25  11  31  1   
 26  12  18  1   
 27  12  19  1   
 28  12  32  1   
 29  13  33  1   
 30  13  34  1   
 31  14  20  1   
 32  14  35  1   
 33  14  36  1   
 34  15  21  1   
 35  16  22  ar  
 36  16  37  1   
 37  17  22  ar  
 38  17  38  1   
 39  18  39  1   
 40  19  20  1   
 41  19  40  1   
 42  19  41  1   
 43  20  42  1   
 44  20  43  1   
 45  21  23  1   
 46  21  44  1   
 47  21  45  1   
 48  22  46  1   
 49  23  47  1   
 50  23  48  1   
 51  23  49  1   
@<TRIPOS>SUBSTRUCTURE
  1 ****   2 GROUP 4 **** **** 0

# MOE 2024.06 (io_trps.svl 2023.06)
