@<TRIPOS>MOLECULE
NONAME
40 41 1 0 0 
SMALL
USER_CHARGES


@<TRIPOS>ATOM
  1 O       -0.7340     0.5670     0.5310 O.co2 1 <1>  -0.9000 
  2 C       -1.5120     1.3930     1.0350 C.2   1 <1>   0.9060 
  3 O       -2.2710     1.0770     1.9630 O.co2 1 <1>  -0.9000 
  4 C       -1.4560     2.8640     0.5930 C.3   1 <1>   0.0940 
  5 O       -2.3320     3.1960    -0.4870 O.3   1 <1>  -0.5600 
  6 C       -0.0050     3.2300     0.2340 C.3   1 <1>   0.2090 
  7 C       -2.3100     4.5470    -0.8340 C.3   1 <1>   0.1200 
  8 N        0.1030     4.6610    -0.2190 N.pl3 1 <1>  -0.8380 
  9 C       -0.8990     4.9690    -1.2800 C.3   1 <1>   0.2090 
 10 C        1.2400     5.3760    -0.0500 C.ar  1 <1>   0.4100 
 11 N        2.3620     4.7380    -0.3070 N.ar  1 <1>  -0.6200 
 12 C        1.2220     6.7330     0.3680 C.ar  1 <1>  -0.1430 
 13 C        3.5000     5.4000    -0.2250 C.ar  1 <1>   0.7710 
 14 C        2.4110     7.3990     0.4080 C.ar  1 <1>   0.2170 
 15 C       -0.1040     7.3810     0.7870 C.3   1 <1>  -0.0960 
 16 N        3.5280     6.7000     0.0990 N.ar  1 <1>  -0.1790 
 17 N        4.6730     4.7540    -0.4830 N.pl3 1 <1>  -0.8380 
 18 C        2.6060     8.8650     0.7790 C.3   1 <1>  -0.0970 
 19 C        6.0630     5.2710    -0.2780 C.3   1 <1>   0.1290 
 20 C        4.6630     3.3250    -0.9490 C.3   1 <1>   0.1290 
 21 H       -1.7600     3.4430     1.4430 H     1 <1>   0.0800 
 22 H        0.3370     2.5770    -0.5510 H     1 <1>   0.0800 
 23 H        0.6230     3.0640     1.0920 H     1 <1>   0.0800 
 24 H       -2.6300     5.1240     0.0150 H     1 <1>   0.0800 
 25 H       -3.0110     4.6860    -1.6360 H     1 <1>   0.0800 
 26 H       -0.8870     6.0160    -1.5170 H     1 <1>   0.0800 
 27 H       -0.6430     4.4220    -2.1710 H     1 <1>   0.0800 
 28 H       -0.7660     6.6440     1.2090 H     1 <1>   0.0800 
 29 H       -0.5870     7.8280    -0.0620 H     1 <1>   0.0800 
 30 H        0.0400     8.1300     1.5430 H     1 <1>   0.0800 
 31 H        4.4460     7.1200     0.0940 H     1 <1>   0.4570 
 32 H        1.6820     9.4120     0.7430 H     1 <1>   0.0800 
 33 H        3.2820     9.3400     0.0900 H     1 <1>   0.0800 
 34 H        3.0090     8.9450     1.7730 H     1 <1>   0.0800 
 35 H        6.0800     6.1500     0.3410 H     1 <1>   0.0800 
 36 H        6.5110     5.4990    -1.2320 H     1 <1>   0.0800 
 37 H        6.6620     4.5170     0.2070 H     1 <1>   0.0800 
 38 H        3.7740     3.1040    -1.5170 H     1 <1>   0.0800 
 39 H        4.6970     2.6640    -0.0990 H     1 <1>   0.0800 
 40 H        5.5120     3.1270    -1.5800 H     1 <1>   0.0800 
@<TRIPOS>BOND
  1   1   2  ar  
  2   2   3  ar  
  3   2   4  1   
  4   4   5  1   
  5   4   6  1   
  6   4  21  1   
  7   5   7  1   
  8   6   8  1   
  9   6  22  1   
 10   6  23  1   
 11   7   9  1   
 12   7  24  1   
 13   7  25  1   
 14   8   9  1   
 15   8  10  1   
 16   9  26  1   
 17   9  27  1   
 18  10  11  ar  
 19  10  12  ar  
 20  11  13  ar  
 21  12  14  ar  
 22  12  15  1   
 23  13  16  ar  
 24  13  17  1   
 25  14  16  ar  
 26  14  18  1   
 27  15  28  1   
 28  15  29  1   
 29  15  30  1   
 30  16  31  1   
 31  17  19  1   
 32  17  20  1   
 33  18  32  1   
 34  18  33  1   
 35  18  34  1   
 36  19  35  1   
 37  19  36  1   
 38  19  37  1   
 39  20  38  1   
 40  20  39  1   
 41  20  40  1   
@<TRIPOS>SUBSTRUCTURE
  1 ****  10 GROUP 4 **** **** 0

# MOE 2024.06 (io_trps.svl 2023.06)
