@<TRIPOS>MOLECULE
NONAME
51 54 1 0 0 
SMALL
USER_CHARGES


@<TRIPOS>ATOM
  1 S        0.3600    -0.0770     0.0020 S.3   1 <1>  -0.0800 
  2 C       -0.4090     1.4520     0.4250 C.2   1 <1>   0.3250 
  3 C       -1.0550    -0.9460     0.5040 C.2   1 <1>  -0.1400 
  4 N       -1.5970     1.2740     0.8890 N.2   1 <1>  -0.5650 
  5 C        0.3040     2.6980     0.2270 C.ar  1 <1>   0.0530 
  6 C       -1.9550    -0.0530     0.9410 C.2   1 <1>   0.0770 
  7 C       -1.0120    -2.4520     0.3670 C.3   1 <1>   0.5230 
  8 C       -0.3100     3.9090     0.5490 C.ar  1 <1>  -0.1500 
  9 C        1.6060     2.7670    -0.2800 C.ar  1 <1>  -0.1500 
 10 N       -2.3890    -3.0090     0.4060 N.4   1 <1>  -0.9590 
 11 C        0.3230     5.1260     0.3790 C.ar  1 <1>   0.0830 
 12 C        2.2520     3.9770    -0.4560 C.ar  1 <1>  -0.1500 
 13 C       -3.2790    -2.5840    -0.7110 C.3   1 <1>   0.3430 
 14 C       -2.4570    -4.4980     0.4360 C.3   1 <1>   0.3430 
 15 O       -0.3780     6.2340     0.7270 O.3   1 <1>  -0.3630 
 16 C        1.6170     5.1610    -0.1290 C.ar  1 <1>  -0.1500 
 17 C       -4.4400    -3.5730    -0.6240 C.3   1 <1>   0.2000 
 18 C       -3.7180    -4.8970    -0.3500 C.3   1 <1>  -0.0800 
 19 C        0.1730     7.5250     0.5940 C.3   1 <1>   0.0400 
 20 O       -5.2040    -3.2190     0.4850 O.3   1 <1>  -0.6800 
 21 C       -4.5510    -5.9930     0.3460 C.3   1 <1>   0.0200 
 22 C       -3.7410    -7.2660     0.4940 C.2   1 <1>  -0.0400 
 23 O       -2.6860    -7.2790     1.2650 O.3   1 <1>  -0.0190 
 24 C       -3.8730    -8.4890    -0.0400 C.2   1 <1>  -0.1500 
 25 N       -2.0950    -8.4340     1.2610 N.2   1 <1>  -0.4100 
 26 C       -2.7920    -9.1890     0.4890 C.2   1 <1>   0.1080 
 27 C       -2.4710   -10.6400     0.2020 C.3   1 <1>  -0.0590 
 28 H       -2.9360    -0.2720     1.3310 H     1 <1>   0.1500 
 29 H       -0.4200    -2.8630     1.1690 H     1 <1>   0.0800 
 30 H       -0.5420    -2.7110    -0.5680 H     1 <1>   0.0800 
 31 H       -1.3100     3.9070     0.9440 H     1 <1>   0.1500 
 32 H        2.1360     1.8710    -0.5460 H     1 <1>   0.1500 
 33 H       -2.8600    -2.6830     1.2630 H     1 <1>   0.4500 
 34 H        3.2540     3.9990    -0.8490 H     1 <1>   0.1500 
 35 H       -3.6210    -1.5670    -0.5990 H     1 <1>   0.0800 
 36 H       -2.7730    -2.6950    -1.6560 H     1 <1>   0.0800 
 37 H       -1.5870    -4.9410    -0.0240 H     1 <1>   0.0800 
 38 H       -2.5220    -4.8430     1.4570 H     1 <1>   0.0800 
 39 H        2.1390     6.0870    -0.2740 H     1 <1>   0.1500 
 40 H       -5.0620    -3.5760    -1.5050 H     1 <1>   0.0800 
 41 H       -3.3860    -5.2920    -1.2950 H     1 <1>   0.0800 
 42 H       -0.5600     8.2360     0.9290 H     1 <1>   0.0800 
 43 H        0.4060     7.7000    -0.4410 H     1 <1>   0.0800 
 44 H        1.0550     7.5920     1.2070 H     1 <1>   0.0800 
 45 H       -6.1010    -3.6140     0.4450 H     1 <1>   0.4000 
 46 H       -5.4300    -6.2060    -0.2380 H     1 <1>   0.0800 
 47 H       -4.8690    -5.6740     1.3240 H     1 <1>   0.0800 
 48 H       -4.6130    -8.8790    -0.7160 H     1 <1>   0.1500 
 49 H       -3.2920   -11.2620     0.5090 H     1 <1>   0.0800 
 50 H       -1.5900   -10.9370     0.7420 H     1 <1>   0.0800 
 51 H       -2.2970   -10.7760    -0.8500 H     1 <1>   0.0800 
@<TRIPOS>BOND
  1   1   2  1   
  2   1   3  1   
  3   2   4  2   
  4   2   5  1   
  5   3   6  2   
  6   3   7  1   
  7   4   6  1   
  8   5   8  ar  
  9   5   9  ar  
 10   6  28  1   
 11   7  10  1   
 12   7  29  1   
 13   7  30  1   
 14   8  11  ar  
 15   8  31  1   
 16   9  12  ar  
 17   9  32  1   
 18  10  13  1   
 19  10  14  1   
 20  10  33  1   
 21  11  15  1   
 22  11  16  ar  
 23  12  16  ar  
 24  12  34  1   
 25  13  17  1   
 26  13  35  1   
 27  13  36  1   
 28  14  18  1   
 29  14  37  1   
 30  14  38  1   
 31  15  19  1   
 32  16  39  1   
 33  17  18  1   
 34  17  20  1   
 35  17  40  1   
 36  18  21  1   
 37  18  41  1   
 38  19  42  1   
 39  19  43  1   
 40  19  44  1   
 41  20  45  1   
 42  21  22  1   
 43  21  46  1   
 44  21  47  1   
 45  22  23  1   
 46  22  24  2   
 47  23  25  1   
 48  24  26  1   
 49  24  48  1   
 50  25  26  2   
 51  26  27  1   
 52  27  49  1   
 53  27  50  1   
 54  27  51  1   
@<TRIPOS>SUBSTRUCTURE
  1 ****   3 GROUP 4 **** **** 0

# MOE 2024.06 (io_trps.svl 2023.06)
