@<TRIPOS>MOLECULE
NONAME
41 42 1 0 0 
SMALL
USER_CHARGES


@<TRIPOS>ATOM
  1 S       -0.2440     0.3540     0.9760 S.3   1 <1>  -0.0800 
  2 C       -0.9070     1.3910    -0.2380 C.2   1 <1>   0.1980 
  3 C       -0.8040    -0.9730     0.0220 C.2   1 <1>   0.1980 
  4 N       -1.4530     0.7530    -1.1920 N.2   1 <1>  -0.3380 
  5 C       -0.7720     2.8870    -0.0610 C.3   1 <1>   0.0200 
  6 N       -1.3930    -0.6070    -1.0430 N.2   1 <1>  -0.3380 
  7 C       -0.5460    -2.3740     0.5290 C.3   1 <1>  -0.0600 
  8 C        0.6210     3.3420    -0.4930 C.3   1 <1>   0.1400 
  9 N        0.7390     4.8140    -0.3610 N.am  1 <1>  -0.7300 
 10 C        1.0960     5.4550     0.7820 C.2   1 <1>   0.5690 
 11 O        1.3070     4.8510     1.8050 O.2   1 <1>  -0.5700 
 12 C        1.2170     6.9770     0.7800 C.3   1 <1>  -0.0190 
 13 C       -0.0880     7.6630     0.3320 C.3   1 <1>  -0.1600 
 14 C        2.4250     7.4580    -0.0620 C.3   1 <1>  -0.1600 
 15 C       -0.0180     9.1910     0.4950 C.3   1 <1>   0.2000 
 16 C        2.2850     8.9030    -0.5790 C.3   1 <1>  -0.1600 
 17 O       -0.8510     9.7350    -0.4980 O.3   1 <1>  -0.5600 
 18 C        1.4230     9.7570     0.3540 C.3   1 <1>   0.2000 
 19 C       -1.8350    10.6020    -0.0260 C.3   1 <1>   0.0400 
 20 O        1.3710    11.0330    -0.1690 O.3   1 <1>  -0.6800 
 21 H       -1.5150     3.3750    -0.6650 H     1 <1>   0.0800 
 22 H       -0.9380     3.1400     0.9710 H     1 <1>   0.0800 
 23 H       -0.9450    -3.0900    -0.1650 H     1 <1>   0.0800 
 24 H       -1.0210    -2.5090     1.4830 H     1 <1>   0.0800 
 25 H        0.5110    -2.5360     0.6320 H     1 <1>   0.0800 
 26 H        0.8020     3.0570    -1.5150 H     1 <1>   0.0800 
 27 H        1.3640     2.8680     0.1280 H     1 <1>   0.0800 
 28 H        0.5440     5.3620    -1.2010 H     1 <1>   0.3700 
 29 H        1.3940     7.2700     1.8010 H     1 <1>   0.0800 
 30 H       -0.9120     7.2870     0.9120 H     1 <1>   0.0800 
 31 H       -0.2680     7.4240    -0.7020 H     1 <1>   0.0800 
 32 H        3.3100     7.3810     0.5480 H     1 <1>   0.0800 
 33 H        2.5710     6.8110    -0.9100 H     1 <1>   0.0800 
 34 H       -0.3900     9.4580     1.4700 H     1 <1>   0.0800 
 35 H        1.8200     8.8840    -1.5500 H     1 <1>   0.0800 
 36 H        3.2610     9.3450    -0.6820 H     1 <1>   0.0800 
 37 H        1.8960     9.8150     1.3190 H     1 <1>   0.0800 
 38 H       -2.3900    10.9730    -0.8700 H     1 <1>   0.0800 
 39 H       -1.3680    11.4240     0.4910 H     1 <1>   0.0800 
 40 H       -2.4940    10.0650     0.6330 H     1 <1>   0.0800 
 41 H        0.6250    11.0350    -0.8090 H     1 <1>   0.4000 
@<TRIPOS>BOND
  1   1   2  1   
  2   1   3  1   
  3   2   4  2   
  4   2   5  1   
  5   3   6  2   
  6   3   7  1   
  7   4   6  1   
  8   5   8  1   
  9   5  21  1   
 10   5  22  1   
 11   7  23  1   
 12   7  24  1   
 13   7  25  1   
 14   8   9  1   
 15   8  26  1   
 16   8  27  1   
 17   9  10  am  
 18   9  28  1   
 19  10  11  2   
 20  10  12  1   
 21  12  13  1   
 22  12  14  1   
 23  12  29  1   
 24  13  15  1   
 25  13  30  1   
 26  13  31  1   
 27  14  16  1   
 28  14  32  1   
 29  14  33  1   
 30  15  17  1   
 31  15  18  1   
 32  15  34  1   
 33  16  18  1   
 34  16  35  1   
 35  16  36  1   
 36  17  19  1   
 37  18  20  1   
 38  18  37  1   
 39  19  38  1   
 40  19  39  1   
 41  19  40  1   
 42  20  41  1   
@<TRIPOS>SUBSTRUCTURE
  1 ****   9 GROUP 4 **** **** 0

# MOE 2024.06 (io_trps.svl 2023.06)
