@<TRIPOS>MOLECULE
NONAME
48 49 1 0 0 
SMALL
USER_CHARGES


@<TRIPOS>ATOM
  1 O       -1.7550     1.3360    -2.7640 O.2   1 <1>  -0.5700 
  2 C       -2.0900     1.5900    -1.6210 C.2   1 <1>   0.5440 
  3 N       -2.9850     0.7560    -0.9850 N.am  1 <1>  -0.6600 
  4 C       -1.5390     2.7610    -0.9730 C.ar  1 <1>   0.0860 
  5 C       -3.6790    -0.3390    -1.7520 C.3   1 <1>   0.1400 
  6 C       -3.3070     0.8380     0.4770 C.3   1 <1>   0.1400 
  7 C       -0.1760     2.8570    -0.7020 C.ar  1 <1>  -0.1500 
  8 C       -2.3480     3.8350    -0.6050 C.ar  1 <1>  -0.1500 
  9 C       -4.3220    -1.3650    -0.8080 C.3   1 <1>   0.2000 
 10 C       -4.8150     0.6630     0.6600 C.3   1 <1>  -0.1600 
 11 C        0.3680     3.9660    -0.0770 C.ar  1 <1>  -0.1430 
 12 C       -1.8230     4.9500     0.0190 C.ar  1 <1>  -0.1500 
 13 O       -4.9400    -2.3850    -1.5140 O.3   1 <1>  -0.6800 
 14 C       -5.3040    -0.7600     0.2320 C.3   1 <1>  -0.1060 
 15 C       -0.4590     5.0250     0.2910 C.ar  1 <1>   0.0820 
 16 C        1.8630     4.0210     0.2000 C.3   1 <1>  -0.0970 
 17 C       -5.2250    -1.7670     1.3950 C.2   1 <1>   0.9060 
 18 C       -6.7960    -0.6530    -0.2300 C.3   1 <1>  -0.1600 
 19 O        0.1120     6.0910     0.9040 O.3   1 <1>  -0.3630 
 20 O       -4.7530    -1.4310     2.4870 O.co2 1 <1>  -0.9000 
 21 O       -5.5900    -2.9330     1.1780 O.co2 1 <1>  -0.9000 
 22 C       -7.0680     0.0710    -1.5630 C.3   1 <1>  -0.1600 
 23 C       -0.6330     7.2240     1.2890 C.3   1 <1>   0.0400 
 24 C       -8.5730     0.1870    -1.8210 C.3   1 <1>  -0.2400 
 25 H       -4.4280     0.1030    -2.3800 H     1 <1>   0.0800 
 26 H       -2.9620    -0.8440    -2.3750 H     1 <1>   0.0800 
 27 H       -2.7850     0.0600     1.0090 H     1 <1>   0.0800 
 28 H       -3.0040     1.7810     0.8930 H     1 <1>   0.0800 
 29 H        0.4540     2.0370    -0.9970 H     1 <1>   0.1500 
 30 H       -3.4010     3.7810    -0.8170 H     1 <1>   0.1500 
 31 H       -3.5080    -1.8350    -0.2790 H     1 <1>   0.0800 
 32 H       -5.0740     0.8470     1.6870 H     1 <1>   0.0800 
 33 H       -5.2950     1.4330     0.0890 H     1 <1>   0.0800 
 34 H       -2.4870     5.7500     0.2850 H     1 <1>   0.1500 
 35 H       -5.3500    -2.9640    -0.8190 H     1 <1>   0.4000 
 36 H        2.3570     3.1320    -0.1470 H     1 <1>   0.0800 
 37 H        2.0340     4.1200     1.2570 H     1 <1>   0.0800 
 38 H        2.2940     4.8710    -0.2990 H     1 <1>   0.0800 
 39 H       -7.2030    -1.6460    -0.3130 H     1 <1>   0.0800 
 40 H       -7.3490    -0.1670     0.5550 H     1 <1>   0.0800 
 41 H       -6.6390     1.0550    -1.5660 H     1 <1>   0.0800 
 42 H       -6.6260    -0.4890    -2.3690 H     1 <1>   0.0800 
 43 H        0.0410     7.9290     1.7400 H     1 <1>   0.0800 
 44 H       -1.3800     6.9250     2.0030 H     1 <1>   0.0800 
 45 H       -1.0850     7.6590     0.4150 H     1 <1>   0.0800 
 46 H       -9.0430     0.7600    -1.0420 H     1 <1>   0.0800 
 47 H       -9.0210    -0.7900    -1.8530 H     1 <1>   0.0800 
 48 H       -8.7480     0.6760    -2.7630 H     1 <1>   0.0800 
@<TRIPOS>BOND
  1   1   2  2   
  2   2   3  am  
  3   2   4  1   
  4   3   5  1   
  5   3   6  1   
  6   4   7  ar  
  7   4   8  ar  
  8   5   9  1   
  9   5  25  1   
 10   5  26  1   
 11   6  10  1   
 12   6  27  1   
 13   6  28  1   
 14   7  11  ar  
 15   7  29  1   
 16   8  12  ar  
 17   8  30  1   
 18   9  13  1   
 19   9  14  1   
 20   9  31  1   
 21  10  14  1   
 22  10  32  1   
 23  10  33  1   
 24  11  15  ar  
 25  11  16  1   
 26  12  15  ar  
 27  12  34  1   
 28  13  35  1   
 29  14  17  1   
 30  14  18  1   
 31  15  19  1   
 32  16  36  1   
 33  16  37  1   
 34  16  38  1   
 35  17  20  ar  
 36  17  21  ar  
 37  18  22  1   
 38  18  39  1   
 39  18  40  1   
 40  19  23  1   
 41  22  24  1   
 42  22  41  1   
 43  22  42  1   
 44  23  43  1   
 45  23  44  1   
 46  23  45  1   
 47  24  46  1   
 48  24  47  1   
 49  24  48  1   
@<TRIPOS>SUBSTRUCTURE
  1 ****   6 GROUP 4 **** **** 0

# MOE 2024.06 (io_trps.svl 2023.06)
