@<TRIPOS>MOLECULE
NONAME
50 53 1 0 0 
SMALL
USER_CHARGES


@<TRIPOS>ATOM
  1 O        1.2470    -0.1090     1.3580 O.2   1 <1>  -0.5700 
  2 C        1.9630    -0.1310     0.3690 C.2   1 <1>   0.5440 
  3 N        2.1710     1.0420    -0.3620 N.am  1 <1>  -0.2980 
  4 C        2.6060    -1.3380    -0.0740 C.ar  1 <1>   0.0860 
  5 N        2.9680     1.1040    -1.4840 N.2   1 <1>  -0.5120 
  6 C        1.2580     2.2020    -0.1040 C.3   1 <1>   0.1400 
  7 C        3.3920    -1.2640    -1.2300 C.ar  1 <1>   0.0860 
  8 C        2.4820    -2.5650     0.5840 C.ar  1 <1>  -0.1500 
  9 C        3.5180     0.0040    -1.8780 C.2   1 <1>   0.3040 
 10 C        1.5320     2.9190     1.2340 C.3   1 <1>   0.2090 
 11 C        4.0250    -2.4200    -1.7000 C.ar  1 <1>  -0.1500 
 12 C        3.1150    -3.6930     0.1110 C.ar  1 <1>  -0.1500 
 13 N        2.5670     4.0010     1.2050 N.pl3 1 <1>  -0.8690 
 14 C        3.8890    -3.6200    -1.0380 C.ar  1 <1>  -0.1500 
 15 C        3.7410     4.1960     0.5950 C.ar  1 <1>   0.7710 
 16 N        4.3760     5.3020     0.9250 N.ar  1 <1>  -0.6200 
 17 N        4.2270     3.3170    -0.2910 N.ar  1 <1>  -0.1790 
 18 C        5.5470     5.5400     0.3620 C.ar  1 <1>   0.4100 
 19 C        5.4070     3.5310    -0.9140 C.ar  1 <1>   0.2110 
 20 N        6.2110     6.6680     0.7320 N.pl3 1 <1>  -0.8380 
 21 C        6.0880     4.6560    -0.5950 C.ar  1 <1>  -0.1500 
 22 C        7.7040     6.8160     0.7410 C.3   1 <1>   0.2090 
 23 C        5.5090     7.8810     1.2540 C.3   1 <1>   0.2090 
 24 C        8.1230     8.0260    -0.1100 C.3   1 <1>   0.2000 
 25 C        5.9020     9.1030     0.4120 C.3   1 <1>  -0.1600 
 26 O        9.4910     8.2110    -0.0160 O.3   1 <1>  -0.6800 
 27 C        7.4260     9.3100     0.3530 C.3   1 <1>  -0.1600 
 28 H        0.2530     1.8150    -0.0710 H     1 <1>   0.0800 
 29 H        1.2960     2.9030    -0.9190 H     1 <1>   0.0800 
 30 H        1.8780    -2.6230     1.4750 H     1 <1>   0.1500 
 31 H        4.1280     0.0240    -2.7630 H     1 <1>   0.0600 
 32 H        1.7790     2.2060     2.0030 H     1 <1>   0.0800 
 33 H        0.6050     3.3790     1.5330 H     1 <1>   0.0800 
 34 H        4.6260    -2.3750    -2.5930 H     1 <1>   0.1500 
 35 H        3.0110    -4.6340     0.6270 H     1 <1>   0.1500 
 36 H        2.3650     4.7500     1.8780 H     1 <1>   0.4000 
 37 H        4.3800    -4.5080    -1.4050 H     1 <1>   0.1500 
 38 H        3.6380     2.5010    -0.4940 H     1 <1>   0.4570 
 39 H        5.7550     2.8130    -1.6390 H     1 <1>   0.1500 
 40 H        7.0200     4.8950    -1.0690 H     1 <1>   0.1500 
 41 H        8.1880     5.9300     0.3740 H     1 <1>   0.0800 
 42 H        8.0210     6.9700     1.7570 H     1 <1>   0.0800 
 43 H        5.7860     8.0350     2.2830 H     1 <1>   0.0800 
 44 H        4.4400     7.7580     1.2130 H     1 <1>   0.0800 
 45 H        7.8950     7.8270    -1.1430 H     1 <1>   0.0800 
 46 H        5.4370     9.9800     0.8250 H     1 <1>   0.0800 
 47 H        5.5170     8.9700    -0.5840 H     1 <1>   0.0800 
 48 H        9.7230     8.6190     0.8400 H     1 <1>   0.4000 
 49 H        7.6530    10.1100    -0.3300 H     1 <1>   0.0800 
 50 H        7.7750     9.5810     1.3340 H     1 <1>   0.0800 
@<TRIPOS>BOND
  1   1   2  2   
  2   2   3  am  
  3   2   4  1   
  4   3   5  1   
  5   3   6  1   
  6   4   7  ar  
  7   4   8  ar  
  8   5   9  2   
  9   6  10  1   
 10   6  28  1   
 11   6  29  1   
 12   7   9  1   
 13   7  11  ar  
 14   8  12  ar  
 15   8  30  1   
 16   9  31  1   
 17  10  13  1   
 18  10  32  1   
 19  10  33  1   
 20  11  14  ar  
 21  11  34  1   
 22  12  14  ar  
 23  12  35  1   
 24  13  15  1   
 25  13  36  1   
 26  14  37  1   
 27  15  16  ar  
 28  15  17  ar  
 29  16  18  ar  
 30  17  19  ar  
 31  17  38  1   
 32  18  20  1   
 33  18  21  ar  
 34  19  21  ar  
 35  19  39  1   
 36  20  22  1   
 37  20  23  1   
 38  21  40  1   
 39  22  24  1   
 40  22  41  1   
 41  22  42  1   
 42  23  25  1   
 43  23  43  1   
 44  23  44  1   
 45  24  26  1   
 46  24  27  1   
 47  24  45  1   
 48  25  27  1   
 49  25  46  1   
 50  25  47  1   
 51  26  48  1   
 52  27  49  1   
 53  27  50  1   
@<TRIPOS>SUBSTRUCTURE
  1 ****  17 GROUP 4 **** **** 0

# MOE 2024.06 (io_trps.svl 2023.06)
