@<TRIPOS>MOLECULE
NONAME
47 49 1 0 0 
SMALL
USER_CHARGES


@<TRIPOS>ATOM
  1 S       -2.5920    -0.3400    -0.0840 S.3   1 <1>  -0.0800 
  2 C       -2.2790    -2.0680    -0.1210 C.2   1 <1>  -0.1400 
  3 C       -3.9820    -0.5210    -1.1410 C.2   1 <1>  -0.1100 
  4 C       -3.1900    -2.6910    -0.8960 C.2   1 <1>  -0.1500 
  5 C       -1.0900    -2.5620     0.6830 C.3   1 <1>   0.3200 
  6 C       -4.1580    -1.8120    -1.4750 C.2   1 <1>  -0.1500 
  7 N       -1.0740    -4.0270     0.6660 N.am  1 <1>  -0.7300 
  8 C       -0.6860    -4.8410     1.6730 C.2   1 <1>   0.5690 
  9 O       -0.0930    -4.4360     2.6460 O.2   1 <1>  -0.5700 
 10 C       -1.0590    -6.3200     1.5410 C.3   1 <1>   0.1710 
 11 N       -2.2960    -6.5140     0.7390 N.3   1 <1>  -0.8100 
 12 C       -2.3170    -7.7870    -0.0210 C.3   1 <1>   0.1100 
 13 C       -3.5250    -6.1910     1.4630 C.3   1 <1>   0.1100 
 14 C       -3.7200    -8.2150    -0.5370 C.3   1 <1>  -0.1060 
 15 C       -4.7150    -6.0760     0.4940 C.3   1 <1>  -0.1600 
 16 C       -3.5540    -8.9110    -1.8990 C.2   1 <1>   0.9060 
 17 C       -4.5950    -6.9580    -0.7630 C.3   1 <1>   0.2000 
 18 C       -4.4520    -9.1600     0.4770 C.3   1 <1>  -0.0650 
 19 O       -4.0490   -10.0230    -2.1130 O.co2 1 <1>  -0.9000 
 20 O       -2.9570    -8.3040    -2.8030 O.co2 1 <1>  -0.9000 
 21 O       -4.0620    -6.1720    -1.7750 O.3   1 <1>  -0.6800 
 22 C       -3.6380   -10.3640     0.9820 C.3   1 <1>  -0.1950 
 23 C       -4.1060   -11.1240     2.1820 C.3   1 <1>  -0.2000 
 24 C       -2.8510   -10.3060     2.2540 C.3   1 <1>  -0.2000 
 25 H       -4.5250     0.3690    -1.4040 H     1 <1>   0.1500 
 26 H       -3.2350    -3.7500    -1.1000 H     1 <1>   0.1500 
 27 H       -1.1630    -2.2140     1.7000 H     1 <1>   0.0800 
 28 H       -0.1770    -2.1890     0.2540 H     1 <1>   0.0800 
 29 H       -4.9330    -2.2010    -2.1120 H     1 <1>   0.1500 
 30 H       -1.6790    -4.4750    -0.0360 H     1 <1>   0.3700 
 31 H       -1.1810    -6.7520     2.5180 H     1 <1>   0.0800 
 32 H       -0.2370    -6.8120     1.0540 H     1 <1>   0.0800 
 33 H       -1.6660    -7.6460    -0.8680 H     1 <1>   0.0800 
 34 H       -1.8770    -8.5710     0.5640 H     1 <1>   0.0800 
 35 H       -3.7080    -6.9540     2.1990 H     1 <1>   0.0800 
 36 H       -3.4110    -5.2540     1.9820 H     1 <1>   0.0800 
 37 H       -4.8460    -5.0500     0.2040 H     1 <1>   0.0800 
 38 H       -5.6000    -6.3580     1.0310 H     1 <1>   0.0800 
 39 H       -5.5730    -7.2580    -1.1000 H     1 <1>   0.0800 
 40 H       -4.7920    -8.6150     1.3340 H     1 <1>   0.0800 
 41 H       -5.3370    -9.5430    -0.0020 H     1 <1>   0.0800 
 42 H       -3.5700    -6.7980    -2.3890 H     1 <1>   0.4000 
 43 H       -3.2440   -10.9560     0.1720 H     1 <1>   0.1000 
 44 H       -4.9810   -10.7810     2.7060 H     1 <1>   0.1000 
 45 H       -4.0330   -12.1970     2.1590 H     1 <1>   0.1000 
 46 H       -1.9000   -10.8080     2.2850 H     1 <1>   0.1000 
 47 H       -2.8540    -9.3920     2.8230 H     1 <1>   0.1000 
@<TRIPOS>BOND
  1   1   2  1   
  2   1   3  1   
  3   2   4  2   
  4   2   5  1   
  5   3   6  2   
  6   3  25  1   
  7   4   6  1   
  8   4  26  1   
  9   5   7  1   
 10   5  27  1   
 11   5  28  1   
 12   6  29  1   
 13   7   8  am  
 14   7  30  1   
 15   8   9  2   
 16   8  10  1   
 17  10  11  1   
 18  10  31  1   
 19  10  32  1   
 20  11  12  1   
 21  11  13  1   
 22  12  14  1   
 23  12  33  1   
 24  12  34  1   
 25  13  15  1   
 26  13  35  1   
 27  13  36  1   
 28  14  16  1   
 29  14  17  1   
 30  14  18  1   
 31  15  17  1   
 32  15  37  1   
 33  15  38  1   
 34  16  19  ar  
 35  16  20  ar  
 36  17  21  1   
 37  17  39  1   
 38  18  22  1   
 39  18  40  1   
 40  18  41  1   
 41  21  42  1   
 42  22  23  1   
 43  22  24  1   
 44  22  43  1   
 45  23  24  1   
 46  23  44  1   
 47  23  45  1   
 48  24  46  1   
 49  24  47  1   
@<TRIPOS>SUBSTRUCTURE
  1 ****  11 GROUP 4 **** **** 0

# MOE 2024.06 (io_trps.svl 2023.06)
