@<TRIPOS>MOLECULE
NONAME
35 36 1 0 0 
SMALL
USER_CHARGES


@<TRIPOS>ATOM
  1 F       -0.0620     1.5080    -2.0010 F     1 <1>  -0.1900 
  2 C       -1.0200     1.5810    -1.1060 C.ar  1 <1>   0.1900 
  3 C       -1.4140     2.8270    -0.6290 C.ar  1 <1>   0.1000 
  4 C       -1.6070     0.4150    -0.6560 C.ar  1 <1>   0.1600 
  5 N       -0.8430     4.0230    -1.0570 N.pl3 1 <1>  -0.8690 
  6 C       -2.4370     2.7800     0.3050 C.ar  1 <1>  -0.1500 
  7 N       -2.5810     0.3760     0.2490 N.ar  1 <1>  -0.6200 
  8 C       -0.5120     5.0870    -0.0910 C.3   1 <1>   0.2090 
  9 C       -2.9690     1.5640     0.7000 C.ar  1 <1>   0.1600 
 10 C        0.7780     5.7660    -0.5380 C.3   1 <1>  -0.1600 
 11 C        1.1460     6.9140     0.4100 C.3   1 <1>   0.0960 
 12 N        2.4310     7.5210     0.0130 N.pl3 1 <1>   0.3140 
 13 N        3.5910     7.0460     0.5000 N.2   1 <1>  -0.7070 
 14 C        2.6380     8.5530    -0.8360 C.2   1 <1>  -0.3320 
 15 C        4.5060     7.7820    -0.0450 C.2   1 <1>   0.1080 
 16 C        3.9730     8.7440    -0.8920 C.2   1 <1>  -0.1500 
 17 C        1.5510     9.3230    -1.5680 C.3   1 <1>  -0.0600 
 18 C        5.9760     7.5810     0.2360 C.3   1 <1>  -0.0590 
 19 H       -1.2640    -0.5230    -1.0540 H     1 <1>   0.1500 
 20 H       -0.1050     3.8950    -1.7620 H     1 <1>   0.4000 
 21 H       -2.8220     3.6920     0.7180 H     1 <1>   0.1500 
 22 H       -0.3850     4.6630     0.8920 H     1 <1>   0.0800 
 23 H       -1.3200     5.7990    -0.0630 H     1 <1>   0.0800 
 24 H       -3.7630     1.5630     1.4280 H     1 <1>   0.1500 
 25 H        0.6520     6.1540    -1.5330 H     1 <1>   0.0800 
 26 H        1.5760     5.0440    -0.5340 H     1 <1>   0.0800 
 27 H        1.2540     6.5460     1.4140 H     1 <1>   0.0800 
 28 H        0.3880     7.6740     0.4020 H     1 <1>   0.0800 
 29 H        4.5290     9.4690    -1.4570 H     1 <1>   0.1500 
 30 H        0.9820     8.6610    -2.1960 H     1 <1>   0.0800 
 31 H        1.9910    10.0840    -2.1860 H     1 <1>   0.0800 
 32 H        0.8910     9.7960    -0.8630 H     1 <1>   0.0800 
 33 H        6.2630     6.5880    -0.0560 H     1 <1>   0.0800 
 34 H        6.1580     7.7020     1.2870 H     1 <1>   0.0800 
 35 H        6.5640     8.2950    -0.3100 H     1 <1>   0.0800 
@<TRIPOS>BOND
  1   1   2  1   
  2   2   3  ar  
  3   2   4  ar  
  4   3   5  1   
  5   3   6  ar  
  6   4   7  ar  
  7   4  19  1   
  8   5   8  1   
  9   5  20  1   
 10   6   9  ar  
 11   6  21  1   
 12   7   9  ar  
 13   8  10  1   
 14   8  22  1   
 15   8  23  1   
 16   9  24  1   
 17  10  11  1   
 18  10  25  1   
 19  10  26  1   
 20  11  12  1   
 21  11  27  1   
 22  11  28  1   
 23  12  13  1   
 24  12  14  1   
 25  13  15  2   
 26  14  16  2   
 27  14  17  1   
 28  15  16  1   
 29  15  18  1   
 30  16  29  1   
 31  17  30  1   
 32  17  31  1   
 33  17  32  1   
 34  18  33  1   
 35  18  34  1   
 36  18  35  1   
@<TRIPOS>SUBSTRUCTURE
  1 ****  10 GROUP 4 **** **** 0

# MOE 2024.06 (io_trps.svl 2023.06)
