@<TRIPOS>MOLECULE
NONAME
31 31 1 0 0 
SMALL
USER_CHARGES


@<TRIPOS>ATOM
  1 O       -0.2040    -0.2480     0.8330 O.2   1 <1>  -0.5700 
  2 C       -1.1400    -0.7840     0.2740 C.2   1 <1>   0.7800 
  3 O       -2.2050    -0.0870    -0.1330 O.3   1 <1>  -0.4300 
  4 N       -1.1600    -2.1190     0.0220 N.am  1 <1>  -0.5100 
  5 C       -2.4220     1.3000     0.0090 C.3   1 <1>   0.2800 
  6 C        0.0700    -2.9480    -0.1840 C.3   1 <1>   0.2250 
  7 C       -1.7860    -2.7420    -1.1860 C.3   1 <1>   0.2250 
  8 C       -2.4750     1.6800     1.4930 C.3   1 <1>  -0.2400 
  9 C       -1.3530     2.0860    -0.7600 C.3   1 <1>  -0.2400 
 10 C       -3.7890     1.5560    -0.6260 C.3   1 <1>  -0.2400 
 11 C       -0.8010    -3.9200    -1.0140 C.3   1 <1>   0.0000 
 12 C       -1.3750    -5.0970    -0.2100 C.3   1 <1>   0.0400 
 13 C       -0.3110    -6.0970     0.0950 C.1   1 <1>  -0.2000 
 14 C        0.5400    -6.8900     0.3400 C.1   1 <1>  -0.1770 
 15 H        0.4420    -3.3570     0.7380 H     1 <1>   0.0000 
 16 H        0.8070    -2.4210    -0.7660 H     1 <1>   0.0000 
 17 H       -1.6090    -2.1520    -2.0680 H     1 <1>   0.0000 
 18 H       -2.8170    -2.9980    -1.0210 H     1 <1>   0.0000 
 19 H       -1.5100     1.5780     1.9550 H     1 <1>   0.0800 
 20 H       -3.1830     1.0600     2.0130 H     1 <1>   0.0800 
 21 H       -2.7780     2.7050     1.5990 H     1 <1>   0.0800 
 22 H       -0.3890     1.9840    -0.2970 H     1 <1>   0.0800 
 23 H       -1.6010     3.1320    -0.7640 H     1 <1>   0.0800 
 24 H       -1.2960     1.7450    -1.7770 H     1 <1>   0.0800 
 25 H       -4.5490     0.9920    -0.1150 H     1 <1>   0.0800 
 26 H       -3.7790     1.2720    -1.6630 H     1 <1>   0.0800 
 27 H       -4.0420     2.5990    -0.5630 H     1 <1>   0.0800 
 28 H       -0.3420    -4.2210    -1.9400 H     1 <1>   0.0000 
 29 H       -2.1490    -5.5770    -0.7820 H     1 <1>   0.0800 
 30 H       -1.8060    -4.7500     0.7130 H     1 <1>   0.0800 
 31 H        1.3100    -7.6070     0.5630 H     1 <1>   0.1770 
@<TRIPOS>BOND
  1   1   2  2   
  2   2   3  1   
  3   2   4  am  
  4   3   5  1   
  5   4   6  1   
  6   4   7  1   
  7   5   8  1   
  8   5   9  1   
  9   5  10  1   
 10   6  11  1   
 11   6  15  1   
 12   6  16  1   
 13   7  11  1   
 14   7  17  1   
 15   7  18  1   
 16   8  19  1   
 17   8  20  1   
 18   8  21  1   
 19   9  22  1   
 20   9  23  1   
 21   9  24  1   
 22  10  25  1   
 23  10  26  1   
 24  10  27  1   
 25  11  12  1   
 26  11  28  1   
 27  12  13  1   
 28  12  29  1   
 29  12  30  1   
 30  13  14  3   
 31  14  31  1   
@<TRIPOS>SUBSTRUCTURE
  1 ****   4 GROUP 4 **** **** 0

# MOE 2024.06 (io_trps.svl 2023.06)
