@<TRIPOS>MOLECULE
NONAME
49 52 1 0 0 
SMALL
USER_CHARGES


@<TRIPOS>ATOM
  1 O        1.1700    -0.0410    -0.1600 O.3   1 <1>  -0.5600 
  2 C        2.0840    -1.0430     0.2420 C.3   1 <1>   0.4240 
  3 C       -0.1930    -0.3350    -0.0950 C.3   1 <1>   0.1200 
  4 C        1.6000    -2.4720    -0.1130 C.ar  1 <1>  -0.1440 
  5 C        2.2950    -0.8300     1.7590 C.3   1 <1>  -0.1600 
  6 C        3.3670    -0.6970    -0.5330 C.3   1 <1>  -0.1600 
  7 C       -0.4970    -1.4570    -1.0760 C.3   1 <1>  -0.0160 
  8 C        2.3710    -3.6060     0.1770 C.ar  1 <1>   0.0820 
  9 C        0.3740    -2.6510    -0.7480 C.ar  1 <1>  -0.1440 
 10 C        3.3350     0.2460     2.0770 C.3   1 <1>   0.3430 
 11 C        3.8390     0.7390    -0.2910 C.3   1 <1>   0.3430 
 12 O        3.5720    -3.4440     0.7980 O.3   1 <1>  -0.3630 
 13 C        1.9050    -4.8730    -0.1690 C.ar  1 <1>  -0.1500 
 14 C       -0.0760    -3.9150    -1.0910 C.ar  1 <1>  -0.1500 
 15 N        3.3260     1.2750     1.0100 N.4   1 <1>  -0.9590 
 16 C        4.4370    -4.5300     1.0600 C.3   1 <1>   0.0400 
 17 C        0.6880    -5.0260    -0.8010 C.ar  1 <1>  -0.1500 
 18 C        4.0060     2.5530     1.4000 C.3   1 <1>   0.4860 
 19 C        3.8320     3.6470     0.3480 C.ar  1 <1>   0.1670 
 20 N        4.6480     3.6010    -0.6980 N.ar  1 <1>  -0.6200 
 21 C        2.8560     4.6170     0.5260 C.ar  1 <1>  -0.1500 
 22 C        4.4880     4.5620    -1.5970 C.ar  1 <1>   0.1600 
 23 C        2.6980     5.6070    -0.4200 C.ar  1 <1>  -0.1500 
 24 C        3.5430     5.5690    -1.5070 C.ar  1 <1>  -0.1500 
 25 H       -0.7400     0.5530    -0.3600 H     1 <1>   0.0800 
 26 H       -0.4510    -0.6250     0.9090 H     1 <1>   0.0800 
 27 H        2.6220    -1.7350     2.2300 H     1 <1>   0.0800 
 28 H        1.3620    -0.5810     2.2290 H     1 <1>   0.0800 
 29 H        3.2010    -0.8480    -1.5840 H     1 <1>   0.0800 
 30 H        4.1660    -1.3530    -0.2530 H     1 <1>   0.0800 
 31 H       -0.3030    -1.1250    -2.0810 H     1 <1>   0.0800 
 32 H       -1.5370    -1.7200    -1.0000 H     1 <1>   0.0800 
 33 H        4.3140    -0.2060     2.1280 H     1 <1>   0.0800 
 34 H        3.1130     0.6860     3.0360 H     1 <1>   0.0800 
 35 H        3.4740     1.3650    -1.0910 H     1 <1>   0.0800 
 36 H        4.9160     0.7740    -0.3140 H     1 <1>   0.0800 
 37 H        2.4700    -5.7610     0.0420 H     1 <1>   0.1500 
 38 H       -1.0240    -4.0420    -1.5850 H     1 <1>   0.1500 
 39 H        2.3330     1.4740     0.8050 H     1 <1>   0.4500 
 40 H        5.3280    -4.1470     1.5240 H     1 <1>   0.0800 
 41 H        4.6880    -5.0100     0.1310 H     1 <1>   0.0800 
 42 H        3.9460    -5.2160     1.7280 H     1 <1>   0.0800 
 43 H        0.3350    -6.0070    -1.0670 H     1 <1>   0.1500 
 44 H        5.0600     2.3780     1.5350 H     1 <1>   0.0800 
 45 H        3.6020     2.9060     2.3330 H     1 <1>   0.0800 
 46 H        2.2180     4.6120     1.3930 H     1 <1>   0.1500 
 47 H        5.1430     4.5480    -2.4520 H     1 <1>   0.1500 
 48 H        1.9520     6.3780    -0.3170 H     1 <1>   0.1500 
 49 H        3.4740     6.3150    -2.2800 H     1 <1>   0.1500 
@<TRIPOS>BOND
  1   1   2  1   
  2   1   3  1   
  3   2   4  1   
  4   2   5  1   
  5   2   6  1   
  6   3   7  1   
  7   3  25  1   
  8   3  26  1   
  9   4   8  ar  
 10   4   9  ar  
 11   5  10  1   
 12   5  27  1   
 13   5  28  1   
 14   6  11  1   
 15   6  29  1   
 16   6  30  1   
 17   7   9  1   
 18   7  31  1   
 19   7  32  1   
 20   8  12  1   
 21   8  13  ar  
 22   9  14  ar  
 23  10  15  1   
 24  10  33  1   
 25  10  34  1   
 26  11  15  1   
 27  11  35  1   
 28  11  36  1   
 29  12  16  1   
 30  13  17  ar  
 31  13  37  1   
 32  14  17  ar  
 33  14  38  1   
 34  15  18  1   
 35  15  39  1   
 36  16  40  1   
 37  16  41  1   
 38  16  42  1   
 39  17  43  1   
 40  18  19  1   
 41  18  44  1   
 42  18  45  1   
 43  19  20  ar  
 44  19  21  ar  
 45  20  22  ar  
 46  21  23  ar  
 47  21  46  1   
 48  22  24  ar  
 49  22  47  1   
 50  23  24  ar  
 51  23  48  1   
 52  24  49  1   
@<TRIPOS>SUBSTRUCTURE
  1 ****   2 GROUP 4 **** **** 0

# MOE 2024.06 (io_trps.svl 2023.06)
