@<TRIPOS>MOLECULE
NONAME
53 54 1 0 0 
SMALL
USER_CHARGES


@<TRIPOS>ATOM
  1 O        1.9040     0.0210    -3.3540 O.2   1 <1>  -0.5700 
  2 C        1.9630    -0.6970    -2.3850 C.2   1 <1>   0.5690 
  3 N        2.4550    -0.2140    -1.1890 N.am  1 <1>  -0.6600 
  4 C        1.5450    -2.1550    -2.5730 C.3   1 <1>   0.1810 
  5 C        2.7810    -1.0410     0.0160 C.3   1 <1>   0.1400 
  6 C        2.6200     1.2520    -0.9970 C.3   1 <1>   0.1400 
  7 O        0.5840    -2.5440    -1.6020 O.3   1 <1>  -0.3620 
  8 C        4.2990    -1.2000     0.2430 C.3   1 <1>   0.3430 
  9 C        4.0260     1.6920    -1.4150 C.3   1 <1>  -0.1600 
 10 C        0.6250    -3.7840    -1.0510 C.ar  1 <1>   0.0820 
 11 N        5.0750     0.0860     0.1760 N.4   1 <1>  -0.9590 
 12 C        5.1190     0.6430    -1.2110 C.3   1 <1>   0.3430 
 13 C        0.2070    -3.9420     0.2720 C.ar  1 <1>  -0.1440 
 14 C        1.0900    -4.8770    -1.7740 C.ar  1 <1>  -0.1500 
 15 C        6.4420    -0.0740     0.7270 C.3   1 <1>   0.5430 
 16 C        0.3080    -5.1940     0.8720 C.ar  1 <1>  -0.1440 
 17 C       -0.3680    -2.7650     1.0630 C.3   1 <1>  -0.0970 
 18 C        1.1810    -6.1160    -1.1720 C.ar  1 <1>  -0.1500 
 19 C        6.9570     1.2900     1.0060 C.1   1 <1>  -0.2000 
 20 C        0.7990    -6.2690     0.1460 C.ar  1 <1>  -0.1500 
 21 C       -0.1180    -5.4310     2.3160 C.3   1 <1>  -0.0970 
 22 C        7.3370     2.3980     1.2080 C.1   1 <1>  -0.2000 
 23 C        7.8130     3.7890     1.4550 C.3   1 <1>   0.0400 
 24 C        6.9190     4.7970     0.7310 C.3   1 <1>  -0.2400 
 25 H        2.4170    -2.7740    -2.4830 H     1 <1>   0.0800 
 26 H        1.1050    -2.2900    -3.5440 H     1 <1>   0.0800 
 27 H        2.3600    -2.0240    -0.0670 H     1 <1>   0.0800 
 28 H        2.3320    -0.5910     0.8850 H     1 <1>   0.0800 
 29 H        2.4430     1.5030     0.0350 H     1 <1>   0.0800 
 30 H        1.8860     1.7840    -1.5830 H     1 <1>   0.0800 
 31 H        4.6820    -1.8860    -0.4950 H     1 <1>   0.0800 
 32 H        4.4420    -1.6580     1.2080 H     1 <1>   0.0800 
 33 H        4.2870     2.6000    -0.9000 H     1 <1>   0.0800 
 34 H        3.9970     1.9320    -2.4640 H     1 <1>   0.0800 
 35 H        4.6260     0.7940     0.7680 H     1 <1>   0.4500 
 36 H        6.0750     1.1050    -1.4020 H     1 <1>   0.0800 
 37 H        4.9850    -0.1510    -1.9280 H     1 <1>   0.0800 
 38 H        1.3720    -4.7810    -2.8060 H     1 <1>   0.1500 
 39 H        7.0820    -0.5820     0.0230 H     1 <1>   0.0800 
 40 H        6.4150    -0.6360     1.6460 H     1 <1>   0.0800 
 41 H       -0.5050    -1.8910     0.4540 H     1 <1>   0.0800 
 42 H        0.2850    -2.5140     1.8770 H     1 <1>   0.0800 
 43 H       -1.3320    -3.0310     1.4590 H     1 <1>   0.0800 
 44 H        1.5430    -6.9630    -1.7280 H     1 <1>   0.1500 
 45 H        0.8770    -7.2410     0.6020 H     1 <1>   0.1500 
 46 H        0.3910    -4.7510     2.9730 H     1 <1>   0.0800 
 47 H        0.1130    -6.4330     2.6280 H     1 <1>   0.0800 
 48 H       -1.1790    -5.2860     2.4120 H     1 <1>   0.0800 
 49 H        8.8270     3.8860     1.1070 H     1 <1>   0.0800 
 50 H        7.8020     3.9880     2.5130 H     1 <1>   0.0800 
 51 H        6.9360     4.6190    -0.3300 H     1 <1>   0.0800 
 52 H        7.2720     5.7970     0.9140 H     1 <1>   0.0800 
 53 H        5.9060     4.7230     1.0840 H     1 <1>   0.0800 
@<TRIPOS>BOND
  1   1   2  2   
  2   2   3  am  
  3   2   4  1   
  4   3   5  1   
  5   3   6  1   
  6   4   7  1   
  7   4  25  1   
  8   4  26  1   
  9   5   8  1   
 10   5  27  1   
 11   5  28  1   
 12   6   9  1   
 13   6  29  1   
 14   6  30  1   
 15   7  10  1   
 16   8  11  1   
 17   8  31  1   
 18   8  32  1   
 19   9  12  1   
 20   9  33  1   
 21   9  34  1   
 22  10  13  ar  
 23  10  14  ar  
 24  11  12  1   
 25  11  15  1   
 26  11  35  1   
 27  12  36  1   
 28  12  37  1   
 29  13  16  ar  
 30  13  17  1   
 31  14  18  ar  
 32  14  38  1   
 33  15  19  1   
 34  15  39  1   
 35  15  40  1   
 36  16  20  ar  
 37  16  21  1   
 38  17  41  1   
 39  17  42  1   
 40  17  43  1   
 41  18  20  ar  
 42  18  44  1   
 43  19  22  3   
 44  20  45  1   
 45  21  46  1   
 46  21  47  1   
 47  21  48  1   
 48  22  23  1   
 49  23  24  1   
 50  23  49  1   
 51  23  50  1   
 52  24  51  1   
 53  24  52  1   
 54  24  53  1   
@<TRIPOS>SUBSTRUCTURE
  1 ****   5 GROUP 4 **** **** 0

# MOE 2024.06 (io_trps.svl 2023.06)
