@<TRIPOS>MOLECULE
NONAME
46 47 1 0 0 
SMALL
USER_CHARGES


@<TRIPOS>ATOM
  1 S       -0.7110    -0.2500     0.5410 S.3   1 <1>  -0.0800 
  2 C       -0.9300    -1.8920    -0.0430 C.2   1 <1>  -0.1400 
  3 C        0.9250    -0.6040     1.0690 C.2   1 <1>  -0.1100 
  4 C        0.1890    -2.6150     0.1660 C.2   1 <1>  -0.1500 
  5 C       -2.2780    -2.2100    -0.6620 C.3   1 <1>   0.3200 
  6 C        1.2420    -1.8830     0.8000 C.2   1 <1>  -0.1500 
  7 N       -2.4250    -3.6690    -0.8030 N.am  1 <1>  -0.7300 
  8 C       -3.1510    -4.2800    -1.7770 C.2   1 <1>   0.5690 
  9 O       -3.7100    -3.6320    -2.6300 O.2   1 <1>  -0.5700 
 10 C       -3.2040    -5.8150    -1.8220 C.3   1 <1>   0.1710 
 11 N       -4.1350    -6.5040    -0.8810 N.3   1 <1>  -0.8100 
 12 C       -4.1210    -7.9700    -1.1610 C.3   1 <1>   0.1100 
 13 C       -3.9490    -6.1610     0.5320 C.3   1 <1>   0.1100 
 14 C       -4.7970    -8.8790    -0.0960 C.3   1 <1>  -0.1060 
 15 C       -5.0610    -6.7620     1.3990 C.3   1 <1>  -0.1600 
 16 C       -5.6830    -9.9080    -0.8270 C.2   1 <1>   0.9060 
 17 C       -5.7200    -7.9930     0.7740 C.3   1 <1>   0.2000 
 18 C       -3.7490    -9.7390     0.6910 C.3   1 <1>  -0.1600 
 19 O       -5.3280   -10.3420    -1.9300 O.co2 1 <1>  -0.9000 
 20 O       -6.7020   -10.3470    -0.2690 O.co2 1 <1>  -0.9000 
 21 O       -6.3030    -8.7380     1.7790 O.3   1 <1>  -0.6800 
 22 C       -2.5790    -9.0450     1.4050 C.3   1 <1>  -0.1600 
 23 C       -1.6390   -10.0770     2.0360 C.3   1 <1>  -0.2400 
 24 H        1.4810     0.1940     1.5290 H     1 <1>   0.1500 
 25 H        0.3300    -3.6460    -0.1040 H     1 <1>   0.1500 
 26 H       -2.3630    -1.7310    -1.6240 H     1 <1>   0.0800 
 27 H       -3.0650    -1.8400    -0.0270 H     1 <1>   0.0800 
 28 H        2.1860    -2.3510     1.0220 H     1 <1>   0.1500 
 29 H       -2.0100    -4.2200    -0.0540 H     1 <1>   0.3700 
 30 H       -2.2080    -6.1840    -1.6580 H     1 <1>   0.0800 
 31 H       -3.4840    -6.0870    -2.8240 H     1 <1>   0.0800 
 32 H       -4.6260    -8.0980    -2.1040 H     1 <1>   0.0800 
 33 H       -3.1120    -8.3100    -1.3120 H     1 <1>   0.0800 
 34 H       -2.9860    -6.4990     0.8620 H     1 <1>   0.0800 
 35 H       -3.9880    -5.0940     0.6570 H     1 <1>   0.0800 
 36 H       -5.8240    -6.0190     1.5360 H     1 <1>   0.0800 
 37 H       -4.6650    -6.9970     2.3680 H     1 <1>   0.0800 
 38 H       -6.5210    -7.6480     0.1390 H     1 <1>   0.0800 
 39 H       -4.2820   -10.3350     1.4120 H     1 <1>   0.0800 
 40 H       -3.3260   -10.4360    -0.0140 H     1 <1>   0.0800 
 41 H       -6.6780    -9.5340     1.3020 H     1 <1>   0.4000 
 42 H       -2.0180    -8.4550     0.7040 H     1 <1>   0.0800 
 43 H       -2.9530    -8.4100     2.1850 H     1 <1>   0.0800 
 44 H       -1.2320   -10.7250     1.2800 H     1 <1>   0.0800 
 45 H       -2.1730   -10.6760     2.7530 H     1 <1>   0.0800 
 46 H       -0.8290    -9.5800     2.5390 H     1 <1>   0.0800 
@<TRIPOS>BOND
  1   1   2  1   
  2   1   3  1   
  3   2   4  2   
  4   2   5  1   
  5   3   6  2   
  6   3  24  1   
  7   4   6  1   
  8   4  25  1   
  9   5   7  1   
 10   5  26  1   
 11   5  27  1   
 12   6  28  1   
 13   7   8  am  
 14   7  29  1   
 15   8   9  2   
 16   8  10  1   
 17  10  11  1   
 18  10  30  1   
 19  10  31  1   
 20  11  12  1   
 21  11  13  1   
 22  12  14  1   
 23  12  32  1   
 24  12  33  1   
 25  13  15  1   
 26  13  34  1   
 27  13  35  1   
 28  14  16  1   
 29  14  17  1   
 30  14  18  1   
 31  15  17  1   
 32  15  36  1   
 33  15  37  1   
 34  16  19  ar  
 35  16  20  ar  
 36  17  21  1   
 37  17  38  1   
 38  18  22  1   
 39  18  39  1   
 40  18  40  1   
 41  21  41  1   
 42  22  23  1   
 43  22  42  1   
 44  22  43  1   
 45  23  44  1   
 46  23  45  1   
 47  23  46  1   
@<TRIPOS>SUBSTRUCTURE
  1 ****  13 GROUP 4 **** **** 0

# MOE 2024.06 (io_trps.svl 2023.06)
