@<TRIPOS>MOLECULE
NONAME
60 64 1 0 0 
SMALL
USER_CHARGES


@<TRIPOS>ATOM
  1 O        1.5930    -0.5080    -2.5950 O.2   1 <1>  -0.5700 
  2 C        2.0220    -1.4880    -2.0420 C.2   1 <1>   0.5690 
  3 N        1.2050    -2.3330    -1.3820 N.am  1 <1>  -0.7300 
  4 C        3.5050    -1.7920    -2.0430 C.3   1 <1>  -0.0990 
  5 C        1.7020    -3.4270    -0.5260 C.3   1 <1>   0.1400 
  6 C        3.7630    -3.3080    -2.1510 C.3   1 <1>  -0.0800 
  7 C        2.8810    -4.1580    -1.2060 C.3   1 <1>  -0.0800 
  8 C        5.2290    -3.6820    -1.8660 C.3   1 <1>  -0.1600 
  9 C        3.8320    -4.7910    -0.1870 C.3   1 <1>  -0.1600 
 10 C        5.1960    -4.8440    -0.8690 C.3   1 <1>   0.2200 
 11 N        6.3150    -4.8570     0.1210 N.am  1 <1>  -0.6600 
 12 C        6.4400    -3.9530     1.1600 C.2   1 <1>   0.7160 
 13 C        7.0070    -6.1710     0.2260 C.3   1 <1>   0.0600 
 14 O        6.5220    -4.3780     2.2980 O.2   1 <1>  -0.5700 
 15 C        6.5160    -2.5430     0.9210 C.2   1 <1>  -0.0860 
 16 C        7.5340    -1.8500     0.3290 C.2   1 <1>   0.0870 
 17 C        5.4880    -1.6040     1.1620 C.ar  1 <1>   0.0000 
 18 O        7.1810    -0.5810     0.1530 O.3   1 <1>  -0.2800 
 19 C        8.8280    -2.2940    -0.1240 C.ar  1 <1>   0.0530 
 20 C        5.9510    -0.4170     0.6310 C.ar  1 <1>   0.1400 
 21 C        4.2110    -1.6420     1.7220 C.ar  1 <1>  -0.1500 
 22 C        9.4100    -1.7540    -1.2710 C.ar  1 <1>  -0.1500 
 23 C        9.5450    -3.2780     0.5580 C.ar  1 <1>  -0.1500 
 24 C        5.1780     0.7350     0.6010 C.ar  1 <1>  -0.1500 
 25 C        3.4080    -0.5220     1.6590 C.ar  1 <1>   0.0820 
 26 C       10.6420    -2.1850    -1.7260 C.ar  1 <1>  -0.1500 
 27 C       10.7770    -3.7140     0.1080 C.ar  1 <1>  -0.1500 
 28 C        3.8960     0.6760     1.1110 C.ar  1 <1>  -0.1500 
 29 O        2.1400    -0.6410     2.1210 O.3   1 <1>  -0.3620 
 30 C       11.3280    -3.1700    -1.0380 C.ar  1 <1>  -0.1500 
 31 C        1.1100     0.0810     1.4850 C.3   1 <1>   0.1200 
 32 C       -0.2210    -0.5480     1.8830 C.3   1 <1>  -0.2400 
 33 H        0.2100    -2.1010    -1.3560 H     1 <1>   0.3700 
 34 H        3.9740    -1.2770    -2.8620 H     1 <1>   0.0800 
 35 H        3.9110    -1.4060    -1.1310 H     1 <1>   0.0800 
 36 H        2.0150    -2.9950     0.4090 H     1 <1>   0.0800 
 37 H        0.9060    -4.1230    -0.3240 H     1 <1>   0.0800 
 38 H        3.5250    -3.5980    -3.1610 H     1 <1>   0.0800 
 39 H        2.4660    -4.9570    -1.7980 H     1 <1>   0.0800 
 40 H        5.7580    -2.8360    -1.4810 H     1 <1>   0.0800 
 41 H        5.7190    -3.9920    -2.7710 H     1 <1>   0.0800 
 42 H        3.5040    -5.7750     0.0970 H     1 <1>   0.0800 
 43 H        3.8800    -4.1800     0.6890 H     1 <1>   0.0800 
 44 H        5.2280    -5.7530    -1.4470 H     1 <1>   0.0800 
 45 H        7.4270    -6.4400    -0.7270 H     1 <1>   0.0800 
 46 H        6.3080    -6.9280     0.5390 H     1 <1>   0.0800 
 47 H        7.8040    -6.1180     0.9490 H     1 <1>   0.0800 
 48 H        3.8490    -2.5400     2.1860 H     1 <1>   0.1500 
 49 H        8.8830    -0.9870    -1.8110 H     1 <1>   0.1500 
 50 H        9.1360    -3.7030     1.4580 H     1 <1>   0.1500 
 51 H        5.5810     1.6370     0.1790 H     1 <1>   0.1500 
 52 H       11.0690    -1.7540    -2.6150 H     1 <1>   0.1500 
 53 H       11.3100    -4.4760     0.6500 H     1 <1>   0.1500 
 54 H        3.2790     1.5540     1.0880 H     1 <1>   0.1500 
 55 H       12.2880    -3.5070    -1.3900 H     1 <1>   0.1500 
 56 H        1.1600     1.1060     1.8100 H     1 <1>   0.0800 
 57 H        1.2530     0.0240     0.4190 H     1 <1>   0.0800 
 58 H       -0.3500    -0.4970     2.9490 H     1 <1>   0.0800 
 59 H       -0.2540    -1.5740     1.5640 H     1 <1>   0.0800 
 60 H       -1.0280    -0.0160     1.4130 H     1 <1>   0.0800 
@<TRIPOS>BOND
  1   1   2  2   
  2   2   3  am  
  3   2   4  1   
  4   3   5  1   
  5   3  33  1   
  6   4   6  1   
  7   4  34  1   
  8   4  35  1   
  9   5   7  1   
 10   5  36  1   
 11   5  37  1   
 12   6   7  1   
 13   6   8  1   
 14   6  38  1   
 15   7   9  1   
 16   7  39  1   
 17   8  10  1   
 18   8  40  1   
 19   8  41  1   
 20   9  10  1   
 21   9  42  1   
 22   9  43  1   
 23  10  11  1   
 24  10  44  1   
 25  11  12  am  
 26  11  13  1   
 27  12  14  2   
 28  12  15  1   
 29  13  45  1   
 30  13  46  1   
 31  13  47  1   
 32  15  16  2   
 33  15  17  1   
 34  16  18  1   
 35  16  19  1   
 36  17  20  ar  
 37  17  21  ar  
 38  18  20  1   
 39  19  22  ar  
 40  19  23  ar  
 41  20  24  ar  
 42  21  25  ar  
 43  21  48  1   
 44  22  26  ar  
 45  22  49  1   
 46  23  27  ar  
 47  23  50  1   
 48  24  28  ar  
 49  24  51  1   
 50  25  28  ar  
 51  25  29  1   
 52  26  30  ar  
 53  26  52  1   
 54  27  30  ar  
 55  27  53  1   
 56  28  54  1   
 57  29  31  1   
 58  30  55  1   
 59  31  32  1   
 60  31  56  1   
 61  31  57  1   
 62  32  58  1   
 63  32  59  1   
 64  32  60  1   
@<TRIPOS>SUBSTRUCTURE
  1 ****  17 GROUP 4 **** **** 0

# MOE 2024.06 (io_trps.svl 2023.06)
