@<TRIPOS>MOLECULE
NONAME
54 58 1 0 0 
SMALL
USER_CHARGES


@<TRIPOS>ATOM
  1 O       -0.6350     1.2640     1.9760 O.2   1 <1>  -0.5700 
  2 C       -1.6580     1.5000     1.3760 C.2   1 <1>   0.5690 
  3 N       -2.7970     0.7620     1.5800 N.am  1 <1>  -0.6600 
  4 C       -1.6540     2.6500     0.3850 C.3   1 <1>  -0.0990 
  5 C       -2.7900    -0.4530     2.4420 C.3   1 <1>   0.1400 
  6 C       -4.1350     1.0390     0.9880 C.3   1 <1>   0.1400 
  7 C       -0.2440     3.0720    -0.0660 C.3   1 <1>   0.1760 
  8 C       -3.1740    -1.6640     1.5890 C.3   1 <1>  -0.1600 
  9 C       -4.5280    -0.1400     0.0980 C.3   1 <1>  -0.1600 
 10 N       -0.3220     4.3630    -0.8020 N.pl3 1 <1>   0.3140 
 11 C        0.4270     2.0090    -0.9540 C.3   1 <1>  -0.2400 
 12 C       -4.5200    -1.4580     0.8850 C.3   1 <1>   0.4600 
 13 N       -1.2130     4.5950    -1.7920 N.2   1 <1>  -0.7070 
 14 C        0.4590     5.4430    -0.5940 C.2   1 <1>  -0.3020 
 15 O       -5.4910    -1.3880     1.9080 O.3   1 <1>  -0.5600 
 16 C       -4.8280    -2.6430    -0.0230 C.2   1 <1>  -0.3320 
 17 C       -0.9710     5.8100    -2.1810 C.2   1 <1>   0.1390 
 18 C        0.0660     6.3940    -1.4660 C.2   1 <1>  -0.1500 
 19 C       -6.8320    -1.6580     1.5730 C.3   1 <1>   0.1200 
 20 N       -4.0420    -3.1140    -1.0380 N.pl3 1 <1>   0.0330 
 21 C       -5.9420    -3.3960     0.0630 C.2   1 <1>  -0.1810 
 22 C       -7.0060    -3.1080     1.0920 C.3   1 <1>   0.0210 
 23 C       -4.6780    -4.1950    -1.6000 C.ar  1 <1>  -0.1520 
 24 C       -5.8790    -4.4000    -0.9260 C.ar  1 <1>   0.0000 
 25 C       -4.3000    -5.0260    -2.6580 C.ar  1 <1>  -0.1500 
 26 C       -6.7170    -5.4510    -1.3090 C.ar  1 <1>  -0.1500 
 27 C       -5.1350    -6.0560    -3.0260 C.ar  1 <1>  -0.1500 
 28 C       -6.3440    -6.2690    -2.3510 C.ar  1 <1>  -0.1500 
 29 H       -2.1390     3.4850     0.8560 H     1 <1>   0.0800 
 30 H       -2.2140     2.3710    -0.4870 H     1 <1>   0.0800 
 31 H       -3.5000    -0.3250     3.2420 H     1 <1>   0.0800 
 32 H       -1.8200    -0.6110     2.8800 H     1 <1>   0.0800 
 33 H       -4.1400     1.9510     0.4200 H     1 <1>   0.0800 
 34 H       -4.8530     1.1480     1.7850 H     1 <1>   0.0800 
 35 H        0.3660     3.2380     0.8040 H     1 <1>   0.0800 
 36 H       -3.2290    -2.5430     2.2030 H     1 <1>   0.0800 
 37 H       -2.4010    -1.8220     0.8610 H     1 <1>   0.0800 
 38 H       -3.8260    -0.2050    -0.7120 H     1 <1>   0.0800 
 39 H       -5.4960     0.0260    -0.3340 H     1 <1>   0.0800 
 40 H       -0.1620     1.8310    -1.8360 H     1 <1>   0.0800 
 41 H        0.5340     1.0840    -0.4170 H     1 <1>   0.0800 
 42 H        1.4070     2.3420    -1.2470 H     1 <1>   0.0800 
 43 H        1.2350     5.4730     0.1490 H     1 <1>   0.1500 
 44 H       -1.5180     6.2990    -2.9700 H     1 <1>   0.1500 
 45 H        0.4500     7.3890    -1.6030 H     1 <1>   0.1500 
 46 H       -7.1380    -0.9720     0.8040 H     1 <1>   0.0800 
 47 H       -7.4310    -1.4850     2.4490 H     1 <1>   0.0800 
 48 H       -3.1320    -2.7490    -1.3320 H     1 <1>   0.2700 
 49 H       -7.9820    -3.2340     0.6620 H     1 <1>   0.0800 
 50 H       -6.9020    -3.7860     1.9200 H     1 <1>   0.0800 
 51 H       -3.3700    -4.8570    -3.1700 H     1 <1>   0.1500 
 52 H       -7.6400    -5.6020    -0.7820 H     1 <1>   0.1500 
 53 H       -4.8670    -6.7100    -3.8360 H     1 <1>   0.1500 
 54 H       -6.9790    -7.0810    -2.6570 H     1 <1>   0.1500 
@<TRIPOS>BOND
  1   1   2  2   
  2   2   3  am  
  3   2   4  1   
  4   3   5  1   
  5   3   6  1   
  6   4   7  1   
  7   4  29  1   
  8   4  30  1   
  9   5   8  1   
 10   5  31  1   
 11   5  32  1   
 12   6   9  1   
 13   6  33  1   
 14   6  34  1   
 15   7  10  1   
 16   7  11  1   
 17   7  35  1   
 18   8  12  1   
 19   8  36  1   
 20   8  37  1   
 21   9  12  1   
 22   9  38  1   
 23   9  39  1   
 24  10  13  1   
 25  10  14  1   
 26  11  40  1   
 27  11  41  1   
 28  11  42  1   
 29  12  15  1   
 30  12  16  1   
 31  13  17  2   
 32  14  18  2   
 33  14  43  1   
 34  15  19  1   
 35  16  20  1   
 36  16  21  2   
 37  17  18  1   
 38  17  44  1   
 39  18  45  1   
 40  19  22  1   
 41  19  46  1   
 42  19  47  1   
 43  20  23  1   
 44  20  48  1   
 45  21  22  1   
 46  21  24  1   
 47  22  49  1   
 48  22  50  1   
 49  23  24  ar  
 50  23  25  ar  
 51  24  26  ar  
 52  25  27  ar  
 53  25  51  1   
 54  26  28  ar  
 55  26  52  1   
 56  27  28  ar  
 57  27  53  1   
 58  28  54  1   
@<TRIPOS>SUBSTRUCTURE
  1 ****   9 GROUP 4 **** **** 0

# MOE 2024.06 (io_trps.svl 2023.06)
