@<TRIPOS>MOLECULE
NONAME
52 54 1 0 0 
SMALL
USER_CHARGES


@<TRIPOS>ATOM
  1 CL       2.8090    -3.7430     4.3730 Cl    1 <1>  -0.1770 
  2 C        3.1780    -3.6450     2.6710 C.ar  1 <1>   0.1770 
  3 C        2.1450    -3.6530     1.7570 C.ar  1 <1>  -0.1500 
  4 C        4.4980    -3.5650     2.2710 C.ar  1 <1>  -0.1500 
  5 C        2.4190    -3.5890     0.3930 C.ar  1 <1>   0.0860 
  6 C        4.7920    -3.4840     0.9200 C.ar  1 <1>  -0.1440 
  7 C        1.3630    -3.6380    -0.5990 C.2   1 <1>   0.5440 
  8 C        3.7550    -3.4900     0.0020 C.ar  1 <1>  -0.1500 
  9 C        6.2260    -3.3990     0.4330 C.3   1 <1>  -0.0960 
 10 O        1.1410    -2.6420    -1.2610 O.2   1 <1>  -0.5700 
 11 N        0.6060    -4.7710    -0.8290 N.am  1 <1>  -0.6600 
 12 C        0.8660    -6.0830    -0.1230 C.3   1 <1>   0.3640 
 13 C       -0.5880    -4.6810    -1.7240 C.3   1 <1>   0.1400 
 14 C        2.3300    -6.4840    -0.3320 C.ar  1 <1>  -0.1430 
 15 C       -0.0400    -7.2850    -0.5440 C.3   1 <1>   0.2000 
 16 C       -1.0030    -6.0400    -2.2810 C.3   1 <1>   0.1200 
 17 C        3.1110    -6.8520     0.7530 C.ar  1 <1>  -0.1500 
 18 C        2.9090    -6.4670    -1.5930 C.ar  1 <1>  -0.1500 
 19 O       -1.2100    -6.9140    -1.2230 O.3   1 <1>  -0.5600 
 20 C       -0.5030    -8.1270     0.6560 C.3   1 <1>   0.1200 
 21 C        4.4440    -7.1900     0.6020 C.ar  1 <1>   0.0830 
 22 C        4.2400    -6.8070    -1.7640 C.ar  1 <1>  -0.1500 
 23 O        0.5640    -8.5160     1.4600 O.3   1 <1>  -0.6800 
 24 O        5.0910    -7.5280     1.7500 O.3   1 <1>  -0.3630 
 25 C        5.0260    -7.1750    -0.6750 C.ar  1 <1>   0.0830 
 26 C        6.4000    -7.0630     1.9870 C.3   1 <1>   0.0400 
 27 O        6.3350    -7.5310    -0.8260 O.3   1 <1>  -0.3630 
 28 C        6.9080    -7.7440    -2.0970 C.3   1 <1>   0.0400 
 29 H        1.1290    -3.7120     2.1000 H     1 <1>   0.1500 
 30 H        5.2760    -3.5670     3.0130 H     1 <1>   0.1500 
 31 H        3.9720    -3.4290    -1.0500 H     1 <1>   0.1500 
 32 H        6.3620    -2.5070    -0.1530 H     1 <1>   0.0800 
 33 H        6.4530    -4.2540    -0.1790 H     1 <1>   0.0800 
 34 H        6.9140    -3.3740     1.2590 H     1 <1>   0.0800 
 35 H        0.7070    -5.9130     0.9270 H     1 <1>   0.0800 
 36 H       -1.4090    -4.2610    -1.1690 H     1 <1>   0.0800 
 37 H       -0.3780    -4.0210    -2.5480 H     1 <1>   0.0800 
 38 H        0.5090    -7.9250    -1.2120 H     1 <1>   0.0800 
 39 H       -0.2510    -6.4400    -2.9390 H     1 <1>   0.0800 
 40 H       -1.9290    -5.9500    -2.8210 H     1 <1>   0.0800 
 41 H        2.6920    -6.8740     1.7450 H     1 <1>   0.1500 
 42 H        2.3240    -6.1760    -2.4480 H     1 <1>   0.1500 
 43 H       -1.0080    -9.0150     0.3180 H     1 <1>   0.0800 
 44 H       -1.1730    -7.5500     1.2690 H     1 <1>   0.0800 
 45 H        4.6420    -6.7730    -2.7570 H     1 <1>   0.1500 
 46 H        1.1820    -9.1030     0.9780 H     1 <1>   0.4000 
 47 H        6.5700    -7.0690     3.0480 H     1 <1>   0.0800 
 48 H        6.4930    -6.0630     1.6030 H     1 <1>   0.0800 
 49 H        7.0960    -7.7240     1.5040 H     1 <1>   0.0800 
 50 H        7.9120    -8.1010    -1.9550 H     1 <1>   0.0800 
 51 H        6.9250    -6.8130    -2.6350 H     1 <1>   0.0800 
 52 H        6.3290    -8.4850    -2.6210 H     1 <1>   0.0800 
@<TRIPOS>BOND
  1   1   2  1   
  2   2   3  ar  
  3   2   4  ar  
  4   3   5  ar  
  5   3  29  1   
  6   4   6  ar  
  7   4  30  1   
  8   5   7  1   
  9   5   8  ar  
 10   6   8  ar  
 11   6   9  1   
 12   7  10  2   
 13   7  11  am  
 14   8  31  1   
 15   9  32  1   
 16   9  33  1   
 17   9  34  1   
 18  11  12  1   
 19  11  13  1   
 20  12  14  1   
 21  12  15  1   
 22  12  35  1   
 23  13  16  1   
 24  13  36  1   
 25  13  37  1   
 26  14  17  ar  
 27  14  18  ar  
 28  15  19  1   
 29  15  20  1   
 30  15  38  1   
 31  16  19  1   
 32  16  39  1   
 33  16  40  1   
 34  17  21  ar  
 35  17  41  1   
 36  18  22  ar  
 37  18  42  1   
 38  20  23  1   
 39  20  43  1   
 40  20  44  1   
 41  21  24  1   
 42  21  25  ar  
 43  22  25  ar  
 44  22  45  1   
 45  23  46  1   
 46  24  26  1   
 47  25  27  1   
 48  26  47  1   
 49  26  48  1   
 50  26  49  1   
 51  27  28  1   
 52  28  50  1   
 53  28  51  1   
 54  28  52  1   
@<TRIPOS>SUBSTRUCTURE
  1 ****  14 GROUP 4 **** **** 0

# MOE 2024.06 (io_trps.svl 2023.06)
