@<TRIPOS>MOLECULE
NONAME
34 35 1 0 0 
SMALL
USER_CHARGES


@<TRIPOS>ATOM
  1 O        2.7210    -0.4030     1.9930 O.2   1 <1>  -0.5770 
  2 C        1.9150    -1.1420     1.4740 C.2   1 <1>   0.5620 
  3 N        2.0500    -1.6780     0.2400 N.am  1 <1>  -0.6670 
  4 C        0.6000    -1.5160     2.0990 C.3   1 <1>  -0.1110 
  5 C        3.3190    -1.6460    -0.5810 C.3   1 <1>   0.2710 
  6 C        0.8480    -2.4510    -0.1540 C.3   1 <1>   0.1290 
  7 C       -0.1880    -2.1160     0.9260 C.3   1 <1>  -0.1710 
  8 C        3.6500    -0.2280    -1.1240 C.2   1 <1>   0.8480 
  9 C        3.3070    -2.7370    -1.6670 C.3   1 <1>  -0.2500 
 10 O        3.8790    -0.0200    -2.2900 O.2   1 <1>  -0.5770 
 11 N        3.6870     0.7930    -0.2370 N.pl3 1 <1>  -0.7350 
 12 C        3.8720     2.0860    -0.4430 C.cat 1 <1>   1.0680 
 13 N        4.1460     2.6610    -1.5970 N.pl3 1 <1>  -0.7060 
 14 N        3.7990     3.0060     0.5150 N.pl3 1 <1>  -0.7690 
 15 C        4.2560     4.0160    -1.3920 C.2   1 <1>   0.1890 
 16 C        4.0400     4.2320    -0.0800 C.2   1 <1>   0.1890 
 17 C        3.5050     2.8010     1.9610 C.3   1 <1>   0.2640 
 18 H        0.1060    -0.6570     2.5150 H     1 <1>   0.0680 
 19 H        0.7710    -2.2500     2.8650 H     1 <1>   0.0680 
 20 H        4.1230    -1.8970     0.0900 H     1 <1>   0.0680 
 21 H        1.0720    -3.5040    -0.1420 H     1 <1>   0.0680 
 22 H        0.4990    -2.1580    -1.1300 H     1 <1>   0.0680 
 23 H       -0.8750    -1.3850     0.5370 H     1 <1>   0.0680 
 24 H       -0.7470    -2.9880     1.2200 H     1 <1>   0.0680 
 25 H        2.5410    -2.5460    -2.3970 H     1 <1>   0.0680 
 26 H        3.1600    -3.7080    -1.2280 H     1 <1>   0.0680 
 27 H        4.2540    -2.7500    -2.1780 H     1 <1>   0.0680 
 28 H        3.4220     0.5260     0.7150 H     1 <1>   0.4420 
 29 H        4.2350     2.1130    -2.4600 H     1 <1>   0.4420 
 30 H        4.4760     4.7180    -2.1810 H     1 <1>   0.1390 
 31 H        4.0420     5.1640     0.4640 H     1 <1>   0.1390 
 32 H        4.1180     2.0100     2.3580 H     1 <1>   0.0680 
 33 H        2.4680     2.5410     2.0930 H     1 <1>   0.0680 
 34 H        3.7100     3.7030     2.5130 H     1 <1>   0.0680 
@<TRIPOS>BOND
  1   1   2  2   
  2   2   3  am  
  3   2   4  1   
  4   3   5  1   
  5   3   6  1   
  6   4   7  1   
  7   4  18  1   
  8   4  19  1   
  9   5   8  1   
 10   5   9  1   
 11   5  20  1   
 12   6   7  1   
 13   6  21  1   
 14   6  22  1   
 15   7  23  1   
 16   7  24  1   
 17   8  10  2   
 18   8  11  1   
 19   9  25  1   
 20   9  26  1   
 21   9  27  1   
 22  11  12  ar  
 23  11  28  1   
 24  12  13  ar  
 25  12  14  ar  
 26  13  15  1   
 27  13  29  1   
 28  14  16  1   
 29  14  17  1   
 30  15  16  2   
 31  15  30  1   
 32  16  31  1   
 33  17  32  1   
 34  17  33  1   
 35  17  34  1   
@<TRIPOS>SUBSTRUCTURE
  1 ****  11 GROUP 4 **** **** 0

# MOE 2024.06 (io_trps.svl 2023.06)
