@<TRIPOS>MOLECULE
NONAME
61 63 1 0 0 
SMALL
USER_CHARGES


@<TRIPOS>ATOM
  1 O       -0.0040     2.6900     1.1550 O.2   1 <1>  -0.5700 
  2 C        1.1350     2.6140     0.7710 C.2   1 <1>   0.5690 
  3 N        1.8860     1.4930     0.6950 N.am  1 <1>  -0.6600 
  4 C        1.9160     3.8120     0.3150 C.3   1 <1>  -0.0990 
  5 C        3.2540     1.7620     0.2210 C.3   1 <1>   0.1400 
  6 C        1.4720     0.1520     1.1620 C.3   1 <1>   0.1400 
  7 C        3.1650     3.1910    -0.3390 C.3   1 <1>  -0.0190 
  8 C        1.2490    -0.7610    -0.0400 C.3   1 <1>  -0.2400 
  9 C        4.4360     3.9960    -0.1140 C.2   1 <1>   0.5690 
 10 O        4.9660     3.9920     0.9730 O.2   1 <1>  -0.5700 
 11 N        4.9500     4.7850    -1.1050 N.am  1 <1>  -0.6600 
 12 C        6.4250     5.0570    -1.1440 C.3   1 <1>   0.1400 
 13 C        4.1110     5.7830    -1.8120 C.3   1 <1>   0.1400 
 14 C        6.8390     6.3000    -0.3300 C.3   1 <1>   0.3430 
 15 C        3.6760     6.8840    -0.8300 C.3   1 <1>  -0.1600 
 16 N        5.7510     6.7670     0.5860 N.4   1 <1>  -0.9590 
 17 C        4.8050     7.6610    -0.1390 C.3   1 <1>   0.3430 
 18 C        6.3410     7.4380     1.7880 C.3   1 <1>   0.5240 
 19 C        6.9100     8.8200     1.4520 C.2   1 <1>   0.0460 
 20 N        7.7880     9.0040     0.4430 N.2   1 <1>  -0.5650 
 21 C        6.6410     9.9940     2.0670 C.2   1 <1>  -0.3020 
 22 C        8.0430    10.2720     0.4710 C.2   1 <1>   0.0060 
 23 N        7.3730    10.9330     1.4390 N.pl3 1 <1>   0.0330 
 24 C        9.0020    10.9680    -0.4790 C.3   1 <1>   0.0200 
 25 C       10.2900    11.3870     0.2430 C.3   1 <1>  -0.1600 
 26 C       11.2760    12.0670    -0.7150 C.3   1 <1>  -0.1600 
 27 C       12.5570    12.4780     0.0170 C.3   1 <1>  -0.2400 
 28 H        2.1680     4.3950     1.1810 H     1 <1>   0.0800 
 29 H        1.3410     4.3960    -0.3790 H     1 <1>   0.0800 
 30 H        3.5460     1.0600    -0.5410 H     1 <1>   0.0800 
 31 H        3.9330     1.7000     1.0550 H     1 <1>   0.0800 
 32 H        0.5570     0.2390     1.7240 H     1 <1>   0.0800 
 33 H        2.2300    -0.2550     1.8100 H     1 <1>   0.0800 
 34 H        2.9900     3.1000    -1.3960 H     1 <1>   0.0800 
 35 H        0.5000    -0.3400    -0.6860 H     1 <1>   0.0800 
 36 H        0.9040    -1.7220     0.2980 H     1 <1>   0.0800 
 37 H        2.1620    -0.9010    -0.5880 H     1 <1>   0.0800 
 38 H        6.7500     5.1690    -2.1640 H     1 <1>   0.0800 
 39 H        6.9450     4.2040    -0.7430 H     1 <1>   0.0800 
 40 H        3.2410     5.3000    -2.2250 H     1 <1>   0.0800 
 41 H        4.6630     6.2120    -2.6320 H     1 <1>   0.0800 
 42 H        7.1150     7.0970    -1.0010 H     1 <1>   0.0800 
 43 H        7.7200     6.0520     0.2400 H     1 <1>   0.0800 
 44 H        3.0300     6.4680    -0.0790 H     1 <1>   0.0800 
 45 H        3.0810     7.5940    -1.3770 H     1 <1>   0.0800 
 46 H        5.2650     5.9010     0.8900 H     1 <1>   0.4500 
 47 H        4.3590     8.3510     0.5590 H     1 <1>   0.0800 
 48 H        5.3500     8.2460    -0.8630 H     1 <1>   0.0800 
 49 H        7.1290     6.8260     2.1930 H     1 <1>   0.0800 
 50 H        5.5850     7.5520     2.5460 H     1 <1>   0.0800 
 51 H        5.9970    10.2200     2.8990 H     1 <1>   0.1500 
 52 H        7.4310    11.9350     1.6490 H     1 <1>   0.2700 
 53 H        8.5210    11.8300    -0.9070 H     1 <1>   0.0800 
 54 H        9.2480    10.2940    -1.2810 H     1 <1>   0.0800 
 55 H       10.7500    10.5110     0.6690 H     1 <1>   0.0800 
 56 H       10.0510    12.0610     1.0470 H     1 <1>   0.0800 
 57 H       10.8220    12.9420    -1.1480 H     1 <1>   0.0800 
 58 H       11.5310    11.3920    -1.5150 H     1 <1>   0.0800 
 59 H       12.3350    13.1750     0.8060 H     1 <1>   0.0800 
 60 H       13.2390    12.9480    -0.6710 H     1 <1>   0.0800 
 61 H       13.0410    11.6160     0.4410 H     1 <1>   0.0800 
@<TRIPOS>BOND
  1   1   2  2   
  2   2   3  am  
  3   2   4  1   
  4   3   5  1   
  5   3   6  1   
  6   4   7  1   
  7   4  28  1   
  8   4  29  1   
  9   5   7  1   
 10   5  30  1   
 11   5  31  1   
 12   6   8  1   
 13   6  32  1   
 14   6  33  1   
 15   7   9  1   
 16   7  34  1   
 17   8  35  1   
 18   8  36  1   
 19   8  37  1   
 20   9  10  2   
 21   9  11  am  
 22  11  12  1   
 23  11  13  1   
 24  12  14  1   
 25  12  38  1   
 26  12  39  1   
 27  13  15  1   
 28  13  40  1   
 29  13  41  1   
 30  14  16  1   
 31  14  42  1   
 32  14  43  1   
 33  15  17  1   
 34  15  44  1   
 35  15  45  1   
 36  16  17  1   
 37  16  18  1   
 38  16  46  1   
 39  17  47  1   
 40  17  48  1   
 41  18  19  1   
 42  18  49  1   
 43  18  50  1   
 44  19  20  1   
 45  19  21  2   
 46  20  22  2   
 47  21  23  1   
 48  21  51  1   
 49  22  23  1   
 50  22  24  1   
 51  23  52  1   
 52  24  25  1   
 53  24  53  1   
 54  24  54  1   
 55  25  26  1   
 56  25  55  1   
 57  25  56  1   
 58  26  27  1   
 59  26  57  1   
 60  26  58  1   
 61  27  59  1   
 62  27  60  1   
 63  27  61  1   
@<TRIPOS>SUBSTRUCTURE
  1 ****  16 GROUP 4 **** **** 0

# MOE 2024.06 (io_trps.svl 2023.06)
