@<TRIPOS>MOLECULE
NONAME
45 46 1 0 0 
SMALL
USER_CHARGES


@<TRIPOS>ATOM
  1 O       -0.9010     0.3050     1.8830 O.2   1 <1>  -0.5700 
  2 C       -1.5000     0.7270     0.9210 C.2   1 <1>   0.5690 
  3 N       -2.3160    -0.1020     0.1860 N.am  1 <1>  -0.6600 
  4 C       -1.3020     2.2160     0.6060 C.3   1 <1>  -0.0190 
  5 C       -2.7170    -1.4240     0.7590 C.3   1 <1>   0.3200 
  6 C       -2.9050     0.1930    -1.1540 C.3   1 <1>   0.0600 
  7 C       -2.6200     3.0120     0.4860 C.3   1 <1>  -0.1600 
  8 C       -0.3310     2.4690    -0.5740 C.3   1 <1>  -0.1600 
  9 C       -4.2250    -1.6000     0.7160 C.2   1 <1>  -0.0400 
 10 C       -2.3760     4.5320     0.3910 C.3   1 <1>   0.2000 
 11 C       -0.5700     3.8170    -1.2800 C.3   1 <1>  -0.1600 
 12 O       -4.9980    -0.7560     1.3460 O.3   1 <1>  -0.0190 
 13 C       -5.0100    -2.5070     0.1130 C.2   1 <1>  -0.1500 
 14 O       -3.4290     5.0960    -0.3550 O.3   1 <1>  -0.5600 
 15 C       -1.0220     4.8870    -0.2830 C.3   1 <1>   0.2000 
 16 N       -6.2580    -1.0460     1.1920 N.2   1 <1>  -0.4100 
 17 C       -6.2960    -2.0980     0.4550 C.2   1 <1>   0.1080 
 18 C       -4.6230     5.2750     0.3440 C.3   1 <1>   0.0400 
 19 O       -1.1550     6.0770    -0.9690 O.3   1 <1>  -0.6800 
 20 C       -7.5750    -2.7920     0.0240 C.3   1 <1>   0.0210 
 21 C       -7.8930    -2.5120    -1.4490 C.3   1 <1>  -0.2400 
 22 H       -0.8140     2.6210     1.4770 H     1 <1>   0.0800 
 23 H       -2.2430    -2.2080     0.1940 H     1 <1>   0.0800 
 24 H       -2.3960    -1.5130     1.7820 H     1 <1>   0.0800 
 25 H       -2.8280    -0.6740    -1.7860 H     1 <1>   0.0800 
 26 H       -2.3990     1.0050    -1.6390 H     1 <1>   0.0800 
 27 H       -3.9450     0.4520    -1.0440 H     1 <1>   0.0800 
 28 H       -3.2360     2.8030     1.3430 H     1 <1>   0.0800 
 29 H       -3.1530     2.7010    -0.3910 H     1 <1>   0.0800 
 30 H        0.6730     2.4490    -0.1850 H     1 <1>   0.0800 
 31 H       -0.3910     1.6790    -1.3000 H     1 <1>   0.0800 
 32 H       -2.3760     4.9690     1.3750 H     1 <1>   0.0800 
 33 H       -1.3370     3.6960    -2.0270 H     1 <1>   0.0800 
 34 H        0.3340     4.1310    -1.7710 H     1 <1>   0.0800 
 35 H       -4.7500    -3.3520    -0.4950 H     1 <1>   0.1500 
 36 H       -0.2590     5.0200     0.4640 H     1 <1>   0.0800 
 37 H       -5.3330     5.7340    -0.3210 H     1 <1>   0.0800 
 38 H       -4.4490     5.9200     1.1880 H     1 <1>   0.0800 
 39 H       -5.0000     4.3210     0.6670 H     1 <1>   0.0800 
 40 H       -2.1110     6.1410    -1.1990 H     1 <1>   0.4000 
 41 H       -7.4730    -3.8500     0.1820 H     1 <1>   0.0800 
 42 H       -8.3870    -2.4410     0.6390 H     1 <1>   0.0800 
 43 H       -7.1020    -2.8770    -2.0790 H     1 <1>   0.0800 
 44 H       -8.0010    -1.4530    -1.6050 H     1 <1>   0.0800 
 45 H       -8.8110    -2.9980    -1.7280 H     1 <1>   0.0800 
@<TRIPOS>BOND
  1   1   2  2   
  2   2   3  am  
  3   2   4  1   
  4   3   5  1   
  5   3   6  1   
  6   4   7  1   
  7   4   8  1   
  8   4  22  1   
  9   5   9  1   
 10   5  23  1   
 11   5  24  1   
 12   6  25  1   
 13   6  26  1   
 14   6  27  1   
 15   7  10  1   
 16   7  28  1   
 17   7  29  1   
 18   8  11  1   
 19   8  30  1   
 20   8  31  1   
 21   9  12  1   
 22   9  13  2   
 23  10  14  1   
 24  10  15  1   
 25  10  32  1   
 26  11  15  1   
 27  11  33  1   
 28  11  34  1   
 29  12  16  1   
 30  13  17  1   
 31  13  35  1   
 32  14  18  1   
 33  15  19  1   
 34  15  36  1   
 35  16  17  2   
 36  17  20  1   
 37  18  37  1   
 38  18  38  1   
 39  18  39  1   
 40  19  40  1   
 41  20  21  1   
 42  20  41  1   
 43  20  42  1   
 44  21  43  1   
 45  21  44  1   
 46  21  45  1   
@<TRIPOS>SUBSTRUCTURE
  1 ****   3 GROUP 4 **** **** 0

# MOE 2024.06 (io_trps.svl 2023.06)
