@<TRIPOS>MOLECULE
NONAME
36 37 1 0 0 
SMALL
USER_CHARGES


@<TRIPOS>ATOM
  1 CL      -0.1710    -0.0200    -1.0080 Cl    1 <1>  -0.1770 
  2 C        1.0790    -1.0110    -0.2740 C.ar  1 <1>   0.1770 
  3 C        0.9540    -2.3940    -0.2130 C.ar  1 <1>   0.4100 
  4 C        2.2010    -0.4330     0.2510 C.ar  1 <1>   0.1600 
  5 N        1.9080    -3.1190     0.3450 N.ar  1 <1>  -0.6200 
  6 N       -0.1590    -3.0340    -0.7220 N.pl3 1 <1>  -0.8690 
  7 N        3.1600    -1.1530     0.8090 N.ar  1 <1>  -0.6200 
  8 C        2.9500    -2.4590     0.8190 C.ar  1 <1>   0.4770 
  9 C       -0.3980    -4.4830    -0.9360 C.3   1 <1>   0.2890 
 10 C        4.0270    -3.3070     1.4510 C.3   1 <1>  -0.0970 
 11 C       -0.4720    -5.2380     0.3990 C.3   1 <1>  -0.0160 
 12 C        0.6440    -5.0320    -1.9130 C.3   1 <1>  -0.2400 
 13 C       -0.8520    -6.6990     0.1910 C.ar  1 <1>   0.1670 
 14 N       -2.1020    -6.8810    -0.2140 N.ar  1 <1>  -0.6200 
 15 C        0.0540    -7.7400     0.4120 C.ar  1 <1>  -0.1430 
 16 C       -2.4760    -8.1330    -0.4060 C.ar  1 <1>   0.1600 
 17 C       -0.3640    -9.0400     0.2020 C.ar  1 <1>  -0.1500 
 18 C        1.4890    -7.5110     0.8740 C.3   1 <1>  -0.0970 
 19 C       -1.6610    -9.2320    -0.2160 C.ar  1 <1>  -0.1500 
 20 H        2.3210     0.6350     0.2160 H     1 <1>   0.1500 
 21 H       -0.8590    -2.4350    -1.1700 H     1 <1>   0.4000 
 22 H       -1.3620    -4.5810    -1.4080 H     1 <1>   0.0800 
 23 H        4.3100    -4.0910     0.7750 H     1 <1>   0.0800 
 24 H        3.6510    -3.7410     2.3580 H     1 <1>   0.0800 
 25 H        4.8920    -2.7120     1.6790 H     1 <1>   0.0800 
 26 H       -1.2300    -4.7800     1.0070 H     1 <1>   0.0800 
 27 H        0.4540    -5.1500     0.9240 H     1 <1>   0.0800 
 28 H        1.6230    -5.0270    -1.4730 H     1 <1>   0.0800 
 29 H        0.6550    -4.4400    -2.8090 H     1 <1>   0.0800 
 30 H        0.3980    -6.0440    -2.1810 H     1 <1>   0.0800 
 31 H       -3.4900    -8.2920    -0.7320 H     1 <1>   0.1500 
 32 H        0.2910    -9.8790     0.3580 H     1 <1>   0.1500 
 33 H        1.9940    -6.8400     0.2030 H     1 <1>   0.0800 
 34 H        2.0390    -8.4340     0.9000 H     1 <1>   0.0800 
 35 H        1.4930    -7.0880     1.8620 H     1 <1>   0.0800 
 36 H       -2.0380   -10.2220    -0.3930 H     1 <1>   0.1500 
@<TRIPOS>BOND
  1   1   2  1   
  2   2   3  ar  
  3   2   4  ar  
  4   3   5  ar  
  5   3   6  1   
  6   4   7  ar  
  7   4  20  1   
  8   5   8  ar  
  9   6   9  1   
 10   6  21  1   
 11   7   8  ar  
 12   8  10  1   
 13   9  11  1   
 14   9  12  1   
 15   9  22  1   
 16  10  23  1   
 17  10  24  1   
 18  10  25  1   
 19  11  13  1   
 20  11  26  1   
 21  11  27  1   
 22  12  28  1   
 23  12  29  1   
 24  12  30  1   
 25  13  14  ar  
 26  13  15  ar  
 27  14  16  ar  
 28  15  17  ar  
 29  15  18  1   
 30  16  19  ar  
 31  16  31  1   
 32  17  19  ar  
 33  17  32  1   
 34  18  33  1   
 35  18  34  1   
 36  18  35  1   
 37  19  36  1   
@<TRIPOS>SUBSTRUCTURE
  1 ****  11 GROUP 4 **** **** 0

# MOE 2024.06 (io_trps.svl 2023.06)
