@<TRIPOS>MOLECULE
NONAME
37 38 1 0 0 
SMALL
USER_CHARGES


@<TRIPOS>ATOM
  1 O       -3.8430     2.3370    -0.4000 O.co2 1 <1>  -0.9000 
  2 C       -3.7060     1.4580     0.4670 C.2   1 <1>   1.0330 
  3 O       -4.6990     0.7310     0.6850 O.co2 1 <1>  -0.9000 
  4 C       -2.3750     0.9420     0.7940 C.2   1 <1>   0.0560 
  5 N       -1.6230     1.0550     1.8770 N.2   1 <1>  -0.7070 
  6 C       -1.7370     0.1260    -0.1490 C.2   1 <1>  -0.1810 
  7 N       -0.5180     0.3390     1.6220 N.pl3 1 <1>   0.3000 
  8 C       -0.5630    -0.2400     0.4050 C.2   1 <1>  -0.3020 
  9 C       -2.3860    -0.1800    -1.4870 C.3   1 <1>   0.5240 
 10 N       -3.6730    -0.8970    -1.2740 N.4   1 <1>  -0.9590 
 11 C       -3.5460    -2.2440    -0.6610 C.3   1 <1>   0.4230 
 12 C       -4.5180    -0.9510    -2.4840 C.3   1 <1>   0.3430 
 13 C       -4.5570    -3.1030    -1.4190 C.3   1 <1>  -0.1600 
 14 C       -3.7960    -2.2340     0.8590 C.3   1 <1>   0.1200 
 15 C       -4.6920    -2.4320    -2.7810 C.3   1 <1>  -0.1600 
 16 O       -3.7150    -3.5410     1.3450 O.3   1 <1>  -0.5600 
 17 C       -3.9540    -3.6340     2.7090 C.3   1 <1>   0.1200 
 18 C       -3.8270    -5.1020     3.0970 C.3   1 <1>  -0.2400 
 19 H        0.2500     0.2680     2.3010 H     1 <1>   0.2700 
 20 H        0.2300    -0.8580     0.0250 H     1 <1>   0.1500 
 21 H       -1.7240    -0.7720    -2.0940 H     1 <1>   0.0800 
 22 H       -2.5780     0.7550    -1.9900 H     1 <1>   0.0800 
 23 H       -4.2090    -0.3110    -0.5840 H     1 <1>   0.4500 
 24 H       -2.5540    -2.6200    -0.8460 H     1 <1>   0.0800 
 25 H       -4.0710    -0.4260    -3.3120 H     1 <1>   0.0800 
 26 H       -5.4760    -0.5070    -2.2600 H     1 <1>   0.0800 
 27 H       -5.5030    -3.0830    -0.9060 H     1 <1>   0.0800 
 28 H       -4.2260    -4.1240    -1.4880 H     1 <1>   0.0800 
 29 H       -4.7770    -1.8460     1.0760 H     1 <1>   0.0800 
 30 H       -3.0540    -1.6410     1.3640 H     1 <1>   0.0800 
 31 H       -3.9040    -2.7580    -3.4370 H     1 <1>   0.0800 
 32 H       -5.6420    -2.6350    -3.2440 H     1 <1>   0.0800 
 33 H       -4.9470    -3.2700     2.9170 H     1 <1>   0.0800 
 34 H       -3.2280    -3.0370     3.2340 H     1 <1>   0.0800 
 35 H       -4.5490    -5.6890     2.5590 H     1 <1>   0.0800 
 36 H       -4.0060    -5.2170     4.1500 H     1 <1>   0.0800 
 37 H       -2.8370    -5.4580     2.8760 H     1 <1>   0.0800 
@<TRIPOS>BOND
  1   1   2  ar  
  2   2   3  ar  
  3   2   4  1   
  4   4   5  2   
  5   4   6  1   
  6   5   7  1   
  7   6   8  2   
  8   6   9  1   
  9   7   8  1   
 10   7  19  1   
 11   8  20  1   
 12   9  10  1   
 13   9  21  1   
 14   9  22  1   
 15  10  11  1   
 16  10  12  1   
 17  10  23  1   
 18  11  13  1   
 19  11  14  1   
 20  11  24  1   
 21  12  15  1   
 22  12  25  1   
 23  12  26  1   
 24  13  15  1   
 25  13  27  1   
 26  13  28  1   
 27  14  16  1   
 28  14  29  1   
 29  14  30  1   
 30  15  31  1   
 31  15  32  1   
 32  16  17  1   
 33  17  18  1   
 34  17  33  1   
 35  17  34  1   
 36  18  35  1   
 37  18  36  1   
 38  18  37  1   
@<TRIPOS>SUBSTRUCTURE
  1 ****  10 GROUP 4 **** **** 0

# MOE 2024.06 (io_trps.svl 2023.06)
