@<TRIPOS>MOLECULE
NONAME
43 44 1 0 0 
SMALL
USER_CHARGES


@<TRIPOS>ATOM
  1 O        0.0450     0.5600    -0.6370 O.2   1 <1>  -0.5700 
  2 C       -0.0650     1.7610    -0.5700 C.2   1 <1>   0.5690 
  3 N       -1.1520     2.3710    -0.0020 N.am  1 <1>  -0.6600 
  4 C        1.0520     2.6220    -1.1600 C.3   1 <1>   0.1810 
  5 C       -1.2800     3.8680     0.0410 C.3   1 <1>   0.3640 
  6 C       -2.2440     1.5950     0.6560 C.3   1 <1>   0.0600 
  7 O        1.0970     3.9050    -0.5870 O.3   1 <1>  -0.5600 
  8 C       -2.6420     4.2740    -0.5400 C.ar  1 <1>  -0.1430 
  9 C       -0.1300     4.6130    -0.6870 C.3   1 <1>   0.2610 
 10 C       -3.5490     5.0710     0.1600 C.ar  1 <1>  -0.1430 
 11 C       -2.9820     3.8260    -1.8120 C.ar  1 <1>  -0.1500 
 12 C        0.0230     6.0150    -0.0940 C.2   1 <1>   0.5690 
 13 C       -4.7620     5.4020    -0.4250 C.ar  1 <1>  -0.1500 
 14 C       -3.2600     5.6070     1.5570 C.3   1 <1>  -0.0960 
 15 C       -4.1940     4.1610    -2.3860 C.ar  1 <1>  -0.1500 
 16 O       -0.7000     6.9010    -0.4830 O.2   1 <1>  -0.5700 
 17 N        0.9750     6.2090     0.8630 N.am  1 <1>  -0.7300 
 18 C       -5.0860     4.9510    -1.6910 C.ar  1 <1>  -0.1500 
 19 C        1.3390     7.4440     1.5780 C.3   1 <1>   0.2200 
 20 C        0.1460     7.9600     2.3780 C.3   1 <1>  -0.2400 
 21 C        1.8610     8.4840     0.5890 C.3   1 <1>  -0.2400 
 22 H        0.9130     2.7210    -2.2210 H     1 <1>   0.0800 
 23 H        1.9990     2.1480    -0.9760 H     1 <1>   0.0800 
 24 H       -1.2300     4.1480     1.0760 H     1 <1>   0.0800 
 25 H       -2.4280     1.9840     1.6410 H     1 <1>   0.0800 
 26 H       -1.9750     0.5560     0.7410 H     1 <1>   0.0800 
 27 H       -3.1470     1.6680     0.0740 H     1 <1>   0.0800 
 28 H       -0.3640     4.7190    -1.7310 H     1 <1>   0.0800 
 29 H       -2.3020     3.2020    -2.3660 H     1 <1>   0.1500 
 30 H       -5.4690     6.0190     0.1010 H     1 <1>   0.1500 
 31 H       -4.0800     6.2000     1.9190 H     1 <1>   0.0800 
 32 H       -2.3860     6.2300     1.5420 H     1 <1>   0.0800 
 33 H       -3.1090     4.7940     2.2440 H     1 <1>   0.0800 
 34 H       -4.4410     3.8060    -3.3720 H     1 <1>   0.1500 
 35 H        1.6250     5.4280     0.9970 H     1 <1>   0.3700 
 36 H       -6.0300     5.2180    -2.1330 H     1 <1>   0.1500 
 37 H        2.1310     7.2060     2.2690 H     1 <1>   0.0800 
 38 H       -0.6510     8.2640     1.7230 H     1 <1>   0.0800 
 39 H        0.4420     8.8120     2.9630 H     1 <1>   0.0800 
 40 H       -0.2120     7.1970     3.0450 H     1 <1>   0.0800 
 41 H        1.0860     8.7810    -0.0940 H     1 <1>   0.0800 
 42 H        2.6890     8.0850     0.0330 H     1 <1>   0.0800 
 43 H        2.1950     9.3570     1.1190 H     1 <1>   0.0800 
@<TRIPOS>BOND
  1   1   2  2   
  2   2   3  am  
  3   2   4  1   
  4   3   5  1   
  5   3   6  1   
  6   4   7  1   
  7   4  22  1   
  8   4  23  1   
  9   5   8  1   
 10   5   9  1   
 11   5  24  1   
 12   6  25  1   
 13   6  26  1   
 14   6  27  1   
 15   7   9  1   
 16   8  10  ar  
 17   8  11  ar  
 18   9  12  1   
 19   9  28  1   
 20  10  13  ar  
 21  10  14  1   
 22  11  15  ar  
 23  11  29  1   
 24  12  16  2   
 25  12  17  am  
 26  13  18  ar  
 27  13  30  1   
 28  14  31  1   
 29  14  32  1   
 30  14  33  1   
 31  15  18  ar  
 32  15  34  1   
 33  17  19  1   
 34  17  35  1   
 35  18  36  1   
 36  19  20  1   
 37  19  21  1   
 38  19  37  1   
 39  20  38  1   
 40  20  39  1   
 41  20  40  1   
 42  21  41  1   
 43  21  42  1   
 44  21  43  1   
@<TRIPOS>SUBSTRUCTURE
  1 ****   5 GROUP 4 **** **** 0

# MOE 2024.06 (io_trps.svl 2023.06)
