@<TRIPOS>MOLECULE
NONAME
45 47 1 0 0 
SMALL
USER_CHARGES


@<TRIPOS>ATOM
  1 O       -4.2610     2.8600    -0.9640 O.2   1 <1>  -0.5700 
  2 C       -3.1490     2.5020    -0.6600 C.2   1 <1>   0.5690 
  3 N       -2.7040     1.2490    -0.9230 N.am  1 <1>  -0.7300 
  4 C       -2.2210     3.4840     0.0370 C.3   1 <1>   0.0440 
  5 C       -3.4810     0.1610    -1.5520 C.3   1 <1>   0.2200 
  6 C       -1.0120     2.7940     0.6640 C.ar  1 <1>  -0.1440 
  7 C       -3.6710    -0.9560    -0.5400 C.3   1 <1>  -0.0800 
  8 C       -2.6390    -0.5200    -2.6290 C.3   1 <1>   0.1200 
  9 C        0.1480     2.6090    -0.0730 C.ar  1 <1>  -0.1500 
 10 C       -1.0750     2.3200     1.9650 C.ar  1 <1>  -0.1500 
 11 C       -2.3540    -1.7210    -0.6800 C.3   1 <1>   0.1200 
 12 C       -4.8920    -1.8290    -0.8840 C.3   1 <1>  -0.0160 
 13 O       -1.9380    -1.5580    -2.0030 O.3   1 <1>  -0.5600 
 14 C        1.2360     1.9520     0.4760 C.ar  1 <1>  -0.1440 
 15 C        0.0090     1.6640     2.5190 C.ar  1 <1>  -0.1500 
 16 C       -5.0890    -2.9380     0.1380 C.ar  1 <1>  -0.1440 
 17 C        1.1610     1.4780     1.7760 C.ar  1 <1>  -0.1500 
 18 C        2.4980     1.7470    -0.3430 C.3   1 <1>  -0.0970 
 19 C       -5.6210    -2.6890     1.3870 C.ar  1 <1>  -0.1500 
 20 C       -4.7470    -4.2490    -0.1270 C.ar  1 <1>  -0.1500 
 21 C       -5.7770    -3.7310     2.2860 C.ar  1 <1>   0.1600 
 22 C       -4.9440    -5.2180     0.8430 C.ar  1 <1>   0.1600 
 23 N       -5.4500    -4.9900     2.0440 N.ar  1 <1>  -0.6200 
 24 H       -1.7580     0.9950    -0.6160 H     1 <1>   0.3700 
 25 H       -1.8960     4.2130    -0.6820 H     1 <1>   0.0800 
 26 H       -2.7790     4.0020     0.7950 H     1 <1>   0.0800 
 27 H       -4.4090     0.5440    -1.9430 H     1 <1>   0.0800 
 28 H       -3.7900    -0.5660     0.4560 H     1 <1>   0.0800 
 29 H       -1.9430     0.1550    -3.0950 H     1 <1>   0.0800 
 30 H       -3.2700    -0.9640    -3.3780 H     1 <1>   0.0800 
 31 H        0.2050     2.9740    -1.0840 H     1 <1>   0.1500 
 32 H       -1.9680     2.4540     2.5510 H     1 <1>   0.1500 
 33 H       -2.4420    -2.7710    -0.4620 H     1 <1>   0.0800 
 34 H       -1.5970    -1.2890    -0.0470 H     1 <1>   0.0800 
 35 H       -4.7790    -2.2600    -1.8640 H     1 <1>   0.0800 
 36 H       -5.7760    -1.2160    -0.9000 H     1 <1>   0.0800 
 37 H       -0.0430     1.2960     3.5290 H     1 <1>   0.1500 
 38 H        1.9990     0.9650     2.2140 H     1 <1>   0.1500 
 39 H        3.3550     1.6560     0.3000 H     1 <1>   0.0800 
 40 H        2.6560     2.5820    -1.0020 H     1 <1>   0.0800 
 41 H        2.4080     0.8520    -0.9310 H     1 <1>   0.0800 
 42 H       -5.9160    -1.6950     1.6690 H     1 <1>   0.1500 
 43 H       -4.3270    -4.5260    -1.0770 H     1 <1>   0.1500 
 44 H       -6.1940    -3.5170     3.2550 H     1 <1>   0.1500 
 45 H       -4.6700    -6.2350     0.6180 H     1 <1>   0.1500 
@<TRIPOS>BOND
  1   1   2  2   
  2   2   3  am  
  3   2   4  1   
  4   3   5  1   
  5   3  24  1   
  6   4   6  1   
  7   4  25  1   
  8   4  26  1   
  9   5   7  1   
 10   5   8  1   
 11   5  27  1   
 12   6   9  ar  
 13   6  10  ar  
 14   7  11  1   
 15   7  12  1   
 16   7  28  1   
 17   8  13  1   
 18   8  29  1   
 19   8  30  1   
 20   9  14  ar  
 21   9  31  1   
 22  10  15  ar  
 23  10  32  1   
 24  11  13  1   
 25  11  33  1   
 26  11  34  1   
 27  12  16  1   
 28  12  35  1   
 29  12  36  1   
 30  14  17  ar  
 31  14  18  1   
 32  15  17  ar  
 33  15  37  1   
 34  16  19  ar  
 35  16  20  ar  
 36  17  38  1   
 37  18  39  1   
 38  18  40  1   
 39  18  41  1   
 40  19  21  ar  
 41  19  42  1   
 42  20  22  ar  
 43  20  43  1   
 44  21  23  ar  
 45  21  44  1   
 46  22  23  ar  
 47  22  45  1   
@<TRIPOS>SUBSTRUCTURE
  1 ****   7 GROUP 4 **** **** 0

# MOE 2024.06 (io_trps.svl 2023.06)
