@<TRIPOS>MOLECULE
NONAME
30 31 1 0 0 
SMALL
USER_CHARGES


@<TRIPOS>ATOM
  1 S       -0.6890     0.4280    -2.0750 S.3   1 <1>  -0.0800 
  2 C       -1.6220     0.6650    -0.6110 C.2   1 <1>   0.1980 
  3 C        0.5030     1.5350    -1.4610 C.2   1 <1>  -0.1100 
  4 N       -1.0930     1.4760     0.2200 N.2   1 <1>  -0.5650 
  5 C       -2.9350    -0.1010    -0.4880 C.3   1 <1>   0.3890 
  6 C        0.1100     1.9700    -0.2550 C.2   1 <1>   0.0460 
  7 N       -2.7450    -1.5810    -0.3360 N.pl3 1 <1>  -0.8210 
  8 C        0.8470     2.9450     0.6350 C.3   1 <1>  -0.0590 
  9 C       -3.8960    -2.3500    -0.5120 C.2   1 <1>   0.5990 
 10 C       -1.8310    -1.9690     0.7800 C.3   1 <1>   0.1290 
 11 N       -4.9690    -1.9600    -1.0880 N.2   1 <1>  -0.4100 
 12 N       -3.9640    -3.6010    -0.0740 N.2   1 <1>  -0.5650 
 13 O       -5.8060    -2.9630    -1.0560 O.3   1 <1>  -0.0190 
 14 C       -5.1400    -3.9060    -0.4380 C.2   1 <1>   0.2980 
 15 C       -5.8100    -5.2500    -0.2190 C.3   1 <1>   0.0200 
 16 C       -6.9900    -5.1510     0.7560 C.3   1 <1>  -0.2400 
 17 H        1.3650     1.7370    -2.0690 H     1 <1>   0.1500 
 18 H       -3.5180     0.1040    -1.3690 H     1 <1>   0.0800 
 19 H       -3.4750     0.2730     0.3640 H     1 <1>   0.0800 
 20 H        1.7610     3.2630     0.1690 H     1 <1>   0.0800 
 21 H        1.0760     2.4740     1.5740 H     1 <1>   0.0800 
 22 H        0.2290     3.8040     0.8190 H     1 <1>   0.0800 
 23 H       -0.8960    -1.4420     0.7050 H     1 <1>   0.0800 
 24 H       -1.6180    -3.0240     0.7360 H     1 <1>   0.0800 
 25 H       -2.2900    -1.7430     1.7260 H     1 <1>   0.0800 
 26 H       -5.0820    -5.9400     0.1720 H     1 <1>   0.0800 
 27 H       -6.1490    -5.6280    -1.1660 H     1 <1>   0.0800 
 28 H       -6.6530    -4.7760     1.7070 H     1 <1>   0.0800 
 29 H       -7.4310    -6.1210     0.9040 H     1 <1>   0.0800 
 30 H       -7.7420    -4.4860     0.3690 H     1 <1>   0.0800 
@<TRIPOS>BOND
  1   1   2  1   
  2   1   3  1   
  3   2   4  2   
  4   2   5  1   
  5   3   6  2   
  6   3  17  1   
  7   4   6  1   
  8   5   7  1   
  9   5  18  1   
 10   5  19  1   
 11   6   8  1   
 12   7   9  1   
 13   7  10  1   
 14   8  20  1   
 15   8  21  1   
 16   8  22  1   
 17   9  11  2   
 18   9  12  1   
 19  10  23  1   
 20  10  24  1   
 21  10  25  1   
 22  11  13  1   
 23  12  14  2   
 24  13  14  1   
 25  14  15  1   
 26  15  16  1   
 27  15  26  1   
 28  15  27  1   
 29  16  28  1   
 30  16  29  1   
 31  16  30  1   
@<TRIPOS>SUBSTRUCTURE
  1 ****   7 GROUP 4 **** **** 0

# MOE 2024.06 (io_trps.svl 2023.06)
