@<TRIPOS>MOLECULE
NONAME
42 44 1 0 0 
SMALL
USER_CHARGES


@<TRIPOS>ATOM
  1 O       -1.3590     0.8320     0.2580 O.3   1 <1>  -0.5600 
  2 C       -2.3200     0.4510    -0.6640 C.3   1 <1>   0.1200 
  3 C       -0.2680     1.5070    -0.2880 C.3   1 <1>   0.0400 
  4 C       -3.3890    -0.3360     0.1050 C.3   1 <1>   0.3430 
  5 N       -4.6140    -0.6270    -0.7150 N.4   1 <1>  -0.9590 
  6 C       -5.3900     0.6160    -1.0850 C.3   1 <1>   0.3430 
  7 C       -5.4820    -1.6410    -0.0170 C.3   1 <1>   0.3430 
  8 C       -6.0070     1.3570     0.1290 C.3   1 <1>   0.1430 
  9 C       -6.6800    -1.0210     0.7230 C.3   1 <1>  -0.1600 
 10 C       -7.2420     2.0840    -0.3620 C.ar  1 <1>   0.1670 
 11 C       -6.3910     0.3840     1.2720 C.3   1 <1>  -0.1600 
 12 C       -5.1320     2.5290     0.6520 C.3   1 <1>  -0.1600 
 13 N       -8.1640     1.5560    -1.1290 N.ar  1 <1>  -0.6200 
 14 C       -7.2810     3.3730     0.0800 C.ar  1 <1>  -0.1440 
 15 C       -6.0860     3.7050     0.9350 C.3   1 <1>  -0.0170 
 16 C       -9.1430     2.3940    -1.4420 C.ar  1 <1>   0.7200 
 17 C       -8.3520     4.1450    -0.3020 C.ar  1 <1>   0.1600 
 18 N       -9.2990     3.6570    -1.0710 N.ar  1 <1>  -0.6200 
 19 N      -10.1060     1.9020    -2.2210 N.pl3 1 <1>  -0.9000 
 20 H       -1.8550    -0.1690    -1.4120 H     1 <1>   0.0800 
 21 H       -2.7240     1.3430    -1.1080 H     1 <1>   0.0800 
 22 H        0.4080     1.7550     0.5120 H     1 <1>   0.0800 
 23 H       -0.6050     2.4100    -0.7660 H     1 <1>   0.0800 
 24 H        0.2330     0.8670    -0.9950 H     1 <1>   0.0800 
 25 H       -3.6660     0.2290     0.9780 H     1 <1>   0.0800 
 26 H       -2.9470    -1.2610     0.4340 H     1 <1>   0.0800 
 27 H       -4.2990    -1.0660    -1.5910 H     1 <1>   0.4500 
 28 H       -6.2010     0.3210    -1.7320 H     1 <1>   0.0800 
 29 H       -4.7750     1.2980    -1.6460 H     1 <1>   0.0800 
 30 H       -4.8830    -2.1930     0.6890 H     1 <1>   0.0800 
 31 H       -5.8620    -2.3490    -0.7370 H     1 <1>   0.0800 
 32 H       -6.9680    -1.6750     1.5290 H     1 <1>   0.0800 
 33 H       -7.5200    -0.9730     0.0500 H     1 <1>   0.0800 
 34 H       -7.2560     0.7560     1.7970 H     1 <1>   0.0800 
 35 H       -5.5930     0.3090     1.9890 H     1 <1>   0.0800 
 36 H       -4.4510     2.8440    -0.1200 H     1 <1>   0.0800 
 37 H       -4.5550     2.2780     1.5240 H     1 <1>   0.0800 
 38 H       -5.6480     4.6510     0.6630 H     1 <1>   0.0800 
 39 H       -6.3770     3.7230     1.9720 H     1 <1>   0.0800 
 40 H       -8.4340     5.1690     0.0230 H     1 <1>   0.1500 
 41 H      -10.9540     2.4630    -2.2560 H     1 <1>   0.4000 
 42 H      -10.2340     0.8950    -2.2020 H     1 <1>   0.4000 
@<TRIPOS>BOND
  1   1   2  1   
  2   1   3  1   
  3   2   4  1   
  4   2  20  1   
  5   2  21  1   
  6   3  22  1   
  7   3  23  1   
  8   3  24  1   
  9   4   5  1   
 10   4  25  1   
 11   4  26  1   
 12   5   6  1   
 13   5   7  1   
 14   5  27  1   
 15   6   8  1   
 16   6  28  1   
 17   6  29  1   
 18   7   9  1   
 19   7  30  1   
 20   7  31  1   
 21   8  10  1   
 22   8  11  1   
 23   8  12  1   
 24   9  11  1   
 25   9  32  1   
 26   9  33  1   
 27  10  13  ar  
 28  10  14  ar  
 29  11  34  1   
 30  11  35  1   
 31  12  15  1   
 32  12  36  1   
 33  12  37  1   
 34  13  16  ar  
 35  14  15  1   
 36  14  17  ar  
 37  15  38  1   
 38  15  39  1   
 39  16  18  ar  
 40  16  19  1   
 41  17  18  ar  
 42  17  40  1   
 43  19  41  1   
 44  19  42  1   
@<TRIPOS>SUBSTRUCTURE
  1 ****   8 GROUP 4 **** **** 0

# MOE 2024.06 (io_trps.svl 2023.06)
