@<TRIPOS>MOLECULE
NONAME
42 44 1 0 0 
SMALL
USER_CHARGES


@<TRIPOS>ATOM
  1 S       -1.5100     0.8800     0.9140 S.3   1 <1>  -0.0800 
  2 C       -1.5150    -0.6560     0.0640 C.2   1 <1>  -0.1400 
  3 C       -0.6100     1.6460    -0.3810 C.2   1 <1>  -0.1400 
  4 C       -0.8600    -0.5490    -1.1090 C.2   1 <1>  -0.1500 
  5 C       -2.2250    -1.7950     0.7560 C.3   1 <1>   0.5230 
  6 C       -0.3480     0.7630    -1.3610 C.2   1 <1>  -0.1500 
  7 C       -0.2700     3.1130    -0.2170 C.3   1 <1>  -0.0600 
  8 N       -3.1440    -2.4330    -0.2270 N.4   1 <1>  -0.9590 
  9 C       -4.5490    -1.9500    -0.0890 C.3   1 <1>   0.4230 
 10 C       -3.0350    -3.9230    -0.1510 C.3   1 <1>   0.2630 
 11 C       -5.4660    -2.5670    -1.1440 C.3   1 <1>  -0.1600 
 12 C       -4.6800    -0.4470    -0.3320 C.3   1 <1>  -0.1600 
 13 C       -6.6380    -1.5890    -1.2810 C.3   1 <1>  -0.0800 
 14 C       -6.1340    -0.2320    -0.7670 C.3   1 <1>  -0.0800 
 15 C       -7.8540    -1.9540    -0.4170 C.3   1 <1>  -0.1600 
 16 C       -7.0710     0.1750     0.3800 C.3   1 <1>  -0.1600 
 17 C       -8.3410    -0.6230     0.1330 C.3   1 <1>   0.2000 
 18 O       -9.0280    -0.8110     1.3100 O.3   1 <1>  -0.6800 
 19 H       -0.6940    -1.3310    -1.8310 H     1 <1>   0.1500 
 20 H       -2.7780    -1.4270     1.6060 H     1 <1>   0.0800 
 21 H       -1.4890    -2.5010     1.1060 H     1 <1>   0.0800 
 22 H        0.1940     0.9820    -2.2650 H     1 <1>   0.1500 
 23 H        0.2820     3.4650    -1.0700 H     1 <1>   0.0800 
 24 H        0.3290     3.2550     0.6650 H     1 <1>   0.0800 
 25 H       -1.1710     3.6920    -0.1240 H     1 <1>   0.0800 
 26 H       -2.8140    -2.1140    -1.1470 H     1 <1>   0.4500 
 27 H       -4.9370    -2.1830     0.8890 H     1 <1>   0.0800 
 28 H       -3.3920    -4.2790     0.8030 H     1 <1>   0.0800 
 29 H       -2.0080    -4.2310    -0.2720 H     1 <1>   0.0800 
 30 H       -3.6190    -4.3840    -0.9300 H     1 <1>   0.0800 
 31 H       -4.9560    -2.6130    -2.0910 H     1 <1>   0.0800 
 32 H       -5.8020    -3.5510    -0.8700 H     1 <1>   0.0800 
 33 H       -4.4390     0.1320     0.5410 H     1 <1>   0.0800 
 34 H       -4.0410    -0.1460    -1.1440 H     1 <1>   0.0800 
 35 H       -6.9460    -1.5020    -2.3110 H     1 <1>   0.0800 
 36 H       -6.1900     0.5060    -1.5520 H     1 <1>   0.0800 
 37 H       -7.5650    -2.5970     0.3960 H     1 <1>   0.0800 
 38 H       -8.6210    -2.4330    -1.0000 H     1 <1>   0.0800 
 39 H       -7.2710     1.2320     0.3670 H     1 <1>   0.0800 
 40 H       -6.6490    -0.0990     1.3310 H     1 <1>   0.0800 
 41 H       -8.9850    -0.1220    -0.5730 H     1 <1>   0.0800 
 42 H       -8.4650    -1.2410     1.9780 H     1 <1>   0.4000 
@<TRIPOS>BOND
  1   1   2  1   
  2   1   3  1   
  3   2   4  2   
  4   2   5  1   
  5   3   6  2   
  6   3   7  1   
  7   4   6  1   
  8   4  19  1   
  9   5   8  1   
 10   5  20  1   
 11   5  21  1   
 12   6  22  1   
 13   7  23  1   
 14   7  24  1   
 15   7  25  1   
 16   8   9  1   
 17   8  10  1   
 18   8  26  1   
 19   9  11  1   
 20   9  12  1   
 21   9  27  1   
 22  10  28  1   
 23  10  29  1   
 24  10  30  1   
 25  11  13  1   
 26  11  31  1   
 27  11  32  1   
 28  12  14  1   
 29  12  33  1   
 30  12  34  1   
 31  13  14  1   
 32  13  15  1   
 33  13  35  1   
 34  14  16  1   
 35  14  36  1   
 36  15  17  1   
 37  15  37  1   
 38  15  38  1   
 39  16  17  1   
 40  16  39  1   
 41  16  40  1   
 42  17  18  1   
 43  17  41  1   
 44  18  42  1   
@<TRIPOS>SUBSTRUCTURE
  1 ****  12 GROUP 4 **** **** 0

# MOE 2024.06 (io_trps.svl 2023.06)
