@<TRIPOS>MOLECULE
NONAME
51 54 1 0 0 
SMALL
USER_CHARGES


@<TRIPOS>ATOM
  1 O        0.3190     1.1110    -1.1370 O.2   1 <1>  -0.5700 
  2 C       -0.4590     1.5060    -0.2880 C.2   1 <1>   0.6900 
  3 N       -1.7990     1.2250    -0.3800 N.am  1 <1>  -0.6600 
  4 N       -0.0160     2.2470     0.7540 N.am  1 <1>  -0.7300 
  5 C       -2.8500     2.1210     0.1910 C.3   1 <1>   0.1400 
  6 C       -2.3170     0.3260    -1.4440 C.3   1 <1>   0.1400 
  7 C        1.2880     2.9370     0.8520 C.3   1 <1>   0.1400 
  8 C       -3.4140     3.0420    -0.9090 C.3   1 <1>   0.1430 
  9 C       -2.9030     1.1670    -2.5870 C.3   1 <1>  -0.1600 
 10 C        1.0370     4.3500     1.3580 C.3   1 <1>  -0.2660 
 11 C       -4.5290     3.9110    -0.3550 C.ar  1 <1>   0.1670 
 12 C       -3.9420     2.1910    -2.0870 C.3   1 <1>  -0.1600 
 13 C       -2.3710     4.0960    -1.3740 C.3   1 <1>  -0.1600 
 14 C        2.3460     5.0650     1.5280 C.2   1 <1>   0.9060 
 15 N       -5.5510     3.4790     0.3450 N.ar  1 <1>  -0.6200 
 16 C       -4.3500     5.2220    -0.6700 C.ar  1 <1>  -0.1440 
 17 C       -3.1030     5.4430    -1.4870 C.3   1 <1>  -0.0160 
 18 O        2.6280     5.9740     0.7450 O.co2 1 <1>  -0.9000 
 19 O        3.0830     4.7160     2.4530 O.co2 1 <1>  -0.9000 
 20 C       -6.4250     4.4140     0.7430 C.ar  1 <1>   0.6200 
 21 C       -5.2850     6.1190    -0.2240 C.ar  1 <1>   0.1600 
 22 N       -6.3210     5.7260     0.4830 N.ar  1 <1>  -0.6200 
 23 C       -7.5740     3.9700     1.5210 C.ar  1 <1>   0.0000 
 24 C       -8.1010     2.6820     1.3820 C.ar  1 <1>  -0.1500 
 25 C       -8.2040     4.8100     2.4450 C.ar  1 <1>  -0.1500 
 26 C       -9.1900     2.2560     2.1210 C.ar  1 <1>  -0.1500 
 27 C       -9.2940     4.3910     3.1860 C.ar  1 <1>  -0.1500 
 28 C       -9.7900     3.1110     3.0260 C.ar  1 <1>  -0.1500 
 29 H       -0.6370     2.3790     1.5450 H     1 <1>   0.3700 
 30 H       -2.4640     2.7170     0.9970 H     1 <1>   0.0800 
 31 H       -3.6440     1.5130     0.5900 H     1 <1>   0.0800 
 32 H       -3.0790    -0.3070    -1.0250 H     1 <1>   0.0800 
 33 H       -1.5290    -0.3060    -1.8190 H     1 <1>   0.0800 
 34 H        1.7700     2.9680    -0.1110 H     1 <1>   0.0800 
 35 H        1.9280     2.4080     1.5390 H     1 <1>   0.0800 
 36 H       -3.3610     0.5110    -3.3070 H     1 <1>   0.0800 
 37 H       -2.0920     1.6700    -3.0850 H     1 <1>   0.0800 
 38 H        0.5520     4.3310     2.3140 H     1 <1>   0.0800 
 39 H        0.4410     4.9000     0.6550 H     1 <1>   0.0800 
 40 H       -4.2440     2.8320    -2.8970 H     1 <1>   0.0800 
 41 H       -4.8160     1.6560    -1.7570 H     1 <1>   0.0800 
 42 H       -1.8880     3.8290    -2.2960 H     1 <1>   0.0800 
 43 H       -1.6060     4.2000    -0.6240 H     1 <1>   0.0800 
 44 H       -3.3680     5.6460    -2.5100 H     1 <1>   0.0800 
 45 H       -2.5040     6.2490    -1.0960 H     1 <1>   0.0800 
 46 H       -5.1850     7.1670    -0.4460 H     1 <1>   0.1500 
 47 H       -7.6490     2.0020     0.6820 H     1 <1>   0.1500 
 48 H       -7.8330     5.8100     2.5840 H     1 <1>   0.1500 
 49 H       -9.5710     1.2580     1.9910 H     1 <1>   0.1500 
 50 H       -9.7570     5.0630     3.8880 H     1 <1>   0.1500 
 51 H      -10.6380     2.7830     3.6020 H     1 <1>   0.1500 
@<TRIPOS>BOND
  1   1   2  2   
  2   2   3  am  
  3   2   4  am  
  4   3   5  1   
  5   3   6  1   
  6   4   7  1   
  7   4  29  1   
  8   5   8  1   
  9   5  30  1   
 10   5  31  1   
 11   6   9  1   
 12   6  32  1   
 13   6  33  1   
 14   7  10  1   
 15   7  34  1   
 16   7  35  1   
 17   8  11  1   
 18   8  12  1   
 19   8  13  1   
 20   9  12  1   
 21   9  36  1   
 22   9  37  1   
 23  10  14  1   
 24  10  38  1   
 25  10  39  1   
 26  11  15  ar  
 27  11  16  ar  
 28  12  40  1   
 29  12  41  1   
 30  13  17  1   
 31  13  42  1   
 32  13  43  1   
 33  14  18  ar  
 34  14  19  ar  
 35  15  20  ar  
 36  16  17  1   
 37  16  21  ar  
 38  17  44  1   
 39  17  45  1   
 40  20  22  ar  
 41  20  23  1   
 42  21  22  ar  
 43  21  46  1   
 44  23  24  ar  
 45  23  25  ar  
 46  24  26  ar  
 47  24  47  1   
 48  25  27  ar  
 49  25  48  1   
 50  26  28  ar  
 51  26  49  1   
 52  27  28  ar  
 53  27  50  1   
 54  28  51  1   
@<TRIPOS>SUBSTRUCTURE
  1 ****   8 GROUP 4 **** **** 0

# MOE 2024.06 (io_trps.svl 2023.06)
