@<TRIPOS>MOLECULE
NONAME
33 34 1 0 0 
SMALL
USER_CHARGES


@<TRIPOS>ATOM
  1 O        1.6950     1.0960    -1.8520 O.2   1 <1>  -0.5700 
  2 C        1.6500     1.8310    -0.9020 C.2   1 <1>   0.5690 
  3 N        1.0780     1.5420     0.2730 N.am  1 <1>  -0.7300 
  4 C        2.2290     3.2160    -0.8780 C.3   1 <1>  -0.0990 
  5 C        1.1550     2.6360     1.2510 C.3   1 <1>   0.1400 
  6 C        2.1930     3.5870     0.6230 C.3   1 <1>  -0.0190 
  7 C        1.9230     5.0590     0.9060 C.2   1 <1>   0.5690 
  8 O        1.1710     5.3480     1.8050 O.2   1 <1>  -0.5700 
  9 N        2.5790     5.9900     0.1470 N.am  1 <1>  -0.4940 
 10 C        2.4630     7.4020     0.1670 C.2   1 <1>  -0.0880 
 11 N        3.5150     8.2610     0.0710 N.pl3 1 <1>   0.3140 
 12 C        1.3550     8.1770     0.2650 C.2   1 <1>  -0.1810 
 13 N        3.1130     9.5500     0.1010 N.2   1 <1>  -0.7070 
 14 C        4.9500     7.9170     0.0040 C.3   1 <1>   0.0960 
 15 C        1.8240     9.4850     0.2220 C.2   1 <1>   0.1390 
 16 C       -0.1020     7.7740     0.3900 C.3   1 <1>  -0.0590 
 17 C        5.3800     7.5880    -1.4320 C.3   1 <1>  -0.2400 
 18 H        0.5730     0.6680     0.4380 H     1 <1>   0.3700 
 19 H        1.5920     3.8550    -1.4630 H     1 <1>   0.0800 
 20 H        3.2270     3.2150    -1.2760 H     1 <1>   0.0800 
 21 H        1.4770     2.2790     2.2150 H     1 <1>   0.0800 
 22 H        0.1870     3.1020     1.3370 H     1 <1>   0.0800 
 23 H        3.1460     3.3430     1.0570 H     1 <1>   0.0800 
 24 H        3.2480     5.6200    -0.5260 H     1 <1>   0.3700 
 25 H        5.1330     7.0830     0.6560 H     1 <1>   0.0800 
 26 H        5.5100     8.7590     0.3680 H     1 <1>   0.0800 
 27 H        1.1950    10.3580     0.2800 H     1 <1>   0.1500 
 28 H       -0.2590     6.8020    -0.0410 H     1 <1>   0.0800 
 29 H       -0.7310     8.4810    -0.1200 H     1 <1>   0.0800 
 30 H       -0.3790     7.7390     1.4280 H     1 <1>   0.0800 
 31 H        4.8350     6.7430    -1.8110 H     1 <1>   0.0800 
 32 H        6.4300     7.3590    -1.4550 H     1 <1>   0.0800 
 33 H        5.2030     8.4380    -2.0680 H     1 <1>   0.0800 
@<TRIPOS>BOND
  1   1   2  2   
  2   2   3  am  
  3   2   4  1   
  4   3   5  1   
  5   3  18  1   
  6   4   6  1   
  7   4  19  1   
  8   4  20  1   
  9   5   6  1   
 10   5  21  1   
 11   5  22  1   
 12   6   7  1   
 13   6  23  1   
 14   7   8  2   
 15   7   9  am  
 16   9  10  1   
 17   9  24  1   
 18  10  11  1   
 19  10  12  2   
 20  11  13  1   
 21  11  14  1   
 22  12  15  1   
 23  12  16  1   
 24  13  15  2   
 25  14  17  1   
 26  14  25  1   
 27  14  26  1   
 28  15  27  1   
 29  16  28  1   
 30  16  29  1   
 31  16  30  1   
 32  17  31  1   
 33  17  32  1   
 34  17  33  1   
@<TRIPOS>SUBSTRUCTURE
  1 ****   9 GROUP 4 **** **** 0

# MOE 2024.06 (io_trps.svl 2023.06)
