@<TRIPOS>MOLECULE
NONAME
50 52 1 0 0 
SMALL
USER_CHARGES


@<TRIPOS>ATOM
  1 O       -1.4020    -1.2900     0.2510 O.3   1 <1>  -0.5600 
  2 C       -0.2050    -1.4770     0.9580 C.3   1 <1>   0.1200 
  3 C       -2.4050    -2.2200     0.5650 C.3   1 <1>   0.1200 
  4 C        0.3680    -2.8970     0.7320 C.3   1 <1>   0.3430 
  5 C       -1.9270    -3.6680     0.3150 C.3   1 <1>   0.3430 
  6 N       -0.5070    -3.7040    -0.1820 N.4   1 <1>  -0.9590 
  7 C       -0.0040    -5.1060    -0.3610 C.3   1 <1>   0.3430 
  8 C       -0.7090    -5.8780    -1.4930 C.3   1 <1>   0.2090 
  9 N       -0.9210    -7.2880    -1.0700 N.pl3 1 <1>  -0.8380 
 10 C       -2.0150    -7.6520    -0.3040 C.ar  1 <1>   0.7200 
 11 C       -0.1300    -8.3190    -1.8140 C.3   1 <1>   0.1290 
 12 N       -2.3370    -8.9360    -0.2940 N.ar  1 <1>  -0.6200 
 13 N       -2.6390    -6.6730     0.3580 N.ar  1 <1>  -0.6200 
 14 C       -3.3790    -9.2930     0.4280 C.ar  1 <1>   0.3100 
 15 C       -3.6730    -7.0460     1.0760 C.ar  1 <1>   0.1600 
 16 C       -3.7680   -10.6820     0.4660 C.ar  1 <1>   0.0000 
 17 C       -4.0850    -8.3500     1.1440 C.ar  1 <1>  -0.1500 
 18 C       -4.8300   -11.1900    -0.2900 C.ar  1 <1>   0.1670 
 19 C       -3.0880   -11.5670     1.2890 C.ar  1 <1>  -0.1500 
 20 N       -5.2520   -12.4420    -0.2500 N.ar  1 <1>  -0.6200 
 21 C       -5.5990   -10.2920    -1.2450 C.3   1 <1>  -0.0970 
 22 C       -3.5130   -12.8760     1.3260 C.ar  1 <1>  -0.1500 
 23 C       -4.5930   -13.2610     0.5490 C.ar  1 <1>   0.1670 
 24 C       -5.0830   -14.6930     0.5780 C.3   1 <1>  -0.0970 
 25 H       -0.3920    -1.3040     2.0040 H     1 <1>   0.0800 
 26 H        0.4960    -0.7360     0.6160 H     1 <1>   0.0800 
 27 H       -3.2600    -2.0000    -0.0510 H     1 <1>   0.0800 
 28 H       -2.6910    -2.0850     1.5950 H     1 <1>   0.0800 
 29 H        0.4570    -3.3910     1.6860 H     1 <1>   0.0800 
 30 H        1.3590    -2.8130     0.3170 H     1 <1>   0.0800 
 31 H       -2.5840    -4.1370    -0.3990 H     1 <1>   0.0800 
 32 H       -2.0080    -4.2300     1.2310 H     1 <1>   0.0800 
 33 H       -0.5130    -3.1950    -1.0780 H     1 <1>   0.4500 
 34 H       -0.1590    -5.6510     0.5560 H     1 <1>   0.0800 
 35 H        1.0530    -5.0940    -0.5660 H     1 <1>   0.0800 
 36 H       -0.1080    -5.8470    -2.3840 H     1 <1>   0.0800 
 37 H       -1.6650    -5.4420    -1.7240 H     1 <1>   0.0800 
 38 H        0.8400    -7.9360    -2.0800 H     1 <1>   0.0800 
 39 H       -0.6570    -8.6050    -2.7080 H     1 <1>   0.0800 
 40 H        0.0130    -9.1950    -1.2030 H     1 <1>   0.0800 
 41 H       -4.2120    -6.2940     1.6280 H     1 <1>   0.1500 
 42 H       -4.9330    -8.6410     1.7360 H     1 <1>   0.1500 
 43 H       -2.2520   -11.2360     1.8780 H     1 <1>   0.1500 
 44 H       -4.9470    -9.5820    -1.7170 H     1 <1>   0.0800 
 45 H       -6.3710    -9.7720    -0.7100 H     1 <1>   0.0800 
 46 H       -6.0580   -10.8850    -2.0160 H     1 <1>   0.0800 
 47 H       -3.0100   -13.5880     1.9530 H     1 <1>   0.1500 
 48 H       -6.1100   -14.7140     0.8940 H     1 <1>   0.0800 
 49 H       -4.4980   -15.2920     1.2500 H     1 <1>   0.0800 
 50 H       -5.0180   -15.1120    -0.4100 H     1 <1>   0.0800 
@<TRIPOS>BOND
  1   1   2  1   
  2   1   3  1   
  3   2   4  1   
  4   2  25  1   
  5   2  26  1   
  6   3   5  1   
  7   3  27  1   
  8   3  28  1   
  9   4   6  1   
 10   4  29  1   
 11   4  30  1   
 12   5   6  1   
 13   5  31  1   
 14   5  32  1   
 15   6   7  1   
 16   6  33  1   
 17   7   8  1   
 18   7  34  1   
 19   7  35  1   
 20   8   9  1   
 21   8  36  1   
 22   8  37  1   
 23   9  10  1   
 24   9  11  1   
 25  10  12  ar  
 26  10  13  ar  
 27  11  38  1   
 28  11  39  1   
 29  11  40  1   
 30  12  14  ar  
 31  13  15  ar  
 32  14  16  1   
 33  14  17  ar  
 34  15  17  ar  
 35  15  41  1   
 36  16  18  ar  
 37  16  19  ar  
 38  17  42  1   
 39  18  20  ar  
 40  18  21  1   
 41  19  22  ar  
 42  19  43  1   
 43  20  23  ar  
 44  21  44  1   
 45  21  45  1   
 46  21  46  1   
 47  22  23  ar  
 48  22  47  1   
 49  23  24  1   
 50  24  48  1   
 51  24  49  1   
 52  24  50  1   
@<TRIPOS>SUBSTRUCTURE
  1 ****  10 GROUP 4 **** **** 0

# MOE 2024.06 (io_trps.svl 2023.06)
