@<TRIPOS>MOLECULE
NONAME
52 54 1 0 0 
SMALL
USER_CHARGES


@<TRIPOS>ATOM
  1 O        2.5130    -0.4420    -1.4970 O.2   1 <1>  -0.5700 
  2 C        2.4250    -0.7300    -0.3080 C.2   1 <1>   0.6160 
  3 N        1.4110    -1.5950     0.0910 N.am  1 <1>  -0.4690 
  4 C        3.3270    -0.2140     0.6840 C.2   1 <1>   0.0290 
  5 C        1.2900    -1.9810     1.4040 C.2   1 <1>  -0.0410 
  6 C        0.4660    -2.1330    -0.9240 C.3   1 <1>   0.0600 
  7 C        4.3650     0.7100     0.3020 C.2   1 <1>   0.6160 
  8 C        3.1820    -0.6300     1.9860 C.2   1 <1>  -0.1500 
  9 C        2.1530    -1.5190     2.3480 C.2   1 <1>  -0.1500 
 10 O        5.4180     0.7510     0.9180 O.2   1 <1>  -0.5700 
 11 N        4.2250     1.6710    -0.6680 N.am  1 <1>  -0.6600 
 12 C        5.3280     1.9550    -1.6380 C.3   1 <1>   0.1400 
 13 C        3.1240     2.6590    -0.6280 C.3   1 <1>   0.1400 
 14 C        6.4190     2.8690    -1.0430 C.3   1 <1>   0.3430 
 15 C        3.4990     3.8030     0.3240 C.3   1 <1>  -0.1600 
 16 N        5.9750     3.5210     0.2320 N.4   1 <1>  -0.9590 
 17 C        4.8460     4.4780     0.0330 C.3   1 <1>   0.3430 
 18 C        7.0880     4.0680     1.0670 C.3   1 <1>   0.3430 
 19 C        7.8640     5.2070     0.3840 C.3   1 <1>  -0.0800 
 20 C        9.0890     4.6820    -0.3840 C.3   1 <1>   0.1200 
 21 C        8.3350     6.2380     1.4240 C.3   1 <1>  -0.1600 
 22 O        9.7200     5.7550    -1.0010 O.3   1 <1>  -0.5600 
 23 C        9.1890     7.3130     0.7380 C.3   1 <1>  -0.1600 
 24 C       10.2900     6.6820    -0.1260 C.3   1 <1>   0.1200 
 25 H        0.4950    -2.6620     1.6610 H     1 <1>   0.1500 
 26 H       -0.0340    -1.3190    -1.4190 H     1 <1>   0.0800 
 27 H       -0.2680    -2.7680    -0.4630 H     1 <1>   0.0800 
 28 H        1.0130    -2.7020    -1.6570 H     1 <1>   0.0800 
 29 H        3.8520    -0.2870     2.7560 H     1 <1>   0.1500 
 30 H        2.0670    -1.8230     3.3780 H     1 <1>   0.1500 
 31 H        4.9210     2.4080    -2.5250 H     1 <1>   0.0800 
 32 H        5.7790     1.0250    -1.9410 H     1 <1>   0.0800 
 33 H        2.2190     2.1830    -0.2880 H     1 <1>   0.0800 
 34 H        2.9380     3.0350    -1.6210 H     1 <1>   0.0800 
 35 H        6.7110     3.6110    -1.7670 H     1 <1>   0.0800 
 36 H        7.2800     2.2540    -0.8370 H     1 <1>   0.0800 
 37 H        3.4880     3.4450     1.3380 H     1 <1>   0.0800 
 38 H        2.7300     4.5520     0.2540 H     1 <1>   0.0800 
 39 H        5.5770     2.7070     0.7490 H     1 <1>   0.4500 
 40 H        4.9620     5.3120     0.7060 H     1 <1>   0.0800 
 41 H        4.8580     4.8610    -0.9740 H     1 <1>   0.0800 
 42 H        7.7710     3.2760     1.3300 H     1 <1>   0.0800 
 43 H        6.6670     4.4440     1.9860 H     1 <1>   0.0800 
 44 H        7.2240     5.7160    -0.3140 H     1 <1>   0.0800 
 45 H        8.8110     3.9960    -1.1610 H     1 <1>   0.0800 
 46 H        9.7960     4.1990     0.2710 H     1 <1>   0.0800 
 47 H        8.9280     5.7530     2.1810 H     1 <1>   0.0800 
 48 H        7.4920     6.7050     1.9060 H     1 <1>   0.0800 
 49 H        9.6380     7.9540     1.4760 H     1 <1>   0.0800 
 50 H        8.5710     7.9280     0.1060 H     1 <1>   0.0800 
 51 H       10.7840     7.4340    -0.7180 H     1 <1>   0.0800 
 52 H       11.0240     6.1780     0.4800 H     1 <1>   0.0800 
@<TRIPOS>BOND
  1   1   2  2   
  2   2   3  am  
  3   2   4  1   
  4   3   5  1   
  5   3   6  1   
  6   4   7  1   
  7   4   8  2   
  8   5   9  2   
  9   5  25  1   
 10   6  26  1   
 11   6  27  1   
 12   6  28  1   
 13   7  10  2   
 14   7  11  am  
 15   8   9  1   
 16   8  29  1   
 17   9  30  1   
 18  11  12  1   
 19  11  13  1   
 20  12  14  1   
 21  12  31  1   
 22  12  32  1   
 23  13  15  1   
 24  13  33  1   
 25  13  34  1   
 26  14  16  1   
 27  14  35  1   
 28  14  36  1   
 29  15  17  1   
 30  15  37  1   
 31  15  38  1   
 32  16  17  1   
 33  16  18  1   
 34  16  39  1   
 35  17  40  1   
 36  17  41  1   
 37  18  19  1   
 38  18  42  1   
 39  18  43  1   
 40  19  20  1   
 41  19  21  1   
 42  19  44  1   
 43  20  22  1   
 44  20  45  1   
 45  20  46  1   
 46  21  23  1   
 47  21  47  1   
 48  21  48  1   
 49  22  24  1   
 50  23  24  1   
 51  23  49  1   
 52  23  50  1   
 53  24  51  1   
 54  24  52  1   
@<TRIPOS>SUBSTRUCTURE
  1 ****  11 GROUP 4 **** **** 0

# MOE 2024.06 (io_trps.svl 2023.06)
