@<TRIPOS>MOLECULE
NONAME
61 63 1 0 0 
SMALL
USER_CHARGES


@<TRIPOS>ATOM
  1 O       -0.8720     0.4400    -0.2260 O.2   1 <1>  -0.5700 
  2 C       -1.8610     1.1340    -0.2070 C.2   1 <1>   0.5690 
  3 N       -3.0820     0.6020    -0.5430 N.am  1 <1>  -0.6600 
  4 C       -1.7410     2.5900     0.2290 C.3   1 <1>  -0.0990 
  5 C       -3.1640    -0.7680    -1.1150 C.3   1 <1>   0.1400 
  6 C       -4.3920     1.1400    -0.0860 C.3   1 <1>   0.1400 
  7 C       -0.3170     3.1660     0.1180 C.3   1 <1>  -0.1600 
  8 C       -3.6880    -1.7340    -0.0300 C.3   1 <1>   0.4230 
  9 C       -4.9340     0.2030     1.0020 C.3   1 <1>  -0.1600 
 10 C       -0.2680     4.6400     0.5380 C.3   1 <1>  -0.0170 
 11 N       -3.6340    -3.2020    -0.4310 N.4   1 <1>  -0.9590 
 12 C       -5.0660    -1.2800     0.5410 C.3   1 <1>   0.0000 
 13 C        1.1430     5.1890     0.4040 C.ar  1 <1>  -0.1440 
 14 C       -4.4970    -4.0970     0.4070 C.3   1 <1>   0.3430 
 15 C       -3.8620    -3.4850    -1.8860 C.3   1 <1>   0.2630 
 16 C       -5.4220    -2.1580     1.7770 C.3   1 <1>  -0.1600 
 17 C       -6.1680    -1.4080    -0.5500 C.3   1 <1>   0.1200 
 18 C        1.5590     5.7710    -0.7830 C.ar  1 <1>  -0.1500 
 19 C        2.0290     5.1130     1.4660 C.ar  1 <1>  -0.1500 
 20 C       -4.6940    -3.5160     1.8060 C.3   1 <1>  -0.1600 
 21 O       -7.3550    -0.8170    -0.1520 O.3   1 <1>  -0.6800 
 22 C        2.8440     6.2730    -0.9040 C.ar  1 <1>  -0.1500 
 23 C        3.3140     5.6140     1.3440 C.ar  1 <1>  -0.1500 
 24 C        3.7300     6.1970     0.1580 C.ar  1 <1>  -0.1440 
 25 C        5.1400     6.7460     0.0240 C.3   1 <1>  -0.0170 
 26 C        5.1870     8.2170     0.4450 C.3   1 <1>  -0.2400 
 27 H       -2.3940     3.1820    -0.3850 H     1 <1>   0.0800 
 28 H       -2.0730     2.6620     1.2490 H     1 <1>   0.0800 
 29 H       -3.8140    -0.7430    -1.9700 H     1 <1>   0.0800 
 30 H       -2.1910    -1.0890    -1.4460 H     1 <1>   0.0800 
 31 H       -4.2890     2.1330     0.3170 H     1 <1>   0.0800 
 32 H       -5.0750     1.1940    -0.9170 H     1 <1>   0.0800 
 33 H        0.3520     2.5990     0.7430 H     1 <1>   0.0800 
 34 H        0.0290     3.0730    -0.8970 H     1 <1>   0.0800 
 35 H       -2.9950    -1.6230     0.7890 H     1 <1>   0.0800 
 36 H       -4.2610     0.2660     1.8410 H     1 <1>   0.0800 
 37 H       -5.8820     0.5810     1.3440 H     1 <1>   0.0800 
 38 H       -0.5950     4.7410     1.5580 H     1 <1>   0.0800 
 39 H       -0.9340     5.2180    -0.0780 H     1 <1>   0.0800 
 40 H       -2.6610    -3.4800    -0.2280 H     1 <1>   0.4500 
 41 H       -5.4640    -4.2080    -0.0550 H     1 <1>   0.0800 
 42 H       -4.0500    -5.0760     0.4770 H     1 <1>   0.0800 
 43 H       -4.8510    -3.1750    -2.1810 H     1 <1>   0.0800 
 44 H       -3.7630    -4.5410    -2.0810 H     1 <1>   0.0800 
 45 H       -3.1400    -2.9620    -2.4920 H     1 <1>   0.0800 
 46 H       -5.1740    -1.6440     2.6920 H     1 <1>   0.0800 
 47 H       -6.4830    -2.3300     1.8140 H     1 <1>   0.0800 
 48 H       -6.3830    -2.4370    -0.7770 H     1 <1>   0.0800 
 49 H       -5.8790    -0.9150    -1.4610 H     1 <1>   0.0800 
 50 H        0.8850     5.8360    -1.6180 H     1 <1>   0.1500 
 51 H        1.7250     4.6610     2.3930 H     1 <1>   0.1500 
 52 H       -5.2660    -4.2090     2.4000 H     1 <1>   0.0800 
 53 H       -3.7340    -3.4130     2.2830 H     1 <1>   0.0800 
 54 H       -7.7460    -1.2570     0.6290 H     1 <1>   0.4000 
 55 H        3.1500     6.7230    -1.8310 H     1 <1>   0.1500 
 56 H        3.9890     5.5490     2.1790 H     1 <1>   0.1500 
 57 H        5.8120     6.1730     0.6380 H     1 <1>   0.0800 
 58 H        5.4700     6.6520    -0.9960 H     1 <1>   0.0800 
 59 H        4.8730     8.3180     1.4690 H     1 <1>   0.0800 
 60 H        4.5300     8.8000    -0.1750 H     1 <1>   0.0800 
 61 H        6.1870     8.5990     0.3480 H     1 <1>   0.0800 
@<TRIPOS>BOND
  1   1   2  2   
  2   2   3  am  
  3   2   4  1   
  4   3   5  1   
  5   3   6  1   
  6   4   7  1   
  7   4  27  1   
  8   4  28  1   
  9   5   8  1   
 10   5  29  1   
 11   5  30  1   
 12   6   9  1   
 13   6  31  1   
 14   6  32  1   
 15   7  10  1   
 16   7  33  1   
 17   7  34  1   
 18   8  11  1   
 19   8  12  1   
 20   8  35  1   
 21   9  12  1   
 22   9  36  1   
 23   9  37  1   
 24  10  13  1   
 25  10  38  1   
 26  10  39  1   
 27  11  14  1   
 28  11  15  1   
 29  11  40  1   
 30  12  16  1   
 31  12  17  1   
 32  13  18  ar  
 33  13  19  ar  
 34  14  20  1   
 35  14  41  1   
 36  14  42  1   
 37  15  43  1   
 38  15  44  1   
 39  15  45  1   
 40  16  20  1   
 41  16  46  1   
 42  16  47  1   
 43  17  21  1   
 44  17  48  1   
 45  17  49  1   
 46  18  22  ar  
 47  18  50  1   
 48  19  23  ar  
 49  19  51  1   
 50  20  52  1   
 51  20  53  1   
 52  21  54  1   
 53  22  24  ar  
 54  22  55  1   
 55  23  24  ar  
 56  23  56  1   
 57  24  25  1   
 58  25  26  1   
 59  25  57  1   
 60  25  58  1   
 61  26  59  1   
 62  26  60  1   
 63  26  61  1   
@<TRIPOS>SUBSTRUCTURE
  1 ****   2 GROUP 4 **** **** 0

# MOE 2024.06 (io_trps.svl 2023.06)
