@<TRIPOS>MOLECULE
NONAME
44 46 1 0 0 
SMALL
USER_CHARGES


@<TRIPOS>ATOM
  1 S        1.1400    -0.7490     0.5750 S.o2  1 <1>   1.3330 
  2 O        1.9860    -1.7940     1.1030 O.2   1 <1>  -0.6500 
  3 O        0.1490    -0.1230     1.4180 O.2   1 <1>  -0.6500 
  4 N        2.1940     0.5060     0.1170 N.am  1 <1>  -0.8490 
  5 C        0.3540    -1.3010    -0.9490 C.3   1 <1>   0.0890 
  6 C        2.6580     1.2180     1.3390 C.3   1 <1>   0.1960 
  7 C        3.3530     0.0230    -0.6530 C.3   1 <1>   0.1960 
  8 C       -0.7810    -2.2930    -0.7140 C.ar  1 <1>  -0.1440 
  9 C        3.4200     2.5570     1.1180 C.3   1 <1>   0.4230 
 10 C        4.1290     1.1780    -1.3260 C.3   1 <1>  -0.0800 
 11 C       -2.1130    -1.9120    -0.8370 C.ar  1 <1>   0.1900 
 12 C       -0.4990    -3.6060    -0.3520 C.ar  1 <1>  -0.1500 
 13 N        3.1050     3.2660    -0.1880 N.4   1 <1>  -0.9590 
 14 C        4.9400     2.4080     1.3410 C.3   1 <1>   0.1200 
 15 C        5.5260     1.4070    -0.7300 C.3   1 <1>   0.1200 
 16 C        3.2990     2.4650    -1.4490 C.3   1 <1>   0.3430 
 17 F       -2.3970    -0.6820    -1.1740 F     1 <1>  -0.1900 
 18 C       -3.1630    -2.7830    -0.6220 C.ar  1 <1>  -0.1500 
 19 C       -1.5320    -4.5050    -0.1300 C.ar  1 <1>  -0.1500 
 20 C        1.6940     3.7660    -0.1530 C.3   1 <1>   0.2630 
 21 O        5.4890     1.3290     0.6550 O.3   1 <1>  -0.5600 
 22 C       -2.8410    -4.0780    -0.2700 C.ar  1 <1>   0.1900 
 23 F       -3.8060    -4.9310    -0.0610 F     1 <1>  -0.1900 
 24 H       -0.0200    -0.4460    -1.4760 H     1 <1>   0.0800 
 25 H        1.0830    -1.7710    -1.5770 H     1 <1>   0.0800 
 26 H        1.8030     1.4700     1.9430 H     1 <1>   0.0800 
 27 H        3.2580     0.5530     1.9400 H     1 <1>   0.0800 
 28 H        4.0040    -0.5670    -0.0250 H     1 <1>   0.0800 
 29 H        3.0040    -0.6310    -1.4340 H     1 <1>   0.0800 
 30 H        3.0960     3.2090     1.9110 H     1 <1>   0.0800 
 31 H        4.3080     0.8590    -2.3370 H     1 <1>   0.0800 
 32 H        0.5200    -3.9370    -0.2340 H     1 <1>   0.1500 
 33 H        3.7300     4.0790    -0.2430 H     1 <1>   0.4500 
 34 H        5.1180     2.2190     2.3860 H     1 <1>   0.0800 
 35 H        5.4720     3.3040     1.0740 H     1 <1>   0.0800 
 36 H        5.9530     2.3500    -1.0280 H     1 <1>   0.0800 
 37 H        6.1880     0.6220    -1.0590 H     1 <1>   0.0800 
 38 H        2.3320     2.1810    -1.8310 H     1 <1>   0.0800 
 39 H        3.7560     3.0990    -2.1910 H     1 <1>   0.0800 
 40 H       -4.1850    -2.4680    -0.7230 H     1 <1>   0.1500 
 41 H       -1.3290    -5.5230     0.1510 H     1 <1>   0.1500 
 42 H        1.0080     2.9340    -0.0920 H     1 <1>   0.0800 
 43 H        1.4720     4.3300    -1.0440 H     1 <1>   0.0800 
 44 H        1.5380     4.4020     0.7030 H     1 <1>   0.0800 
@<TRIPOS>BOND
  1   1   2  2   
  2   1   3  2   
  3   1   4  am  
  4   1   5  1   
  5   4   6  1   
  6   4   7  1   
  7   5   8  1   
  8   5  24  1   
  9   5  25  1   
 10   6   9  1   
 11   6  26  1   
 12   6  27  1   
 13   7  10  1   
 14   7  28  1   
 15   7  29  1   
 16   8  11  ar  
 17   8  12  ar  
 18   9  13  1   
 19   9  14  1   
 20   9  30  1   
 21  10  15  1   
 22  10  16  1   
 23  10  31  1   
 24  11  17  1   
 25  11  18  ar  
 26  12  19  ar  
 27  12  32  1   
 28  13  16  1   
 29  13  20  1   
 30  13  33  1   
 31  14  21  1   
 32  14  34  1   
 33  14  35  1   
 34  15  21  1   
 35  15  36  1   
 36  15  37  1   
 37  16  38  1   
 38  16  39  1   
 39  18  22  ar  
 40  18  40  1   
 41  19  22  ar  
 42  19  41  1   
 43  20  42  1   
 44  20  43  1   
 45  20  44  1   
 46  22  23  1   
@<TRIPOS>SUBSTRUCTURE
  1 ****   1 GROUP 4 **** **** 0

# MOE 2024.06 (io_trps.svl 2023.06)
