@<TRIPOS>MOLECULE
NONAME
46 48 1 0 0 
SMALL
USER_CHARGES


@<TRIPOS>ATOM
  1 F       -0.6500     1.8650     1.9950 F     1 <1>  -0.1900 
  2 C       -0.7690     2.8990     1.2080 C.ar  1 <1>   0.1900 
  3 C        0.0890     3.9660     1.3820 C.ar  1 <1>  -0.1500 
  4 C       -1.7510     2.8830     0.2310 C.ar  1 <1>  -0.1500 
  5 C       -0.0720     5.0380     0.5280 C.ar  1 <1>   0.1900 
  6 C       -1.8950     3.9790    -0.6130 C.ar  1 <1>  -0.1440 
  7 F        0.7170     6.0700     0.6590 F     1 <1>  -0.1900 
  8 C       -1.0410     5.0650    -0.4620 C.ar  1 <1>  -0.1500 
  9 C       -2.9780     3.9830    -1.6900 C.3   1 <1>   0.0440 
 10 C       -4.3550     3.5950    -1.1650 C.2   1 <1>   0.5690 
 11 O       -4.8410     2.5790    -1.6060 O.2   1 <1>  -0.5700 
 12 N       -5.0100     4.3660    -0.2350 N.am  1 <1>  -0.6600 
 13 C       -6.3670     3.9870     0.2610 C.3   1 <1>   0.1400 
 14 C       -4.4420     5.6120     0.3660 C.3   1 <1>   0.1400 
 15 C       -7.4180     5.0900    -0.0440 C.3   1 <1>   0.0000 
 16 C       -5.5320     6.5000     0.9850 C.3   1 <1>  -0.1600 
 17 C       -8.6550     4.8280     0.8460 C.3   1 <1>   0.2000 
 18 C       -6.7910     6.5090     0.1060 C.3   1 <1>  -0.1600 
 19 C       -7.9830     4.8830    -1.4600 C.3   1 <1>  -0.1600 
 20 O       -9.5040     5.9420     0.8390 O.3   1 <1>  -0.5600 
 21 C       -9.3900     3.6750     0.1520 C.3   1 <1>  -0.1600 
 22 C       -9.0600     3.7960    -1.3420 C.3   1 <1>  -0.1600 
 23 C      -10.3390     6.0560     1.9470 C.3   1 <1>   0.0400 
 24 H        0.8450     3.9610     2.1450 H     1 <1>   0.1500 
 25 H       -2.3920     2.0230     0.1400 H     1 <1>   0.1500 
 26 H       -1.1150     5.9290    -1.0990 H     1 <1>   0.1500 
 27 H       -2.6970     3.2850    -2.4570 H     1 <1>   0.0800 
 28 H       -3.0510     4.9490    -2.1530 H     1 <1>   0.0800 
 29 H       -6.6760     3.0490    -0.1650 H     1 <1>   0.0800 
 30 H       -6.2960     3.8400     1.3240 H     1 <1>   0.0800 
 31 H       -3.7170     5.3490     1.1180 H     1 <1>   0.0800 
 32 H       -3.9430     6.1750    -0.4030 H     1 <1>   0.0800 
 33 H       -5.7770     6.1420     1.9700 H     1 <1>   0.0800 
 34 H       -5.1530     7.5010     1.0920 H     1 <1>   0.0800 
 35 H       -8.3770     4.6010     1.8610 H     1 <1>   0.0800 
 36 H       -6.5040     6.8690    -0.8660 H     1 <1>   0.0800 
 37 H       -7.4980     7.2170     0.4990 H     1 <1>   0.0800 
 38 H       -8.4570     5.7930    -1.7890 H     1 <1>   0.0800 
 39 H       -7.2180     4.6160    -2.1680 H     1 <1>   0.0800 
 40 H       -9.0050     2.7410     0.5210 H     1 <1>   0.0800 
 41 H      -10.4500     3.7000     0.3290 H     1 <1>   0.0800 
 42 H       -8.6910     2.8570    -1.7190 H     1 <1>   0.0800 
 43 H       -9.9330     4.0790    -1.9040 H     1 <1>   0.0800 
 44 H      -10.9580     6.9250     1.8090 H     1 <1>   0.0800 
 45 H       -9.7390     6.1760     2.8320 H     1 <1>   0.0800 
 46 H      -10.9590     5.1800     2.0250 H     1 <1>   0.0800 
@<TRIPOS>BOND
  1   1   2  1   
  2   2   3  ar  
  3   2   4  ar  
  4   3   5  ar  
  5   3  24  1   
  6   4   6  ar  
  7   4  25  1   
  8   5   7  1   
  9   5   8  ar  
 10   6   8  ar  
 11   6   9  1   
 12   8  26  1   
 13   9  10  1   
 14   9  27  1   
 15   9  28  1   
 16  10  11  2   
 17  10  12  am  
 18  12  13  1   
 19  12  14  1   
 20  13  15  1   
 21  13  29  1   
 22  13  30  1   
 23  14  16  1   
 24  14  31  1   
 25  14  32  1   
 26  15  17  1   
 27  15  18  1   
 28  15  19  1   
 29  16  18  1   
 30  16  33  1   
 31  16  34  1   
 32  17  20  1   
 33  17  21  1   
 34  17  35  1   
 35  18  36  1   
 36  18  37  1   
 37  19  22  1   
 38  19  38  1   
 39  19  39  1   
 40  20  23  1   
 41  21  22  1   
 42  21  40  1   
 43  21  41  1   
 44  22  42  1   
 45  22  43  1   
 46  23  44  1   
 47  23  45  1   
 48  23  46  1   
@<TRIPOS>SUBSTRUCTURE
  1 ****  12 GROUP 4 **** **** 0

# MOE 2024.06 (io_trps.svl 2023.06)
