@<TRIPOS>MOLECULE
NONAME
53 55 1 0 0 
SMALL
USER_CHARGES


@<TRIPOS>ATOM
  1 S        0.3310     0.6290    -0.6640 S.o2  1 <1>   1.3330 
  2 O        0.3810    -0.6110    -1.4060 O.2   1 <1>  -0.6500 
  3 O       -0.7010     1.5990    -0.9490 O.2   1 <1>  -0.6500 
  4 N        0.2230     0.2460     0.9890 N.am  1 <1>  -0.8490 
  5 C        1.9320     1.4250    -0.8090 C.3   1 <1>  -0.0550 
  6 C       -0.2480     1.3630     1.8150 C.3   1 <1>   0.1160 
  7 C       -0.6150    -0.9340     1.2300 C.3   1 <1>   0.1160 
  8 C        3.1360     0.4860    -0.5720 C.3   1 <1>  -0.0800 
  9 C        4.4940     1.0960    -0.8920 C.3   1 <1>   0.2200 
 10 C        3.3130     0.0000     0.8740 C.3   1 <1>   0.1200 
 11 N        4.5800     2.4870    -0.3860 N.am  1 <1>  -0.7300 
 12 C        5.3980     0.2160    -0.0410 C.3   1 <1>   0.1200 
 13 O        4.6860     0.0270     1.1420 O.3   1 <1>  -0.5600 
 14 C        4.4550     3.6000    -1.1450 C.2   1 <1>   0.5690 
 15 O        4.2090     3.5410    -2.3240 O.2   1 <1>  -0.5700 
 16 C        4.6030     4.9500    -0.4890 C.3   1 <1>  -0.0990 
 17 C        5.4440     5.8900    -1.3590 C.3   1 <1>   0.0960 
 18 N        5.5850     7.1960    -0.6880 N.pl3 1 <1>   0.0480 
 19 C        6.4820     7.4960     0.2880 C.ar  1 <1>  -0.1520 
 20 C        4.7920     8.2990    -0.8060 C.2   1 <1>   0.0060 
 21 C        6.1660     8.7780     0.6980 C.ar  1 <1>   0.2270 
 22 C        7.5430     6.7950     0.8710 C.ar  1 <1>  -0.1500 
 23 N        5.1030     9.2560    -0.0050 N.2   1 <1>  -0.5650 
 24 C        3.6420     8.3950    -1.7880 C.3   1 <1>  -0.0600 
 25 C        6.9040     9.3900     1.7080 C.ar  1 <1>  -0.1500 
 26 C        8.2670     7.4080     1.8690 C.ar  1 <1>  -0.1500 
 27 C        7.9490     8.7050     2.2890 C.ar  1 <1>  -0.1500 
 28 H        2.0160     1.8220    -1.8030 H     1 <1>   0.0800 
 29 H        1.9770     2.2520    -0.1310 H     1 <1>   0.0800 
 30 H       -0.2090     1.0940     2.8570 H     1 <1>   0.0800 
 31 H       -1.2630     1.6200     1.5580 H     1 <1>   0.0800 
 32 H        0.3750     2.2270     1.6630 H     1 <1>   0.0800 
 33 H       -0.6550    -1.1560     2.2820 H     1 <1>   0.0800 
 34 H       -0.2020    -1.7900     0.7220 H     1 <1>   0.0800 
 35 H       -1.6140    -0.7640     0.8640 H     1 <1>   0.0800 
 36 H        3.0140    -0.3840    -1.1940 H     1 <1>   0.0800 
 37 H        4.7380     1.0510    -1.9400 H     1 <1>   0.0800 
 38 H        2.9490    -1.0050     1.0030 H     1 <1>   0.0800 
 39 H        2.8320     0.6530     1.5810 H     1 <1>   0.0800 
 40 H        4.7470     2.5420     0.6220 H     1 <1>   0.3700 
 41 H        6.3480     0.6710     0.1730 H     1 <1>   0.0800 
 42 H        5.5430    -0.7460    -0.5010 H     1 <1>   0.0800 
 43 H        3.6220     5.3660    -0.3510 H     1 <1>   0.0800 
 44 H        5.0700     4.8350     0.4720 H     1 <1>   0.0800 
 45 H        4.9770     6.0310    -2.3170 H     1 <1>   0.0800 
 46 H        6.4220     5.4740    -1.5200 H     1 <1>   0.0800 
 47 H        7.7860     5.8010     0.5430 H     1 <1>   0.1500 
 48 H        3.1450     9.3420    -1.6740 H     1 <1>   0.0800 
 49 H        2.9300     7.6110    -1.6080 H     1 <1>   0.0800 
 50 H        4.0090     8.3220    -2.7950 H     1 <1>   0.0800 
 51 H        6.6360    10.3850     2.0080 H     1 <1>   0.1500 
 52 H        9.0890     6.8940     2.3370 H     1 <1>   0.1500 
 53 H        8.5300     9.1630     3.0710 H     1 <1>   0.1500 
@<TRIPOS>BOND
  1   1   2  2   
  2   1   3  2   
  3   1   4  am  
  4   1   5  1   
  5   4   6  1   
  6   4   7  1   
  7   5   8  1   
  8   5  28  1   
  9   5  29  1   
 10   6  30  1   
 11   6  31  1   
 12   6  32  1   
 13   7  33  1   
 14   7  34  1   
 15   7  35  1   
 16   8   9  1   
 17   8  10  1   
 18   8  36  1   
 19   9  11  1   
 20   9  12  1   
 21   9  37  1   
 22  10  13  1   
 23  10  38  1   
 24  10  39  1   
 25  11  14  am  
 26  11  40  1   
 27  12  13  1   
 28  12  41  1   
 29  12  42  1   
 30  14  15  2   
 31  14  16  1   
 32  16  17  1   
 33  16  43  1   
 34  16  44  1   
 35  17  18  1   
 36  17  45  1   
 37  17  46  1   
 38  18  19  1   
 39  18  20  1   
 40  19  21  ar  
 41  19  22  ar  
 42  20  23  2   
 43  20  24  1   
 44  21  23  1   
 45  21  25  ar  
 46  22  26  ar  
 47  22  47  1   
 48  24  48  1   
 49  24  49  1   
 50  24  50  1   
 51  25  27  ar  
 52  25  51  1   
 53  26  27  ar  
 54  26  52  1   
 55  27  53  1   
@<TRIPOS>SUBSTRUCTURE
  1 ****  16 GROUP 4 **** **** 0

# MOE 2024.06 (io_trps.svl 2023.06)
