@<TRIPOS>MOLECULE
NONAME
45 47 1 0 0 
SMALL
USER_CHARGES


@<TRIPOS>ATOM
  1 F        1.9010     1.0910     0.2200 F     1 <1>  -0.1900 
  2 C        1.7380     2.3780     0.0640 C.ar  1 <1>   0.1900 
  3 C        1.7560     2.9020    -1.2150 C.ar  1 <1>  -0.1500 
  4 C        1.5540     3.1670     1.1850 C.ar  1 <1>  -0.1500 
  5 C        1.5850     4.2670    -1.3710 C.ar  1 <1>  -0.1500 
  6 C        1.3840     4.5320     1.0190 C.ar  1 <1>  -0.1500 
  7 C        1.4060     5.0850    -0.2620 C.ar  1 <1>   0.0830 
  8 O        1.2660     6.4100    -0.5070 O.3   1 <1>  -0.3630 
  9 C        1.3710     7.3610     0.5430 C.3   1 <1>   0.1810 
 10 C        1.4790     8.7890     0.0080 C.2   1 <1>   0.5690 
 11 O        0.5700     9.5390     0.2860 O.2   1 <1>  -0.5700 
 12 N        2.5760     9.2170    -0.7080 N.am  1 <1>  -0.6600 
 13 C        3.6950     8.3200    -1.1360 C.3   1 <1>   0.1400 
 14 C        2.6920    10.6440    -1.1390 C.3   1 <1>   0.1400 
 15 C        4.7980     8.2430    -0.0710 C.3   1 <1>   0.1400 
 16 C        4.0930    11.2370    -0.9420 C.3   1 <1>  -0.1600 
 17 N        5.5970     9.5040     0.0070 N.am  1 <1>  -0.6600 
 18 C        4.8260    10.7470     0.3120 C.3   1 <1>   0.1400 
 19 C        6.9700     9.5090    -0.2240 C.2   1 <1>   0.5440 
 20 O        7.5400     8.4280    -0.1960 O.2   1 <1>  -0.5700 
 21 C        7.7670    10.7180    -0.4570 C.ar  1 <1>   0.3960 
 22 N        7.2610    11.7510    -1.1370 N.ar  1 <1>  -0.6200 
 23 C        9.0680    10.7470     0.0570 C.ar  1 <1>   0.1600 
 24 C        8.0930    12.7920    -1.2240 C.ar  1 <1>   0.1390 
 25 N        9.9260    11.7660    -0.0300 N.ar  1 <1>  -0.6200 
 26 O        7.6670    13.8110    -1.8080 O.3   1 <1>  -0.8290 
 27 C        9.3970    12.7740    -0.6800 C.ar  1 <1>   0.1600 
 28 H        1.8980     2.2560    -2.0620 H     1 <1>   0.1500 
 29 H        1.5430     2.7160     2.1610 H     1 <1>   0.1500 
 30 H        1.5910     4.7070    -2.3520 H     1 <1>   0.1500 
 31 H        1.2310     5.1390     1.8910 H     1 <1>   0.1500 
 32 H        2.2430     7.1360     1.1260 H     1 <1>   0.0800 
 33 H        0.4930     7.2760     1.1560 H     1 <1>   0.0800 
 34 H        4.1180     8.6720    -2.0610 H     1 <1>   0.0800 
 35 H        3.3230     7.3310    -1.3240 H     1 <1>   0.0800 
 36 H        1.9980    11.2440    -0.5750 H     1 <1>   0.0800 
 37 H        2.4140    10.7230    -2.1760 H     1 <1>   0.0800 
 38 H        5.4390     7.4180    -0.3240 H     1 <1>   0.0800 
 39 H        4.3700     8.0350     0.8920 H     1 <1>   0.0800 
 40 H        3.9920    12.3060    -0.8750 H     1 <1>   0.0800 
 41 H        4.7000    11.0530    -1.8110 H     1 <1>   0.0800 
 42 H        4.1260    10.5620     1.1080 H     1 <1>   0.0800 
 43 H        5.4970    11.5170     0.6520 H     1 <1>   0.0800 
 44 H        9.4200     9.8760     0.5760 H     1 <1>   0.1500 
 45 H        9.9730    13.6680    -0.8240 H     1 <1>   0.1500 
@<TRIPOS>BOND
  1   1   2  1   
  2   2   3  ar  
  3   2   4  ar  
  4   3   5  ar  
  5   3  28  1   
  6   4   6  ar  
  7   4  29  1   
  8   5   7  ar  
  9   5  30  1   
 10   6   7  ar  
 11   6  31  1   
 12   7   8  1   
 13   8   9  1   
 14   9  10  1   
 15   9  32  1   
 16   9  33  1   
 17  10  11  2   
 18  10  12  am  
 19  12  13  1   
 20  12  14  1   
 21  13  15  1   
 22  13  34  1   
 23  13  35  1   
 24  14  16  1   
 25  14  36  1   
 26  14  37  1   
 27  15  17  1   
 28  15  38  1   
 29  15  39  1   
 30  16  18  1   
 31  16  40  1   
 32  16  41  1   
 33  17  18  1   
 34  17  19  am  
 35  18  42  1   
 36  18  43  1   
 37  19  20  2   
 38  19  21  1   
 39  21  22  ar  
 40  21  23  ar  
 41  22  24  ar  
 42  23  25  ar  
 43  23  44  1   
 44  24  26  1   
 45  24  27  ar  
 46  25  27  ar  
 47  27  45  1   
@<TRIPOS>SUBSTRUCTURE
  1 ****  15 GROUP 4 **** **** 0

# MOE 2024.06 (io_trps.svl 2023.06)
