@<TRIPOS>MOLECULE
NONAME
57 61 1 0 0 
SMALL
USER_CHARGES


@<TRIPOS>ATOM
  1 O       -0.5780     4.2450    -2.0340 O.2   1 <1>  -0.5700 
  2 C       -0.5670     3.6610    -0.9640 C.2   1 <1>   0.6160 
  3 N       -1.7590     3.1840    -0.4510 N.am  1 <1>  -0.6600 
  4 C        0.6870     3.4510    -0.3010 C.2   1 <1>   0.0290 
  5 C       -3.0770     3.5440    -1.0640 C.3   1 <1>   0.1400 
  6 C       -1.8790     2.4610     0.8450 C.3   1 <1>   0.1400 
  7 C        0.9860     4.3280     0.7890 C.2   1 <1>   0.6160 
  8 C        1.6010     2.4780    -0.6480 C.2   1 <1>  -0.1380 
  9 C       -3.8980     4.4300    -0.1070 C.3   1 <1>   0.1440 
 10 C       -2.6850     3.3080     1.8380 C.3   1 <1>  -0.1600 
 11 O        0.2410     5.2050     1.2020 O.2   1 <1>  -0.5700 
 12 N        2.1760     4.1730     1.4470 N.am  1 <1>  -0.5390 
 13 C        2.8100     2.3670     0.0760 C.2   1 <1>  -0.1500 
 14 C        1.3850     1.4950    -1.7930 C.3   1 <1>  -0.1020 
 15 C       -5.2360     4.7310    -0.7580 C.ar  1 <1>   0.1670 
 16 C       -4.0490     3.7230     1.2590 C.3   1 <1>  -0.1600 
 17 C       -3.2740     5.8450     0.0350 C.3   1 <1>  -0.1600 
 18 C        3.0850     3.2110     1.1090 C.2   1 <1>  -0.0290 
 19 N       -6.2320     3.8870    -0.8830 N.ar  1 <1>  -0.6200 
 20 C       -5.2870     6.0070    -1.2270 C.ar  1 <1>  -0.1440 
 21 C       -4.0010     6.7540    -0.9690 C.3   1 <1>  -0.0170 
 22 C        4.3620     3.1500     1.9200 C.3   1 <1>  -0.1020 
 23 C       -7.3270     4.3590    -1.4950 C.ar  1 <1>   0.6200 
 24 C       -6.4400     6.4150    -1.8440 C.ar  1 <1>   0.1600 
 25 N       -7.4630     5.6020    -1.9810 N.ar  1 <1>  -0.6200 
 26 C       -8.4550     3.4490    -1.6460 C.ar  1 <1>   0.0000 
 27 C       -9.7710     3.9170    -1.7150 C.ar  1 <1>  -0.1500 
 28 C       -8.2760     2.0650    -1.7290 C.ar  1 <1>  -0.1500 
 29 C      -10.8450     3.0570    -1.8580 C.ar  1 <1>  -0.1500 
 30 C       -9.3440     1.1980    -1.8710 C.ar  1 <1>  -0.1500 
 31 C      -10.6340     1.6930    -1.9360 C.ar  1 <1>  -0.1500 
 32 H       -3.6230     2.6390    -1.2670 H     1 <1>   0.0800 
 33 H       -2.9410     4.0570    -2.0000 H     1 <1>   0.0800 
 34 H       -0.9110     2.2390     1.2590 H     1 <1>   0.0800 
 35 H       -2.3860     1.5270     0.6740 H     1 <1>   0.0800 
 36 H       -2.1130     4.1840     2.0940 H     1 <1>   0.0800 
 37 H       -2.8350     2.7460     2.7420 H     1 <1>   0.0800 
 38 H        2.3340     4.8380     2.2030 H     1 <1>   0.3700 
 39 H        3.5100     1.6020    -0.2110 H     1 <1>   0.1500 
 40 H        1.4280     0.4860    -1.4240 H     1 <1>   0.0800 
 41 H        2.1550     1.6260    -2.5320 H     1 <1>   0.0800 
 42 H        0.4350     1.6370    -2.2750 H     1 <1>   0.0800 
 43 H       -4.6510     2.8400     1.1270 H     1 <1>   0.0800 
 44 H       -4.5680     4.3630     1.9510 H     1 <1>   0.0800 
 45 H       -2.2100     5.8510    -0.1270 H     1 <1>   0.0800 
 46 H       -3.4600     6.2220     1.0250 H     1 <1>   0.0800 
 47 H       -3.4360     6.8320    -1.8820 H     1 <1>   0.0800 
 48 H       -4.1770     7.7330    -0.5590 H     1 <1>   0.0800 
 49 H        4.8940     4.0800     1.8380 H     1 <1>   0.0800 
 50 H        4.9990     2.3590     1.5670 H     1 <1>   0.0800 
 51 H        4.1330     2.9680     2.9550 H     1 <1>   0.0800 
 52 H       -6.5260     7.4160    -2.2310 H     1 <1>   0.1500 
 53 H       -9.9550     4.9760    -1.6550 H     1 <1>   0.1500 
 54 H       -7.2800     1.6600    -1.6810 H     1 <1>   0.1500 
 55 H      -11.8450     3.4500    -1.9080 H     1 <1>   0.1500 
 56 H       -9.1720     0.1380    -1.9320 H     1 <1>   0.1500 
 57 H      -11.4670     1.0220    -2.0470 H     1 <1>   0.1500 
@<TRIPOS>BOND
  1   1   2  2   
  2   2   3  am  
  3   2   4  1   
  4   3   5  1   
  5   3   6  1   
  6   4   7  1   
  7   4   8  2   
  8   5   9  1   
  9   5  32  1   
 10   5  33  1   
 11   6  10  1   
 12   6  34  1   
 13   6  35  1   
 14   7  11  2   
 15   7  12  am  
 16   8  13  1   
 17   8  14  1   
 18   9  15  1   
 19   9  16  1   
 20   9  17  1   
 21  10  16  1   
 22  10  36  1   
 23  10  37  1   
 24  12  18  1   
 25  12  38  1   
 26  13  18  2   
 27  13  39  1   
 28  14  40  1   
 29  14  41  1   
 30  14  42  1   
 31  15  19  ar  
 32  15  20  ar  
 33  16  43  1   
 34  16  44  1   
 35  17  21  1   
 36  17  45  1   
 37  17  46  1   
 38  18  22  1   
 39  19  23  ar  
 40  20  21  1   
 41  20  24  ar  
 42  21  47  1   
 43  21  48  1   
 44  22  49  1   
 45  22  50  1   
 46  22  51  1   
 47  23  25  ar  
 48  23  26  1   
 49  24  25  ar  
 50  24  52  1   
 51  26  27  ar  
 52  26  28  ar  
 53  27  29  ar  
 54  27  53  1   
 55  28  30  ar  
 56  28  54  1   
 57  29  31  ar  
 58  29  55  1   
 59  30  31  ar  
 60  30  56  1   
 61  31  57  1   
@<TRIPOS>SUBSTRUCTURE
  1 ****   5 GROUP 4 **** **** 0

# MOE 2024.06 (io_trps.svl 2023.06)
