@<TRIPOS>MOLECULE
NONAME
28 28 1 0 0 
SMALL
USER_CHARGES


@<TRIPOS>ATOM
  1 O       -0.3240    -0.9520    -1.9840 O.2   1 <1>  -0.5700 
  2 C       -1.1490    -0.7060    -1.1450 C.2   1 <1>   0.6670 
  3 O       -1.9570     0.3350    -1.3220 O.3   1 <1>  -0.4300 
  4 C       -1.3420    -1.6260     0.0660 C.3   1 <1>   0.0530 
  5 C       -2.3760     1.3200    -0.4050 C.3   1 <1>   0.2800 
  6 C       -0.5240    -2.9530     0.0530 C.3   1 <1>   0.0000 
  7 C       -2.6210    -2.5050    -0.0420 C.3   1 <1>   0.0000 
  8 C       -1.1820     1.8190     0.4190 C.3   1 <1>  -0.2400 
  9 C       -2.9050     2.4640    -1.2700 C.3   1 <1>  -0.2400 
 10 C       -3.5130     0.7880     0.4730 C.3   1 <1>  -0.2400 
 11 C       -1.7270    -3.6020    -0.6760 C.3   1 <1>   0.2580 
 12 O       -2.0230    -4.8590    -0.1800 O.3   1 <1>  -0.6580 
 13 H       -1.2520    -1.1270     1.0130 H     1 <1>   0.0000 
 14 H       -0.3730    -3.3390     1.0480 H     1 <1>   0.0000 
 15 H        0.3780    -2.9190    -0.5300 H     1 <1>   0.0000 
 16 H       -3.3620    -2.1100    -0.7140 H     1 <1>   0.0000 
 17 H       -3.0100    -2.7730     0.9250 H     1 <1>   0.0000 
 18 H       -0.3870     2.1350    -0.2340 H     1 <1>   0.0800 
 19 H       -0.8130     1.0650     1.0860 H     1 <1>   0.0800 
 20 H       -1.4800     2.6620     1.0160 H     1 <1>   0.0800 
 21 H       -2.1280     2.8300    -1.9180 H     1 <1>   0.0800 
 22 H       -3.2440     3.2770    -0.6550 H     1 <1>   0.0800 
 23 H       -3.7290     2.1260    -1.8720 H     1 <1>   0.0800 
 24 H       -3.1650     0.0730     1.1920 H     1 <1>   0.0800 
 25 H       -4.2780     0.3420    -0.1380 H     1 <1>   0.0800 
 26 H       -3.9550     1.5990     1.0230 H     1 <1>   0.0800 
 27 H       -1.6770    -3.5870    -1.7500 H     1 <1>   0.0000 
 28 H       -2.0070    -4.8480     0.7940 H     1 <1>   0.4000 
@<TRIPOS>BOND
  1   1   2  2   
  2   2   3  1   
  3   2   4  1   
  4   3   5  1   
  5   4   6  1   
  6   4   7  1   
  7   4  13  1   
  8   5   8  1   
  9   5   9  1   
 10   5  10  1   
 11   6  11  1   
 12   6  14  1   
 13   6  15  1   
 14   7  11  1   
 15   7  16  1   
 16   7  17  1   
 17   8  18  1   
 18   8  19  1   
 19   8  20  1   
 20   9  21  1   
 21   9  22  1   
 22   9  23  1   
 23  10  24  1   
 24  10  25  1   
 25  10  26  1   
 26  11  12  1   
 27  11  27  1   
 28  12  28  1   
@<TRIPOS>SUBSTRUCTURE
  1 ****   2 GROUP 4 **** **** 0

# MOE 2024.06 (io_trps.svl 2023.06)
