@<TRIPOS>MOLECULE
NONAME
52 54 1 0 0 
SMALL
USER_CHARGES


@<TRIPOS>ATOM
  1 O       -0.6760     1.3020     0.6610 O.3   1 <1>  -0.3630 
  2 C        0.3750     2.1130     0.3830 C.ar  1 <1>   0.0830 
  3 C       -1.0080     0.2210    -0.1750 C.3   1 <1>   0.1200 
  4 C        0.6170     3.1460     1.2750 C.ar  1 <1>  -0.1500 
  5 C        1.2020     1.9610    -0.7280 C.ar  1 <1>  -0.1500 
  6 C       -2.2310    -0.4680     0.4340 C.3   1 <1>  -0.1600 
  7 C        1.6680     4.0210     1.0690 C.ar  1 <1>  -0.1500 
  8 C        2.2540     2.8380    -0.9330 C.ar  1 <1>  -0.1500 
  9 C       -2.6850    -1.6750    -0.4010 C.3   1 <1>  -0.1600 
 10 C        2.4880     3.8670    -0.0360 C.ar  1 <1>  -0.1500 
 11 C       -3.9140    -2.3260     0.2380 C.3   1 <1>   0.3430 
 12 N       -4.4410    -3.4270    -0.6260 N.4   1 <1>  -0.9590 
 13 C       -5.8330    -3.8050    -0.2450 C.3   1 <1>   0.4230 
 14 C       -3.5250    -4.6160    -0.6000 C.3   1 <1>   0.2630 
 15 C       -6.4100    -4.8690    -1.1780 C.3   1 <1>  -0.1600 
 16 C       -6.8030    -2.6320    -0.3870 C.3   1 <1>  -0.1600 
 17 C       -7.9310    -4.6990    -1.0970 C.3   1 <1>  -0.0800 
 18 C       -8.1820    -3.2700    -0.5920 C.3   1 <1>  -0.0800 
 19 C       -8.6070    -5.6400    -0.0880 C.3   1 <1>  -0.1600 
 20 C       -9.0020    -3.4040     0.7000 C.3   1 <1>  -0.1600 
 21 C       -9.6530    -4.7730     0.5950 C.3   1 <1>   0.2000 
 22 O       -9.9420    -5.2660     1.8470 O.3   1 <1>  -0.6800 
 23 H       -1.2290     0.6080    -1.1560 H     1 <1>   0.0800 
 24 H       -0.1650    -0.4470    -0.2150 H     1 <1>   0.0800 
 25 H       -0.0240     3.2590     2.1310 H     1 <1>   0.1500 
 26 H        1.0470     1.1740    -1.4400 H     1 <1>   0.1500 
 27 H       -1.9790    -0.7890     1.4310 H     1 <1>   0.0800 
 28 H       -3.0300     0.2520     0.4970 H     1 <1>   0.0800 
 29 H        1.8480     4.8200     1.7670 H     1 <1>   0.1500 
 30 H        2.8940     2.7220    -1.7900 H     1 <1>   0.1500 
 31 H       -1.8730    -2.3780    -0.4560 H     1 <1>   0.0800 
 32 H       -2.9280    -1.3380    -1.3940 H     1 <1>   0.0800 
 33 H        3.3060     4.5470    -0.1970 H     1 <1>   0.1500 
 34 H       -4.6680    -1.5670     0.3630 H     1 <1>   0.0800 
 35 H       -3.6630    -2.7080     1.2150 H     1 <1>   0.0800 
 36 H       -4.4900    -3.0720    -1.5900 H     1 <1>   0.4500 
 37 H       -5.8670    -4.1710     0.7700 H     1 <1>   0.0800 
 38 H       -3.4620    -5.0180     0.3980 H     1 <1>   0.0800 
 39 H       -2.5350    -4.3380    -0.9230 H     1 <1>   0.0800 
 40 H       -3.8890    -5.3870    -1.2590 H     1 <1>   0.0800 
 41 H       -6.1050    -4.6730    -2.1920 H     1 <1>   0.0800 
 42 H       -6.1080    -5.8640    -0.9010 H     1 <1>   0.0800 
 43 H       -6.7940    -1.9860     0.4720 H     1 <1>   0.0800 
 44 H       -6.5630    -2.0610    -1.2670 H     1 <1>   0.0800 
 45 H       -8.3820    -4.8330    -2.0670 H     1 <1>   0.0800 
 46 H       -8.7540    -2.7160    -1.3210 H     1 <1>   0.0800 
 47 H       -7.8970    -5.9930     0.6390 H     1 <1>   0.0800 
 48 H       -9.0660    -6.4800    -0.5810 H     1 <1>   0.0800 
 49 H       -9.7450    -2.6290     0.7760 H     1 <1>   0.0800 
 50 H       -8.3610    -3.3730     1.5630 H     1 <1>   0.0800 
 51 H      -10.5620    -4.7300     0.0160 H     1 <1>   0.0800 
 52 H       -9.1390    -5.3210     2.3950 H     1 <1>   0.4000 
@<TRIPOS>BOND
  1   1   2  1   
  2   1   3  1   
  3   2   4  ar  
  4   2   5  ar  
  5   3   6  1   
  6   3  23  1   
  7   3  24  1   
  8   4   7  ar  
  9   4  25  1   
 10   5   8  ar  
 11   5  26  1   
 12   6   9  1   
 13   6  27  1   
 14   6  28  1   
 15   7  10  ar  
 16   7  29  1   
 17   8  10  ar  
 18   8  30  1   
 19   9  11  1   
 20   9  31  1   
 21   9  32  1   
 22  10  33  1   
 23  11  12  1   
 24  11  34  1   
 25  11  35  1   
 26  12  13  1   
 27  12  14  1   
 28  12  36  1   
 29  13  15  1   
 30  13  16  1   
 31  13  37  1   
 32  14  38  1   
 33  14  39  1   
 34  14  40  1   
 35  15  17  1   
 36  15  41  1   
 37  15  42  1   
 38  16  18  1   
 39  16  43  1   
 40  16  44  1   
 41  17  18  1   
 42  17  19  1   
 43  17  45  1   
 44  18  20  1   
 45  18  46  1   
 46  19  21  1   
 47  19  47  1   
 48  19  48  1   
 49  20  21  1   
 50  20  49  1   
 51  20  50  1   
 52  21  22  1   
 53  21  51  1   
 54  22  52  1   
@<TRIPOS>SUBSTRUCTURE
  1 ****  11 GROUP 4 **** **** 0

# MOE 2024.06 (io_trps.svl 2023.06)
