@<TRIPOS>MOLECULE
NONAME
39 40 1 0 0 
SMALL
USER_CHARGES


@<TRIPOS>ATOM
  1 CL       0.0620     0.0100    -0.6100 Cl    1 <1>  -0.1770 
  2 C        1.5400     0.9530    -0.5910 C.ar  1 <1>   0.1770 
  3 C        2.6230     0.6080     0.2120 C.ar  1 <1>   0.1660 
  4 C        1.6070     2.0600    -1.4100 C.ar  1 <1>  -0.1500 
  5 N        3.7580     1.2920     0.2400 N.ar  1 <1>  -0.6200 
  6 C        2.5870    -0.6030     1.1270 C.3   1 <1>  -0.0960 
  7 C        2.7840     2.7700    -1.3770 C.ar  1 <1>  -0.1500 
  8 C        3.8260     2.3590    -0.5500 C.ar  1 <1>   0.4100 
  9 N        4.9920     3.0940    -0.5250 N.pl3 1 <1>  -0.8380 
 10 C        6.2710     2.3410    -0.4880 C.3   1 <1>   0.2090 
 11 C        4.9900     4.2800     0.3610 C.3   1 <1>   0.2090 
 12 C        7.4150     3.2610    -0.9220 C.3   1 <1>  -0.1600 
 13 C        6.1160     5.2330    -0.0530 C.3   1 <1>  -0.1600 
 14 C        7.4880     4.5320    -0.0560 C.3   1 <1>  -0.0800 
 15 C        8.6140     5.4500    -0.5690 C.3   1 <1>  -0.1600 
 16 C        8.8480     6.6710     0.3220 C.3   1 <1>   0.1200 
 17 O        9.9520     7.3520    -0.1740 O.3   1 <1>  -0.5600 
 18 C       10.2840     8.4930     0.5460 C.3   1 <1>   0.0400 
 19 H        0.7810     2.3410    -2.0370 H     1 <1>   0.1500 
 20 H        1.5830    -0.9030     1.3570 H     1 <1>   0.0800 
 21 H        3.0850    -0.3720     2.0510 H     1 <1>   0.0800 
 22 H        3.1000    -1.4210     0.6570 H     1 <1>   0.0800 
 23 H        2.9270     3.6420    -1.9850 H     1 <1>   0.1500 
 24 H        6.2080     1.4940    -1.1510 H     1 <1>   0.0800 
 25 H        6.4420     1.9770     0.5110 H     1 <1>   0.0800 
 26 H        5.1310     3.9590     1.3790 H     1 <1>   0.0800 
 27 H        4.0410     4.7840     0.2930 H     1 <1>   0.0800 
 28 H        7.2630     3.5260    -1.9530 H     1 <1>   0.0800 
 29 H        8.3400     2.7190    -0.8540 H     1 <1>   0.0800 
 30 H        6.1210     6.0630     0.6280 H     1 <1>   0.0800 
 31 H        5.8960     5.6120    -1.0360 H     1 <1>   0.0800 
 32 H        7.7220     4.2330     0.9520 H     1 <1>   0.0800 
 33 H        8.3830     5.7850    -1.5650 H     1 <1>   0.0800 
 34 H        9.5300     4.8870    -0.6090 H     1 <1>   0.0800 
 35 H        9.0560     6.3680     1.3340 H     1 <1>   0.0800 
 36 H        8.0000     7.3330     0.2990 H     1 <1>   0.0800 
 37 H       11.1460     8.9410     0.0830 H     1 <1>   0.0800 
 38 H       10.5190     8.2180     1.5600 H     1 <1>   0.0800 
 39 H        9.4590     9.1840     0.5200 H     1 <1>   0.0800 
@<TRIPOS>BOND
  1   1   2  1   
  2   2   3  ar  
  3   2   4  ar  
  4   3   5  ar  
  5   3   6  1   
  6   4   7  ar  
  7   4  19  1   
  8   5   8  ar  
  9   6  20  1   
 10   6  21  1   
 11   6  22  1   
 12   7   8  ar  
 13   7  23  1   
 14   8   9  1   
 15   9  10  1   
 16   9  11  1   
 17  10  12  1   
 18  10  24  1   
 19  10  25  1   
 20  11  13  1   
 21  11  26  1   
 22  11  27  1   
 23  12  14  1   
 24  12  28  1   
 25  12  29  1   
 26  13  14  1   
 27  13  30  1   
 28  13  31  1   
 29  14  15  1   
 30  14  32  1   
 31  15  16  1   
 32  15  33  1   
 33  15  34  1   
 34  16  17  1   
 35  16  35  1   
 36  16  36  1   
 37  17  18  1   
 38  18  37  1   
 39  18  38  1   
 40  18  39  1   
@<TRIPOS>SUBSTRUCTURE
  1 ****   9 GROUP 4 **** **** 0

# MOE 2024.06 (io_trps.svl 2023.06)
