@<TRIPOS>MOLECULE
NONAME
51 53 1 0 0 
SMALL
USER_CHARGES


@<TRIPOS>ATOM
  1 F        0.9350     3.5350    -3.9250 F     1 <1>  -0.1900 
  2 C        0.8370     3.9280    -2.6840 C.ar  1 <1>   0.1900 
  3 C       -0.3280     4.5450    -2.2700 C.ar  1 <1>  -0.1500 
  4 C        1.9020     3.7140    -1.8300 C.ar  1 <1>  -0.1500 
  5 C       -0.4260     4.9640    -0.9540 C.ar  1 <1>  -0.1500 
  6 C        1.7920     4.1370    -0.5160 C.ar  1 <1>  -0.1500 
  7 C        0.6320     4.7630    -0.0740 C.ar  1 <1>  -0.1430 
  8 C        0.5370     5.2280     1.3730 C.3   1 <1>   0.2840 
  9 N        1.5190     6.3200     1.6210 N.am  1 <1>  -0.6600 
 10 C        2.5350     6.1740     2.5320 C.2   1 <1>   0.5690 
 11 C        1.4300     7.5000     0.7130 C.3   1 <1>   0.1400 
 12 O        2.6150     5.1970     3.2400 O.2   1 <1>  -0.5700 
 13 C        3.6060     7.2610     2.6980 C.3   1 <1>   0.2010 
 14 C        2.1660     8.7270     1.2700 C.3   1 <1>   0.1400 
 15 N        3.5570     8.3750     1.6800 N.am  1 <1>  -0.6600 
 16 C        4.7300     8.9520     1.2480 C.2   1 <1>   0.5690 
 17 O        5.7910     8.5950     1.7010 O.2   1 <1>  -0.5700 
 18 C        4.7900    10.0750     0.2020 C.3   1 <1>  -0.0190 
 19 C        4.2080    11.4100     0.7190 C.3   1 <1>  -0.1600 
 20 C        4.2600     9.6540    -1.1920 C.3   1 <1>  -0.1600 
 21 C        4.3980    12.5710    -0.2790 C.3   1 <1>   0.2000 
 22 C        3.6740    10.8230    -2.0020 C.3   1 <1>  -0.1600 
 23 O        3.3080    13.4470    -0.1250 O.3   1 <1>  -0.5600 
 24 C        4.4730    12.1040    -1.7580 C.3   1 <1>   0.2000 
 25 C        3.4320    14.3670     0.9150 C.3   1 <1>   0.0400 
 26 O        3.9550    13.0890    -2.5730 O.3   1 <1>  -0.6800 
 27 H       -1.1350     4.6890    -2.9660 H     1 <1>   0.1500 
 28 H        2.7930     3.2290    -2.1870 H     1 <1>   0.1500 
 29 H       -1.3290     5.4440    -0.6190 H     1 <1>   0.1500 
 30 H        2.6100     3.9810     0.1670 H     1 <1>   0.1500 
 31 H        0.7250     4.3910     2.0230 H     1 <1>   0.0800 
 32 H       -0.4520     5.5910     1.5870 H     1 <1>   0.0800 
 33 H        1.8530     7.2380    -0.2420 H     1 <1>   0.0800 
 34 H        0.3960     7.7540     0.5580 H     1 <1>   0.0800 
 35 H        4.5630     6.7730     2.6620 H     1 <1>   0.0800 
 36 H        3.4980     7.6870     3.6790 H     1 <1>   0.0800 
 37 H        1.6320     9.1020     2.1260 H     1 <1>   0.0800 
 38 H        2.1560     9.4940     0.5200 H     1 <1>   0.0800 
 39 H        5.8400    10.2710     0.0600 H     1 <1>   0.0800 
 40 H        4.6930    11.6640     1.6450 H     1 <1>   0.0800 
 41 H        3.1610    11.2980     0.9200 H     1 <1>   0.0800 
 42 H        5.0830     9.2290    -1.7430 H     1 <1>   0.0800 
 43 H        3.5210     8.8790    -1.1160 H     1 <1>   0.0800 
 44 H        5.3080    13.1030    -0.0600 H     1 <1>   0.0800 
 45 H        2.6530    10.9900    -1.7040 H     1 <1>   0.0800 
 46 H        3.6870    10.5780    -3.0500 H     1 <1>   0.0800 
 47 H        5.4980    11.9430    -2.0470 H     1 <1>   0.0800 
 48 H        2.5440    14.9730     0.9330 H     1 <1>   0.0800 
 49 H        4.2910    14.9910     0.7370 H     1 <1>   0.0800 
 50 H        3.5310    13.8440     1.8500 H     1 <1>   0.0800 
 51 H        3.3080    13.5820    -2.0170 H     1 <1>   0.4000 
@<TRIPOS>BOND
  1   1   2  1   
  2   2   3  ar  
  3   2   4  ar  
  4   3   5  ar  
  5   3  27  1   
  6   4   6  ar  
  7   4  28  1   
  8   5   7  ar  
  9   5  29  1   
 10   6   7  ar  
 11   6  30  1   
 12   7   8  1   
 13   8   9  1   
 14   8  31  1   
 15   8  32  1   
 16   9  10  am  
 17   9  11  1   
 18  10  12  2   
 19  10  13  1   
 20  11  14  1   
 21  11  33  1   
 22  11  34  1   
 23  13  15  1   
 24  13  35  1   
 25  13  36  1   
 26  14  15  1   
 27  14  37  1   
 28  14  38  1   
 29  15  16  am  
 30  16  17  2   
 31  16  18  1   
 32  18  19  1   
 33  18  20  1   
 34  18  39  1   
 35  19  21  1   
 36  19  40  1   
 37  19  41  1   
 38  20  22  1   
 39  20  42  1   
 40  20  43  1   
 41  21  23  1   
 42  21  24  1   
 43  21  44  1   
 44  22  24  1   
 45  22  45  1   
 46  22  46  1   
 47  23  25  1   
 48  24  26  1   
 49  24  47  1   
 50  25  48  1   
 51  25  49  1   
 52  25  50  1   
 53  26  51  1   
@<TRIPOS>SUBSTRUCTURE
  1 ****  14 GROUP 4 **** **** 0

# MOE 2024.06 (io_trps.svl 2023.06)
