@<TRIPOS>MOLECULE
NONAME
51 53 1 0 0 
SMALL
USER_CHARGES


@<TRIPOS>ATOM
  1 O        1.6300    -0.6460     2.1800 O.2   1 <1>  -0.5700 
  2 C        1.4730    -1.0650     1.0470 C.2   1 <1>   0.5440 
  3 N        1.4730    -0.1400     0.0260 N.am  1 <1>  -0.6600 
  4 C        1.3350    -2.4890     0.8090 C.ar  1 <1>   0.0860 
  5 C        1.2390     1.2980     0.3000 C.3   1 <1>   0.1400 
  6 C        1.9600    -0.4260    -1.3450 C.3   1 <1>   0.1400 
  7 C        0.2670    -3.0260     0.0660 C.ar  1 <1>   0.0000 
  8 C        2.2880    -3.3630     1.3310 C.ar  1 <1>  -0.1500 
  9 C        2.5890     2.0410     0.2210 C.3   1 <1>   0.4230 
 10 C        3.2750     0.3380    -1.5600 C.3   1 <1>  -0.1600 
 11 C       -0.7820    -2.1950    -0.4810 C.ar  1 <1>   0.0000 
 12 C        0.2130    -4.4010    -0.1420 C.ar  1 <1>  -0.1500 
 13 C        2.2180    -4.7250     1.1160 C.ar  1 <1>  -0.1500 
 14 N        2.4590     3.5070     0.5490 N.4   1 <1>  -0.9590 
 15 C        3.1770     1.8350    -1.1920 C.3   1 <1>  -0.1600 
 16 C       -1.6030    -1.4330     0.3460 C.ar  1 <1>  -0.1500 
 17 C       -0.9980    -2.1280    -1.8550 C.ar  1 <1>  -0.1500 
 18 C        1.1760    -5.2470     0.3720 C.ar  1 <1>  -0.1500 
 19 C        3.7700     4.2280     0.4790 C.3   1 <1>   0.2630 
 20 C        1.8750     3.7100     1.9160 C.3   1 <1>   0.2630 
 21 C       -2.5950    -0.6180    -0.1710 C.ar  1 <1>  -0.1430 
 22 C       -1.9870    -1.3190    -2.3820 C.ar  1 <1>  -0.1500 
 23 C       -2.7840    -0.5630    -1.5420 C.ar  1 <1>  -0.1500 
 24 C       -3.4800     0.2000     0.7520 C.3   1 <1>  -0.0970 
 25 H        0.7930     1.4030     1.2730 H     1 <1>   0.0800 
 26 H        0.5510     1.6820    -0.4320 H     1 <1>   0.0800 
 27 H        1.2170    -0.1090    -2.0580 H     1 <1>   0.0800 
 28 H        2.1250    -1.4820    -1.4800 H     1 <1>   0.0800 
 29 H        3.0950    -2.9600     1.9180 H     1 <1>   0.1500 
 30 H        3.2480     1.5810     0.9410 H     1 <1>   0.0800 
 31 H        3.5740     0.2350    -2.5890 H     1 <1>   0.0800 
 32 H        4.0360    -0.1300    -0.9590 H     1 <1>   0.0800 
 33 H       -0.6030    -4.8130    -0.7100 H     1 <1>   0.1500 
 34 H        2.9680    -5.3790     1.5280 H     1 <1>   0.1500 
 35 H        1.8220     3.9230    -0.1450 H     1 <1>   0.4500 
 36 H        4.1670     2.2470    -1.2580 H     1 <1>   0.0800 
 37 H        2.5500     2.3250    -1.9170 H     1 <1>   0.0800 
 38 H       -1.4560    -1.4870     1.4110 H     1 <1>   0.1500 
 39 H       -0.3840    -2.7160    -2.5140 H     1 <1>   0.1500 
 40 H        1.1140    -6.3080     0.2010 H     1 <1>   0.1500 
 41 H        4.4850     3.7690     1.1420 H     1 <1>   0.0800 
 42 H        3.6450     5.2600     0.7680 H     1 <1>   0.0800 
 43 H        4.1630     4.2050    -0.5240 H     1 <1>   0.0800 
 44 H        2.4770     3.2100     2.6580 H     1 <1>   0.0800 
 45 H        0.8730     3.3150     1.9660 H     1 <1>   0.0800 
 46 H        1.8350     4.7600     2.1550 H     1 <1>   0.0800 
 47 H       -2.1410    -1.2790    -3.4470 H     1 <1>   0.1500 
 48 H       -3.5550     0.0620    -1.9580 H     1 <1>   0.1500 
 49 H       -3.0120     0.3300     1.7110 H     1 <1>   0.0800 
 50 H       -4.4190    -0.3040     0.8930 H     1 <1>   0.0800 
 51 H       -3.6670     1.1700     0.3280 H     1 <1>   0.0800 
@<TRIPOS>BOND
  1   1   2  2   
  2   2   3  am  
  3   2   4  1   
  4   3   5  1   
  5   3   6  1   
  6   4   7  ar  
  7   4   8  ar  
  8   5   9  1   
  9   5  25  1   
 10   5  26  1   
 11   6  10  1   
 12   6  27  1   
 13   6  28  1   
 14   7  11  1   
 15   7  12  ar  
 16   8  13  ar  
 17   8  29  1   
 18   9  14  1   
 19   9  15  1   
 20   9  30  1   
 21  10  15  1   
 22  10  31  1   
 23  10  32  1   
 24  11  16  ar  
 25  11  17  ar  
 26  12  18  ar  
 27  12  33  1   
 28  13  18  ar  
 29  13  34  1   
 30  14  19  1   
 31  14  20  1   
 32  14  35  1   
 33  15  36  1   
 34  15  37  1   
 35  16  21  ar  
 36  16  38  1   
 37  17  22  ar  
 38  17  39  1   
 39  18  40  1   
 40  19  41  1   
 41  19  42  1   
 42  19  43  1   
 43  20  44  1   
 44  20  45  1   
 45  20  46  1   
 46  21  23  ar  
 47  21  24  1   
 48  22  23  ar  
 49  22  47  1   
 50  23  48  1   
 51  24  49  1   
 52  24  50  1   
 53  24  51  1   
@<TRIPOS>SUBSTRUCTURE
  1 ****   3 GROUP 4 **** **** 0

# MOE 2024.06 (io_trps.svl 2023.06)
