@<TRIPOS>MOLECULE
NONAME
49 53 1 0 0 
SMALL
USER_CHARGES


@<TRIPOS>ATOM
  1 O       -0.3330     4.6800     2.0330 O.2   1 <1>  -0.5700 
  2 C       -0.1300     3.9310     1.0930 C.2   1 <1>   0.5440 
  3 N       -1.2120     3.3120     0.4980 N.am  1 <1>  -0.6600 
  4 C        1.2250     3.7770     0.6060 C.ar  1 <1>   0.0860 
  5 C       -2.5780     3.3430     1.1030 C.3   1 <1>   0.1400 
  6 C       -1.1650     2.6400    -0.8270 C.3   1 <1>   0.1400 
  7 C        1.8640     2.5350     0.5310 C.ar  1 <1>   0.0820 
  8 C        1.9450     4.9030     0.2000 C.ar  1 <1>  -0.1500 
  9 C       -3.5500     4.1150     0.1920 C.3   1 <1>   0.1440 
 10 C       -2.1080     3.3620    -1.7980 C.3   1 <1>  -0.1600 
 11 O        1.2150     1.4200     0.9540 O.3   1 <1>  -0.3630 
 12 C        3.1660     2.4360     0.0320 C.ar  1 <1>   0.0820 
 13 C        3.2370     4.8060    -0.2810 C.ar  1 <1>  -0.1500 
 14 C       -4.9610     4.0740     0.7500 C.ar  1 <1>   0.1670 
 15 C       -3.5340     3.5070    -1.2300 C.3   1 <1>  -0.1600 
 16 C       -3.2380     5.6360     0.1780 C.3   1 <1>  -0.1600 
 17 C        1.9840     0.2580     1.1920 C.3   1 <1>   0.1200 
 18 O        3.7940     1.2370    -0.0760 O.3   1 <1>  -0.3630 
 19 C        3.8500     3.5680    -0.3680 C.ar  1 <1>  -0.1500 
 20 N       -5.5940     2.9940     1.1440 N.ar  1 <1>  -0.6200 
 21 C       -5.5200     5.3180     0.7940 C.ar  1 <1>  -0.1440 
 22 C       -4.5830     6.3770     0.2740 C.3   1 <1>  -0.0170 
 23 C        3.0060     0.0710     0.0660 C.3   1 <1>   0.1200 
 24 C       -6.8230     3.2190     1.5810 C.ar  1 <1>   0.7200 
 25 C       -6.8010     5.4280     1.2790 C.ar  1 <1>   0.1600 
 26 N       -7.4690     4.3720     1.6850 N.ar  1 <1>  -0.6200 
 27 N       -7.4940     2.1440     1.9980 N.pl3 1 <1>  -0.9000 
 28 H       -2.5570     3.7900     2.0820 H     1 <1>   0.0800 
 29 H       -2.9260     2.3310     1.2200 H     1 <1>   0.0800 
 30 H       -1.4740     1.6150    -0.7070 H     1 <1>   0.0800 
 31 H       -0.1680     2.6430    -1.2290 H     1 <1>   0.0800 
 32 H        1.4730     5.8670     0.2730 H     1 <1>   0.1500 
 33 H       -2.1460     2.8140    -2.7230 H     1 <1>   0.0800 
 34 H       -1.6960     4.3310    -2.0180 H     1 <1>   0.0800 
 35 H        3.7700     5.6910    -0.5860 H     1 <1>   0.1500 
 36 H       -4.1350     4.1050    -1.8920 H     1 <1>   0.0800 
 37 H       -3.9820     2.5280    -1.1850 H     1 <1>   0.0800 
 38 H       -2.6810     5.9410    -0.6890 H     1 <1>   0.0800 
 39 H       -2.6550     5.8870     1.0480 H     1 <1>   0.0800 
 40 H        1.3130    -0.5800     1.2470 H     1 <1>   0.0800 
 41 H        2.4830     0.3750     2.1380 H     1 <1>   0.0800 
 42 H        4.8530     3.4770    -0.7430 H     1 <1>   0.1500 
 43 H       -4.9070     6.7030    -0.7000 H     1 <1>   0.0800 
 44 H       -4.5210     7.2190     0.9420 H     1 <1>   0.0800 
 45 H        2.5050    -0.1100    -0.8680 H     1 <1>   0.0800 
 46 H        3.6650    -0.7500     0.2800 H     1 <1>   0.0800 
 47 H       -7.2810     6.3900     1.3340 H     1 <1>   0.1500 
 48 H       -8.2800     2.3420     2.6090 H     1 <1>   0.4000 
 49 H       -6.9170     1.3430     2.2330 H     1 <1>   0.4000 
@<TRIPOS>BOND
  1   1   2  2   
  2   2   3  am  
  3   2   4  1   
  4   3   5  1   
  5   3   6  1   
  6   4   7  ar  
  7   4   8  ar  
  8   5   9  1   
  9   5  28  1   
 10   5  29  1   
 11   6  10  1   
 12   6  30  1   
 13   6  31  1   
 14   7  11  1   
 15   7  12  ar  
 16   8  13  ar  
 17   8  32  1   
 18   9  14  1   
 19   9  15  1   
 20   9  16  1   
 21  10  15  1   
 22  10  33  1   
 23  10  34  1   
 24  11  17  1   
 25  12  18  1   
 26  12  19  ar  
 27  13  19  ar  
 28  13  35  1   
 29  14  20  ar  
 30  14  21  ar  
 31  15  36  1   
 32  15  37  1   
 33  16  22  1   
 34  16  38  1   
 35  16  39  1   
 36  17  23  1   
 37  17  40  1   
 38  17  41  1   
 39  18  23  1   
 40  19  42  1   
 41  20  24  ar  
 42  21  22  1   
 43  21  25  ar  
 44  22  43  1   
 45  22  44  1   
 46  23  45  1   
 47  23  46  1   
 48  24  26  ar  
 49  24  27  1   
 50  25  26  ar  
 51  25  47  1   
 52  27  48  1   
 53  27  49  1   
@<TRIPOS>SUBSTRUCTURE
  1 ****   3 GROUP 4 **** **** 0

# MOE 2024.06 (io_trps.svl 2023.06)
