@<TRIPOS>MOLECULE
NONAME
48 49 1 0 0 
SMALL
USER_CHARGES


@<TRIPOS>ATOM
  1 S       -0.1500     0.1400    -0.0370 S.o2  1 <1>   1.3330 
  2 O       -0.8920     1.3810    -0.0460 O.2   1 <1>  -0.6500 
  3 O       -0.0530    -0.6240     1.1860 O.2   1 <1>  -0.6500 
  4 N       -0.8020    -0.8760    -1.2310 N.am  1 <1>  -0.8490 
  5 C        1.4920     0.4800    -0.6750 C.3   1 <1>  -0.0550 
  6 C       -2.2570    -0.7390    -1.3450 C.3   1 <1>   0.1160 
  7 C       -0.4470    -2.2880    -1.0510 C.3   1 <1>   0.1160 
  8 C        2.3180     1.4350     0.2110 C.3   1 <1>  -0.0800 
  9 C        3.5920     1.8650    -0.4960 C.3   1 <1>   0.2200 
 10 C        2.8670     0.7310     1.4580 C.3   1 <1>   0.1200 
 11 N        4.0730     3.1340     0.0950 N.am  1 <1>  -0.7300 
 12 C        4.5500     0.7410    -0.1220 C.3   1 <1>   0.1200 
 13 O        4.1660     0.3140     1.1510 O.3   1 <1>  -0.5600 
 14 C        4.3000     4.2900    -0.5940 C.2   1 <1>   0.5440 
 15 O        4.0570     4.3090    -1.7840 O.2   1 <1>  -0.5700 
 16 C        4.8420     5.4590     0.0760 C.ar  1 <1>   0.0860 
 17 C        4.6340     5.6870     1.4340 C.ar  1 <1>  -0.1500 
 18 C        5.5990     6.4000    -0.6210 C.ar  1 <1>  -0.1500 
 19 C        5.1730     6.7960     2.0540 C.ar  1 <1>   0.0820 
 20 C        6.1560     7.5320    -0.0230 C.ar  1 <1>   0.0860 
 21 O        4.9560     6.9740     3.3640 O.3   1 <1>  -0.5320 
 22 C        5.9250     7.7100     1.3420 C.ar  1 <1>  -0.1500 
 23 C        6.9440     8.4760    -0.7960 C.2   1 <1>   0.6340 
 24 O        7.2080     8.3190    -1.9690 O.2   1 <1>  -0.5700 
 25 O        7.4010     9.5680    -0.1740 O.3   1 <1>  -0.4300 
 26 C        8.1760    10.5390    -0.8500 C.3   1 <1>   0.0400 
 27 H        2.0230    -0.4420    -0.8030 H     1 <1>   0.0800 
 28 H        1.3780     0.9280    -1.6440 H     1 <1>   0.0800 
 29 H       -2.6340    -1.3860    -2.1180 H     1 <1>   0.0800 
 30 H       -2.5130     0.2750    -1.6020 H     1 <1>   0.0800 
 31 H       -2.7310    -0.9890    -0.4100 H     1 <1>   0.0800 
 32 H       -0.8060    -2.8690    -1.8830 H     1 <1>   0.0800 
 33 H       -0.8810    -2.6730    -0.1420 H     1 <1>   0.0800 
 34 H        0.6220    -2.3990    -0.9950 H     1 <1>   0.0800 
 35 H        1.7110     2.2860     0.4700 H     1 <1>   0.0800 
 36 H        3.4770     1.9610    -1.5630 H     1 <1>   0.0800 
 37 H        2.2920    -0.1270     1.7600 H     1 <1>   0.0800 
 38 H        2.9350     1.4180     2.2840 H     1 <1>   0.0800 
 39 H        4.3910     3.0490     1.0630 H     1 <1>   0.3700 
 40 H        5.5770     1.0600    -0.1040 H     1 <1>   0.0800 
 41 H        4.4400    -0.0920    -0.7930 H     1 <1>   0.0800 
 42 H        4.0420     5.0060     2.0190 H     1 <1>   0.1500 
 43 H        5.7610     6.2430    -1.6760 H     1 <1>   0.1500 
 44 H        5.3590     7.7840     3.7260 H     1 <1>   0.4500 
 45 H        6.3370     8.5660     1.8430 H     1 <1>   0.1500 
 46 H        8.4270    11.3210    -0.1550 H     1 <1>   0.0800 
 47 H        7.5980    10.9380    -1.6660 H     1 <1>   0.0800 
 48 H        9.0710    10.0720    -1.2230 H     1 <1>   0.0800 
@<TRIPOS>BOND
  1   1   2  2   
  2   1   3  2   
  3   1   4  am  
  4   1   5  1   
  5   4   6  1   
  6   4   7  1   
  7   5   8  1   
  8   5  27  1   
  9   5  28  1   
 10   6  29  1   
 11   6  30  1   
 12   6  31  1   
 13   7  32  1   
 14   7  33  1   
 15   7  34  1   
 16   8   9  1   
 17   8  10  1   
 18   8  35  1   
 19   9  11  1   
 20   9  12  1   
 21   9  36  1   
 22  10  13  1   
 23  10  37  1   
 24  10  38  1   
 25  11  14  am  
 26  11  39  1   
 27  12  13  1   
 28  12  40  1   
 29  12  41  1   
 30  14  15  2   
 31  14  16  1   
 32  16  17  ar  
 33  16  18  ar  
 34  17  19  ar  
 35  17  42  1   
 36  18  20  ar  
 37  18  43  1   
 38  19  21  1   
 39  19  22  ar  
 40  20  22  ar  
 41  20  23  1   
 42  21  44  1   
 43  22  45  1   
 44  23  24  2   
 45  23  25  1   
 46  25  26  1   
 47  26  46  1   
 48  26  47  1   
 49  26  48  1   
@<TRIPOS>SUBSTRUCTURE
  1 ****  11 GROUP 4 **** **** 0

# MOE 2024.06 (io_trps.svl 2023.06)
