@<TRIPOS>MOLECULE
NONAME
39 39 1 0 0 
SMALL
USER_CHARGES


@<TRIPOS>ATOM
  1 O       -0.9360    -1.3310     1.1040 O.3   1 <1>  -0.6800 
  2 C       -1.5980    -0.9260    -0.0470 C.3   1 <1>   0.2800 
  3 C       -3.0030    -1.5840    -0.0480 C.3   1 <1>   0.2090 
  4 C       -0.7710    -1.4240    -1.2640 C.3   1 <1>  -0.0220 
  5 C       -1.7840     0.6110    -0.0020 C.3   1 <1>  -0.0220 
  6 N       -2.9450    -3.0430     0.2400 N.pl3 1 <1>  -0.8690 
  7 C        0.7630    -1.3330    -1.2560 C.2   1 <1>  -0.2880 
  8 C       -0.5200     1.4580    -0.0080 C.2   1 <1>  -0.2880 
  9 C       -4.0960    -3.7980     0.3850 C.ar  1 <1>   0.4100 
 10 C        1.6190    -0.8040    -0.3720 C.2   1 <1>  -0.3000 
 11 C       -0.1110     2.2220     1.0090 C.2   1 <1>  -0.3000 
 12 N       -5.1920    -3.2930    -0.1660 N.ar  1 <1>  -0.6200 
 13 C       -4.0920    -5.0290     1.0800 C.ar  1 <1>   0.1670 
 14 C       -6.2550    -4.0540     0.0090 C.ar  1 <1>   0.1670 
 15 N       -5.1590    -5.7850     1.2590 N.ar  1 <1>  -0.6200 
 16 C       -2.8030    -5.5620     1.6830 C.3   1 <1>  -0.0970 
 17 C       -6.2380    -5.2600     0.7010 C.ar  1 <1>   0.1600 
 18 C       -7.5420    -3.5340    -0.5990 C.3   1 <1>  -0.0970 
 19 H        0.0190    -1.1920     0.9440 H     1 <1>   0.4000 
 20 H       -3.4750    -1.4300    -1.0030 H     1 <1>   0.0800 
 21 H       -3.6190    -1.1140     0.7000 H     1 <1>   0.0800 
 22 H       -1.1320    -0.9160    -2.1400 H     1 <1>   0.0800 
 23 H       -1.0060    -2.4630    -1.4150 H     1 <1>   0.0800 
 24 H       -2.3570     0.8530     0.8760 H     1 <1>   0.0800 
 25 H       -2.3780     0.9090    -0.8480 H     1 <1>   0.0800 
 26 H       -2.2060    -3.2220     0.9290 H     1 <1>   0.4000 
 27 H        1.1530    -1.8000    -2.1470 H     1 <1>   0.1500 
 28 H        0.0290     1.3910    -0.9330 H     1 <1>   0.1500 
 29 H        2.6860    -0.8260    -0.5110 H     1 <1>   0.1500 
 30 H        1.3710    -0.3010     0.5460 H     1 <1>   0.1500 
 31 H        0.7840     2.8200     0.9880 H     1 <1>   0.1500 
 32 H       -0.6320     2.3150     1.9460 H     1 <1>   0.1500 
 33 H       -2.5240    -4.9610     2.5280 H     1 <1>   0.0800 
 34 H       -2.0160    -5.5380     0.9510 H     1 <1>   0.0800 
 35 H       -2.9330    -6.5780     2.0090 H     1 <1>   0.0800 
 36 H       -7.1510    -5.8190     0.8000 H     1 <1>   0.1500 
 37 H       -7.7770    -2.5760    -0.1750 H     1 <1>   0.0800 
 38 H       -8.3590    -4.2070    -0.4160 H     1 <1>   0.0800 
 39 H       -7.4150    -3.4200    -1.6600 H     1 <1>   0.0800 
@<TRIPOS>BOND
  1   1   2  1   
  2   1  19  1   
  3   2   3  1   
  4   2   4  1   
  5   2   5  1   
  6   3   6  1   
  7   3  20  1   
  8   3  21  1   
  9   4   7  1   
 10   4  22  1   
 11   4  23  1   
 12   5   8  1   
 13   5  24  1   
 14   5  25  1   
 15   6   9  1   
 16   6  26  1   
 17   7  10  2   
 18   7  27  1   
 19   8  11  2   
 20   8  28  1   
 21   9  12  ar  
 22   9  13  ar  
 23  10  29  1   
 24  10  30  1   
 25  11  31  1   
 26  11  32  1   
 27  12  14  ar  
 28  13  15  ar  
 29  13  16  1   
 30  14  17  ar  
 31  14  18  1   
 32  15  17  ar  
 33  16  33  1   
 34  16  34  1   
 35  16  35  1   
 36  17  36  1   
 37  18  37  1   
 38  18  38  1   
 39  18  39  1   
@<TRIPOS>SUBSTRUCTURE
  1 ****   6 GROUP 4 **** **** 0

# MOE 2024.06 (io_trps.svl 2023.06)
