@<TRIPOS>MOLECULE
NONAME
47 50 1 0 0 
SMALL
USER_CHARGES


@<TRIPOS>ATOM
  1 O        2.2210    -0.0360     2.3870 O.co2 1 <1>  -0.9000 
  2 C        3.3410     0.5140     2.3750 C.2   1 <1>   0.9790 
  3 O        3.9210     0.6440     3.4750 O.co2 1 <1>  -0.9000 
  4 C        3.9950     0.9910     1.1490 C.ar  1 <1>   0.1310 
  5 N        3.3690     1.0780    -0.0500 N.ar  1 <1>  -0.6200 
  6 C        5.3380     1.3700     1.2640 C.ar  1 <1>   0.1600 
  7 C        4.1350     1.5320    -1.0140 C.ar  1 <1>   0.1600 
  8 N        6.1120     1.8330     0.2930 N.ar  1 <1>  -0.6200 
  9 C        5.4770     1.9100    -0.8660 C.ar  1 <1>   0.4100 
 10 N        6.2070     2.4110    -1.9320 N.pl3 1 <1>  -0.8380 
 11 C        6.2530     3.8720    -2.0970 C.3   1 <1>   0.2090 
 12 C        7.4150     1.6890    -2.3700 C.3   1 <1>   0.2090 
 13 C        7.3980     4.4200    -1.2500 C.3   1 <1>  -0.1600 
 14 C        8.6280     2.1900    -1.5870 C.3   1 <1>  -0.1600 
 15 C        8.7410     3.7260    -1.5410 C.3   1 <1>   0.4230 
 16 N        9.7340     4.1110    -0.4860 N.4   1 <1>  -0.9590 
 17 C        9.8980     5.5880    -0.3200 C.3   1 <1>   0.4860 
 18 C       11.0880     3.4900    -0.6480 C.3   1 <1>   0.3430 
 19 C       10.8530     5.9100     0.8180 C.ar  1 <1>  -0.1430 
 20 C       11.8820     3.6010     0.6560 C.3   1 <1>  -0.0170 
 21 C       11.7900     4.9870     1.2700 C.ar  1 <1>  -0.1430 
 22 C       10.7880     7.1630     1.4110 C.ar  1 <1>  -0.1500 
 23 C       12.6480     5.3260     2.3040 C.ar  1 <1>  -0.1500 
 24 C       11.6470     7.4950     2.4420 C.ar  1 <1>  -0.1500 
 25 C       12.5780     6.5770     2.8890 C.ar  1 <1>  -0.1500 
 26 H        5.7950     1.2810     2.2350 H     1 <1>   0.1500 
 27 H        3.7030     1.6240    -1.9910 H     1 <1>   0.1500 
 28 H        5.3180     4.3020    -1.7750 H     1 <1>   0.0800 
 29 H        6.3950     4.1100    -3.1380 H     1 <1>   0.0800 
 30 H        7.5540     1.8440    -3.4270 H     1 <1>   0.0800 
 31 H        7.2820     0.6320    -2.2010 H     1 <1>   0.0800 
 32 H        7.1310     4.2890    -0.2160 H     1 <1>   0.0800 
 33 H        7.4640     5.4720    -1.4540 H     1 <1>   0.0800 
 34 H        9.4970     1.7650    -2.0520 H     1 <1>   0.0800 
 35 H        8.5580     1.7980    -0.5880 H     1 <1>   0.0800 
 36 H        9.0870     4.0620    -2.5050 H     1 <1>   0.0800 
 37 H        9.3490     3.7710     0.4070 H     1 <1>   0.4500 
 38 H        8.9470     6.0440    -0.1010 H     1 <1>   0.0800 
 39 H       10.2790     6.0200    -1.2310 H     1 <1>   0.0800 
 40 H       11.6240     3.9950    -1.4350 H     1 <1>   0.0800 
 41 H       11.0080     2.4490    -0.9060 H     1 <1>   0.0800 
 42 H       12.9110     3.3590     0.4580 H     1 <1>   0.0800 
 43 H       11.5090     2.8790     1.3610 H     1 <1>   0.0800 
 44 H       10.0730     7.8970     1.0800 H     1 <1>   0.1500 
 45 H       13.3770     4.6200     2.6650 H     1 <1>   0.1500 
 46 H       11.5940     8.4690     2.9000 H     1 <1>   0.1500 
 47 H       13.2470     6.8350     3.6920 H     1 <1>   0.1500 
@<TRIPOS>BOND
  1   1   2  ar  
  2   2   3  ar  
  3   2   4  1   
  4   4   5  ar  
  5   4   6  ar  
  6   5   7  ar  
  7   6   8  ar  
  8   6  26  1   
  9   7   9  ar  
 10   7  27  1   
 11   8   9  ar  
 12   9  10  1   
 13  10  11  1   
 14  10  12  1   
 15  11  13  1   
 16  11  28  1   
 17  11  29  1   
 18  12  14  1   
 19  12  30  1   
 20  12  31  1   
 21  13  15  1   
 22  13  32  1   
 23  13  33  1   
 24  14  15  1   
 25  14  34  1   
 26  14  35  1   
 27  15  16  1   
 28  15  36  1   
 29  16  17  1   
 30  16  18  1   
 31  16  37  1   
 32  17  19  1   
 33  17  38  1   
 34  17  39  1   
 35  18  20  1   
 36  18  40  1   
 37  18  41  1   
 38  19  21  ar  
 39  19  22  ar  
 40  20  21  1   
 41  20  42  1   
 42  20  43  1   
 43  21  23  ar  
 44  22  24  ar  
 45  22  44  1   
 46  23  25  ar  
 47  23  45  1   
 48  24  25  ar  
 49  24  46  1   
 50  25  47  1   
@<TRIPOS>SUBSTRUCTURE
  1 ****  13 GROUP 4 **** **** 0

# MOE 2024.06 (io_trps.svl 2023.06)
