@<TRIPOS>MOLECULE
NONAME
45 47 1 0 0 
SMALL
USER_CHARGES


@<TRIPOS>ATOM
  1 F        0.2980    -7.2200     0.6840 F     1 <1>  -0.1900 
  2 C       -0.7480    -6.4360     0.7150 C.ar  1 <1>   0.1900 
  3 C       -1.4390    -6.2730     1.9070 C.ar  1 <1>  -0.1440 
  4 C       -1.1220    -5.8070    -0.4570 C.ar  1 <1>  -0.1500 
  5 C       -2.5430    -5.4360     1.9010 C.ar  1 <1>  -0.1500 
  6 C       -1.0050    -6.9800     3.1820 C.3   1 <1>  -0.0960 
  7 C       -2.2350    -4.9810    -0.4510 C.ar  1 <1>  -0.1430 
  8 C       -2.9350    -4.7970     0.7340 C.ar  1 <1>  -0.1500 
  9 C       -2.7200    -4.3050    -1.7290 C.3   1 <1>   0.0450 
 10 C       -3.8940    -5.0690    -2.3130 C.2   1 <1>   0.5690 
 11 O       -4.9600    -4.5170    -2.4440 O.2   1 <1>  -0.5700 
 12 N       -3.7190    -6.3740    -2.6340 N.am  1 <1>  -0.7300 
 13 C       -4.8000    -7.3320    -2.9570 C.3   1 <1>   0.2200 
 14 C       -5.0380    -8.2850    -1.7900 C.3   1 <1>  -0.0800 
 15 C       -4.2900    -8.3040    -4.0100 C.3   1 <1>   0.1200 
 16 C       -3.9640    -9.3590    -1.9990 C.3   1 <1>   0.1200 
 17 C       -5.0270    -7.6520    -0.3850 C.3   1 <1>  -0.0170 
 18 O       -3.4990    -9.2170    -3.3110 O.3   1 <1>  -0.5600 
 19 C       -5.2360    -8.6950     0.7000 C.ar  1 <1>  -0.1430 
 20 C       -6.4750    -9.2440     0.9620 C.ar  1 <1>  -0.1500 
 21 C       -4.1920    -9.1440     1.4830 C.ar  1 <1>  -0.1500 
 22 C       -6.6040   -10.1940     1.9620 C.ar  1 <1>   0.1600 
 23 C       -4.4280   -10.0980     2.4580 C.ar  1 <1>   0.1600 
 24 N       -5.6100   -10.6360     2.7150 N.ar  1 <1>  -0.6200 
 25 H       -0.5470    -5.9740    -1.3500 H     1 <1>   0.1500 
 26 H       -3.1080    -5.2760     2.8040 H     1 <1>   0.1500 
 27 H       -1.7120    -6.8140     3.9750 H     1 <1>   0.0800 
 28 H       -0.0440    -6.6110     3.4940 H     1 <1>   0.0800 
 29 H       -0.9290    -8.0390     3.0090 H     1 <1>   0.0800 
 30 H       -3.8020    -4.1570     0.7520 H     1 <1>   0.1500 
 31 H       -1.9330    -4.2640    -2.4590 H     1 <1>   0.0800 
 32 H       -3.0260    -3.2980    -1.5150 H     1 <1>   0.0800 
 33 H       -2.8160    -6.8260    -2.4710 H     1 <1>   0.3700 
 34 H       -5.6920    -6.8130    -3.2680 H     1 <1>   0.0800 
 35 H       -5.9940    -8.7560    -1.9380 H     1 <1>   0.0800 
 36 H       -3.7050    -7.8240    -4.7740 H     1 <1>   0.0800 
 37 H       -5.1050    -8.8470    -4.4570 H     1 <1>   0.0800 
 38 H       -4.3610   -10.3510    -1.8710 H     1 <1>   0.0800 
 39 H       -3.1250    -9.2160    -1.3400 H     1 <1>   0.0800 
 40 H       -5.7990    -6.9040    -0.3200 H     1 <1>   0.0800 
 41 H       -4.0890    -7.1620    -0.2040 H     1 <1>   0.0800 
 42 H       -7.3390    -8.9420     0.3990 H     1 <1>   0.1500 
 43 H       -3.1970    -8.7590     1.3450 H     1 <1>   0.1500 
 44 H       -7.5770   -10.6120     2.1520 H     1 <1>   0.1500 
 45 H       -3.6010   -10.4380     3.0570 H     1 <1>   0.1500 
@<TRIPOS>BOND
  1   1   2  1   
  2   2   3  ar  
  3   2   4  ar  
  4   3   5  ar  
  5   3   6  1   
  6   4   7  ar  
  7   4  25  1   
  8   5   8  ar  
  9   5  26  1   
 10   6  27  1   
 11   6  28  1   
 12   6  29  1   
 13   7   8  ar  
 14   7   9  1   
 15   8  30  1   
 16   9  10  1   
 17   9  31  1   
 18   9  32  1   
 19  10  11  2   
 20  10  12  am  
 21  12  13  1   
 22  12  33  1   
 23  13  14  1   
 24  13  15  1   
 25  13  34  1   
 26  14  16  1   
 27  14  17  1   
 28  14  35  1   
 29  15  18  1   
 30  15  36  1   
 31  15  37  1   
 32  16  18  1   
 33  16  38  1   
 34  16  39  1   
 35  17  19  1   
 36  17  40  1   
 37  17  41  1   
 38  19  20  ar  
 39  19  21  ar  
 40  20  22  ar  
 41  20  42  1   
 42  21  23  ar  
 43  21  43  1   
 44  22  24  ar  
 45  22  44  1   
 46  23  24  ar  
 47  23  45  1   
@<TRIPOS>SUBSTRUCTURE
  1 ****  17 GROUP 4 **** **** 0

# MOE 2024.06 (io_trps.svl 2023.06)
