@<TRIPOS>MOLECULE
NONAME
53 56 1 0 0 
SMALL
USER_CHARGES


@<TRIPOS>ATOM
  1 O       -0.9690    -0.0140    -0.7340 O.3   1 <1>  -0.0190 
  2 N       -0.4360     0.6920     0.2160 N.2   1 <1>  -0.4100 
  3 C       -2.2350     0.3250    -0.7130 C.2   1 <1>   0.2980 
  4 C       -1.3690     1.3880     0.7370 C.2   1 <1>   0.3350 
  5 N       -2.5500     1.1890     0.1680 N.2   1 <1>  -0.5650 
  6 C       -3.1640    -0.3340    -1.7300 C.3   1 <1>   0.1000 
  7 C       -1.2180     2.3780     1.8940 C.3   1 <1>   0.1010 
  8 C       -4.5760     0.2780    -1.7270 C.3   1 <1>  -0.1600 
  9 C       -3.2550    -1.8500    -1.4880 C.3   1 <1>  -0.1600 
 10 C       -1.0680     3.8100     1.3640 C.3   1 <1>  -0.2400 
 11 C       -0.0370     2.0320     2.8150 C.3   1 <1>  -0.2400 
 12 C       -5.4840    -0.4040    -2.7510 C.3   1 <1>   0.2090 
 13 C       -4.1570    -2.5300    -2.5180 C.3   1 <1>   0.2090 
 14 N       -5.4900    -1.8760    -2.5250 N.pl3 1 <1>  -0.8380 
 15 C       -6.5490    -2.4720    -1.8510 C.ar  1 <1>   0.4100 
 16 N       -7.2060    -1.7580    -0.9270 N.ar  1 <1>  -0.3100 
 17 C       -6.9100    -3.7770    -2.1360 C.ar  1 <1>  -0.1500 
 18 N       -8.1970    -2.2870    -0.2520 N.ar  1 <1>  -0.3100 
 19 C       -7.9480    -4.3290    -1.4310 C.ar  1 <1>  -0.1500 
 20 C       -8.5800    -3.5530    -0.4710 C.ar  1 <1>   0.3100 
 21 C       -9.6890    -4.0740     0.2970 C.ar  1 <1>   0.0000 
 22 C       -9.6140    -5.2800     1.0090 C.ar  1 <1>   0.0820 
 23 C      -10.8880    -3.3620     0.3450 C.ar  1 <1>  -0.1500 
 24 O       -8.4390    -5.9610     0.9800 O.3   1 <1>  -0.3620 
 25 C      -10.7180    -5.7440     1.7220 C.ar  1 <1>  -0.1500 
 26 C      -11.9780    -3.8230     1.0560 C.ar  1 <1>  -0.1500 
 27 C       -8.1910    -7.0720     1.8130 C.3   1 <1>   0.0400 
 28 C      -11.8950    -5.0190     1.7450 C.ar  1 <1>  -0.1500 
 29 H       -2.7330    -0.1700    -2.7020 H     1 <1>   0.0800 
 30 H       -2.1200     2.3250     2.4790 H     1 <1>   0.0800 
 31 H       -4.5190     1.3280    -1.9480 H     1 <1>   0.0800 
 32 H       -5.0180     0.1730    -0.7510 H     1 <1>   0.0800 
 33 H       -3.6500    -2.0340    -0.5040 H     1 <1>   0.0800 
 34 H       -2.2750    -2.2890    -1.5370 H     1 <1>   0.0800 
 35 H       -0.1810     3.8930     0.7620 H     1 <1>   0.0800 
 36 H       -1.0060     4.5100     2.1780 H     1 <1>   0.0800 
 37 H       -1.9190     4.0650     0.7560 H     1 <1>   0.0800 
 38 H        0.8920     2.0930     2.2750 H     1 <1>   0.0800 
 39 H       -0.1470     1.0300     3.1910 H     1 <1>   0.0800 
 40 H        0.0010     2.7100     3.6490 H     1 <1>   0.0800 
 41 H       -5.1300    -0.2060    -3.7480 H     1 <1>   0.0800 
 42 H       -6.4840    -0.0110    -2.6720 H     1 <1>   0.0800 
 43 H       -4.2530    -3.5740    -2.2720 H     1 <1>   0.0800 
 44 H       -3.7230    -2.4550    -3.5010 H     1 <1>   0.0800 
 45 H       -6.3900    -4.3280    -2.8940 H     1 <1>   0.1500 
 46 H       -8.2710    -5.3370    -1.6090 H     1 <1>   0.1500 
 47 H      -10.9590    -2.4280    -0.1860 H     1 <1>   0.1500 
 48 H      -10.6820    -6.6670     2.2660 H     1 <1>   0.1500 
 49 H      -12.8910    -3.2530     1.0740 H     1 <1>   0.1500 
 50 H       -7.1720    -7.3790     1.6660 H     1 <1>   0.0800 
 51 H       -8.8560    -7.8710     1.5380 H     1 <1>   0.0800 
 52 H       -8.3400    -6.7800     2.8380 H     1 <1>   0.0800 
 53 H      -12.7440    -5.3810     2.2980 H     1 <1>   0.1500 
@<TRIPOS>BOND
  1   1   2  1   
  2   1   3  1   
  3   2   4  2   
  4   3   5  2   
  5   3   6  1   
  6   4   5  1   
  7   4   7  1   
  8   6   8  1   
  9   6   9  1   
 10   6  29  1   
 11   7  10  1   
 12   7  11  1   
 13   7  30  1   
 14   8  12  1   
 15   8  31  1   
 16   8  32  1   
 17   9  13  1   
 18   9  33  1   
 19   9  34  1   
 20  10  35  1   
 21  10  36  1   
 22  10  37  1   
 23  11  38  1   
 24  11  39  1   
 25  11  40  1   
 26  12  14  1   
 27  12  41  1   
 28  12  42  1   
 29  13  14  1   
 30  13  43  1   
 31  13  44  1   
 32  14  15  1   
 33  15  16  ar  
 34  15  17  ar  
 35  16  18  ar  
 36  17  19  ar  
 37  17  45  1   
 38  18  20  ar  
 39  19  20  ar  
 40  19  46  1   
 41  20  21  1   
 42  21  22  ar  
 43  21  23  ar  
 44  22  24  1   
 45  22  25  ar  
 46  23  26  ar  
 47  23  47  1   
 48  24  27  1   
 49  25  28  ar  
 50  25  48  1   
 51  26  28  ar  
 52  26  49  1   
 53  27  50  1   
 54  27  51  1   
 55  27  52  1   
 56  28  53  1   
@<TRIPOS>SUBSTRUCTURE
  1 ****  16 GROUP 4 **** **** 0

# MOE 2024.06 (io_trps.svl 2023.06)
