@<TRIPOS>MOLECULE
NONAME
54 58 1 0 0 
SMALL
USER_CHARGES


@<TRIPOS>ATOM
  1 O       -0.6510     0.1570     0.2600 O.2   1 <1>  -0.5700 
  2 C       -1.5480     0.8380     0.7180 C.2   1 <1>   0.5440 
  3 N       -2.7430     0.2280     1.0330 N.am  1 <1>  -0.6600 
  4 C       -1.3460     2.2640     0.8970 C.ar  1 <1>   0.0860 
  5 C       -2.8670    -1.2630     1.1090 C.3   1 <1>   0.1400 
  6 C       -4.0670     0.9030     0.8740 C.3   1 <1>   0.1400 
  7 C       -0.7130     3.0290    -0.0600 C.ar  1 <1>  -0.1500 
  8 C       -1.7870     2.9180     2.0640 C.ar  1 <1>  -0.1500 
  9 C       -3.7410    -1.8030    -0.0380 C.3   1 <1>   0.3440 
 10 C       -4.8880     0.2420    -0.2530 C.3   1 <1>   0.2950 
 11 C       -0.5210     4.4090     0.0810 C.ar  1 <1>   0.3100 
 12 C       -1.6110     4.2650     2.2360 C.ar  1 <1>  -0.1500 
 13 O       -4.9780    -1.1380    -0.0510 O.3   1 <1>  -0.5600 
 14 C       -3.9630    -3.3050     0.1190 C.ar  1 <1>  -0.1440 
 15 C       -6.3150     0.7940    -0.3040 C.3   1 <1>  -0.1950 
 16 N        0.0940     5.0970    -0.9120 N.ar  1 <1>  -0.6200 
 17 C       -0.9810     5.0470     1.2570 C.ar  1 <1>   0.3100 
 18 C       -3.0580    -4.1910    -0.4490 C.ar  1 <1>  -0.1500 
 19 C       -5.0430    -3.8110     0.8300 C.ar  1 <1>  -0.1500 
 20 C       -7.1390     0.6960    -1.5490 C.3   1 <1>  -0.2000 
 21 C       -6.6390     2.0330    -1.0800 C.3   1 <1>  -0.2000 
 22 C        0.2240     6.3680    -0.6890 C.ar  1 <1>   0.1670 
 23 N       -0.8350     6.3780     1.4600 N.ar  1 <1>  -0.6200 
 24 C       -3.2290    -5.5570    -0.3090 C.ar  1 <1>  -0.1500 
 25 C       -5.2160    -5.1770     0.9710 C.ar  1 <1>  -0.1500 
 26 C       -0.2400     7.0070     0.4950 C.ar  1 <1>   0.1670 
 27 C        0.9130     7.1690    -1.7800 C.3   1 <1>  -0.0970 
 28 C       -4.3080    -6.0510     0.4020 C.ar  1 <1>  -0.1500 
 29 C       -0.0540     8.5030     0.6880 C.3   1 <1>  -0.0970 
 30 H       -1.8980    -1.7300     1.0650 H     1 <1>   0.0800 
 31 H       -3.3150    -1.5360     2.0480 H     1 <1>   0.0800 
 32 H       -4.6140     0.8340     1.7980 H     1 <1>   0.0800 
 33 H       -3.9400     1.9450     0.6390 H     1 <1>   0.0800 
 34 H       -0.3440     2.5660    -0.9580 H     1 <1>   0.1500 
 35 H       -2.2650     2.3300     2.8310 H     1 <1>   0.1500 
 36 H       -3.2530    -1.6150    -0.9790 H     1 <1>   0.0800 
 37 H       -4.4040     0.4100    -1.2010 H     1 <1>   0.0800 
 38 H       -1.9460     4.7640     3.1270 H     1 <1>   0.1500 
 39 H       -6.8320     0.6540     0.6300 H     1 <1>   0.1000 
 40 H       -2.2130    -3.8210    -1.0040 H     1 <1>   0.1500 
 41 H       -5.7580    -3.1390     1.2740 H     1 <1>   0.1500 
 42 H       -6.6990     0.2460    -2.4230 H     1 <1>   0.1000 
 43 H       -8.1850     0.4620    -1.4520 H     1 <1>   0.1000 
 44 H       -7.3500     2.7320    -0.6720 H     1 <1>   0.1000 
 45 H       -5.8720     2.5190    -1.6590 H     1 <1>   0.1000 
 46 H       -2.5220    -6.2360    -0.7530 H     1 <1>   0.1500 
 47 H       -6.0580    -5.5570     1.5220 H     1 <1>   0.1500 
 48 H        1.8000     7.6360    -1.3930 H     1 <1>   0.0800 
 49 H        0.2490     7.9210    -2.1640 H     1 <1>   0.0800 
 50 H        1.2000     6.5250    -2.5930 H     1 <1>   0.0800 
 51 H       -4.4420    -7.1130     0.5100 H     1 <1>   0.1500 
 52 H       -0.5580     9.0430    -0.0920 H     1 <1>   0.0800 
 53 H        0.9920     8.7500     0.6790 H     1 <1>   0.0800 
 54 H       -0.4650     8.8120     1.6320 H     1 <1>   0.0800 
@<TRIPOS>BOND
  1   1   2  2   
  2   2   3  am  
  3   2   4  1   
  4   3   5  1   
  5   3   6  1   
  6   4   7  ar  
  7   4   8  ar  
  8   5   9  1   
  9   5  30  1   
 10   5  31  1   
 11   6  10  1   
 12   6  32  1   
 13   6  33  1   
 14   7  11  ar  
 15   7  34  1   
 16   8  12  ar  
 17   8  35  1   
 18   9  13  1   
 19   9  14  1   
 20   9  36  1   
 21  10  13  1   
 22  10  15  1   
 23  10  37  1   
 24  11  16  ar  
 25  11  17  ar  
 26  12  17  ar  
 27  12  38  1   
 28  14  18  ar  
 29  14  19  ar  
 30  15  20  1   
 31  15  21  1   
 32  15  39  1   
 33  16  22  ar  
 34  17  23  ar  
 35  18  24  ar  
 36  18  40  1   
 37  19  25  ar  
 38  19  41  1   
 39  20  21  1   
 40  20  42  1   
 41  20  43  1   
 42  21  44  1   
 43  21  45  1   
 44  22  26  ar  
 45  22  27  1   
 46  23  26  ar  
 47  24  28  ar  
 48  24  46  1   
 49  25  28  ar  
 50  25  47  1   
 51  26  29  1   
 52  27  48  1   
 53  27  49  1   
 54  27  50  1   
 55  28  51  1   
 56  29  52  1   
 57  29  53  1   
 58  29  54  1   
@<TRIPOS>SUBSTRUCTURE
  1 ****   2 GROUP 4 **** **** 0

# MOE 2024.06 (io_trps.svl 2023.06)
