@<TRIPOS>MOLECULE
NONAME
45 47 1 0 0 
SMALL
USER_CHARGES


@<TRIPOS>ATOM
  1 O       -0.3040     0.1370     0.3940 O.2   1 <1>  -0.5700 
  2 C       -1.3050     0.7110     0.0350 C.2   1 <1>   0.5690 
  3 N       -2.4230     0.0220    -0.3450 N.am  1 <1>  -0.6600 
  4 C       -1.3240     2.2320     0.0090 C.3   1 <1>  -0.0990 
  5 C       -3.7250     0.6070    -0.7490 C.3   1 <1>   0.1400 
  6 C       -2.4930    -1.4580    -0.3340 C.3   1 <1>   0.1400 
  7 C        0.0300     2.8760     0.3450 C.3   1 <1>  -0.0160 
  8 C       -4.6380    -0.5940    -1.0060 C.3   1 <1>   0.2000 
  9 C       -3.9880    -1.7790    -0.2920 C.3   1 <1>  -0.0800 
 10 C       -0.0770     4.3920     0.2880 C.ar  1 <1>  -0.1440 
 11 O       -5.9120    -0.3830    -0.5020 O.3   1 <1>  -0.6800 
 12 C       -4.3650    -3.1290    -0.9270 C.3   1 <1>  -0.0170 
 13 C        0.1400     5.0610    -0.9080 C.ar  1 <1>  -0.1500 
 14 C       -0.3960     5.1150     1.4280 C.ar  1 <1>  -0.1500 
 15 C       -3.7380    -4.2990    -0.1860 C.ar  1 <1>   0.1670 
 16 C        0.0390     6.4410    -0.9640 C.ar  1 <1>  -0.1500 
 17 C       -0.4980     6.4950     1.3780 C.ar  1 <1>  -0.1500 
 18 N       -2.4860    -4.5920    -0.4970 N.ar  1 <1>  -0.6200 
 19 C       -4.4770    -4.9980     0.7670 C.ar  1 <1>   0.1600 
 20 C       -0.2790     7.1530     0.1780 C.ar  1 <1>   0.0820 
 21 C       -2.0260    -5.6160     0.2020 C.ar  1 <1>   0.1600 
 22 N       -4.0200    -6.0220     1.4680 N.ar  1 <1>  -0.6200 
 23 O       -0.3720     8.4900     0.1130 O.3   1 <1>  -0.5330 
 24 C       -2.7680    -6.3070     1.1530 C.ar  1 <1>   0.1600 
 25 H       -1.6220     2.5530    -0.9710 H     1 <1>   0.0800 
 26 H       -2.0560     2.5750     0.7150 H     1 <1>   0.0800 
 27 H       -4.1070     1.2190     0.0500 H     1 <1>   0.0800 
 28 H       -3.6100     1.1910    -1.6450 H     1 <1>   0.0800 
 29 H       -2.0420    -1.8370    -1.2360 H     1 <1>   0.0800 
 30 H       -1.9750    -1.8670     0.5180 H     1 <1>   0.0800 
 31 H        0.7760     2.5370    -0.3520 H     1 <1>   0.0800 
 32 H        0.3440     2.5690     1.3280 H     1 <1>   0.0800 
 33 H       -4.7170    -0.7690    -2.0650 H     1 <1>   0.0800 
 34 H       -4.2800    -1.7780     0.7440 H     1 <1>   0.0800 
 35 H       -5.8770    -0.2310     0.4620 H     1 <1>   0.4000 
 36 H       -4.0440    -3.1550    -1.9540 H     1 <1>   0.0800 
 37 H       -5.4350    -3.2340    -0.9220 H     1 <1>   0.0800 
 38 H        0.3890     4.5130    -1.7990 H     1 <1>   0.1500 
 39 H       -0.5650     4.6040     2.3600 H     1 <1>   0.1500 
 40 H        0.2070     6.9670    -1.8860 H     1 <1>   0.1500 
 41 H       -0.7440     7.0450     2.2660 H     1 <1>   0.1500 
 42 H       -5.4910    -4.6950     0.9600 H     1 <1>   0.1500 
 43 H       -1.0130    -5.9240     0.0150 H     1 <1>   0.1500 
 44 H       -0.5850     8.8990     0.9690 H     1 <1>   0.4500 
 45 H       -2.3060    -7.1280     1.6710 H     1 <1>   0.1500 
@<TRIPOS>BOND
  1   1   2  2   
  2   2   3  am  
  3   2   4  1   
  4   3   5  1   
  5   3   6  1   
  6   4   7  1   
  7   4  25  1   
  8   4  26  1   
  9   5   8  1   
 10   5  27  1   
 11   5  28  1   
 12   6   9  1   
 13   6  29  1   
 14   6  30  1   
 15   7  10  1   
 16   7  31  1   
 17   7  32  1   
 18   8   9  1   
 19   8  11  1   
 20   8  33  1   
 21   9  12  1   
 22   9  34  1   
 23  10  13  ar  
 24  10  14  ar  
 25  11  35  1   
 26  12  15  1   
 27  12  36  1   
 28  12  37  1   
 29  13  16  ar  
 30  13  38  1   
 31  14  17  ar  
 32  14  39  1   
 33  15  18  ar  
 34  15  19  ar  
 35  16  20  ar  
 36  16  40  1   
 37  17  20  ar  
 38  17  41  1   
 39  18  21  ar  
 40  19  22  ar  
 41  19  42  1   
 42  20  23  1   
 43  21  24  ar  
 44  21  43  1   
 45  22  24  ar  
 46  23  44  1   
 47  24  45  1   
@<TRIPOS>SUBSTRUCTURE
  1 ****   3 GROUP 4 **** **** 0

# MOE 2024.06 (io_trps.svl 2023.06)
