@<TRIPOS>MOLECULE
NONAME
47 49 1 0 0 
SMALL
USER_CHARGES


@<TRIPOS>ATOM
  1 S        0.1530    -0.7560    -1.4140 S.3   1 <1>  -0.0800 
  2 C       -1.3190    -0.2570    -0.6260 C.2   1 <1>  -0.1400 
  3 C        0.8100    -1.1780     0.1520 C.2   1 <1>   0.2280 
  4 C       -1.1880    -0.4560     0.6960 C.2   1 <1>   0.0460 
  5 C       -2.4500     0.2880    -1.4780 C.3   1 <1>   0.2900 
  6 N        0.0230    -0.9690     1.1300 N.2   1 <1>  -0.5650 
  7 C       -2.2260    -0.1680     1.7590 C.3   1 <1>  -0.0590 
  8 N       -2.5390     1.7480    -1.3070 N.3   1 <1>  -0.8100 
  9 C       -3.8310     2.2880    -1.7640 C.3   1 <1>   0.2530 
 10 C       -1.4030     2.4660    -1.9550 C.3   1 <1>   0.1710 
 11 C       -4.9540     1.8140    -0.8530 C.ar  1 <1>  -0.1430 
 12 C       -1.2330     3.9250    -1.5030 C.2   1 <1>   0.5690 
 13 C       -4.9850     2.2260     0.4700 C.ar  1 <1>  -0.1500 
 14 C       -5.9500     0.9720    -1.3270 C.ar  1 <1>  -0.1500 
 15 O       -1.4080     4.7860    -2.3360 O.2   1 <1>  -0.5700 
 16 N       -0.8960     4.2330    -0.2070 N.am  1 <1>  -0.6600 
 17 C       -5.9960     1.8010     1.3140 C.ar  1 <1>  -0.1500 
 18 C       -6.9620     0.5450    -0.4840 C.ar  1 <1>  -0.1500 
 19 C       -0.7300     3.2280     0.8880 C.3   1 <1>   0.1400 
 20 C       -0.7480     5.6430     0.2560 C.3   1 <1>   0.1400 
 21 C       -6.9850     0.9590     0.8370 C.ar  1 <1>  -0.1500 
 22 C        0.5170     3.5350     1.7330 C.3   1 <1>   0.1200 
 23 C        0.5090     5.8010     1.1270 C.3   1 <1>   0.1200 
 24 O        0.5120     4.8660     2.1690 O.3   1 <1>  -0.5600 
 25 H        1.8100    -1.5730     0.1730 H     1 <1>   0.1500 
 26 H       -3.3610    -0.1760    -1.1420 H     1 <1>   0.0800 
 27 H       -2.3060     0.0340    -2.5140 H     1 <1>   0.0800 
 28 H       -3.1180     0.2360     1.3190 H     1 <1>   0.0800 
 29 H       -1.8340     0.5400     2.4660 H     1 <1>   0.0800 
 30 H       -2.4730    -1.0760     2.2770 H     1 <1>   0.0800 
 31 H       -4.0170     1.9930    -2.7830 H     1 <1>   0.0800 
 32 H       -3.8100     3.3650    -1.7300 H     1 <1>   0.0800 
 33 H       -1.5300     2.4510    -3.0230 H     1 <1>   0.0800 
 34 H       -0.4790     1.9680    -1.7360 H     1 <1>   0.0800 
 35 H       -4.2130     2.8790     0.8400 H     1 <1>   0.1500 
 36 H       -5.9440     0.6450    -2.3510 H     1 <1>   0.1500 
 37 H       -6.0130     2.1260     2.3390 H     1 <1>   0.1500 
 38 H       -7.7320    -0.1080    -0.8550 H     1 <1>   0.1500 
 39 H       -0.6370     2.2350     0.4930 H     1 <1>   0.0800 
 40 H       -1.6010     3.2500     1.5200 H     1 <1>   0.0800 
 41 H       -1.6150     5.9180     0.8300 H     1 <1>   0.0800 
 42 H       -0.6820     6.3100    -0.5860 H     1 <1>   0.0800 
 43 H       -7.7720     0.6280     1.4910 H     1 <1>   0.1500 
 44 H        1.4110     3.3620     1.1610 H     1 <1>   0.0800 
 45 H        0.5380     2.9020     2.6030 H     1 <1>   0.0800 
 46 H        0.5340     6.7820     1.5660 H     1 <1>   0.0800 
 47 H        1.3970     5.6640     0.5350 H     1 <1>   0.0800 
@<TRIPOS>BOND
  1   1   2  1   
  2   1   3  1   
  3   2   4  2   
  4   2   5  1   
  5   3   6  2   
  6   3  25  1   
  7   4   6  1   
  8   4   7  1   
  9   5   8  1   
 10   5  26  1   
 11   5  27  1   
 12   7  28  1   
 13   7  29  1   
 14   7  30  1   
 15   8   9  1   
 16   8  10  1   
 17   9  11  1   
 18   9  31  1   
 19   9  32  1   
 20  10  12  1   
 21  10  33  1   
 22  10  34  1   
 23  11  13  ar  
 24  11  14  ar  
 25  12  15  2   
 26  12  16  am  
 27  13  17  ar  
 28  13  35  1   
 29  14  18  ar  
 30  14  36  1   
 31  16  19  1   
 32  16  20  1   
 33  17  21  ar  
 34  17  37  1   
 35  18  21  ar  
 36  18  38  1   
 37  19  22  1   
 38  19  39  1   
 39  19  40  1   
 40  20  23  1   
 41  20  41  1   
 42  20  42  1   
 43  21  43  1   
 44  22  24  1   
 45  22  44  1   
 46  22  45  1   
 47  23  24  1   
 48  23  46  1   
 49  23  47  1   
@<TRIPOS>SUBSTRUCTURE
  1 ****   8 GROUP 4 **** **** 0

# MOE 2024.06 (io_trps.svl 2023.06)
