@<TRIPOS>MOLECULE
NONAME
41 43 1 0 0 
SMALL
USER_CHARGES


@<TRIPOS>ATOM
  1 O       -0.1650     1.0500     1.0230 O.2   1 <1>  -0.5700 
  2 C       -0.1960     2.2260     0.7650 C.2   1 <1>   0.5690 
  3 N       -1.1460     3.0260     1.2920 N.am  1 <1>  -0.7300 
  4 C        0.8210     2.8320    -0.2000 C.3   1 <1>   0.1810 
  5 C       -1.3190     4.4560     0.9310 C.3   1 <1>   0.3640 
  6 O        0.9650     4.2210    -0.0140 O.3   1 <1>  -0.5600 
  7 C       -2.7340     4.6280     0.3790 C.ar  1 <1>  -0.1440 
  8 C       -0.2510     4.9660    -0.0800 C.3   1 <1>   0.2610 
  9 C       -3.5180     5.6910     0.8050 C.ar  1 <1>  -0.1500 
 10 C       -3.2610     3.7400    -0.5520 C.ar  1 <1>  -0.1500 
 11 C        0.0330     6.4540     0.1680 C.2   1 <1>   0.5690 
 12 C       -4.8010     5.8630     0.3160 C.ar  1 <1>  -0.1500 
 13 C       -4.5440     3.9090    -1.0420 C.ar  1 <1>  -0.1500 
 14 O       -0.8790     7.2450     0.2040 O.2   1 <1>  -0.5700 
 15 N        1.3200     6.8550     0.3520 N.am  1 <1>  -0.7300 
 16 C       -5.3160     4.9710    -0.6080 C.ar  1 <1>  -0.1500 
 17 C        1.7870     8.2440     0.5560 C.3   1 <1>   0.1400 
 18 C        2.8800     8.5810    -0.4610 C.3   1 <1>   0.0000 
 19 C        4.2160     7.8100    -0.2820 C.3   1 <1>   0.0000 
 20 C        3.6740     9.8770    -0.1470 C.3   1 <1>   0.0000 
 21 C        4.9360     9.1310    -0.6550 C.3   1 <1>   0.0000 
 22 H       -1.8660     2.6080     1.8830 H     1 <1>   0.3700 
 23 H        0.5140     2.6510    -1.2140 H     1 <1>   0.0800 
 24 H        1.7810     2.3770    -0.0380 H     1 <1>   0.0800 
 25 H       -1.2290     5.0320     1.8370 H     1 <1>   0.0800 
 26 H       -0.6340     4.8690    -1.0790 H     1 <1>   0.0800 
 27 H       -3.1320     6.4030     1.5160 H     1 <1>   0.1500 
 28 H       -2.6780     2.9050    -0.9020 H     1 <1>   0.1500 
 29 H       -5.3970     6.6930     0.6520 H     1 <1>   0.1500 
 30 H       -4.9420     3.2150    -1.7610 H     1 <1>   0.1500 
 31 H        2.0400     6.1250     0.3120 H     1 <1>   0.3700 
 32 H       -6.3140     5.1050    -0.9880 H     1 <1>   0.1500 
 33 H        0.9640     8.9300     0.4390 H     1 <1>   0.0800 
 34 H        2.1670     8.3420     1.5580 H     1 <1>   0.0800 
 35 H        2.5310     8.5690    -1.4800 H     1 <1>   0.0000 
 36 H        4.4020     7.5120     0.7360 H     1 <1>   0.0000 
 37 H        4.3600     7.0180    -0.9960 H     1 <1>   0.0000 
 38 H        3.3920    10.7180    -0.7550 H     1 <1>   0.0000 
 39 H        3.7250    10.1020     0.9050 H     1 <1>   0.0000 
 40 H        5.0830     9.2390    -1.7160 H     1 <1>   0.0000 
 41 H        5.8200     9.3250    -0.0740 H     1 <1>   0.0000 
@<TRIPOS>BOND
  1   1   2  2   
  2   2   3  am  
  3   2   4  1   
  4   3   5  1   
  5   3  22  1   
  6   4   6  1   
  7   4  23  1   
  8   4  24  1   
  9   5   7  1   
 10   5   8  1   
 11   5  25  1   
 12   6   8  1   
 13   7   9  ar  
 14   7  10  ar  
 15   8  11  1   
 16   8  26  1   
 17   9  12  ar  
 18   9  27  1   
 19  10  13  ar  
 20  10  28  1   
 21  11  14  2   
 22  11  15  am  
 23  12  16  ar  
 24  12  29  1   
 25  13  16  ar  
 26  13  30  1   
 27  15  17  1   
 28  15  31  1   
 29  16  32  1   
 30  17  18  1   
 31  17  33  1   
 32  17  34  1   
 33  18  19  1   
 34  18  20  1   
 35  18  35  1   
 36  19  21  1   
 37  19  36  1   
 38  19  37  1   
 39  20  21  1   
 40  20  38  1   
 41  20  39  1   
 42  21  40  1   
 43  21  41  1   
@<TRIPOS>SUBSTRUCTURE
  1 ****   8 GROUP 4 **** **** 0

# MOE 2024.06 (io_trps.svl 2023.06)
