@<TRIPOS>MOLECULE
NONAME
51 52 1 0 0 
SMALL
USER_CHARGES


@<TRIPOS>ATOM
  1 S        0.1370    -0.6670     0.0530 S.3   1 <1>  -0.0800 
  2 C       -1.5280    -1.1030     0.2700 C.2   1 <1>   0.4420 
  3 C       -0.3750     0.9840     0.0290 C.2   1 <1>   0.1980 
  4 N       -2.2920    -0.0710     0.3070 N.2   1 <1>  -0.3380 
  5 N       -1.8090    -2.4460     0.3720 N.am  1 <1>  -0.4940 
  6 N       -1.6290     1.1140     0.1690 N.2   1 <1>  -0.3380 
  7 C        0.6630     2.0700    -0.1480 C.3   1 <1>   0.0200 
  8 C       -3.0080    -3.0830     0.5230 C.2   1 <1>   0.7150 
  9 C       -0.0390     3.4320    -0.1070 C.3   1 <1>   0.3430 
 10 O       -4.0400    -2.4470     0.5510 O.2   1 <1>  -0.5700 
 11 C       -2.9980    -4.5130     0.6390 C.2   1 <1>  -0.2370 
 12 N        0.9120     4.5900    -0.2110 N.4   1 <1>  -0.9590 
 13 N       -4.0980    -5.3180     0.5730 N.pl3 1 <1>   0.3140 
 14 C       -1.9450    -5.3600     0.8300 C.2   1 <1>  -0.1500 
 15 C        0.1890     5.8600     0.1120 C.3   1 <1>   0.2630 
 16 C        1.5450     4.6940    -1.5650 C.3   1 <1>   0.2630 
 17 N       -3.7690    -6.6160     0.7120 N.2   1 <1>  -0.7070 
 18 C       -5.5120    -4.8820     0.3700 C.3   1 <1>   0.0960 
 19 C       -2.4820    -6.6310     0.8630 C.2   1 <1>   0.1080 
 20 C       -6.5080    -6.0410     0.1930 C.3   1 <1>  -0.2400 
 21 C       -1.6940    -7.9150     1.0550 C.3   1 <1>   0.0210 
 22 C       -0.7700    -8.2310    -0.1370 C.3   1 <1>  -0.0800 
 23 C       -1.5700    -8.4530    -1.4290 C.3   1 <1>  -0.2400 
 24 C        0.0810    -9.4720     0.1600 C.3   1 <1>  -0.2400 
 25 H       -1.0160    -3.0740     0.3140 H     1 <1>   0.3700 
 26 H        1.1530     1.9210    -1.0920 H     1 <1>   0.0800 
 27 H        1.3790     1.9960     0.6490 H     1 <1>   0.0800 
 28 H       -0.5830     3.4990     0.8220 H     1 <1>   0.0800 
 29 H       -0.7630     3.4800    -0.9050 H     1 <1>   0.0800 
 30 H        1.6560     4.4680     0.4950 H     1 <1>   0.4500 
 31 H       -0.9000    -5.1380     0.9430 H     1 <1>   0.1500 
 32 H       -0.6060     6.0300    -0.5970 H     1 <1>   0.0800 
 33 H        0.8660     6.6980     0.0770 H     1 <1>   0.0800 
 34 H       -0.2390     5.8070     1.1000 H     1 <1>   0.0800 
 35 H        0.7890     4.8080    -2.3250 H     1 <1>   0.0800 
 36 H        2.1230     3.8110    -1.7830 H     1 <1>   0.0800 
 37 H        2.2030     5.5480    -1.6050 H     1 <1>   0.0800 
 38 H       -5.5450    -4.2560    -0.5020 H     1 <1>   0.0800 
 39 H       -5.8000    -4.2900     1.2200 H     1 <1>   0.0800 
 40 H       -6.2350    -6.6380    -0.6590 H     1 <1>   0.0800 
 41 H       -7.4980    -5.6510     0.0390 H     1 <1>   0.0800 
 42 H       -6.5160    -6.6610     1.0720 H     1 <1>   0.0800 
 43 H       -2.3850    -8.7260     1.2030 H     1 <1>   0.0800 
 44 H       -1.1090    -7.8190     1.9520 H     1 <1>   0.0800 
 45 H       -0.1070    -7.3960    -0.2880 H     1 <1>   0.0800 
 46 H       -2.2590    -9.2710    -1.3110 H     1 <1>   0.0800 
 47 H       -0.9100    -8.6740    -2.2480 H     1 <1>   0.0800 
 48 H       -2.1350    -7.5720    -1.6800 H     1 <1>   0.0800 
 49 H       -0.5450   -10.3330     0.3130 H     1 <1>   0.0800 
 50 H        0.6760    -9.3180     1.0440 H     1 <1>   0.0800 
 51 H        0.7460    -9.6740    -0.6610 H     1 <1>   0.0800 
@<TRIPOS>BOND
  1   1   2  1   
  2   1   3  1   
  3   2   4  2   
  4   2   5  1   
  5   3   6  2   
  6   3   7  1   
  7   4   6  1   
  8   5   8  am  
  9   5  25  1   
 10   7   9  1   
 11   7  26  1   
 12   7  27  1   
 13   8  10  2   
 14   8  11  1   
 15   9  12  1   
 16   9  28  1   
 17   9  29  1   
 18  11  13  1   
 19  11  14  2   
 20  12  15  1   
 21  12  16  1   
 22  12  30  1   
 23  13  17  1   
 24  13  18  1   
 25  14  19  1   
 26  14  31  1   
 27  15  32  1   
 28  15  33  1   
 29  15  34  1   
 30  16  35  1   
 31  16  36  1   
 32  16  37  1   
 33  17  19  2   
 34  18  20  1   
 35  18  38  1   
 36  18  39  1   
 37  19  21  1   
 38  20  40  1   
 39  20  41  1   
 40  20  42  1   
 41  21  22  1   
 42  21  43  1   
 43  21  44  1   
 44  22  23  1   
 45  22  24  1   
 46  22  45  1   
 47  23  46  1   
 48  23  47  1   
 49  23  48  1   
 50  24  49  1   
 51  24  50  1   
 52  24  51  1   
@<TRIPOS>SUBSTRUCTURE
  1 ****   5 GROUP 4 **** **** 0

# MOE 2024.06 (io_trps.svl 2023.06)
