@<TRIPOS>MOLECULE
NONAME
54 57 1 0 0 
SMALL
USER_CHARGES


@<TRIPOS>ATOM
  1 O       -0.4510     0.3000     1.8400 O.2   1 <1>  -0.5700 
  2 C       -1.3900     0.9600     1.4440 C.2   1 <1>   0.6160 
  3 N       -2.6060     0.3450     1.2400 N.am  1 <1>  -0.6600 
  4 C       -1.2060     2.3660     1.2120 C.2   1 <1>   0.0290 
  5 C       -2.7870    -1.1360     1.3680 C.3   1 <1>   0.1400 
  6 C       -3.8710     1.0470     0.8590 C.3   1 <1>   0.1400 
  7 C       -1.2240     2.9800    -0.0170 C.2   1 <1>  -0.1690 
  8 C       -0.9970     3.1650     2.3770 C.2   1 <1>   0.3760 
  9 C       -3.5150    -1.7140     0.1400 C.3   1 <1>   0.3440 
 10 C       -4.5160     0.3720    -0.3730 C.3   1 <1>   0.2000 
 11 N       -1.0880     4.3550    -0.0430 N.pl3 1 <1>   0.6010 
 12 C       -1.3740     2.2600    -1.3560 C.3   1 <1>  -0.1020 
 13 N       -0.8710     4.4500     2.3680 N.2   1 <1>  -0.5760 
 14 O       -4.6960    -0.9960    -0.1070 O.3   1 <1>  -0.5600 
 15 C       -3.8510    -3.1860     0.3580 C.ar  1 <1>  -0.1440 
 16 C       -5.8740     0.9940    -0.8210 C.3   1 <1>   0.0000 
 17 N       -1.1310     5.1910    -1.1060 N.2   1 <1>  -0.7070 
 18 C       -0.9290     5.0540     1.1330 C.2   1 <1>  -0.0260 
 19 C       -5.0300    -3.5750     0.9790 C.ar  1 <1>  -0.1500 
 20 C       -2.9560    -4.1630    -0.0580 C.ar  1 <1>  -0.1500 
 21 C       -5.7060     2.4840    -1.1720 C.3   1 <1>  -0.2400 
 22 C       -6.3760     0.2730    -2.0850 C.3   1 <1>  -0.2400 
 23 C       -6.9570     0.8690     0.2670 C.3   1 <1>  -0.2400 
 24 C       -0.9850     6.3800    -0.5930 C.2   1 <1>   0.1390 
 25 C       -0.8550     6.3620     0.7860 C.2   1 <1>  -0.1500 
 26 C       -5.3110    -4.9150     1.1820 C.ar  1 <1>  -0.1500 
 27 C       -3.2350    -5.5040     0.1440 C.ar  1 <1>  -0.1500 
 28 C       -4.4120    -5.8810     0.7640 C.ar  1 <1>  -0.1500 
 29 H       -1.8370    -1.6300     1.4720 H     1 <1>   0.0800 
 30 H       -3.3640    -1.3490     2.2500 H     1 <1>   0.0800 
 31 H       -4.5530     1.0010     1.6890 H     1 <1>   0.0800 
 32 H       -3.6820     2.0820     0.6470 H     1 <1>   0.0800 
 33 H       -0.9510     2.6500     3.3210 H     1 <1>   0.0600 
 34 H       -2.8870    -1.6210    -0.7290 H     1 <1>   0.0800 
 35 H       -3.8330     0.4500    -1.2010 H     1 <1>   0.0800 
 36 H       -0.5410     2.5030    -1.9940 H     1 <1>   0.0800 
 37 H       -2.2760     2.5780    -1.8470 H     1 <1>   0.0800 
 38 H       -1.4010     1.1920    -1.2380 H     1 <1>   0.0800 
 39 H       -5.7380    -2.8320     1.3040 H     1 <1>   0.1500 
 40 H       -2.0360    -3.8870    -0.5420 H     1 <1>   0.1500 
 41 H       -6.6230     2.8800    -1.5730 H     1 <1>   0.0800 
 42 H       -4.9350     2.6160    -1.9120 H     1 <1>   0.0800 
 43 H       -5.4540     3.0680    -0.3060 H     1 <1>   0.0800 
 44 H       -7.2970     0.7050    -2.4330 H     1 <1>   0.0800 
 45 H       -6.5540    -0.7690    -1.8820 H     1 <1>   0.0800 
 46 H       -5.6490     0.3410    -2.8750 H     1 <1>   0.0800 
 47 H       -7.8980     1.2450    -0.0940 H     1 <1>   0.0800 
 48 H       -6.6950     1.4250     1.1480 H     1 <1>   0.0800 
 49 H       -7.0940    -0.1620     0.5430 H     1 <1>   0.0800 
 50 H       -0.9700     7.2770    -1.1910 H     1 <1>   0.1500 
 51 H       -0.7250     7.2050     1.4400 H     1 <1>   0.1500 
 52 H       -6.2280    -5.2040     1.6620 H     1 <1>   0.1500 
 53 H       -2.5360    -6.2540    -0.1820 H     1 <1>   0.1500 
 54 H       -4.6300    -6.9230     0.9210 H     1 <1>   0.1500 
@<TRIPOS>BOND
  1   1   2  2   
  2   2   3  am  
  3   2   4  1   
  4   3   5  1   
  5   3   6  1   
  6   4   7  2   
  7   4   8  1   
  8   5   9  1   
  9   5  29  1   
 10   5  30  1   
 11   6  10  1   
 12   6  31  1   
 13   6  32  1   
 14   7  11  1   
 15   7  12  1   
 16   8  13  2   
 17   8  33  1   
 18   9  14  1   
 19   9  15  1   
 20   9  34  1   
 21  10  14  1   
 22  10  16  1   
 23  10  35  1   
 24  11  17  1   
 25  11  18  1   
 26  12  36  1   
 27  12  37  1   
 28  12  38  1   
 29  13  18  1   
 30  15  19  ar  
 31  15  20  ar  
 32  16  21  1   
 33  16  22  1   
 34  16  23  1   
 35  17  24  2   
 36  18  25  2   
 37  19  26  ar  
 38  19  39  1   
 39  20  27  ar  
 40  20  40  1   
 41  21  41  1   
 42  21  42  1   
 43  21  43  1   
 44  22  44  1   
 45  22  45  1   
 46  22  46  1   
 47  23  47  1   
 48  23  48  1   
 49  23  49  1   
 50  24  25  1   
 51  24  50  1   
 52  25  51  1   
 53  26  28  ar  
 54  26  52  1   
 55  27  28  ar  
 56  27  53  1   
 57  28  54  1   
@<TRIPOS>SUBSTRUCTURE
  1 ****   3 GROUP 4 **** **** 0

# MOE 2024.06 (io_trps.svl 2023.06)
