@<TRIPOS>MOLECULE
NONAME
53 57 1 0 0 
SMALL
USER_CHARGES


@<TRIPOS>ATOM
  1 S        1.7880     0.4520    -2.4660 S.3   1 <1>   0.1810 
  2 N        2.9720     1.3980    -1.6370 N.2   1 <1>  -0.5100 
  3 C        1.6900    -0.7850    -1.2260 C.ar  1 <1>   0.0400 
  4 C        3.2410     0.8090    -0.5310 C.2   1 <1>   0.3720 
  5 C        2.5540    -0.4230    -0.2200 C.ar  1 <1>   0.0000 
  6 C        0.9100    -1.9260    -1.2020 C.ar  1 <1>  -0.1500 
  7 N        4.1980     1.3180     0.3390 N.pl3 1 <1>  -0.8210 
  8 C        2.6320    -1.2550     0.8950 C.ar  1 <1>  -0.1500 
  9 C        1.0090    -2.7460    -0.0910 C.ar  1 <1>  -0.1500 
 10 C        4.2790     2.8070     0.4840 C.3   1 <1>   0.2090 
 11 C        5.5300     0.6560     0.2860 C.3   1 <1>   0.2090 
 12 C        1.8660    -2.4070     0.9530 C.ar  1 <1>  -0.1500 
 13 C        5.2230     3.4460    -0.5550 C.3   1 <1>   0.2090 
 14 C        6.4410     1.2970    -0.7840 C.3   1 <1>   0.2090 
 15 N        6.5840     2.7840    -0.5730 N.pl3 1 <1>  -0.8380 
 16 C        7.7220     3.4880    -0.3430 C.ar  1 <1>   0.7710 
 17 N        7.6400     4.7090     0.1620 N.ar  1 <1>  -0.6200 
 18 N        8.9080     2.9280    -0.6420 N.ar  1 <1>  -0.1790 
 19 C        8.7510     5.3880     0.3780 C.ar  1 <1>   0.4100 
 20 C       10.0760     3.5770    -0.4200 C.ar  1 <1>   0.2110 
 21 N        8.6390     6.6480     0.8730 N.pl3 1 <1>  -0.8380 
 22 C       10.0110     4.8230     0.1030 C.ar  1 <1>  -0.1500 
 23 C        9.5730     7.7730     0.5300 C.3   1 <1>   0.2090 
 24 C        7.4510     7.0980     1.6650 C.3   1 <1>   0.2090 
 25 C        8.8250     8.8860    -0.2260 C.3   1 <1>   0.2000 
 26 C        6.6810     8.1660     0.8820 C.3   1 <1>  -0.1600 
 27 O        9.6650     9.9710    -0.4030 O.3   1 <1>  -0.6800 
 28 C        7.5750     9.3640     0.5210 C.3   1 <1>  -0.1600 
 29 H        0.2530    -2.1620    -2.0190 H     1 <1>   0.1500 
 30 H        3.2860    -0.9880     1.7060 H     1 <1>   0.1500 
 31 H        0.4200    -3.6450    -0.0290 H     1 <1>   0.1500 
 32 H        4.6280     3.0460     1.4740 H     1 <1>   0.0800 
 33 H        3.2950     3.2310     0.3760 H     1 <1>   0.0800 
 34 H        5.4020    -0.3900     0.0620 H     1 <1>   0.0800 
 35 H        5.9970     0.7290     1.2520 H     1 <1>   0.0800 
 36 H        1.9280    -3.0490     1.8150 H     1 <1>   0.1500 
 37 H        5.2900     4.5000    -0.3520 H     1 <1>   0.0800 
 38 H        4.7740     3.3470    -1.5280 H     1 <1>   0.0800 
 39 H        6.0020     1.1180    -1.7520 H     1 <1>   0.0800 
 40 H        7.3930     0.8010    -0.7550 H     1 <1>   0.0800 
 41 H        8.8620     2.0140    -1.0750 H     1 <1>   0.4570 
 42 H       11.0070     3.0890    -0.6600 H     1 <1>   0.1500 
 43 H       10.8990     5.3840     0.3230 H     1 <1>   0.1500 
 44 H       10.3760     7.4290    -0.0960 H     1 <1>   0.0800 
 45 H        9.9880     8.1680     1.4400 H     1 <1>   0.0800 
 46 H        7.7890     7.5070     2.6020 H     1 <1>   0.0800 
 47 H        6.8000     6.2700     1.8900 H     1 <1>   0.0800 
 48 H        8.5570     8.5240    -1.2040 H     1 <1>   0.0800 
 49 H        5.8470     8.5040     1.4710 H     1 <1>   0.0800 
 50 H        6.2880     7.7190    -0.0150 H     1 <1>   0.0800 
 51 H        9.7330    10.4900     0.4210 H     1 <1>   0.4000 
 52 H        7.0250    10.0490    -0.1000 H     1 <1>   0.0800 
 53 H        7.8610     9.8670     1.4270 H     1 <1>   0.0800 
@<TRIPOS>BOND
  1   1   2  1   
  2   1   3  1   
  3   2   4  2   
  4   3   5  ar  
  5   3   6  ar  
  6   4   5  1   
  7   4   7  1   
  8   5   8  ar  
  9   6   9  ar  
 10   6  29  1   
 11   7  10  1   
 12   7  11  1   
 13   8  12  ar  
 14   8  30  1   
 15   9  12  ar  
 16   9  31  1   
 17  10  13  1   
 18  10  32  1   
 19  10  33  1   
 20  11  14  1   
 21  11  34  1   
 22  11  35  1   
 23  12  36  1   
 24  13  15  1   
 25  13  37  1   
 26  13  38  1   
 27  14  15  1   
 28  14  39  1   
 29  14  40  1   
 30  15  16  1   
 31  16  17  ar  
 32  16  18  ar  
 33  17  19  ar  
 34  18  20  ar  
 35  18  41  1   
 36  19  21  1   
 37  19  22  ar  
 38  20  22  ar  
 39  20  42  1   
 40  21  23  1   
 41  21  24  1   
 42  22  43  1   
 43  23  25  1   
 44  23  44  1   
 45  23  45  1   
 46  24  26  1   
 47  24  46  1   
 48  24  47  1   
 49  25  27  1   
 50  25  28  1   
 51  25  48  1   
 52  26  28  1   
 53  26  49  1   
 54  26  50  1   
 55  27  51  1   
 56  28  52  1   
 57  28  53  1   
@<TRIPOS>SUBSTRUCTURE
  1 ****  13 GROUP 4 **** **** 0

# MOE 2024.06 (io_trps.svl 2023.06)
