@<TRIPOS>MOLECULE
NONAME
54 56 1 0 0 
SMALL
USER_CHARGES


@<TRIPOS>ATOM
  1 O        2.2910     0.7500    -1.5280 O.2   1 <1>  -0.5700 
  2 C        2.4640     0.1090    -0.5080 C.2   1 <1>   0.5440 
  3 N        2.3650     0.7520     0.7120 N.am  1 <1>  -0.6600 
  4 C        2.7430    -1.3100    -0.6150 C.ar  1 <1>   0.0860 
  5 C        2.7130     0.0950     2.0170 C.3   1 <1>   0.1400 
  6 C        1.9340     2.1770     0.7810 C.3   1 <1>   0.1400 
  7 C        1.7320    -2.2050    -0.9550 C.ar  1 <1>  -0.1500 
  8 C        4.0160    -1.8310    -0.3870 C.ar  1 <1>  -0.1500 
  9 C        3.6380     0.9350     2.9190 C.3   1 <1>   0.1400 
 10 C        3.1360     3.1190     0.6270 C.3   1 <1>  -0.1600 
 11 C        1.9670    -3.5650    -1.0540 C.ar  1 <1>   0.0830 
 12 C        4.2670    -3.1870    -0.4830 C.ar  1 <1>  -0.1500 
 13 N        4.5930     1.7660     2.1270 N.am  1 <1>  -0.6600 
 14 C        4.0830     3.1320     1.8330 C.3   1 <1>   0.1400 
 15 O        0.9090    -4.3460    -1.3850 O.3   1 <1>  -0.3630 
 16 C        3.2460    -4.0590    -0.8150 C.ar  1 <1>  -0.1500 
 17 C        5.6890     1.1690     1.5500 C.2   1 <1>   0.5690 
 18 C        1.0510    -5.7370    -1.5690 C.3   1 <1>   0.0400 
 19 O        6.0030     0.0380     1.8530 O.2   1 <1>  -0.5700 
 20 C        6.5480     1.8750     0.4880 C.3   1 <1>  -0.0190 
 21 C        6.4560     1.1480    -0.8700 C.3   1 <1>  -0.1600 
 22 C        8.0180     1.9910     0.9410 C.3   1 <1>  -0.1600 
 23 C        7.3220     1.8310    -1.9390 C.3   1 <1>  -0.1600 
 24 C        8.8880     2.6740    -0.1270 C.3   1 <1>  -0.1600 
 25 C        8.7750     1.9470    -1.4700 C.3   1 <1>   0.2000 
 26 O        9.4790     2.6630    -2.4110 O.3   1 <1>  -0.6800 
 27 H        3.2060    -0.8420     1.8420 H     1 <1>   0.0800 
 28 H        1.8060    -0.1260     2.5520 H     1 <1>   0.0800 
 29 H        1.4240     2.3620     1.7100 H     1 <1>   0.0800 
 30 H        1.2340     2.3690    -0.0160 H     1 <1>   0.0800 
 31 H        0.7440    -1.8300    -1.1490 H     1 <1>   0.1500 
 32 H        4.8140    -1.1600    -0.1240 H     1 <1>   0.1500 
 33 H        4.1880     0.2750     3.5690 H     1 <1>   0.0800 
 34 H        3.0390     1.5670     3.5490 H     1 <1>   0.0800 
 35 H        2.7610     4.1160     0.4890 H     1 <1>   0.0800 
 36 H        3.6770     2.8610    -0.2660 H     1 <1>   0.0800 
 37 H        5.2600    -3.5610    -0.2960 H     1 <1>   0.1500 
 38 H        3.5560     3.5050     2.6940 H     1 <1>   0.0800 
 39 H        4.8990     3.8090     1.6590 H     1 <1>   0.0800 
 40 H        3.4640    -5.1080    -0.8820 H     1 <1>   0.1500 
 41 H        0.0920    -6.1360    -1.8480 H     1 <1>   0.0800 
 42 H        1.3760    -6.1800    -0.6450 H     1 <1>   0.0800 
 43 H        1.7630    -5.9140    -2.3550 H     1 <1>   0.0800 
 44 H        6.1870     2.8690     0.3280 H     1 <1>   0.0800 
 45 H        5.4300     1.1260    -1.1980 H     1 <1>   0.0800 
 46 H        6.7840     0.1290    -0.7500 H     1 <1>   0.0800 
 47 H        8.4080     1.0060     1.1370 H     1 <1>   0.0800 
 48 H        8.0680     2.5500     1.8590 H     1 <1>   0.0800 
 49 H        6.9220     2.8090    -2.1400 H     1 <1>   0.0800 
 50 H        7.2850     1.2520    -2.8460 H     1 <1>   0.0800 
 51 H        9.9150     2.6680     0.1940 H     1 <1>   0.0800 
 52 H        8.5680     3.6950    -0.2380 H     1 <1>   0.0800 
 53 H        9.2210     0.9680    -1.3990 H     1 <1>   0.0800 
 54 H        9.0840     3.5470    -2.5180 H     1 <1>   0.4000 
@<TRIPOS>BOND
  1   1   2  2   
  2   2   3  am  
  3   2   4  1   
  4   3   5  1   
  5   3   6  1   
  6   4   7  ar  
  7   4   8  ar  
  8   5   9  1   
  9   5  27  1   
 10   5  28  1   
 11   6  10  1   
 12   6  29  1   
 13   6  30  1   
 14   7  11  ar  
 15   7  31  1   
 16   8  12  ar  
 17   8  32  1   
 18   9  13  1   
 19   9  33  1   
 20   9  34  1   
 21  10  14  1   
 22  10  35  1   
 23  10  36  1   
 24  11  15  1   
 25  11  16  ar  
 26  12  16  ar  
 27  12  37  1   
 28  13  14  1   
 29  13  17  am  
 30  14  38  1   
 31  14  39  1   
 32  15  18  1   
 33  16  40  1   
 34  17  19  2   
 35  17  20  1   
 36  18  41  1   
 37  18  42  1   
 38  18  43  1   
 39  20  21  1   
 40  20  22  1   
 41  20  44  1   
 42  21  23  1   
 43  21  45  1   
 44  21  46  1   
 45  22  24  1   
 46  22  47  1   
 47  22  48  1   
 48  23  25  1   
 49  23  49  1   
 50  23  50  1   
 51  24  25  1   
 52  24  51  1   
 53  24  52  1   
 54  25  26  1   
 55  25  53  1   
 56  26  54  1   
@<TRIPOS>SUBSTRUCTURE
  1 ****   8 GROUP 4 **** **** 0

# MOE 2024.06 (io_trps.svl 2023.06)
