@<TRIPOS>MOLECULE
NONAME
44 45 1 0 0 
SMALL
USER_CHARGES


@<TRIPOS>ATOM
  1 O        1.2010     0.5040    -0.4010 O.co2 1 <1>  -0.9000 
  2 C        0.5650     1.4800     0.0490 C.2   1 <1>   1.0330 
  3 O       -0.3500     1.2560     0.8640 O.co2 1 <1>  -0.9000 
  4 C        0.9230     2.8290    -0.3980 C.2   1 <1>  -0.0060 
  5 N        0.3550     4.0330    -0.0440 N.2   1 <1>  -0.5650 
  6 C        1.9140     3.1100    -1.2700 C.2   1 <1>  -0.0100 
  7 C        1.0280     4.9010    -0.7050 C.2   1 <1>   0.2980 
  8 O        1.9750     4.3970    -1.4590 O.3   1 <1>  -0.2800 
  9 C        0.8060     6.4120    -0.6780 C.3   1 <1>   0.2900 
 10 N        1.9180     7.1900    -0.0620 N.3   1 <1>  -0.8100 
 11 C        1.6650     8.6360    -0.1440 C.3   1 <1>   0.1100 
 12 C        2.1620     6.7520     1.3210 C.3   1 <1>   0.1100 
 13 C        2.8940     9.4470     0.3280 C.3   1 <1>   0.0000 
 14 C        3.3900     7.4740     1.8810 C.3   1 <1>  -0.1600 
 15 C        3.2590     9.0010     1.7680 C.3   1 <1>  -0.1600 
 16 C        4.0650     9.1680    -0.6450 C.3   1 <1>   0.1200 
 17 C        2.4840    10.9390     0.3140 C.3   1 <1>   0.3430 
 18 O        3.8780     9.8680    -1.8320 O.3   1 <1>  -0.6800 
 19 N        3.4970    11.8730     0.9180 N.4   1 <1>  -0.9590 
 20 C        2.8220    13.0280     1.5840 C.3   1 <1>   0.2630 
 21 C        4.4560    12.3710    -0.1190 C.3   1 <1>   0.2630 
 22 H        2.5910     2.4440    -1.7740 H     1 <1>   0.1500 
 23 H       -0.1060     6.6020    -0.1400 H     1 <1>   0.0800 
 24 H        0.6690     6.7350    -1.6940 H     1 <1>   0.0800 
 25 H        0.8050     8.8760     0.4600 H     1 <1>   0.0800 
 26 H        1.4410     8.8950    -1.1660 H     1 <1>   0.0800 
 27 H        2.3470     5.6900     1.3470 H     1 <1>   0.0800 
 28 H        1.2960     6.9540     1.9310 H     1 <1>   0.0800 
 29 H        4.2590     7.1300     1.3480 H     1 <1>   0.0800 
 30 H        3.5170     7.1950     2.9120 H     1 <1>   0.0800 
 31 H        2.4840     9.3180     2.4460 H     1 <1>   0.0800 
 32 H        4.1830     9.4480     2.0880 H     1 <1>   0.0800 
 33 H        4.1280     8.1170    -0.8800 H     1 <1>   0.0800 
 34 H        5.0060     9.4750    -0.2230 H     1 <1>   0.0800 
 35 H        1.5650    11.0230     0.8690 H     1 <1>   0.0800 
 36 H        2.2730    11.2390    -0.7010 H     1 <1>   0.0800 
 37 H        4.3170     9.3950    -2.5730 H     1 <1>   0.4000 
 38 H        4.0220    11.3430     1.6270 H     1 <1>   0.4500 
 39 H        2.2570    13.5980     0.8630 H     1 <1>   0.0800 
 40 H        3.5530    13.6770     2.0380 H     1 <1>   0.0800 
 41 H        2.1500    12.6780     2.3510 H     1 <1>   0.0800 
 42 H        3.9240    12.8760    -0.9090 H     1 <1>   0.0800 
 43 H        5.0050    11.5530    -0.5530 H     1 <1>   0.0800 
 44 H        5.1600    13.0590     0.3190 H     1 <1>   0.0800 
@<TRIPOS>BOND
  1   1   2  ar  
  2   2   3  ar  
  3   2   4  1   
  4   4   5  1   
  5   4   6  2   
  6   5   7  2   
  7   6   8  1   
  8   6  22  1   
  9   7   8  1   
 10   7   9  1   
 11   9  10  1   
 12   9  23  1   
 13   9  24  1   
 14  10  11  1   
 15  10  12  1   
 16  11  13  1   
 17  11  25  1   
 18  11  26  1   
 19  12  14  1   
 20  12  27  1   
 21  12  28  1   
 22  13  15  1   
 23  13  16  1   
 24  13  17  1   
 25  14  15  1   
 26  14  29  1   
 27  14  30  1   
 28  15  31  1   
 29  15  32  1   
 30  16  18  1   
 31  16  33  1   
 32  16  34  1   
 33  17  19  1   
 34  17  35  1   
 35  17  36  1   
 36  18  37  1   
 37  19  20  1   
 38  19  21  1   
 39  19  38  1   
 40  20  39  1   
 41  20  40  1   
 42  20  41  1   
 43  21  42  1   
 44  21  43  1   
 45  21  44  1   
@<TRIPOS>SUBSTRUCTURE
  1 ****  10 GROUP 4 **** **** 0

# MOE 2024.06 (io_trps.svl 2023.06)
