@<TRIPOS>MOLECULE
NONAME
43 46 1 0 0 
SMALL
USER_CHARGES


@<TRIPOS>ATOM
  1 S       -0.1030    -0.1590     0.0180 S.3   1 <1>  -0.0800 
  2 C       -1.5590    -0.6760    -0.8280 C.2   1 <1>  -0.0450 
  3 C       -0.5860     1.5370     0.0490 C.2   1 <1>  -0.0450 
  4 C       -1.7140    -2.0740    -1.1550 C.2   1 <1>   0.7150 
  5 C       -2.3280     0.4220    -1.0520 C.2   1 <1>  -0.1500 
  6 C        0.2600     2.5260     0.6530 C.2   1 <1>   0.5940 
  7 C       -1.7930     1.6410    -0.5640 C.2   1 <1>  -0.1500 
  8 O       -0.7300    -2.7730    -1.3180 O.2   1 <1>  -0.5700 
  9 N       -2.9590    -2.6530    -1.2990 N.am  1 <1>  -0.6600 
 10 O       -0.0450     3.6910     0.7110 O.2   1 <1>  -0.5700 
 11 C        1.5930     2.1310     1.2530 C.3   1 <1>  -0.1790 
 12 C       -4.1600    -2.2270    -0.5300 C.3   1 <1>   0.1400 
 13 C       -3.1470    -3.9090    -2.0780 C.3   1 <1>   0.1400 
 14 C       -4.5710    -3.3500     0.4240 C.3   1 <1>  -0.1600 
 15 C       -3.5520    -5.0400    -1.1320 C.3   1 <1>  -0.1600 
 16 C       -4.7960    -4.6770    -0.3150 C.3   1 <1>   0.4610 
 17 O       -5.8450    -4.5100    -1.2530 O.3   1 <1>  -0.5600 
 18 C       -5.1420    -5.8030     0.6610 C.2   1 <1>  -0.1810 
 19 C       -7.1760    -4.5770    -0.7950 C.3   1 <1>   0.1200 
 20 C       -6.3580    -6.3630     0.6650 C.2   1 <1>  -0.1400 
 21 C       -4.2610    -6.3730     1.6410 C.2   1 <1>  -0.1500 
 22 C       -7.5010    -5.9690    -0.2300 C.3   1 <1>   0.0200 
 23 S       -6.4880    -7.6380     1.8590 S.3   1 <1>  -0.0800 
 24 C       -4.8260    -7.3630     2.3600 C.2   1 <1>  -0.1100 
 25 H       -3.2720     0.4040    -1.5680 H     1 <1>   0.1500 
 26 H       -2.3200     2.5730    -0.6850 H     1 <1>   0.1500 
 27 H        1.4400     1.4390     2.0600 H     1 <1>   0.0800 
 28 H        2.0950     3.0010     1.6350 H     1 <1>   0.0800 
 29 H        2.2120     1.6760     0.5020 H     1 <1>   0.0800 
 30 H       -4.9620    -2.0130    -1.2170 H     1 <1>   0.0800 
 31 H       -3.9550    -1.3410     0.0430 H     1 <1>   0.0800 
 32 H       -2.2420    -4.1740    -2.5970 H     1 <1>   0.0800 
 33 H       -3.9170    -3.7550    -2.8140 H     1 <1>   0.0800 
 34 H       -5.4570    -3.0730     0.9630 H     1 <1>   0.0800 
 35 H       -3.7900    -3.4830     1.1500 H     1 <1>   0.0800 
 36 H       -2.7260    -5.2430    -0.4750 H     1 <1>   0.0800 
 37 H       -3.7470    -5.9350    -1.6940 H     1 <1>   0.0800 
 38 H       -7.8210    -4.3550    -1.6270 H     1 <1>   0.0800 
 39 H       -7.3160    -3.8250    -0.0400 H     1 <1>   0.0800 
 40 H       -3.2520    -6.0200     1.7610 H     1 <1>   0.1500 
 41 H       -7.6060    -6.6820    -1.0280 H     1 <1>   0.0800 
 42 H       -8.4200    -5.9320     0.3270 H     1 <1>   0.0800 
 43 H       -4.4430    -7.9810     3.1530 H     1 <1>   0.1500 
@<TRIPOS>BOND
  1   1   2  1   
  2   1   3  1   
  3   2   4  1   
  4   2   5  2   
  5   3   6  1   
  6   3   7  2   
  7   4   8  2   
  8   4   9  am  
  9   5   7  1   
 10   5  25  1   
 11   6  10  2   
 12   6  11  1   
 13   7  26  1   
 14   9  12  1   
 15   9  13  1   
 16  11  27  1   
 17  11  28  1   
 18  11  29  1   
 19  12  14  1   
 20  12  30  1   
 21  12  31  1   
 22  13  15  1   
 23  13  32  1   
 24  13  33  1   
 25  14  16  1   
 26  14  34  1   
 27  14  35  1   
 28  15  16  1   
 29  15  36  1   
 30  15  37  1   
 31  16  17  1   
 32  16  18  1   
 33  17  19  1   
 34  18  20  2   
 35  18  21  1   
 36  19  22  1   
 37  19  38  1   
 38  19  39  1   
 39  20  22  1   
 40  20  23  1   
 41  21  24  2   
 42  21  40  1   
 43  22  41  1   
 44  22  42  1   
 45  23  24  1   
 46  24  43  1   
@<TRIPOS>SUBSTRUCTURE
  1 ****  12 GROUP 4 **** **** 0

# MOE 2024.06 (io_trps.svl 2023.06)
