@<TRIPOS>MOLECULE
NONAME
50 52 1 0 0 
SMALL
USER_CHARGES


@<TRIPOS>ATOM
  1 CL       0.9580     3.7710     2.4950 Cl    1 <1>  -0.1770 
  2 C        0.8340     3.4950     0.7750 C.ar  1 <1>   0.1770 
  3 C        1.6340     2.5550     0.1340 C.ar  1 <1>  -0.1440 
  4 C       -0.0990     4.2440     0.0820 C.ar  1 <1>  -0.1500 
  5 C        1.4550     2.3710    -1.2330 C.ar  1 <1>  -0.1500 
  6 C        2.6960     1.7500     0.8850 C.3   1 <1>   0.3640 
  7 C       -0.2550     4.0570    -1.2790 C.ar  1 <1>  -0.1500 
  8 C        0.5210     3.1160    -1.9340 C.ar  1 <1>  -0.1500 
  9 N        2.4660     0.3100     0.6140 N.am  1 <1>  -0.7300 
 10 C        4.1150     2.1820     0.4350 C.3   1 <1>   0.2610 
 11 C        3.4600    -0.5670     0.3520 C.2   1 <1>   0.5690 
 12 O        5.0950     1.2220     0.7970 O.3   1 <1>  -0.5600 
 13 C        4.4510     3.5750     0.9940 C.2   1 <1>   0.5690 
 14 O        3.2160    -1.7330     0.1770 O.2   1 <1>  -0.5700 
 15 C        4.9020    -0.0600     0.2390 C.3   1 <1>   0.1810 
 16 O        4.1770     3.7920     2.1540 O.2   1 <1>  -0.5700 
 17 N        4.9970     4.5590     0.1950 N.am  1 <1>  -0.6600 
 18 C        4.9470     5.9790     0.6880 C.3   1 <1>   0.2200 
 19 C        5.6650     4.2460    -1.1050 C.3   1 <1>   0.1400 
 20 C        3.5610     6.5760     0.3980 C.3   1 <1>  -0.1600 
 21 C        6.0640     6.8870     0.1420 C.3   1 <1>  -0.1600 
 22 C        4.7280     4.5400    -2.2750 C.3   1 <1>  -0.2400 
 23 C        3.4410     8.0040     0.9510 C.3   1 <1>  -0.1600 
 24 C        5.9460     8.3070     0.7150 C.3   1 <1>  -0.1600 
 25 C        4.5630     8.9060     0.4200 C.3   1 <1>  -0.1600 
 26 H       -0.6970     4.9670     0.6080 H     1 <1>   0.1500 
 27 H        2.0400     1.6400    -1.7660 H     1 <1>   0.1500 
 28 H        2.6080     1.8990     1.9470 H     1 <1>   0.0800 
 29 H       -0.9790     4.6370    -1.8260 H     1 <1>   0.1500 
 30 H        0.3950     2.9630    -2.9920 H     1 <1>   0.1500 
 31 H        1.5140    -0.0430     0.7240 H     1 <1>   0.3700 
 32 H        4.1110     2.2330    -0.6350 H     1 <1>   0.0800 
 33 H        5.1860    -0.0240    -0.7970 H     1 <1>   0.0800 
 34 H        5.5580    -0.7400     0.7520 H     1 <1>   0.0800 
 35 H        5.0700     5.9630     1.7590 H     1 <1>   0.0800 
 36 H        6.5780     4.8040    -1.2090 H     1 <1>   0.0800 
 37 H        5.9520     3.2090    -1.1260 H     1 <1>   0.0800 
 38 H        3.3850     6.5940    -0.6610 H     1 <1>   0.0800 
 39 H        2.8070     5.9620     0.8580 H     1 <1>   0.0800 
 40 H        7.0210     6.4790     0.4120 H     1 <1>   0.0800 
 41 H        5.9970     6.9560    -0.9280 H     1 <1>   0.0800 
 42 H        4.5670     5.5980    -2.3720 H     1 <1>   0.0800 
 43 H        3.7810     4.0490    -2.1420 H     1 <1>   0.0800 
 44 H        5.1710     4.1880    -3.1890 H     1 <1>   0.0800 
 45 H        2.4850     8.4160     0.6780 H     1 <1>   0.0800 
 46 H        3.4900     7.9710     2.0260 H     1 <1>   0.0800 
 47 H        6.1020     8.2770     1.7800 H     1 <1>   0.0800 
 48 H        6.7090     8.9340     0.2870 H     1 <1>   0.0800 
 49 H        4.4880     9.8790     0.8750 H     1 <1>   0.0800 
 50 H        4.4470     9.0300    -0.6430 H     1 <1>   0.0800 
@<TRIPOS>BOND
  1   1   2  1   
  2   2   3  ar  
  3   2   4  ar  
  4   3   5  ar  
  5   3   6  1   
  6   4   7  ar  
  7   4  26  1   
  8   5   8  ar  
  9   5  27  1   
 10   6   9  1   
 11   6  10  1   
 12   6  28  1   
 13   7   8  ar  
 14   7  29  1   
 15   8  30  1   
 16   9  11  am  
 17   9  31  1   
 18  10  12  1   
 19  10  13  1   
 20  10  32  1   
 21  11  14  2   
 22  11  15  1   
 23  12  15  1   
 24  13  16  2   
 25  13  17  am  
 26  15  33  1   
 27  15  34  1   
 28  17  18  1   
 29  17  19  1   
 30  18  20  1   
 31  18  21  1   
 32  18  35  1   
 33  19  22  1   
 34  19  36  1   
 35  19  37  1   
 36  20  23  1   
 37  20  38  1   
 38  20  39  1   
 39  21  24  1   
 40  21  40  1   
 41  21  41  1   
 42  22  42  1   
 43  22  43  1   
 44  22  44  1   
 45  23  25  1   
 46  23  45  1   
 47  23  46  1   
 48  24  25  1   
 49  24  47  1   
 50  24  48  1   
 51  25  49  1   
 52  25  50  1   
@<TRIPOS>SUBSTRUCTURE
  1 ****  13 GROUP 4 **** **** 0

# MOE 2024.06 (io_trps.svl 2023.06)
