@<TRIPOS>MOLECULE
NONAME
46 48 1 0 0 
SMALL
USER_CHARGES


@<TRIPOS>ATOM
  1 O       -0.2730     0.1890     0.9300 O.2   1 <1>  -0.5700 
  2 C       -1.2840     0.8230     0.6770 C.2   1 <1>   0.5440 
  3 N       -2.5010     0.1930     0.8770 N.am  1 <1>  -0.6600 
  4 C       -1.1550     2.2020     0.1980 C.ar  1 <1>   0.3960 
  5 C       -2.6230    -1.2970     0.9380 C.3   1 <1>   0.1400 
  6 C       -3.8340     0.8560     0.7800 C.3   1 <1>   0.1400 
  7 N       -1.8650     2.6150    -0.8700 N.ar  1 <1>  -0.6200 
  8 C       -0.2780     3.0570     0.8690 C.ar  1 <1>  -0.1500 
  9 C       -3.5050    -1.8120    -0.2160 C.3   1 <1>   0.3440 
 10 C       -4.6310     0.2650    -0.4020 C.3   1 <1>   0.2000 
 11 C       -1.6850     3.8650    -1.2280 C.ar  1 <1>   0.3920 
 12 C       -0.1110     4.3670     0.4740 C.ar  1 <1>  -0.1500 
 13 O       -4.7330    -1.1250    -0.2380 O.3   1 <1>  -0.5600 
 14 C       -3.7590    -3.3100    -0.0740 C.ar  1 <1>  -0.1430 
 15 C       -6.0590     0.8460    -0.5320 C.3   1 <1>  -0.0800 
 16 O       -2.3920     4.2290    -2.2790 O.3   1 <1>  -0.5330 
 17 C       -0.8460     4.7770    -0.6130 C.ar  1 <1>  -0.1500 
 18 C       -4.8290    -3.7970     0.6660 C.ar  1 <1>  -0.1500 
 19 C       -2.8980    -4.2120    -0.6840 C.ar  1 <1>  -0.1500 
 20 C       -6.8350     0.1820    -1.6830 C.3   1 <1>  -0.2400 
 21 C       -6.0480     2.3670    -0.7610 C.3   1 <1>  -0.2400 
 22 C       -5.0340    -5.1590     0.7950 C.ar  1 <1>  -0.1500 
 23 C       -3.1020    -5.5750    -0.5560 C.ar  1 <1>  -0.1500 
 24 C       -4.1700    -6.0500     0.1840 C.ar  1 <1>  -0.1500 
 25 H       -1.6560    -1.7650     0.8740 H     1 <1>   0.0800 
 26 H       -3.0640    -1.5820     1.8760 H     1 <1>   0.0800 
 27 H       -4.3800     0.6850     1.6910 H     1 <1>   0.0800 
 28 H       -3.7230     1.9170     0.6670 H     1 <1>   0.0800 
 29 H        0.2770     2.6750     1.7090 H     1 <1>   0.1500 
 30 H       -3.0110    -1.6250    -1.1540 H     1 <1>   0.0800 
 31 H       -4.0960     0.4540    -1.3180 H     1 <1>   0.0800 
 32 H        0.5610     5.0340     0.9880 H     1 <1>   0.1500 
 33 H       -6.5850     0.6490     0.3880 H     1 <1>   0.0800 
 34 H       -2.8770     3.4550    -2.6110 H     1 <1>   0.4500 
 35 H       -0.7790     5.7800    -0.9930 H     1 <1>   0.1500 
 36 H       -5.5090    -3.1110     1.1420 H     1 <1>   0.1500 
 37 H       -2.0620    -3.8580    -1.2610 H     1 <1>   0.1500 
 38 H       -6.3280     0.3340    -2.6190 H     1 <1>   0.0800 
 39 H       -7.8270     0.5920    -1.7550 H     1 <1>   0.0800 
 40 H       -6.9260    -0.8770    -1.5130 H     1 <1>   0.0800 
 41 H       -5.4690     2.6150    -1.6330 H     1 <1>   0.0800 
 42 H       -5.6380     2.8860     0.0860 H     1 <1>   0.0800 
 43 H       -7.0520     2.7280    -0.9060 H     1 <1>   0.0800 
 44 H       -5.8670    -5.5240     1.3690 H     1 <1>   0.1500 
 45 H       -2.4290    -6.2670    -1.0330 H     1 <1>   0.1500 
 46 H       -4.3290    -7.1100     0.2840 H     1 <1>   0.1500 
@<TRIPOS>BOND
  1   1   2  2   
  2   2   3  am  
  3   2   4  1   
  4   3   5  1   
  5   3   6  1   
  6   4   7  ar  
  7   4   8  ar  
  8   5   9  1   
  9   5  25  1   
 10   5  26  1   
 11   6  10  1   
 12   6  27  1   
 13   6  28  1   
 14   7  11  ar  
 15   8  12  ar  
 16   8  29  1   
 17   9  13  1   
 18   9  14  1   
 19   9  30  1   
 20  10  13  1   
 21  10  15  1   
 22  10  31  1   
 23  11  16  1   
 24  11  17  ar  
 25  12  17  ar  
 26  12  32  1   
 27  14  18  ar  
 28  14  19  ar  
 29  15  20  1   
 30  15  21  1   
 31  15  33  1   
 32  16  34  1   
 33  17  35  1   
 34  18  22  ar  
 35  18  36  1   
 36  19  23  ar  
 37  19  37  1   
 38  20  38  1   
 39  20  39  1   
 40  20  40  1   
 41  21  41  1   
 42  21  42  1   
 43  21  43  1   
 44  22  24  ar  
 45  22  44  1   
 46  23  24  ar  
 47  23  45  1   
 48  24  46  1   
@<TRIPOS>SUBSTRUCTURE
  1 ****   3 GROUP 4 **** **** 0

# MOE 2024.06 (io_trps.svl 2023.06)
