@<TRIPOS>MOLECULE
NONAME
43 45 1 0 0 
SMALL
USER_CHARGES


@<TRIPOS>ATOM
  1 F       -1.1080    -1.2720    -0.8760 F     1 <1>  -0.3400 
  2 C       -0.1580    -1.6860    -0.0520 C.3   1 <1>   1.1640 
  3 F        0.9770    -1.1500    -0.4850 F     1 <1>  -0.3400 
  4 F       -0.4080    -1.1380     1.1280 F     1 <1>  -0.3400 
  5 C       -0.0900    -3.2240     0.0270 C.ar  1 <1>  -0.1440 
  6 C        1.0370    -3.9430    -0.3180 C.ar  1 <1>  -0.1500 
  7 C       -1.2150    -3.9340     0.4660 C.ar  1 <1>  -0.1500 
  8 C        1.0710    -5.3440    -0.2370 C.ar  1 <1>   0.3610 
  9 C       -1.2000    -5.3020     0.5510 C.ar  1 <1>  -0.1500 
 10 N        2.2060    -6.0410    -0.5870 N.ar  1 <1>  -0.1790 
 11 C       -0.0610    -6.0540     0.2060 C.ar  1 <1>   0.0000 
 12 C        2.2770    -7.3830    -0.5220 C.ar  1 <1>   0.2180 
 13 C       -0.0030    -7.4810     0.2770 C.ar  1 <1>   0.1000 
 14 C        1.1910    -8.1020    -0.0950 C.ar  1 <1>  -0.1500 
 15 C        3.5760    -8.0600    -0.9270 C.3   1 <1>  -0.0970 
 16 N       -1.0710    -8.1920     0.6960 N.pl3 1 <1>  -0.8690 
 17 C       -1.2610    -9.6640     0.7690 C.3   1 <1>   0.2090 
 18 C       -2.7500   -10.0080     0.6320 C.3   1 <1>  -0.0800 
 19 C       -2.9540   -11.5240     0.7940 C.3   1 <1>   0.1200 
 20 C       -3.3370    -9.5430    -0.7150 C.3   1 <1>  -0.1600 
 21 O       -4.3080   -11.8310     0.6670 O.3   1 <1>  -0.5600 
 22 C       -4.7760   -10.0530    -0.8610 C.3   1 <1>  -0.1600 
 23 C       -4.8560   -11.5590    -0.5870 C.3   1 <1>   0.1200 
 24 H        1.9170    -3.4250    -0.6590 H     1 <1>   0.1500 
 25 H       -2.1090    -3.3920     0.7410 H     1 <1>   0.1500 
 26 H       -2.0860    -5.8080     0.8920 H     1 <1>   0.1500 
 27 H        3.0150    -5.5050    -0.9050 H     1 <1>   0.4570 
 28 H        1.2560    -9.1720    -0.0390 H     1 <1>   0.1500 
 29 H        3.8120    -7.8400    -1.9540 H     1 <1>   0.0800 
 30 H        3.4950    -9.1290    -0.8270 H     1 <1>   0.0800 
 31 H        4.3860    -7.7280    -0.3020 H     1 <1>   0.0800 
 32 H       -1.9170    -7.7000     1.0060 H     1 <1>   0.4000 
 33 H       -0.8940   -10.0180     1.7190 H     1 <1>   0.0800 
 34 H       -0.7090   -10.1490    -0.0170 H     1 <1>   0.0800 
 35 H       -3.2800    -9.5310     1.4380 H     1 <1>   0.0800 
 36 H       -2.6430   -11.8460     1.7730 H     1 <1>   0.0800 
 37 H       -2.4080   -12.0790     0.0510 H     1 <1>   0.0800 
 38 H       -2.7420    -9.9350    -1.5220 H     1 <1>   0.0800 
 39 H       -3.3280    -8.4690    -0.7840 H     1 <1>   0.0800 
 40 H       -5.1380    -9.8480    -1.8530 H     1 <1>   0.0800 
 41 H       -5.4180    -9.5420    -0.1650 H     1 <1>   0.0800 
 42 H       -5.8810   -11.8870    -0.5760 H     1 <1>   0.0800 
 43 H       -4.3150   -12.1220    -1.3280 H     1 <1>   0.0800 
@<TRIPOS>BOND
  1   1   2  1   
  2   2   3  1   
  3   2   4  1   
  4   2   5  1   
  5   5   6  ar  
  6   5   7  ar  
  7   6   8  ar  
  8   6  24  1   
  9   7   9  ar  
 10   7  25  1   
 11   8  10  ar  
 12   8  11  ar  
 13   9  11  ar  
 14   9  26  1   
 15  10  12  ar  
 16  10  27  1   
 17  11  13  ar  
 18  12  14  ar  
 19  12  15  1   
 20  13  14  ar  
 21  13  16  1   
 22  14  28  1   
 23  15  29  1   
 24  15  30  1   
 25  15  31  1   
 26  16  17  1   
 27  16  32  1   
 28  17  18  1   
 29  17  33  1   
 30  17  34  1   
 31  18  19  1   
 32  18  20  1   
 33  18  35  1   
 34  19  21  1   
 35  19  36  1   
 36  19  37  1   
 37  20  22  1   
 38  20  38  1   
 39  20  39  1   
 40  21  23  1   
 41  22  23  1   
 42  22  40  1   
 43  22  41  1   
 44  23  42  1   
 45  23  43  1   
@<TRIPOS>SUBSTRUCTURE
  1 ****  11 GROUP 4 **** **** 0

# MOE 2024.06 (io_trps.svl 2023.06)
