@<TRIPOS>MOLECULE
NONAME
46 48 1 0 0 
SMALL
USER_CHARGES


@<TRIPOS>ATOM
  1 S        0.8800    -0.0780     0.0870 S.o2  1 <1>   1.3330 
  2 O        1.3090    -0.3150    -1.2730 O.2   1 <1>  -0.6500 
  3 O        1.8540    -0.0800     1.1550 O.2   1 <1>  -0.6500 
  4 N       -0.3140    -1.2210     0.4730 N.am  1 <1>  -0.8490 
  5 C       -0.0200     1.4700     0.1080 C.3   1 <1>  -0.0550 
  6 C       -0.0050    -2.5470    -0.0710 C.3   1 <1>   0.1160 
  7 C       -0.5780    -1.3230     1.9120 C.3   1 <1>   0.1160 
  8 C        0.8390     2.6840    -0.3020 C.3   1 <1>  -0.0800 
  9 C        0.0450     3.9830    -0.4710 C.3   1 <1>   0.2000 
 10 C        1.9490     3.0390     0.7000 C.3   1 <1>   0.1400 
 11 O       -0.8330     4.1190     0.5940 O.3   1 <1>  -0.6800 
 12 C        1.1070     5.0700    -0.3450 C.3   1 <1>   0.1400 
 13 N        2.0550     4.5180     0.6500 N.am  1 <1>  -0.6600 
 14 C        2.9020     5.2480     1.4530 C.2   1 <1>   0.5440 
 15 O        3.5210     4.6530     2.3160 O.2   1 <1>  -0.5700 
 16 C        3.0000     6.6890     1.3790 C.ar  1 <1>   0.0860 
 17 C        3.4760     7.3510     0.2150 C.ar  1 <1>   0.3100 
 18 C        2.6260     7.4380     2.4770 C.ar  1 <1>  -0.1500 
 19 N        3.8700     6.6330    -0.8750 N.ar  1 <1>  -0.6200 
 20 C        3.5340     8.7670     0.2160 C.ar  1 <1>   0.0000 
 21 C        2.6840     8.8300     2.4710 C.ar  1 <1>  -0.1500 
 22 C        4.3080     7.2750    -1.9140 C.ar  1 <1>   0.1600 
 23 C        4.0070     9.4230    -0.9330 C.ar  1 <1>  -0.1500 
 24 C        3.1280     9.4830     1.3570 C.ar  1 <1>  -0.1500 
 25 C        4.3950     8.6680    -1.9970 C.ar  1 <1>  -0.1500 
 26 H       -0.8450     1.3930    -0.5730 H     1 <1>   0.0800 
 27 H       -0.4240     1.6320     1.0880 H     1 <1>   0.0800 
 28 H       -0.7870    -3.2440     0.1770 H     1 <1>   0.0800 
 29 H        0.9300    -2.9060     0.3260 H     1 <1>   0.0800 
 30 H        0.0720    -2.4960    -1.1440 H     1 <1>   0.0800 
 31 H       -1.3990    -1.9960     2.0910 H     1 <1>   0.0800 
 32 H       -0.8380    -0.3580     2.3120 H     1 <1>   0.0800 
 33 H        0.2940    -1.6880     2.4310 H     1 <1>   0.0800 
 34 H        1.3120     2.4660    -1.2440 H     1 <1>   0.0800 
 35 H       -0.5130     4.0330    -1.3910 H     1 <1>   0.0800 
 36 H        2.8890     2.5850     0.4300 H     1 <1>   0.0800 
 37 H        1.6890     2.7390     1.7010 H     1 <1>   0.0800 
 38 H       -0.3040     4.2700     1.4050 H     1 <1>   0.4000 
 39 H        0.6870     6.0110    -0.0330 H     1 <1>   0.0800 
 40 H        1.6180     5.1950    -1.2840 H     1 <1>   0.0800 
 41 H        2.2840     6.9350     3.3660 H     1 <1>   0.1500 
 42 H        2.3790     9.3750     3.3490 H     1 <1>   0.1500 
 43 H        4.6260     6.6990    -2.7680 H     1 <1>   0.1500 
 44 H        4.0570    10.4970    -0.9540 H     1 <1>   0.1500 
 45 H        3.1770    10.5580     1.3400 H     1 <1>   0.1500 
 46 H        4.7680     9.1170    -2.9000 H     1 <1>   0.1500 
@<TRIPOS>BOND
  1   1   2  2   
  2   1   3  2   
  3   1   4  am  
  4   1   5  1   
  5   4   6  1   
  6   4   7  1   
  7   5   8  1   
  8   5  26  1   
  9   5  27  1   
 10   6  28  1   
 11   6  29  1   
 12   6  30  1   
 13   7  31  1   
 14   7  32  1   
 15   7  33  1   
 16   8   9  1   
 17   8  10  1   
 18   8  34  1   
 19   9  11  1   
 20   9  12  1   
 21   9  35  1   
 22  10  13  1   
 23  10  36  1   
 24  10  37  1   
 25  11  38  1   
 26  12  13  1   
 27  12  39  1   
 28  12  40  1   
 29  13  14  am  
 30  14  15  2   
 31  14  16  1   
 32  16  17  ar  
 33  16  18  ar  
 34  17  19  ar  
 35  17  20  ar  
 36  18  21  ar  
 37  18  41  1   
 38  19  22  ar  
 39  20  23  ar  
 40  20  24  ar  
 41  21  24  ar  
 42  21  42  1   
 43  22  25  ar  
 44  22  43  1   
 45  23  25  ar  
 46  23  44  1   
 47  24  45  1   
 48  25  46  1   
@<TRIPOS>SUBSTRUCTURE
  1 ****  13 GROUP 4 **** **** 0

# MOE 2024.06 (io_trps.svl 2023.06)
