@<TRIPOS>MOLECULE
NONAME
51 53 1 0 0 
SMALL
USER_CHARGES


@<TRIPOS>ATOM
  1 O        0.0100     0.4490    -1.9730 O.2   1 <1>  -0.5700 
  2 C        0.9060    -0.0420    -1.3300 C.2   1 <1>   0.5690 
  3 N        1.5210     0.6890    -0.3290 N.am  1 <1>  -0.6600 
  4 C        1.3550    -1.4200    -1.7930 C.3   1 <1>   0.1570 
  5 C        2.2880     0.1220     0.8220 C.3   1 <1>   0.1400 
  6 C        1.3510     2.1680    -0.2770 C.3   1 <1>   0.1400 
  7 N        1.4220    -2.4180    -0.7210 N.pl3 1 <1>   0.3140 
  8 C        3.7680    -0.0820     0.4550 C.3   1 <1>   0.3430 
  9 C        2.7000     2.8820    -0.1040 C.3   1 <1>  -0.1600 
 10 N        2.6050    -2.8330    -0.2130 N.2   1 <1>  -0.7070 
 11 C        0.3900    -3.0570    -0.1380 C.2   1 <1>  -0.3020 
 12 N        4.5240     1.1970     0.2080 N.4   1 <1>  -0.9590 
 13 C        3.8800     2.1520    -0.7550 C.3   1 <1>   0.3430 
 14 C        2.2860    -3.7420     0.6610 C.2   1 <1>   0.1390 
 15 C        0.9120    -3.9200     0.7580 C.2   1 <1>  -0.1500 
 16 C        5.9040     0.8920    -0.2230 C.3   1 <1>   0.5230 
 17 C        6.7270     2.1150     0.1010 C.2   1 <1>  -0.3320 
 18 N        7.2850     2.3680     1.3220 N.pl3 1 <1>   0.0480 
 19 C        7.0440     3.1270    -0.7460 C.2   1 <1>  -0.1500 
 20 C        7.9280     3.5520     1.2240 C.2   1 <1>  -0.3020 
 21 C        7.2720     1.5190     2.5310 C.3   1 <1>   0.0160 
 22 C        7.8080     4.0730    -0.0400 C.2   1 <1>  -0.0860 
 23 C        8.3140     5.2980    -0.6020 C.2   1 <1>   0.5950 
 24 O        8.0510     5.6630    -1.7200 O.2   1 <1>  -0.5700 
 25 C        9.2080     6.1800     0.2400 C.3   1 <1>  -0.1790 
 26 H        2.3230    -1.3390    -2.2470 H     1 <1>   0.0800 
 27 H        0.6690    -1.7790    -2.5370 H     1 <1>   0.0800 
 28 H        1.8490    -0.8060     1.1330 H     1 <1>   0.0800 
 29 H        2.2150     0.7780     1.6720 H     1 <1>   0.0800 
 30 H        0.6830     2.4280     0.5280 H     1 <1>   0.0800 
 31 H        0.8980     2.5130    -1.1920 H     1 <1>   0.0800 
 32 H        3.8140    -0.7070    -0.4220 H     1 <1>   0.0800 
 33 H        4.2410    -0.6260     1.2560 H     1 <1>   0.0800 
 34 H        2.8960     3.0660     0.9370 H     1 <1>   0.0800 
 35 H        2.6060     3.8470    -0.5690 H     1 <1>   0.0800 
 36 H       -0.6400    -2.8730    -0.3920 H     1 <1>   0.1500 
 37 H        4.6310     1.7130     1.0870 H     1 <1>   0.4500 
 38 H        4.6020     2.8970    -1.0490 H     1 <1>   0.0800 
 39 H        3.5550     1.6360    -1.6450 H     1 <1>   0.0800 
 40 H        3.0070    -4.2950     1.2420 H     1 <1>   0.1500 
 41 H        0.4030    -4.6090     1.4100 H     1 <1>   0.1500 
 42 H        5.9320     0.6880    -1.2810 H     1 <1>   0.0800 
 43 H        6.2960     0.0380     0.3060 H     1 <1>   0.0800 
 44 H        6.7900     3.2490    -1.7880 H     1 <1>   0.1500 
 45 H        8.4570     3.9860     2.0550 H     1 <1>   0.1500 
 46 H        7.6170     0.5320     2.2820 H     1 <1>   0.0800 
 47 H        6.2770     1.4720     2.9320 H     1 <1>   0.0800 
 48 H        7.9290     1.9400     3.2710 H     1 <1>   0.0800 
 49 H       10.0390     5.6100     0.6090 H     1 <1>   0.0800 
 50 H        8.6490     6.5770     1.0670 H     1 <1>   0.0800 
 51 H        9.5800     6.9950    -0.3530 H     1 <1>   0.0800 
@<TRIPOS>BOND
  1   1   2  2   
  2   2   3  am  
  3   2   4  1   
  4   3   5  1   
  5   3   6  1   
  6   4   7  1   
  7   4  26  1   
  8   4  27  1   
  9   5   8  1   
 10   5  28  1   
 11   5  29  1   
 12   6   9  1   
 13   6  30  1   
 14   6  31  1   
 15   7  10  1   
 16   7  11  1   
 17   8  12  1   
 18   8  32  1   
 19   8  33  1   
 20   9  13  1   
 21   9  34  1   
 22   9  35  1   
 23  10  14  2   
 24  11  15  2   
 25  11  36  1   
 26  12  13  1   
 27  12  16  1   
 28  12  37  1   
 29  13  38  1   
 30  13  39  1   
 31  14  15  1   
 32  14  40  1   
 33  15  41  1   
 34  16  17  1   
 35  16  42  1   
 36  16  43  1   
 37  17  18  1   
 38  17  19  2   
 39  18  20  1   
 40  18  21  1   
 41  19  22  1   
 42  19  44  1   
 43  20  22  2   
 44  20  45  1   
 45  21  46  1   
 46  21  47  1   
 47  21  48  1   
 48  22  23  1   
 49  23  24  2   
 50  23  25  1   
 51  25  49  1   
 52  25  50  1   
 53  25  51  1   
@<TRIPOS>SUBSTRUCTURE
  1 ****  12 GROUP 4 **** **** 0

# MOE 2024.06 (io_trps.svl 2023.06)
