@<TRIPOS>MOLECULE
NONAME
49 51 1 0 0 
SMALL
USER_CHARGES


@<TRIPOS>ATOM
  1 O       -0.4260     0.1320     0.2210 O.2   1 <1>  -0.5700 
  2 C       -1.3120     0.7990    -0.2770 C.2   1 <1>   0.6900 
  3 N       -2.4810     0.2090    -0.6760 N.am  1 <1>  -0.6600 
  4 N       -1.1660     2.1410    -0.4760 N.am  1 <1>  -0.5470 
  5 C       -3.8170     0.8470    -0.4640 C.3   1 <1>   0.1400 
  6 C       -2.5730    -1.2730    -0.8440 C.3   1 <1>   0.1400 
  7 C       -0.1600     3.0240    -0.0610 C.ar  1 <1>   0.1170 
  8 C       -4.6160     0.1040     0.6310 C.3   1 <1>   0.2950 
  9 C       -3.4330    -1.9000     0.2730 C.3   1 <1>   0.2000 
 10 C        0.0810     4.1730    -0.8040 C.ar  1 <1>  -0.1500 
 11 C        0.6010     2.8050     1.0830 C.ar  1 <1>  -0.1500 
 12 O       -4.6760    -1.2610     0.3300 O.3   1 <1>  -0.5600 
 13 C       -6.0660     0.5860     0.8110 C.3   1 <1>  -0.1950 
 14 C       -3.7140    -3.3920     0.0540 C.3   1 <1>  -0.1600 
 15 C        1.0570     5.0910    -0.4350 C.ar  1 <1>   0.0730 
 16 C        1.5770     3.7060     1.4670 C.ar  1 <1>  -0.1500 
 17 C       -6.9910     0.8960    -0.3260 C.3   1 <1>  -0.2000 
 18 C       -6.5100     1.9990     0.5760 C.3   1 <1>  -0.2000 
 19 C       -2.4450    -4.2590     0.1150 C.3   1 <1>  -0.1600 
 20 C        1.2910     6.2710    -1.2190 C.1   1 <1>   0.4840 
 21 C        1.8030     4.8420     0.7120 C.ar  1 <1>  -0.1500 
 22 C       -2.7900    -5.7470    -0.0110 C.3   1 <1>  -0.1600 
 23 N        1.4670     7.2080    -1.8440 N.1   1 <1>  -0.5570 
 24 C       -1.5290    -6.6130     0.0470 C.3   1 <1>  -0.2400 
 25 H       -1.8270     2.5000    -1.1560 H     1 <1>   0.3700 
 26 H       -3.7010     1.8730    -0.1690 H     1 <1>   0.0800 
 27 H       -4.3640     0.8210    -1.3890 H     1 <1>   0.0800 
 28 H       -3.0150    -1.4930    -1.7990 H     1 <1>   0.0800 
 29 H       -1.5890    -1.7090    -0.8320 H     1 <1>   0.0800 
 30 H       -4.1020     0.2140     1.5710 H     1 <1>   0.0800 
 31 H       -2.9420    -1.7680     1.2230 H     1 <1>   0.0800 
 32 H       -0.4980     4.3550    -1.6900 H     1 <1>   0.1500 
 33 H        0.4320     1.9260     1.6780 H     1 <1>   0.1500 
 34 H       -6.5110     0.0920     1.6580 H     1 <1>   0.1000 
 35 H       -4.3920    -3.7200     0.8220 H     1 <1>   0.0800 
 36 H       -4.1960    -3.5260    -0.8990 H     1 <1>   0.0800 
 37 H        2.1590     3.5180     2.3530 H     1 <1>   0.1500 
 38 H       -6.6250     0.8430    -1.3360 H     1 <1>   0.1000 
 39 H       -8.0130     0.5670    -0.2490 H     1 <1>   0.1000 
 40 H       -7.2100     2.4380     1.2670 H     1 <1>   0.1000 
 41 H       -5.8400     2.7310     0.1610 H     1 <1>   0.1000 
 42 H       -1.7740    -3.9880    -0.6820 H     1 <1>   0.0800 
 43 H       -1.9400    -4.0890     1.0510 H     1 <1>   0.0800 
 44 H        2.5660     5.5390     1.0160 H     1 <1>   0.1500 
 45 H       -3.4530    -6.0340     0.7880 H     1 <1>   0.0800 
 46 H       -3.2980    -5.9230    -0.9450 H     1 <1>   0.0800 
 47 H       -1.0160    -6.4680     0.9810 H     1 <1>   0.0800 
 48 H       -0.8610    -6.3590    -0.7580 H     1 <1>   0.0800 
 49 H       -1.7910    -7.6520    -0.0420 H     1 <1>   0.0800 
@<TRIPOS>BOND
  1   1   2  2   
  2   2   3  am  
  3   2   4  am  
  4   3   5  1   
  5   3   6  1   
  6   4   7  1   
  7   4  25  1   
  8   5   8  1   
  9   5  26  1   
 10   5  27  1   
 11   6   9  1   
 12   6  28  1   
 13   6  29  1   
 14   7  10  ar  
 15   7  11  ar  
 16   8  12  1   
 17   8  13  1   
 18   8  30  1   
 19   9  12  1   
 20   9  14  1   
 21   9  31  1   
 22  10  15  ar  
 23  10  32  1   
 24  11  16  ar  
 25  11  33  1   
 26  13  17  1   
 27  13  18  1   
 28  13  34  1   
 29  14  19  1   
 30  14  35  1   
 31  14  36  1   
 32  15  20  1   
 33  15  21  ar  
 34  16  21  ar  
 35  16  37  1   
 36  17  18  1   
 37  17  38  1   
 38  17  39  1   
 39  18  40  1   
 40  18  41  1   
 41  19  22  1   
 42  19  42  1   
 43  19  43  1   
 44  20  23  3   
 45  21  44  1   
 46  22  24  1   
 47  22  45  1   
 48  22  46  1   
 49  24  47  1   
 50  24  48  1   
 51  24  49  1   
@<TRIPOS>SUBSTRUCTURE
  1 ****   2 GROUP 4 **** **** 0

# MOE 2024.06 (io_trps.svl 2023.06)
