@<TRIPOS>MOLECULE
NONAME
50 54 1 0 0 
SMALL
USER_CHARGES


@<TRIPOS>ATOM
  1 O       -0.7620    -1.0600     1.0010 O.2   1 <1>  -0.5700 
  2 C       -1.2710    -2.0650     0.5830 C.2   1 <1>   0.4230 
  3 C       -2.4820    -2.1990    -0.1630 C.ar  1 <1>   0.0860 
  4 C       -0.6720    -3.4360     0.8070 C.3   1 <1>  -0.0990 
  5 C       -2.7640    -3.5270    -0.4180 C.ar  1 <1>  -0.1440 
  6 C       -3.3360    -1.2080    -0.6300 C.ar  1 <1>  -0.1500 
  7 C       -1.6760    -4.4170     0.1650 C.3   1 <1>  -0.0160 
  8 C       -3.8940    -3.9170    -1.1360 C.ar  1 <1>   0.0860 
  9 C       -4.4540    -1.5620    -1.3600 C.ar  1 <1>  -0.1500 
 10 C       -4.2310    -5.3060    -1.3860 C.2   1 <1>   0.5440 
 11 C       -4.7230    -2.8980    -1.6130 C.ar  1 <1>  -0.1500 
 12 O       -4.5430    -5.6730    -2.5010 O.2   1 <1>  -0.5700 
 13 N       -4.3170    -6.2300    -0.3680 N.am  1 <1>  -0.6600 
 14 C       -5.0290    -5.8960     0.9010 C.3   1 <1>   0.1400 
 15 C       -4.3640    -7.6850    -0.6980 C.3   1 <1>   0.1400 
 16 C       -6.5030    -6.3720     0.8500 C.3   1 <1>   0.4230 
 17 C       -5.8290    -8.1400    -0.8140 C.3   1 <1>   0.3430 
 18 N       -6.6220    -7.8330     0.4400 N.4   1 <1>  -0.9590 
 19 C       -7.3390    -5.4650    -0.0870 C.3   1 <1>   0.1200 
 20 C       -8.0740    -8.1970     0.3180 C.3   1 <1>   0.5180 
 21 O       -8.6700    -5.8930    -0.1170 O.3   1 <1>  -0.5600 
 22 C       -8.2120    -9.6460    -0.1660 C.3   1 <1>  -0.1950 
 23 C       -8.8500    -7.2050    -0.5760 C.3   1 <1>   0.1200 
 24 C       -9.2810   -10.5270     0.4020 C.3   1 <1>  -0.2000 
 25 C       -7.8370   -10.8070     0.7060 C.3   1 <1>  -0.2000 
 26 H        0.2890    -3.4920     0.3270 H     1 <1>   0.0800 
 27 H       -0.5610    -3.6180     1.8610 H     1 <1>   0.0800 
 28 H       -3.1090    -0.1750    -0.4240 H     1 <1>   0.1500 
 29 H       -2.0790    -5.0810     0.9090 H     1 <1>   0.0800 
 30 H       -1.2020    -4.9930    -0.6120 H     1 <1>   0.0800 
 31 H       -5.1130    -0.7970    -1.7380 H     1 <1>   0.1500 
 32 H       -5.5890    -3.1590    -2.1970 H     1 <1>   0.1500 
 33 H       -4.5250    -6.3730     1.7240 H     1 <1>   0.0800 
 34 H       -5.0000    -4.8340     1.0800 H     1 <1>   0.0800 
 35 H       -3.8570    -7.8680    -1.6310 H     1 <1>   0.0800 
 36 H       -3.8560    -8.2490     0.0640 H     1 <1>   0.0800 
 37 H       -6.9150    -6.2540     1.8390 H     1 <1>   0.0800 
 38 H       -5.8500    -9.1990    -1.0140 H     1 <1>   0.0800 
 39 H       -6.2680    -7.6360    -1.6600 H     1 <1>   0.0800 
 40 H       -6.2430    -8.4160     1.1920 H     1 <1>   0.4500 
 41 H       -6.9550    -5.4700    -1.0930 H     1 <1>   0.0800 
 42 H       -7.3340    -4.4510     0.2740 H     1 <1>   0.0800 
 43 H       -8.5170    -8.1440     1.2990 H     1 <1>   0.0800 
 44 H       -8.0660    -9.7440    -1.2290 H     1 <1>   0.1000 
 45 H       -9.9040    -7.4220    -0.5370 H     1 <1>   0.0800 
 46 H       -8.5290    -7.2610    -1.6020 H     1 <1>   0.0800 
 47 H       -9.9080   -10.1760     1.2050 H     1 <1>   0.1000 
 48 H       -9.8040   -11.2070    -0.2500 H     1 <1>   0.1000 
 49 H       -7.3920   -11.6820     0.2600 H     1 <1>   0.1000 
 50 H       -7.5120   -10.6600     1.7220 H     1 <1>   0.1000 
@<TRIPOS>BOND
  1   1   2  2   
  2   2   3  1   
  3   2   4  1   
  4   3   5  ar  
  5   3   6  ar  
  6   4   7  1   
  7   4  26  1   
  8   4  27  1   
  9   5   7  1   
 10   5   8  ar  
 11   6   9  ar  
 12   6  28  1   
 13   7  29  1   
 14   7  30  1   
 15   8  10  1   
 16   8  11  ar  
 17   9  11  ar  
 18   9  31  1   
 19  10  12  2   
 20  10  13  am  
 21  11  32  1   
 22  13  14  1   
 23  13  15  1   
 24  14  16  1   
 25  14  33  1   
 26  14  34  1   
 27  15  17  1   
 28  15  35  1   
 29  15  36  1   
 30  16  18  1   
 31  16  19  1   
 32  16  37  1   
 33  17  18  1   
 34  17  38  1   
 35  17  39  1   
 36  18  20  1   
 37  18  40  1   
 38  19  21  1   
 39  19  41  1   
 40  19  42  1   
 41  20  22  1   
 42  20  23  1   
 43  20  43  1   
 44  21  23  1   
 45  22  24  1   
 46  22  25  1   
 47  22  44  1   
 48  23  45  1   
 49  23  46  1   
 50  24  25  1   
 51  24  47  1   
 52  24  48  1   
 53  25  49  1   
 54  25  50  1   
@<TRIPOS>SUBSTRUCTURE
  1 ****  13 GROUP 4 **** **** 0

# MOE 2024.06 (io_trps.svl 2023.06)
