@<TRIPOS>MOLECULE
NONAME
42 44 1 0 0 
SMALL
USER_CHARGES


@<TRIPOS>ATOM
  1 S       -0.7300     0.2710    -1.7120 S.o2  1 <1>   1.4470 
  2 O       -1.5540     1.3350    -2.2470 O.2   1 <1>  -0.6500 
  3 O       -0.5810    -0.9520    -2.4720 O.2   1 <1>  -0.6500 
  4 N       -1.3230    -0.1180    -0.1710 N.am  1 <1>  -0.8490 
  5 C        0.9120     0.9540    -1.3490 C.ar  1 <1>  -0.0090 
  6 C       -0.7220    -1.3140     0.4590 C.3   1 <1>   0.1960 
  7 C       -2.7800    -0.0790    -0.0330 C.3   1 <1>   0.1960 
  8 C        1.0700     1.9660    -0.4100 C.ar  1 <1>  -0.1500 
  9 C        2.0470     0.4950    -2.0090 C.ar  1 <1>  -0.1500 
 10 C       -1.6530    -2.5400     0.5340 C.3   1 <1>  -0.1860 
 11 C       -3.4400    -1.2460    -0.7750 C.3   1 <1>  -0.1600 
 12 C        2.3110     2.5100    -0.1300 C.ar  1 <1>   0.0820 
 13 C        3.3000     1.0140    -1.7290 C.ar  1 <1>  -0.1500 
 14 C       -2.2860    -2.6190     1.9110 C.2   1 <1>   0.9060 
 15 C       -2.6500    -2.5560    -0.6350 C.3   1 <1>   0.2000 
 16 O        2.3430     3.5390     0.7570 O.3   1 <1>  -0.3630 
 17 C        3.4480     2.0090    -0.7790 C.ar  1 <1>   0.0820 
 18 O       -1.5370    -2.6400     2.8910 O.co2 1 <1>  -0.9000 
 19 O       -3.5190    -2.6840     2.0310 O.co2 1 <1>  -0.9000 
 20 O       -3.5490    -3.5800    -0.4390 O.3   1 <1>  -0.6800 
 21 C        3.2580     4.5860     0.5140 C.3   1 <1>   0.1200 
 22 O        4.7150     2.4240    -0.5160 O.3   1 <1>  -0.3630 
 23 C        4.6300     4.2250     1.0860 C.3   1 <1>  -0.1600 
 24 C        5.0310     2.7730     0.8140 C.3   1 <1>   0.1200 
 25 H        0.1670    -1.5940    -0.0790 H     1 <1>   0.0800 
 26 H       -0.4020    -1.0460     1.4530 H     1 <1>   0.0800 
 27 H       -3.0280    -0.1440     1.0140 H     1 <1>   0.0800 
 28 H       -3.1680     0.8580    -0.3950 H     1 <1>   0.0800 
 29 H        0.2060     2.3440     0.1090 H     1 <1>   0.1500 
 30 H        1.9500    -0.2820    -2.7490 H     1 <1>   0.1500 
 31 H       -1.0380    -3.4150     0.4570 H     1 <1>   0.0800 
 32 H       -3.5270    -1.0010    -1.8180 H     1 <1>   0.0800 
 33 H       -4.4340    -1.3630    -0.3800 H     1 <1>   0.0800 
 34 H        4.1710     0.6430    -2.2390 H     1 <1>   0.1500 
 35 H       -2.1260    -2.7590    -1.5530 H     1 <1>   0.0800 
 36 H       -3.8550    -3.4730     0.5090 H     1 <1>   0.4000 
 37 H        3.3110     4.7490    -0.5500 H     1 <1>   0.0800 
 38 H        2.8750     5.4750     0.9820 H     1 <1>   0.0800 
 39 H        5.3680     4.8820     0.6630 H     1 <1>   0.0800 
 40 H        4.6270     4.3920     2.1480 H     1 <1>   0.0800 
 41 H        4.5130     2.0970     1.4750 H     1 <1>   0.0800 
 42 H        6.0900     2.6420     0.9470 H     1 <1>   0.0800 
@<TRIPOS>BOND
  1   1   2  2   
  2   1   3  2   
  3   1   4  am  
  4   1   5  1   
  5   4   6  1   
  6   4   7  1   
  7   5   8  ar  
  8   5   9  ar  
  9   6  10  1   
 10   6  25  1   
 11   6  26  1   
 12   7  11  1   
 13   7  27  1   
 14   7  28  1   
 15   8  12  ar  
 16   8  29  1   
 17   9  13  ar  
 18   9  30  1   
 19  10  14  1   
 20  10  15  1   
 21  10  31  1   
 22  11  15  1   
 23  11  32  1   
 24  11  33  1   
 25  12  16  1   
 26  12  17  ar  
 27  13  17  ar  
 28  13  34  1   
 29  14  18  ar  
 30  14  19  ar  
 31  15  20  1   
 32  15  35  1   
 33  16  21  1   
 34  17  22  1   
 35  20  36  1   
 36  21  23  1   
 37  21  37  1   
 38  21  38  1   
 39  22  24  1   
 40  23  24  1   
 41  23  39  1   
 42  23  40  1   
 43  24  41  1   
 44  24  42  1   
@<TRIPOS>SUBSTRUCTURE
  1 ****   5 GROUP 4 **** **** 0

# MOE 2024.06 (io_trps.svl 2023.06)
