@<TRIPOS>MOLECULE
NONAME
51 54 1 0 0 
SMALL
USER_CHARGES


@<TRIPOS>ATOM
  1 O       -2.2100    -0.7570     1.8360 O.2   1 <1>  -0.5700 
  2 C       -1.4700    -1.5620     1.3080 C.2   1 <1>   0.5440 
  3 N       -1.6550    -2.8840     1.5840 N.am  1 <1>  -0.7300 
  4 C       -0.4270    -1.1290     0.3920 C.ar  1 <1>   0.0860 
  5 C       -2.7630    -3.4550     2.4120 C.3   1 <1>   0.2010 
  6 C        0.1190     0.1520     0.4870 C.ar  1 <1>  -0.1500 
  7 C        0.0650    -1.9590    -0.6180 C.ar  1 <1>  -0.1500 
  8 C       -3.6940    -4.3580     1.5980 C.2   1 <1>   0.5690 
  9 C        1.1120     0.5830    -0.3720 C.ar  1 <1>  -0.1500 
 10 C        1.0600    -1.5350    -1.4810 C.ar  1 <1>  -0.1500 
 11 O       -3.3840    -5.5270     1.5330 O.2   1 <1>  -0.5700 
 12 N       -4.8170    -3.8750     0.9640 N.am  1 <1>  -0.6600 
 13 C        1.5870    -0.2630    -1.3580 C.ar  1 <1>  -0.1500 
 14 C       -5.2390    -2.4320     0.9280 C.3   1 <1>   0.1400 
 15 C       -5.7610    -4.7970     0.2700 C.3   1 <1>   0.1400 
 16 C       -5.4800    -1.9400    -0.5150 C.3   1 <1>   0.1440 
 17 C       -5.9620    -4.3520    -1.1820 C.3   1 <1>  -0.1600 
 18 C       -6.0340    -0.5280    -0.4620 C.ar  1 <1>   0.1670 
 19 C       -6.4420    -2.8940    -1.2550 C.3   1 <1>  -0.1600 
 20 C       -4.1430    -1.7540    -1.2850 C.3   1 <1>  -0.1600 
 21 N       -7.2400    -0.1980    -0.0500 N.ar  1 <1>  -0.6200 
 22 C       -5.1240     0.3910    -0.8880 C.ar  1 <1>  -0.1430 
 23 C       -3.8180    -0.2480    -1.2850 C.3   1 <1>  -0.0170 
 24 C       -7.4980     1.1010    -0.0940 C.ar  1 <1>   0.4770 
 25 C       -5.4970     1.7120    -0.8880 C.ar  1 <1>   0.1600 
 26 N       -6.6980     2.0810    -0.4920 N.ar  1 <1>  -0.6200 
 27 C       -8.8750     1.5190     0.3620 C.3   1 <1>  -0.0970 
 28 H       -1.0370    -3.5840     1.1690 H     1 <1>   0.3700 
 29 H       -3.3260    -2.6730     2.8850 H     1 <1>   0.0800 
 30 H       -2.3280    -4.0470     3.1970 H     1 <1>   0.0800 
 31 H       -0.2460     0.8170     1.2520 H     1 <1>   0.1500 
 32 H       -0.3370    -2.9490    -0.7410 H     1 <1>   0.1500 
 33 H        1.5170     1.5760    -0.2740 H     1 <1>   0.1500 
 34 H        1.4270    -2.1940    -2.2500 H     1 <1>   0.1500 
 35 H        2.3630     0.0690    -2.0270 H     1 <1>   0.1500 
 36 H       -4.5080    -1.7950     1.3890 H     1 <1>   0.0800 
 37 H       -6.1550    -2.3310     1.4850 H     1 <1>   0.0800 
 38 H       -6.7040    -4.7840     0.7890 H     1 <1>   0.0800 
 39 H       -5.3910    -5.8090     0.2850 H     1 <1>   0.0800 
 40 H       -6.6890    -4.9930    -1.6480 H     1 <1>   0.0800 
 41 H       -5.0350    -4.4700    -1.7140 H     1 <1>   0.0800 
 42 H       -6.5510    -2.5890    -2.2800 H     1 <1>   0.0800 
 43 H       -7.4150    -2.8300    -0.7970 H     1 <1>   0.0800 
 44 H       -4.2650    -2.0680    -2.3060 H     1 <1>   0.0800 
 45 H       -3.3440    -2.3290    -0.8540 H     1 <1>   0.0800 
 46 H       -3.4930     0.0860    -2.2550 H     1 <1>   0.0800 
 47 H       -3.0680    -0.0130    -0.5520 H     1 <1>   0.0800 
 48 H       -4.8080     2.4720    -1.2130 H     1 <1>   0.1500 
 49 H       -9.2710     0.7990     1.0530 H     1 <1>   0.0800 
 50 H       -9.5230     1.5870    -0.4900 H     1 <1>   0.0800 
 51 H       -8.8260     2.4770     0.8460 H     1 <1>   0.0800 
@<TRIPOS>BOND
  1   1   2  2   
  2   2   3  am  
  3   2   4  1   
  4   3   5  1   
  5   3  28  1   
  6   4   6  ar  
  7   4   7  ar  
  8   5   8  1   
  9   5  29  1   
 10   5  30  1   
 11   6   9  ar  
 12   6  31  1   
 13   7  10  ar  
 14   7  32  1   
 15   8  11  2   
 16   8  12  am  
 17   9  13  ar  
 18   9  33  1   
 19  10  13  ar  
 20  10  34  1   
 21  12  14  1   
 22  12  15  1   
 23  13  35  1   
 24  14  16  1   
 25  14  36  1   
 26  14  37  1   
 27  15  17  1   
 28  15  38  1   
 29  15  39  1   
 30  16  18  1   
 31  16  19  1   
 32  16  20  1   
 33  17  19  1   
 34  17  40  1   
 35  17  41  1   
 36  18  21  ar  
 37  18  22  ar  
 38  19  42  1   
 39  19  43  1   
 40  20  23  1   
 41  20  44  1   
 42  20  45  1   
 43  21  24  ar  
 44  22  23  1   
 45  22  25  ar  
 46  23  46  1   
 47  23  47  1   
 48  24  26  ar  
 49  24  27  1   
 50  25  26  ar  
 51  25  48  1   
 52  27  49  1   
 53  27  50  1   
 54  27  51  1   
@<TRIPOS>SUBSTRUCTURE
  1 ****  20 GROUP 4 **** **** 0

# MOE 2024.06 (io_trps.svl 2023.06)
