@<TRIPOS>MOLECULE
NONAME
48 50 1 0 0 
SMALL
USER_CHARGES


@<TRIPOS>ATOM
  1 O        0.0190     0.3400    -2.1270 O.2   1 <1>  -0.5700 
  2 C        0.9260    -0.2250    -1.5690 C.2   1 <1>   0.5690 
  3 N        1.9100     0.4080    -0.8640 N.am  1 <1>  -0.4940 
  4 C        0.9840    -1.7380    -1.6550 C.3   1 <1>  -0.0990 
  5 C        2.1840     1.7710    -0.6070 C.2   1 <1>  -0.0880 
  6 C        0.4010    -2.4020    -0.3960 C.3   1 <1>  -0.1600 
  7 N        1.3290     2.8310    -0.5690 N.pl3 1 <1>   0.3140 
  8 C        3.4200     2.2580    -0.3050 C.2   1 <1>  -0.0540 
  9 C        0.4110    -3.9330    -0.5100 C.3   1 <1>   0.0960 
 10 N        1.9780     3.9740    -0.2530 N.2   1 <1>  -0.7070 
 11 C       -0.1290     2.8620    -0.7410 C.3   1 <1>   0.0160 
 12 C        4.6590     1.5280    -0.2110 C.ar  1 <1>   0.0540 
 13 C        3.2130     3.6250    -0.1050 C.2   1 <1>   0.1080 
 14 N       -0.0820    -4.5520     0.7350 N.pl3 1 <1>   0.3140 
 15 C        5.1960     0.8930    -1.3260 C.ar  1 <1>  -0.1500 
 16 C        5.3460     1.4280     0.9960 C.ar  1 <1>  -0.1500 
 17 C        4.2900     4.6280     0.2430 C.3   1 <1>  -0.0590 
 18 N        0.6740    -4.6860     1.8140 N.2   1 <1>  -0.7070 
 19 C       -1.2920    -5.0570     0.9950 C.2   1 <1>   0.0360 
 20 C        6.3770     0.1800    -1.2390 C.ar  1 <1>  -0.1500 
 21 C        6.5280     0.7160     1.0910 C.ar  1 <1>  -0.1500 
 22 C       -0.1300    -5.2610     2.6470 C.2   1 <1>   0.3660 
 23 N       -1.3640    -5.5150     2.1920 N.2   1 <1>  -0.5650 
 24 C        7.0520     0.0840    -0.0340 C.ar  1 <1>   0.0830 
 25 O        8.2040    -0.6330    -0.0320 O.3   1 <1>  -0.3620 
 26 C        8.9710    -0.7840     1.1420 C.3   1 <1>   0.0400 
 27 H        2.6460    -0.2120    -0.5200 H     1 <1>   0.3700 
 28 H        2.0050    -2.0440    -1.7980 H     1 <1>   0.0800 
 29 H        0.4240    -2.0470    -2.5200 H     1 <1>   0.0800 
 30 H       -0.6110    -2.0600    -0.2540 H     1 <1>   0.0800 
 31 H        0.9820    -2.1070     0.4630 H     1 <1>   0.0800 
 32 H        1.4130    -4.2860    -0.6790 H     1 <1>   0.0800 
 33 H       -0.2100    -4.2540    -1.3260 H     1 <1>   0.0800 
 34 H       -0.5640     2.0120    -0.2510 H     1 <1>   0.0800 
 35 H       -0.3580     2.8400    -1.7890 H     1 <1>   0.0800 
 36 H       -0.5170     3.7650    -0.3070 H     1 <1>   0.0800 
 37 H        4.6800     0.9680    -2.2680 H     1 <1>   0.1500 
 38 H        4.9410     1.9130     1.8660 H     1 <1>   0.1500 
 39 H        5.2270     4.3360    -0.1920 H     1 <1>   0.0800 
 40 H        4.3950     4.6880     1.3100 H     1 <1>   0.0800 
 41 H        4.0170     5.5960    -0.1350 H     1 <1>   0.0800 
 42 H       -2.0920    -5.0690     0.2780 H     1 <1>   0.1500 
 43 H        6.7870    -0.3060    -2.1060 H     1 <1>   0.1500 
 44 H        7.0240     0.6630     2.0410 H     1 <1>   0.1500 
 45 H        0.1510    -5.5300     3.6530 H     1 <1>   0.1500 
 46 H        9.8310    -1.3840     0.9030 H     1 <1>   0.0800 
 47 H        8.3750    -1.2810     1.8870 H     1 <1>   0.0800 
 48 H        9.2850     0.1870     1.4810 H     1 <1>   0.0800 
@<TRIPOS>BOND
  1   1   2  2   
  2   2   3  am  
  3   2   4  1   
  4   3   5  1   
  5   3  27  1   
  6   4   6  1   
  7   4  28  1   
  8   4  29  1   
  9   5   7  1   
 10   5   8  2   
 11   6   9  1   
 12   6  30  1   
 13   6  31  1   
 14   7  10  1   
 15   7  11  1   
 16   8  12  1   
 17   8  13  1   
 18   9  14  1   
 19   9  32  1   
 20   9  33  1   
 21  10  13  2   
 22  11  34  1   
 23  11  35  1   
 24  11  36  1   
 25  12  15  ar  
 26  12  16  ar  
 27  13  17  1   
 28  14  18  1   
 29  14  19  1   
 30  15  20  ar  
 31  15  37  1   
 32  16  21  ar  
 33  16  38  1   
 34  17  39  1   
 35  17  40  1   
 36  17  41  1   
 37  18  22  2   
 38  19  23  2   
 39  19  42  1   
 40  20  24  ar  
 41  20  43  1   
 42  21  24  ar  
 43  21  44  1   
 44  22  23  1   
 45  22  45  1   
 46  24  25  1   
 47  25  26  1   
 48  26  46  1   
 49  26  47  1   
 50  26  48  1   
@<TRIPOS>SUBSTRUCTURE
  1 ****   3 GROUP 4 **** **** 0

# MOE 2024.06 (io_trps.svl 2023.06)
