@<TRIPOS>MOLECULE
NONAME
46 48 1 0 0 
SMALL
USER_CHARGES


@<TRIPOS>ATOM
  1 F       -2.9540    -0.8010     2.7350 F     1 <1>  -0.1900 
  2 C       -2.9870    -1.1660     1.4780 C.ar  1 <1>   0.1900 
  3 C       -3.2100    -0.2130     0.4900 C.ar  1 <1>   0.0830 
  4 C       -2.8000    -2.5040     1.1910 C.ar  1 <1>  -0.1500 
  5 O       -3.3910     1.0860     0.8560 O.3   1 <1>  -0.3630 
  6 C       -3.2380    -0.6460    -0.8340 C.ar  1 <1>  -0.1500 
  7 C       -2.8490    -2.9270    -0.1320 C.ar  1 <1>  -0.1430 
  8 C       -3.4810     2.1190    -0.1000 C.3   1 <1>   0.0400 
  9 C       -3.0590    -1.9880    -1.1350 C.ar  1 <1>  -0.1500 
 10 C       -2.6910    -4.4060    -0.4890 C.3   1 <1>   0.4610 
 11 N       -3.9020    -5.1620     0.0370 N.4   1 <1>  -0.9590 
 12 C       -1.3580    -5.0010     0.0210 C.2   1 <1>   0.9060 
 13 C       -3.7830    -6.6070    -0.3030 C.3   1 <1>   0.3430 
 14 C       -5.2050    -4.5410    -0.3110 C.3   1 <1>   0.3430 
 15 O       -1.3400    -5.4330     1.1840 O.co2 1 <1>  -0.9000 
 16 O       -0.4350    -5.1790    -0.7770 O.co2 1 <1>  -0.9000 
 17 C       -4.9170    -7.3910     0.3530 C.3   1 <1>  -0.1600 
 18 C       -6.3380    -5.3160     0.3530 C.3   1 <1>  -0.1600 
 19 C       -6.2940    -6.8120     0.0020 C.3   1 <1>   0.1000 
 20 C       -7.3810    -7.5770     0.7510 C.2   1 <1>   0.0060 
 21 N       -7.6690    -7.3740     1.9920 N.2   1 <1>  -0.3380 
 22 N       -8.1470    -8.5430     0.2270 N.pl3 1 <1>   0.0480 
 23 N       -8.6510    -8.2140     2.3140 N.2   1 <1>  -0.3380 
 24 C       -8.9180    -8.8960     1.2560 C.2   1 <1>   0.0360 
 25 C       -8.1700    -9.1130    -1.1340 C.3   1 <1>   0.0160 
 26 H       -2.6130    -3.1950     1.9970 H     1 <1>   0.1500 
 27 H       -3.3960     0.0460    -1.6400 H     1 <1>   0.1500 
 28 H       -3.5640     3.0520     0.4260 H     1 <1>   0.0800 
 29 H       -4.3560     1.9620    -0.7050 H     1 <1>   0.0800 
 30 H       -2.5880     2.1170    -0.7010 H     1 <1>   0.0800 
 31 H       -3.0790    -2.2950    -2.1680 H     1 <1>   0.1500 
 32 H       -2.6610    -4.4940    -1.5600 H     1 <1>   0.0800 
 33 H       -3.7480    -5.1180     1.0590 H     1 <1>   0.4500 
 34 H       -2.8370    -6.9920     0.0510 H     1 <1>   0.0800 
 35 H       -3.8190    -6.7330    -1.3730 H     1 <1>   0.0800 
 36 H       -5.3350    -4.5490    -1.3810 H     1 <1>   0.0800 
 37 H       -5.2290    -3.5170     0.0270 H     1 <1>   0.0800 
 38 H       -4.7770    -7.3770     1.4200 H     1 <1>   0.0800 
 39 H       -4.8620    -8.4170     0.0380 H     1 <1>   0.0800 
 40 H       -7.2820    -4.9030     0.0430 H     1 <1>   0.0800 
 41 H       -6.2650    -5.1820     1.4190 H     1 <1>   0.0800 
 42 H       -6.4560    -6.9140    -1.0570 H     1 <1>   0.0800 
 43 H       -9.6710    -9.6610     1.1990 H     1 <1>   0.1500 
 44 H       -7.1950    -9.4950    -1.3780 H     1 <1>   0.0800 
 45 H       -8.4500    -8.3500    -1.8370 H     1 <1>   0.0800 
 46 H       -8.8850    -9.9150    -1.1780 H     1 <1>   0.0800 
@<TRIPOS>BOND
  1   1   2  1   
  2   2   3  ar  
  3   2   4  ar  
  4   3   5  1   
  5   3   6  ar  
  6   4   7  ar  
  7   4  26  1   
  8   5   8  1   
  9   6   9  ar  
 10   6  27  1   
 11   7   9  ar  
 12   7  10  1   
 13   8  28  1   
 14   8  29  1   
 15   8  30  1   
 16   9  31  1   
 17  10  11  1   
 18  10  12  1   
 19  10  32  1   
 20  11  13  1   
 21  11  14  1   
 22  11  33  1   
 23  12  15  ar  
 24  12  16  ar  
 25  13  17  1   
 26  13  34  1   
 27  13  35  1   
 28  14  18  1   
 29  14  36  1   
 30  14  37  1   
 31  17  19  1   
 32  17  38  1   
 33  17  39  1   
 34  18  19  1   
 35  18  40  1   
 36  18  41  1   
 37  19  20  1   
 38  19  42  1   
 39  20  21  2   
 40  20  22  1   
 41  21  23  1   
 42  22  24  1   
 43  22  25  1   
 44  23  24  2   
 45  24  43  1   
 46  25  44  1   
 47  25  45  1   
 48  25  46  1   
@<TRIPOS>SUBSTRUCTURE
  1 ****  11 GROUP 4 **** **** 0

# MOE 2024.06 (io_trps.svl 2023.06)
