@<TRIPOS>MOLECULE
NONAME
46 48 1 0 0 
SMALL
USER_CHARGES


@<TRIPOS>ATOM
  1 O        1.6950    -1.4090     1.0480 O.3   1 <1>  -0.5600 
  2 C        0.2990    -1.4500     1.0440 C.3   1 <1>   0.1200 
  3 C        2.2870    -1.3060    -0.2040 C.3   1 <1>   0.1200 
  4 C       -0.2150    -2.8460     0.6520 C.3   1 <1>   0.1900 
  5 C        2.2130    -2.6390    -0.9650 C.3   1 <1>  -0.0800 
  6 N       -0.3050    -3.0030    -0.8330 N.3   1 <1>  -0.8100 
  7 C        0.6280    -3.9410     1.3540 C.3   1 <1>   0.3430 
  8 C        0.8750    -2.8320    -1.7030 C.3   1 <1>   0.1100 
  9 C        2.6560    -3.8340    -0.0980 C.3   1 <1>   0.3430 
 10 C       -1.4030    -3.8340    -1.3670 C.3   1 <1>   0.2540 
 11 N        1.5250    -4.6680     0.4040 N.4   1 <1>  -0.9590 
 12 C       -1.2100    -5.2870    -0.9590 C.ar  1 <1>  -0.1440 
 13 C        1.9780    -5.9790     0.9460 C.3   1 <1>   0.2630 
 14 C       -0.3310    -6.1030    -1.6560 C.ar  1 <1>  -0.1500 
 15 C       -1.9010    -5.8070     0.1280 C.ar  1 <1>  -0.1500 
 16 C       -0.1110    -7.3990    -1.2320 C.ar  1 <1>   0.0820 
 17 C       -1.6990    -7.1160     0.5370 C.ar  1 <1>  -0.1500 
 18 O        0.7850    -8.1580    -1.8820 O.3   1 <1>  -0.5330 
 19 C       -0.7910    -7.9240    -0.1380 C.ar  1 <1>   0.0820 
 20 O       -0.5140    -9.2100     0.2160 O.3   1 <1>  -0.3620 
 21 C       -1.3670    -9.9170     1.0920 C.3   1 <1>   0.0400 
 22 H       -0.0160    -1.2270     2.0490 H     1 <1>   0.0800 
 23 H       -0.0930    -0.6880     0.3920 H     1 <1>   0.0800 
 24 H        1.8210    -0.5050    -0.7540 H     1 <1>   0.0800 
 25 H        3.3170    -1.0410    -0.0360 H     1 <1>   0.0800 
 26 H       -1.2150    -2.9050     1.0450 H     1 <1>   0.0800 
 27 H        2.9550    -2.5490    -1.7380 H     1 <1>   0.0800 
 28 H       -0.0550    -4.6450     1.7980 H     1 <1>   0.0800 
 29 H        1.2060    -3.5000     2.1500 H     1 <1>   0.0800 
 30 H        0.9670    -3.6820    -2.3560 H     1 <1>   0.0800 
 31 H        0.6990    -1.9760    -2.3330 H     1 <1>   0.0800 
 32 H        3.2400    -3.4730     0.7330 H     1 <1>   0.0800 
 33 H        3.2950    -4.4590    -0.7000 H     1 <1>   0.0800 
 34 H       -2.3430    -3.4670    -0.9900 H     1 <1>   0.0800 
 35 H       -1.4350    -3.7530    -2.4410 H     1 <1>   0.0800 
 36 H        0.8970    -4.8360    -0.4050 H     1 <1>   0.4500 
 37 H        2.6190    -5.8320     1.7990 H     1 <1>   0.0800 
 38 H        2.5180    -6.5270     0.1910 H     1 <1>   0.0800 
 39 H        1.1270    -6.5700     1.2460 H     1 <1>   0.0800 
 40 H        0.1910    -5.7510    -2.5270 H     1 <1>   0.1500 
 41 H       -2.6070    -5.1940     0.6620 H     1 <1>   0.1500 
 42 H       -2.2540    -7.4860     1.3800 H     1 <1>   0.1500 
 43 H        0.7430    -9.0790    -1.5510 H     1 <1>   0.4500 
 44 H       -1.0320   -10.9380     1.1370 H     1 <1>   0.0800 
 45 H       -2.3720    -9.8810     0.7080 H     1 <1>   0.0800 
 46 H       -1.3130    -9.4740     2.0710 H     1 <1>   0.0800 
@<TRIPOS>BOND
  1   1   2  1   
  2   1   3  1   
  3   2   4  1   
  4   2  22  1   
  5   2  23  1   
  6   3   5  1   
  7   3  24  1   
  8   3  25  1   
  9   4   6  1   
 10   4   7  1   
 11   4  26  1   
 12   5   8  1   
 13   5   9  1   
 14   5  27  1   
 15   6   8  1   
 16   6  10  1   
 17   7  11  1   
 18   7  28  1   
 19   7  29  1   
 20   8  30  1   
 21   8  31  1   
 22   9  11  1   
 23   9  32  1   
 24   9  33  1   
 25  10  12  1   
 26  10  34  1   
 27  10  35  1   
 28  11  13  1   
 29  11  36  1   
 30  12  14  ar  
 31  12  15  ar  
 32  13  37  1   
 33  13  38  1   
 34  13  39  1   
 35  14  16  ar  
 36  14  40  1   
 37  15  17  ar  
 38  15  41  1   
 39  16  18  1   
 40  16  19  ar  
 41  17  19  ar  
 42  17  42  1   
 43  18  43  1   
 44  19  20  1   
 45  20  21  1   
 46  21  44  1   
 47  21  45  1   
 48  21  46  1   
@<TRIPOS>SUBSTRUCTURE
  1 ****  11 GROUP 4 **** **** 0

# MOE 2024.06 (io_trps.svl 2023.06)
