@<TRIPOS>MOLECULE
NONAME
64 66 1 0 0 
SMALL
USER_CHARGES


@<TRIPOS>ATOM
  1 O        1.4580    -0.3770    -2.8800 O.2   1 <1>  -0.5700 
  2 C        1.6550    -1.2290    -2.0480 C.2   1 <1>   0.5690 
  3 N        2.5160    -0.9940    -1.0060 N.am  1 <1>  -0.6600 
  4 C        0.8840    -2.5230    -2.2520 C.3   1 <1>  -0.0990 
  5 C        2.7400    -1.9300     0.1370 C.3   1 <1>   0.1400 
  6 C        3.2910     0.3050    -0.9350 C.3   1 <1>   0.2010 
  7 C        1.1070    -3.6820    -1.2790 C.3   1 <1>   0.1200 
  8 C        3.2710    -3.3300    -0.2720 C.3   1 <1>   0.2800 
  9 C        3.2030     1.0210     0.4170 C.2   1 <1>   0.5690 
 10 O        2.4670    -3.9880    -1.2090 O.3   1 <1>  -0.5600 
 11 C        4.6590    -3.2270    -0.9480 C.3   1 <1>  -0.1600 
 12 C        3.3110    -4.2460     0.9650 C.3   1 <1>  -0.1600 
 13 O        4.1110     0.8230     1.1950 O.2   1 <1>  -0.5700 
 14 N        2.1350     1.8290     0.7380 N.am  1 <1>  -0.6600 
 15 C        5.7930    -3.5410     0.0200 C.3   1 <1>   0.3430 
 16 C        4.2440    -5.4230     0.7070 C.3   1 <1>   0.3430 
 17 C        2.0890     2.5910     2.0170 C.3   1 <1>   0.0600 
 18 C        0.9490     2.0440    -0.1410 C.3   1 <1>   0.0600 
 19 N        5.6480    -4.9370     0.5400 N.4   1 <1>  -0.9590 
 20 C        6.4800    -5.1610     1.7510 C.3   1 <1>   0.4860 
 21 C        7.9350    -4.9300     1.3920 C.ar  1 <1>  -0.1440 
 22 C        8.5430    -5.7040     0.4070 C.ar  1 <1>   0.0820 
 23 C        8.6540    -3.9420     2.0480 C.ar  1 <1>  -0.1500 
 24 O        7.7570    -6.6650    -0.1670 O.3   1 <1>  -0.3620 
 25 C        9.8800    -5.4550     0.0530 C.ar  1 <1>   0.0820 
 26 C        9.9750    -3.7140     1.7190 C.ar  1 <1>  -0.1500 
 27 C        8.3020    -7.9130    -0.5510 C.3   1 <1>   0.0400 
 28 O       10.4540    -6.1670    -0.9590 O.3   1 <1>  -0.3630 
 29 C       10.5850    -4.4610     0.7280 C.ar  1 <1>  -0.1500 
 30 C       11.7930    -5.9660    -1.3620 C.3   1 <1>   0.0400 
 31 H        1.1110    -2.8760    -3.2410 H     1 <1>   0.0800 
 32 H       -0.1610    -2.2780    -2.2470 H     1 <1>   0.0800 
 33 H        1.8300    -2.0150     0.7040 H     1 <1>   0.0800 
 34 H        3.4650    -1.5090     0.8090 H     1 <1>   0.0800 
 35 H        2.9690     0.9880    -1.7000 H     1 <1>   0.0800 
 36 H        4.3260     0.0950    -1.1300 H     1 <1>   0.0800 
 37 H        0.6060    -4.5550    -1.6610 H     1 <1>   0.0800 
 38 H        0.7100    -3.4800    -0.3000 H     1 <1>   0.0800 
 39 H        4.8150    -2.2430    -1.3470 H     1 <1>   0.0800 
 40 H        4.7270    -3.9110    -1.7770 H     1 <1>   0.0800 
 41 H        2.3230    -4.6080     1.1850 H     1 <1>   0.0800 
 42 H        3.6550    -3.7100     1.8310 H     1 <1>   0.0800 
 43 H        5.7600    -2.8390     0.8370 H     1 <1>   0.0800 
 44 H        6.7450    -3.4330    -0.4770 H     1 <1>   0.0800 
 45 H        3.9250    -5.9140    -0.2000 H     1 <1>   0.0800 
 46 H        4.1840    -6.1360     1.5130 H     1 <1>   0.0800 
 47 H        3.0060     2.4760     2.5690 H     1 <1>   0.0800 
 48 H        1.2760     2.2340     2.6240 H     1 <1>   0.0800 
 49 H        1.9450     3.6380     1.8120 H     1 <1>   0.0800 
 50 H        0.8790     1.2910    -0.9040 H     1 <1>   0.0800 
 51 H        1.0180     3.0100    -0.6110 H     1 <1>   0.0800 
 52 H        0.0490     2.0060     0.4480 H     1 <1>   0.0800 
 53 H        6.1070    -5.5520    -0.1580 H     1 <1>   0.4500 
 54 H        6.3640    -6.1770     2.0930 H     1 <1>   0.0800 
 55 H        6.1790    -4.4930     2.5410 H     1 <1>   0.0800 
 56 H        8.2000    -3.3430     2.8200 H     1 <1>   0.1500 
 57 H       10.5360    -2.9500     2.2330 H     1 <1>   0.1500 
 58 H        7.5100    -8.6390    -0.5760 H     1 <1>   0.0800 
 59 H        9.0510    -8.2100     0.1630 H     1 <1>   0.0800 
 60 H        8.7340    -7.8190    -1.5320 H     1 <1>   0.0800 
 61 H       11.6120    -4.2460     0.4990 H     1 <1>   0.1500 
 62 H       12.0060    -6.6480    -2.1650 H     1 <1>   0.0800 
 63 H       12.4440    -6.1700    -0.5300 H     1 <1>   0.0800 
 64 H       11.9080    -4.9530    -1.7050 H     1 <1>   0.0800 
@<TRIPOS>BOND
  1   1   2  2   
  2   2   3  am  
  3   2   4  1   
  4   3   5  1   
  5   3   6  1   
  6   4   7  1   
  7   4  31  1   
  8   4  32  1   
  9   5   8  1   
 10   5  33  1   
 11   5  34  1   
 12   6   9  1   
 13   6  35  1   
 14   6  36  1   
 15   7  10  1   
 16   7  37  1   
 17   7  38  1   
 18   8  10  1   
 19   8  11  1   
 20   8  12  1   
 21   9  13  2   
 22   9  14  am  
 23  11  15  1   
 24  11  39  1   
 25  11  40  1   
 26  12  16  1   
 27  12  41  1   
 28  12  42  1   
 29  14  17  1   
 30  14  18  1   
 31  15  19  1   
 32  15  43  1   
 33  15  44  1   
 34  16  19  1   
 35  16  45  1   
 36  16  46  1   
 37  17  47  1   
 38  17  48  1   
 39  17  49  1   
 40  18  50  1   
 41  18  51  1   
 42  18  52  1   
 43  19  20  1   
 44  19  53  1   
 45  20  21  1   
 46  20  54  1   
 47  20  55  1   
 48  21  22  ar  
 49  21  23  ar  
 50  22  24  1   
 51  22  25  ar  
 52  23  26  ar  
 53  23  56  1   
 54  24  27  1   
 55  25  28  1   
 56  25  29  ar  
 57  26  29  ar  
 58  26  57  1   
 59  27  58  1   
 60  27  59  1   
 61  27  60  1   
 62  28  30  1   
 63  29  61  1   
 64  30  62  1   
 65  30  63  1   
 66  30  64  1   
@<TRIPOS>SUBSTRUCTURE
  1 ****  15 GROUP 4 **** **** 0

# MOE 2024.06 (io_trps.svl 2023.06)
