@<TRIPOS>MOLECULE
NONAME
44 45 1 0 0 
SMALL
USER_CHARGES


@<TRIPOS>ATOM
  1 S       -0.0360     0.2670    -0.9840 S.o2  1 <1>   1.3330 
  2 O       -0.6930    -0.9230    -1.4750 O.2   1 <1>  -0.6500 
  3 O        0.4720     1.2430    -1.9230 O.2   1 <1>  -0.6500 
  4 N        1.2550    -0.2420    -0.0020 N.am  1 <1>  -0.8490 
  5 C       -1.1250     1.0860     0.1920 C.3   1 <1>  -0.0550 
  6 C        2.5370    -0.2500    -0.7150 C.3   1 <1>   0.1160 
  7 C        1.0310    -1.5450     0.6330 C.3   1 <1>   0.1160 
  8 C       -0.7780     2.5390     0.5870 C.3   1 <1>  -0.0800 
  9 C       -1.1000     3.5620    -0.5030 C.3   1 <1>   0.2000 
 10 C        0.6790     2.8250     0.9620 C.3   1 <1>   0.1400 
 11 O       -2.4430     3.9030    -0.4300 O.3   1 <1>  -0.6800 
 12 C       -0.2030     4.7680    -0.2180 C.3   1 <1>   0.1400 
 13 N        0.8810     4.2620     0.6640 N.am  1 <1>  -0.6600 
 14 C        2.1240     4.8400     0.7540 C.2   1 <1>   0.7150 
 15 O        3.0490     4.1720     1.1790 O.2   1 <1>  -0.5700 
 16 C        2.3450     6.1970     0.3390 C.2   1 <1>  -0.2370 
 17 N        3.4660     6.6220    -0.2960 N.pl3 1 <1>   0.3140 
 18 C        1.5630     7.3060     0.4630 C.2   1 <1>  -0.1500 
 19 N        3.4160     7.9300    -0.5940 N.2   1 <1>  -0.7070 
 20 C        4.6400     5.8170    -0.6740 C.3   1 <1>   0.0160 
 21 C        2.2660     8.3410    -0.1300 C.2   1 <1>   0.1080 
 22 C        1.7610     9.7860    -0.2290 C.3   1 <1>   0.7810 
 23 F        1.4110    10.2400     0.9720 F     1 <1>  -0.3400 
 24 F        0.6390     9.8380    -0.9430 F     1 <1>  -0.3400 
 25 H       -2.1160     1.0940    -0.2200 H     1 <1>   0.0800 
 26 H       -1.1660     0.4920     1.0830 H     1 <1>   0.0800 
 27 H        3.3290    -0.5620    -0.0560 H     1 <1>   0.0800 
 28 H        2.7700     0.7400    -1.0700 H     1 <1>   0.0800 
 29 H        2.4920    -0.9190    -1.5590 H     1 <1>   0.0800 
 30 H        1.8310    -1.7650     1.3200 H     1 <1>   0.0800 
 31 H        0.9840    -2.3240    -0.1110 H     1 <1>   0.0800 
 32 H        0.1050    -1.5380     1.1820 H     1 <1>   0.0800 
 33 H       -1.3600     2.7870     1.4570 H     1 <1>   0.0800 
 34 H       -0.9030     3.1890    -1.4920 H     1 <1>   0.0800 
 35 H        1.3720     2.2660     0.3620 H     1 <1>   0.0800 
 36 H        0.8720     2.6220     2.0020 H     1 <1>   0.0800 
 37 H       -2.6510     4.3010     0.4360 H     1 <1>   0.4000 
 38 H       -0.7500     5.5380     0.2950 H     1 <1>   0.0800 
 39 H        0.2070     5.1530    -1.1360 H     1 <1>   0.0800 
 40 H        0.5970     7.3910     0.9270 H     1 <1>   0.1500 
 41 H        4.3170     4.9540    -1.2250 H     1 <1>   0.0800 
 42 H        5.1540     5.5070     0.2170 H     1 <1>   0.0800 
 43 H        5.2980     6.4090    -1.2820 H     1 <1>   0.0800 
 44 H        2.4740    10.4650    -0.6590 H     1 <1>   0.0800 
@<TRIPOS>BOND
  1   1   2  2   
  2   1   3  2   
  3   1   4  am  
  4   1   5  1   
  5   4   6  1   
  6   4   7  1   
  7   5   8  1   
  8   5  25  1   
  9   5  26  1   
 10   6  27  1   
 11   6  28  1   
 12   6  29  1   
 13   7  30  1   
 14   7  31  1   
 15   7  32  1   
 16   8   9  1   
 17   8  10  1   
 18   8  33  1   
 19   9  11  1   
 20   9  12  1   
 21   9  34  1   
 22  10  13  1   
 23  10  35  1   
 24  10  36  1   
 25  11  37  1   
 26  12  13  1   
 27  12  38  1   
 28  12  39  1   
 29  13  14  am  
 30  14  15  2   
 31  14  16  1   
 32  16  17  1   
 33  16  18  2   
 34  17  19  1   
 35  17  20  1   
 36  18  21  1   
 37  18  40  1   
 38  19  21  2   
 39  20  41  1   
 40  20  42  1   
 41  20  43  1   
 42  21  22  1   
 43  22  23  1   
 44  22  24  1   
 45  22  44  1   
@<TRIPOS>SUBSTRUCTURE
  1 ****  13 GROUP 4 **** **** 0

# MOE 2024.06 (io_trps.svl 2023.06)
