@<TRIPOS>MOLECULE
NONAME
48 50 1 0 0 
SMALL
USER_CHARGES


@<TRIPOS>ATOM
  1 O       -1.2410    -0.3490     0.4190 O.3   1 <1>  -0.5600 
  2 C       -2.2720    -0.4640     1.3660 C.3   1 <1>   0.1200 
  3 C       -1.5610    -0.7690    -0.8770 C.3   1 <1>   0.1200 
  4 C       -3.2680     0.7140     1.2310 C.3   1 <1>   0.4230 
  5 C       -2.6990     0.0490    -1.5390 C.3   1 <1>  -0.0800 
  6 N       -2.6480     1.7600     0.3380 N.4   1 <1>  -0.9590 
  7 C       -4.6790     0.2610     0.7900 C.3   1 <1>   0.2090 
  8 C       -4.0690    -0.6470    -1.5430 C.3   1 <1>   0.2090 
  9 C       -2.8340     1.5220    -1.1230 C.3   1 <1>   0.3430 
 10 C       -2.9780     3.1580     0.7350 C.3   1 <1>   0.2630 
 11 N       -4.7260    -0.8480    -0.2180 N.pl3 1 <1>  -0.8380 
 12 C       -5.9830    -1.4110    -0.3290 C.ar  1 <1>   0.4100 
 13 N       -6.8900    -0.5990    -0.8370 N.ar  1 <1>  -0.6200 
 14 C       -6.3100    -2.7130     0.0520 C.ar  1 <1>  -0.1430 
 15 C       -8.1030    -1.0900    -0.9800 C.ar  1 <1>   0.4770 
 16 C       -7.6140    -3.0920    -0.1510 C.ar  1 <1>   0.1600 
 17 C       -5.3620    -3.7380     0.6860 C.3   1 <1>   0.0630 
 18 N       -8.5250    -2.2960    -0.6680 N.ar  1 <1>  -0.6200 
 19 C       -9.1420    -0.1670    -1.5710 C.3   1 <1>  -0.0970 
 20 C       -5.0170    -3.3540     2.1270 C.3   1 <1>  -0.2400 
 21 C       -4.1050    -4.0020    -0.1470 C.3   1 <1>  -0.2400 
 22 H       -2.7430    -1.4240     1.2660 H     1 <1>   0.0800 
 23 H       -1.8150    -0.4270     2.3390 H     1 <1>   0.0800 
 24 H       -0.6610    -0.6570    -1.4580 H     1 <1>   0.0800 
 25 H       -1.7990    -1.8180    -0.8500 H     1 <1>   0.0800 
 26 H       -3.3810     1.1410     2.2130 H     1 <1>   0.0800 
 27 H       -2.4420     0.0780    -2.5830 H     1 <1>   0.0800 
 28 H       -1.6370     1.5730     0.4850 H     1 <1>   0.4500 
 29 H       -5.2350     1.1060     0.4240 H     1 <1>   0.0800 
 30 H       -5.1920    -0.0880     1.6700 H     1 <1>   0.0800 
 31 H       -3.9610    -1.6140    -2.0070 H     1 <1>   0.0800 
 32 H       -4.7360    -0.0820    -2.1730 H     1 <1>   0.0800 
 33 H       -3.8070     1.8760    -1.4260 H     1 <1>   0.0800 
 34 H       -2.0970     2.0970    -1.6600 H     1 <1>   0.0800 
 35 H       -4.0300     3.3500     0.5940 H     1 <1>   0.0800 
 36 H       -2.4170     3.8580     0.1370 H     1 <1>   0.0800 
 37 H       -2.7320     3.3220     1.7720 H     1 <1>   0.0800 
 38 H       -7.9410    -4.0820     0.1180 H     1 <1>   0.1500 
 39 H       -5.8820    -4.6800     0.7380 H     1 <1>   0.0800 
 40 H       -9.5090    -0.5870    -2.4880 H     1 <1>   0.0800 
 41 H       -8.7230     0.8010    -1.7700 H     1 <1>   0.0800 
 42 H       -9.9590    -0.0620    -0.8820 H     1 <1>   0.0800 
 43 H       -4.5030    -2.4150     2.1600 H     1 <1>   0.0800 
 44 H       -4.3930    -4.1070     2.5750 H     1 <1>   0.0800 
 45 H       -5.9180    -3.2690     2.7080 H     1 <1>   0.0800 
 46 H       -3.4460    -3.1590    -0.1240 H     1 <1>   0.0800 
 47 H       -4.3760    -4.2080    -1.1680 H     1 <1>   0.0800 
 48 H       -3.5760    -4.8540     0.2430 H     1 <1>   0.0800 
@<TRIPOS>BOND
  1   1   2  1   
  2   1   3  1   
  3   2   4  1   
  4   2  22  1   
  5   2  23  1   
  6   3   5  1   
  7   3  24  1   
  8   3  25  1   
  9   4   6  1   
 10   4   7  1   
 11   4  26  1   
 12   5   8  1   
 13   5   9  1   
 14   5  27  1   
 15   6   9  1   
 16   6  10  1   
 17   6  28  1   
 18   7  11  1   
 19   7  29  1   
 20   7  30  1   
 21   8  11  1   
 22   8  31  1   
 23   8  32  1   
 24   9  33  1   
 25   9  34  1   
 26  10  35  1   
 27  10  36  1   
 28  10  37  1   
 29  11  12  1   
 30  12  13  ar  
 31  12  14  ar  
 32  13  15  ar  
 33  14  16  ar  
 34  14  17  1   
 35  15  18  ar  
 36  15  19  1   
 37  16  18  ar  
 38  16  38  1   
 39  17  20  1   
 40  17  21  1   
 41  17  39  1   
 42  19  40  1   
 43  19  41  1   
 44  19  42  1   
 45  20  43  1   
 46  20  44  1   
 47  20  45  1   
 48  21  46  1   
 49  21  47  1   
 50  21  48  1   
@<TRIPOS>SUBSTRUCTURE
  1 ****  11 GROUP 4 **** **** 0

# MOE 2024.06 (io_trps.svl 2023.06)
