@<TRIPOS>MOLECULE
NONAME
52 54 1 0 0 
SMALL
USER_CHARGES


@<TRIPOS>ATOM
  1 CL       0.3800     1.6830     2.1290 Cl    1 <1>  -0.1770 
  2 C       -1.2310     2.0640     1.5780 C.ar  1 <1>   0.1770 
  3 C       -1.9880     2.9820     2.2750 C.ar  1 <1>  -0.1500 
  4 C       -1.7290     1.4410     0.4520 C.ar  1 <1>  -0.1500 
  5 C       -3.2660     3.2780     1.8320 C.ar  1 <1>  -0.1500 
  6 C       -3.0080     1.7420     0.0150 C.ar  1 <1>  -0.1500 
  7 C       -3.8000     2.6660     0.6990 C.ar  1 <1>  -0.1430 
  8 C       -5.2320     3.0670     0.2620 C.3   1 <1>   0.2040 
  9 C       -5.2250     4.6090     0.0830 C.2   1 <1>   0.5690 
 10 C       -5.6530     2.3960    -1.0750 C.3   1 <1>  -0.1600 
 11 C       -6.2190     2.5800     1.3600 C.3   1 <1>  -0.1600 
 12 O       -5.9480     5.3270     0.7350 O.2   1 <1>  -0.5700 
 13 N       -4.3280     5.1520    -0.7890 N.am  1 <1>  -0.7300 
 14 C       -7.1160     2.6760    -1.4490 C.3   1 <1>  -0.1600 
 15 C       -7.7080     2.7610     1.0050 C.3   1 <1>  -0.1600 
 16 C       -4.0770     6.6000    -0.9420 C.3   1 <1>   0.1400 
 17 C       -8.0530     2.1510    -0.3570 C.3   1 <1>  -0.1600 
 18 C       -3.0020     7.0390     0.0590 C.3   1 <1>  -0.0800 
 19 C       -2.6910     8.5410    -0.0380 C.3   1 <1>   0.1400 
 20 C       -1.6520     6.3130    -0.1200 C.3   1 <1>  -0.0990 
 21 N       -1.2280     8.6140     0.1100 N.am  1 <1>  -0.6600 
 22 C       -0.6370     7.3980     0.0940 C.2   1 <1>   0.5690 
 23 C       -0.5310     9.9000     0.3250 C.3   1 <1>   0.1400 
 24 O        0.5410     7.1770     0.2250 O.2   1 <1>  -0.5700 
 25 C       -0.5600    10.7220    -0.9610 C.3   1 <1>  -0.2400 
 26 H       -1.5810     3.4580     3.1490 H     1 <1>   0.1500 
 27 H       -1.1190     0.7280    -0.0730 H     1 <1>   0.1500 
 28 H       -3.8450     4.0000     2.3840 H     1 <1>   0.1500 
 29 H       -3.3570     1.2360    -0.8650 H     1 <1>   0.1500 
 30 H       -5.5460     1.3300    -0.9860 H     1 <1>   0.0800 
 31 H       -5.0160     2.7280    -1.8750 H     1 <1>   0.0800 
 32 H       -6.0240     3.0980     2.2810 H     1 <1>   0.0800 
 33 H       -6.0390     1.5340     1.5380 H     1 <1>   0.0800 
 34 H       -3.6330     4.5320    -1.2090 H     1 <1>   0.3700 
 35 H       -7.3500     2.1910    -2.3820 H     1 <1>   0.0800 
 36 H       -7.2710     3.7340    -1.5810 H     1 <1>   0.0800 
 37 H       -7.9540     3.8090     0.9920 H     1 <1>   0.0800 
 38 H       -8.3150     2.3020     1.7670 H     1 <1>   0.0800 
 39 H       -4.9900     7.1430    -0.7570 H     1 <1>   0.0800 
 40 H       -3.7610     6.8030    -1.9510 H     1 <1>   0.0800 
 41 H       -7.9700     1.0790    -0.2980 H     1 <1>   0.0800 
 42 H       -9.0720     2.3890    -0.6090 H     1 <1>   0.0800 
 43 H       -3.3670     6.8530     1.0550 H     1 <1>   0.0800 
 44 H       -3.1820     9.0920     0.7470 H     1 <1>   0.0800 
 45 H       -2.9700     8.9420    -0.9970 H     1 <1>   0.0800 
 46 H       -1.5290     5.9270    -1.1140 H     1 <1>   0.0800 
 47 H       -1.5240     5.5260     0.5990 H     1 <1>   0.0800 
 48 H        0.4910     9.7080     0.6080 H     1 <1>   0.0800 
 49 H       -1.0080    10.4380     1.1270 H     1 <1>   0.0800 
 50 H       -0.0970    10.1690    -1.7590 H     1 <1>   0.0800 
 51 H       -0.0110    11.6350    -0.8160 H     1 <1>   0.0800 
 52 H       -1.5690    10.9710    -1.2310 H     1 <1>   0.0800 
@<TRIPOS>BOND
  1   1   2  1   
  2   2   3  ar  
  3   2   4  ar  
  4   3   5  ar  
  5   3  26  1   
  6   4   6  ar  
  7   4  27  1   
  8   5   7  ar  
  9   5  28  1   
 10   6   7  ar  
 11   6  29  1   
 12   7   8  1   
 13   8   9  1   
 14   8  10  1   
 15   8  11  1   
 16   9  12  2   
 17   9  13  am  
 18  10  14  1   
 19  10  30  1   
 20  10  31  1   
 21  11  15  1   
 22  11  32  1   
 23  11  33  1   
 24  13  16  1   
 25  13  34  1   
 26  14  17  1   
 27  14  35  1   
 28  14  36  1   
 29  15  17  1   
 30  15  37  1   
 31  15  38  1   
 32  16  18  1   
 33  16  39  1   
 34  16  40  1   
 35  17  41  1   
 36  17  42  1   
 37  18  19  1   
 38  18  20  1   
 39  18  43  1   
 40  19  21  1   
 41  19  44  1   
 42  19  45  1   
 43  20  22  1   
 44  20  46  1   
 45  20  47  1   
 46  21  22  am  
 47  21  23  1   
 48  22  24  2   
 49  23  25  1   
 50  23  48  1   
 51  23  49  1   
 52  25  50  1   
 53  25  51  1   
 54  25  52  1   
@<TRIPOS>SUBSTRUCTURE
  1 ****  13 GROUP 4 **** **** 0

# MOE 2024.06 (io_trps.svl 2023.06)
