@<TRIPOS>MOLECULE
NONAME
47 49 1 0 0 
SMALL
USER_CHARGES


@<TRIPOS>ATOM
  1 O        0.4400     2.0820     3.3750 O.co2 1 <1>  -0.9000 
  2 C       -0.0220     3.1390     2.9050 C.2   1 <1>   1.0330 
  3 O       -1.0730     3.5920     3.4040 O.co2 1 <1>  -0.9000 
  4 C        0.6130     3.8740     1.8090 C.2   1 <1>  -0.0060 
  5 N        1.7760     3.5750     1.1320 N.2   1 <1>  -0.5650 
  6 C        0.1300     5.0110     1.2740 C.2   1 <1>  -0.0100 
  7 C        1.8930     4.5250     0.2730 C.2   1 <1>   0.5620 
  8 O        0.9280     5.4200     0.3220 O.3   1 <1>  -0.2800 
  9 N        2.9270     4.6770    -0.6390 N.pl3 1 <1>  -0.8220 
 10 C        3.1510     5.9560    -1.3510 C.3   1 <1>   0.2090 
 11 C        3.7690     3.5070    -1.0100 C.3   1 <1>   0.1290 
 12 C        3.5890     7.0540    -0.3600 C.3   1 <1>  -0.0800 
 13 C        3.9080     8.3680    -1.0880 C.3   1 <1>  -0.1600 
 14 C        4.7970     6.6350     0.5010 C.3   1 <1>  -0.1600 
 15 C        4.3410     9.4580    -0.1060 C.3   1 <1>   0.3430 
 16 C        5.2080     7.7460     1.4610 C.3   1 <1>   0.3430 
 17 N        5.5120     8.9860     0.6920 N.4   1 <1>  -0.9590 
 18 C        6.0380    10.0590     1.5790 C.3   1 <1>   0.4860 
 19 C        6.5580    11.1880     0.7120 C.ar  1 <1>  -0.1440 
 20 C        5.8360    12.3680     0.5950 C.ar  1 <1>  -0.1500 
 21 C        7.7550    11.0490     0.0240 C.ar  1 <1>  -0.1500 
 22 C        6.3010    13.3910    -0.2130 C.ar  1 <1>  -0.1500 
 23 C        8.2180    12.0740    -0.7830 C.ar  1 <1>  -0.1500 
 24 C        7.4890    13.2430    -0.9040 C.ar  1 <1>  -0.1500 
 25 H       -0.7590     5.5620     1.5230 H     1 <1>   0.1500 
 26 H        2.2370     6.2470    -1.8420 H     1 <1>   0.0800 
 27 H        3.9050     5.8170    -2.1060 H     1 <1>   0.0800 
 28 H        3.4320     2.6180    -0.5040 H     1 <1>   0.0800 
 29 H        4.7920     3.6910    -0.7340 H     1 <1>   0.0800 
 30 H        3.7090     3.3360    -2.0700 H     1 <1>   0.0800 
 31 H        2.7580     7.2410     0.2990 H     1 <1>   0.0800 
 32 H        3.0310     8.7070    -1.6130 H     1 <1>   0.0800 
 33 H        4.6830     8.2170    -1.8190 H     1 <1>   0.0800 
 34 H        5.6280     6.3600    -0.1240 H     1 <1>   0.0800 
 35 H        4.5370     5.7710     1.0900 H     1 <1>   0.0800 
 36 H        3.5200     9.6920     0.5530 H     1 <1>   0.0800 
 37 H        4.6010    10.3490    -0.6560 H     1 <1>   0.0800 
 38 H        6.0730     7.4310     2.0230 H     1 <1>   0.0800 
 39 H        4.4020     7.9310     2.1540 H     1 <1>   0.0800 
 40 H        6.2590     8.7760     0.0190 H     1 <1>   0.4500 
 41 H        6.8440     9.6790     2.1850 H     1 <1>   0.0800 
 42 H        5.2600    10.4210     2.2310 H     1 <1>   0.0800 
 43 H        4.9110    12.5110     1.1280 H     1 <1>   0.1500 
 44 H        8.3460    10.1530     0.1070 H     1 <1>   0.1500 
 45 H        5.7420    14.3080    -0.3040 H     1 <1>   0.1500 
 46 H        9.1470    11.9670    -1.3180 H     1 <1>   0.1500 
 47 H        7.8510    14.0410    -1.5310 H     1 <1>   0.1500 
@<TRIPOS>BOND
  1   1   2  ar  
  2   2   3  ar  
  3   2   4  1   
  4   4   5  1   
  5   4   6  2   
  6   5   7  2   
  7   6   8  1   
  8   6  25  1   
  9   7   8  1   
 10   7   9  1   
 11   9  10  1   
 12   9  11  1   
 13  10  12  1   
 14  10  26  1   
 15  10  27  1   
 16  11  28  1   
 17  11  29  1   
 18  11  30  1   
 19  12  13  1   
 20  12  14  1   
 21  12  31  1   
 22  13  15  1   
 23  13  32  1   
 24  13  33  1   
 25  14  16  1   
 26  14  34  1   
 27  14  35  1   
 28  15  17  1   
 29  15  36  1   
 30  15  37  1   
 31  16  17  1   
 32  16  38  1   
 33  16  39  1   
 34  17  18  1   
 35  17  40  1   
 36  18  19  1   
 37  18  41  1   
 38  18  42  1   
 39  19  20  ar  
 40  19  21  ar  
 41  20  22  ar  
 42  20  43  1   
 43  21  23  ar  
 44  21  44  1   
 45  22  24  ar  
 46  22  45  1   
 47  23  24  ar  
 48  23  46  1   
 49  24  47  1   
@<TRIPOS>SUBSTRUCTURE
  1 ****  12 GROUP 4 **** **** 0

# MOE 2024.06 (io_trps.svl 2023.06)
