@<TRIPOS>MOLECULE
NONAME
45 47 1 0 0 
SMALL
USER_CHARGES


@<TRIPOS>ATOM
  1 O       -2.2280     1.1920    -2.4960 O.2   1 <1>  -0.5700 
  2 C       -2.3360     1.4090    -1.3110 C.2   1 <1>   0.5690 
  3 N       -2.8280     0.4540    -0.4580 N.am  1 <1>  -0.6600 
  4 C       -1.9300     2.7880    -0.8040 C.3   1 <1>   0.0820 
  5 C       -2.9510     0.5680     1.0180 C.3   1 <1>   0.1400 
  6 C       -3.1640    -0.9200    -0.9030 C.3   1 <1>   0.1400 
  7 C       -0.8000     2.7490     0.2210 C.2   1 <1>  -0.1810 
  8 C       -3.4980    -0.7850     1.4730 C.3   1 <1>   0.2000 
  9 C       -3.1190    -1.7690     0.3690 C.3   1 <1>  -0.0800 
 10 C       -0.8070     3.3070     1.4990 C.2   1 <1>   0.1080 
 11 C        0.4140     2.1640     0.1090 C.2   1 <1>  -0.3320 
 12 O       -2.9410    -1.1810     2.6790 O.3   1 <1>  -0.6800 
 13 C       -4.0330    -3.0050     0.3350 C.3   1 <1>  -0.0170 
 14 N        0.2930     3.0750     2.1400 N.2   1 <1>  -0.7070 
 15 C       -1.9330     4.1010     2.1240 C.3   1 <1>  -0.0590 
 16 N        1.0510     2.3760     1.2780 N.pl3 1 <1>   0.3000 
 17 C        1.0340     1.3990    -1.0490 C.3   1 <1>  -0.0600 
 18 C       -3.6160    -3.9830    -0.7490 C.ar  1 <1>   0.1670 
 19 N       -4.0510    -3.7260    -1.9730 N.ar  1 <1>  -0.6200 
 20 C       -2.8180    -5.0700    -0.4230 C.ar  1 <1>  -0.1500 
 21 C       -3.6760    -4.5820    -2.9090 C.ar  1 <1>   0.1600 
 22 C       -2.4350    -5.9560    -1.4080 C.ar  1 <1>  -0.1500 
 23 C       -2.8820    -5.6950    -2.6850 C.ar  1 <1>  -0.1500 
 24 H       -1.6110     3.3820    -1.6400 H     1 <1>   0.0800 
 25 H       -2.7990     3.2580    -0.3870 H     1 <1>   0.0800 
 26 H       -1.9800     0.7420     1.4460 H     1 <1>   0.0800 
 27 H       -3.6270     1.3610     1.2800 H     1 <1>   0.0800 
 28 H       -4.1520    -0.9190    -1.3320 H     1 <1>   0.0800 
 29 H       -2.4620    -1.2740    -1.6400 H     1 <1>   0.0800 
 30 H       -4.5660    -0.7270     1.5930 H     1 <1>   0.0800 
 31 H       -2.0990    -2.0830     0.5040 H     1 <1>   0.0800 
 32 H       -1.9660    -1.1710     2.6210 H     1 <1>   0.4000 
 33 H       -5.0520    -2.7050     0.1620 H     1 <1>   0.0800 
 34 H       -3.9990    -3.4950     1.2920 H     1 <1>   0.0800 
 35 H       -2.2320     4.8950     1.4660 H     1 <1>   0.0800 
 36 H       -1.6020     4.5300     3.0530 H     1 <1>   0.0800 
 37 H       -2.7710     3.4590     2.3200 H     1 <1>   0.0800 
 38 H        2.0000     2.0630     1.5160 H     1 <1>   0.2700 
 39 H        0.4150     1.4640    -1.9260 H     1 <1>   0.0800 
 40 H        1.1450     0.3610    -0.7900 H     1 <1>   0.0800 
 41 H        1.9990     1.8070    -1.2900 H     1 <1>   0.0800 
 42 H       -2.4980    -5.2250     0.5910 H     1 <1>   0.1500 
 43 H       -4.0190    -4.3870    -3.9100 H     1 <1>   0.1500 
 44 H       -1.8170    -6.8100    -1.1900 H     1 <1>   0.1500 
 45 H       -2.6210    -6.3440    -3.5010 H     1 <1>   0.1500 
@<TRIPOS>BOND
  1   1   2  2   
  2   2   3  am  
  3   2   4  1   
  4   3   5  1   
  5   3   6  1   
  6   4   7  1   
  7   4  24  1   
  8   4  25  1   
  9   5   8  1   
 10   5  26  1   
 11   5  27  1   
 12   6   9  1   
 13   6  28  1   
 14   6  29  1   
 15   7  10  1   
 16   7  11  2   
 17   8   9  1   
 18   8  12  1   
 19   8  30  1   
 20   9  13  1   
 21   9  31  1   
 22  10  14  2   
 23  10  15  1   
 24  11  16  1   
 25  11  17  1   
 26  12  32  1   
 27  13  18  1   
 28  13  33  1   
 29  13  34  1   
 30  14  16  1   
 31  15  35  1   
 32  15  36  1   
 33  15  37  1   
 34  16  38  1   
 35  17  39  1   
 36  17  40  1   
 37  17  41  1   
 38  18  19  ar  
 39  18  20  ar  
 40  19  21  ar  
 41  20  22  ar  
 42  20  42  1   
 43  21  23  ar  
 44  21  43  1   
 45  22  23  ar  
 46  22  44  1   
 47  23  45  1   
@<TRIPOS>SUBSTRUCTURE
  1 ****   3 GROUP 4 **** **** 0

# MOE 2024.06 (io_trps.svl 2023.06)
