@<TRIPOS>MOLECULE
NONAME
42 44 1 0 0 
SMALL
USER_CHARGES


@<TRIPOS>ATOM
  1 S       -1.5810    -0.8410    -0.7550 S.3   1 <1>  -0.0800 
  2 C       -1.7020    -1.8490     0.6800 C.2   1 <1>  -0.1400 
  3 C       -0.9460     0.4990     0.1820 C.2   1 <1>  -0.1400 
  4 C       -1.2730    -1.1750     1.7640 C.2   1 <1>  -0.1500 
  5 C       -2.2280    -3.2580     0.5100 C.3   1 <1>   0.5230 
  6 C       -0.8460     0.1610     1.4790 C.2   1 <1>  -0.1500 
  7 C       -0.6140     1.7750    -0.5650 C.3   1 <1>  -0.0600 
  8 N       -3.7190    -3.2070     0.4740 N.4   1 <1>  -0.9590 
  9 C       -4.2440    -2.7280    -0.8500 C.3   1 <1>   0.3430 
 10 C       -4.2930    -4.5630     0.7120 C.3   1 <1>   0.3430 
 11 C       -5.2270    -3.7990    -1.3440 C.3   1 <1>   0.2000 
 12 C       -4.7610    -5.0760    -0.6530 C.3   1 <1>  -0.0800 
 13 O       -6.5140    -3.4960    -0.9150 O.3   1 <1>  -0.6800 
 14 C       -3.6330    -5.7520    -1.4670 C.3   1 <1>   0.0210 
 15 C       -2.7730    -6.6730    -0.6250 C.2   1 <1>   0.1080 
 16 N       -1.8020    -6.2370     0.1190 N.2   1 <1>  -0.7070 
 17 C       -2.9130    -8.0540    -0.5590 C.2   1 <1>  -0.1500 
 18 N       -1.2730    -7.3550     0.6690 N.pl3 1 <1>   0.3000 
 19 C       -1.9380    -8.4610     0.2800 C.2   1 <1>  -0.3320 
 20 C       -1.5890    -9.8680     0.7310 C.3   1 <1>  -0.0600 
 21 H       -1.2260    -1.5500     2.7720 H     1 <1>   0.1500 
 22 H       -1.9070    -3.8530     1.3490 H     1 <1>   0.0800 
 23 H       -1.8320    -3.7080    -0.3860 H     1 <1>   0.0800 
 24 H       -0.4820     0.8040     2.2640 H     1 <1>   0.1500 
 25 H       -0.2330     2.5140     0.1160 H     1 <1>   0.0800 
 26 H       -1.4960     2.1630    -1.0410 H     1 <1>   0.0800 
 27 H        0.1310     1.5780    -1.3150 H     1 <1>   0.0800 
 28 H       -4.0010    -2.5530     1.2160 H     1 <1>   0.4500 
 29 H       -4.7270    -1.7680    -0.7700 H     1 <1>   0.0800 
 30 H       -3.4310    -2.6510    -1.5540 H     1 <1>   0.0800 
 31 H       -3.5890    -5.2270     1.1850 H     1 <1>   0.0800 
 32 H       -5.1520    -4.4750     1.3570 H     1 <1>   0.0800 
 33 H       -5.2490    -3.8730    -2.4190 H     1 <1>   0.0800 
 34 H       -5.5630    -5.7840    -0.5330 H     1 <1>   0.0800 
 35 H       -6.5960    -3.4260     0.0550 H     1 <1>   0.4000 
 36 H       -2.9800    -5.0200    -1.9070 H     1 <1>   0.0800 
 37 H       -4.0650    -6.3150    -2.2760 H     1 <1>   0.0800 
 38 H       -3.6420    -8.6510    -1.0790 H     1 <1>   0.1500 
 39 H       -0.4580    -7.3400     1.2960 H     1 <1>   0.2700 
 40 H       -2.2590   -10.5790     0.2810 H     1 <1>   0.0800 
 41 H       -1.6730    -9.9510     1.8000 H     1 <1>   0.0800 
 42 H       -0.5840   -10.1160     0.4380 H     1 <1>   0.0800 
@<TRIPOS>BOND
  1   1   2  1   
  2   1   3  1   
  3   2   4  2   
  4   2   5  1   
  5   3   6  2   
  6   3   7  1   
  7   4   6  1   
  8   4  21  1   
  9   5   8  1   
 10   5  22  1   
 11   5  23  1   
 12   6  24  1   
 13   7  25  1   
 14   7  26  1   
 15   7  27  1   
 16   8   9  1   
 17   8  10  1   
 18   8  28  1   
 19   9  11  1   
 20   9  29  1   
 21   9  30  1   
 22  10  12  1   
 23  10  31  1   
 24  10  32  1   
 25  11  12  1   
 26  11  13  1   
 27  11  33  1   
 28  12  14  1   
 29  12  34  1   
 30  13  35  1   
 31  14  15  1   
 32  14  36  1   
 33  14  37  1   
 34  15  16  2   
 35  15  17  1   
 36  16  18  1   
 37  17  19  2   
 38  17  38  1   
 39  18  19  1   
 40  18  39  1   
 41  19  20  1   
 42  20  40  1   
 43  20  41  1   
 44  20  42  1   
@<TRIPOS>SUBSTRUCTURE
  1 ****   5 GROUP 4 **** **** 0

# MOE 2024.06 (io_trps.svl 2023.06)
