@<TRIPOS>MOLECULE
NONAME
35 36 1 0 0 
SMALL
USER_CHARGES


@<TRIPOS>ATOM
  1 CL      -0.3020    -0.1340    -0.8410 Cl    1 <1>  -0.1770 
  2 C        0.0300     1.5130    -0.3710 C.ar  1 <1>   0.1770 
  3 C        1.3420     1.9400    -0.2960 C.ar  1 <1>  -0.1500 
  4 C       -1.0270     2.3580    -0.0830 C.ar  1 <1>  -0.1500 
  5 C        1.6030     3.2550     0.0790 C.ar  1 <1>   0.0830 
  6 C       -0.7640     3.6650     0.2900 C.ar  1 <1>  -0.1500 
  7 O        2.8520     3.7740     0.1830 O.3   1 <1>  -0.3630 
  8 C        0.5470     4.1070     0.3690 C.ar  1 <1>  -0.1500 
  9 C        3.9950     2.9970    -0.0880 C.3   1 <1>   0.1200 
 10 C        5.2270     3.8770     0.1220 C.3   1 <1>  -0.1600 
 11 C        6.5230     3.1020    -0.1500 C.3   1 <1>  -0.1600 
 12 C        7.7510     3.9980     0.0660 C.3   1 <1>  -0.1600 
 13 C        9.0540     3.2330    -0.1990 C.3   1 <1>   0.0960 
 14 N       10.2190     4.1120     0.0180 N.pl3 1 <1>   0.0480 
 15 C       10.9210     4.2900     1.1590 C.2   1 <1>   0.0360 
 16 C       10.8150     4.9180    -0.8790 C.2   1 <1>  -0.3020 
 17 N       11.8980     5.1310     1.0510 N.2   1 <1>  -0.5650 
 18 C       11.8330     5.5290    -0.2330 C.2   1 <1>   0.0770 
 19 H        2.1220     1.2440    -0.5300 H     1 <1>   0.1500 
 20 H       -2.0370     1.9940    -0.1510 H     1 <1>   0.1500 
 21 H       -1.5740     4.3370     0.5170 H     1 <1>   0.1500 
 22 H        0.7600     5.1200     0.6580 H     1 <1>   0.1500 
 23 H        3.9390     2.6550    -1.1070 H     1 <1>   0.0800 
 24 H        4.0040     2.1590     0.5880 H     1 <1>   0.0800 
 25 H        5.2280     4.2360     1.1370 H     1 <1>   0.0800 
 26 H        5.1670     4.7230    -0.5410 H     1 <1>   0.0800 
 27 H        6.5160     2.7400    -1.1640 H     1 <1>   0.0800 
 28 H        6.5770     2.2530     0.5110 H     1 <1>   0.0800 
 29 H        7.7540     4.3620     1.0790 H     1 <1>   0.0800 
 30 H        7.6960     4.8440    -0.5990 H     1 <1>   0.0800 
 31 H        9.0770     2.8780    -1.2140 H     1 <1>   0.0800 
 32 H        9.1310     2.3890     0.4620 H     1 <1>   0.0800 
 33 H       10.6740     3.7700     2.0670 H     1 <1>   0.1500 
 34 H       10.4940     5.0140    -1.8990 H     1 <1>   0.1500 
 35 H       12.5330     6.2450    -0.6310 H     1 <1>   0.1500 
@<TRIPOS>BOND
  1   1   2  1   
  2   2   3  ar  
  3   2   4  ar  
  4   3   5  ar  
  5   3  19  1   
  6   4   6  ar  
  7   4  20  1   
  8   5   7  1   
  9   5   8  ar  
 10   6   8  ar  
 11   6  21  1   
 12   7   9  1   
 13   8  22  1   
 14   9  10  1   
 15   9  23  1   
 16   9  24  1   
 17  10  11  1   
 18  10  25  1   
 19  10  26  1   
 20  11  12  1   
 21  11  27  1   
 22  11  28  1   
 23  12  13  1   
 24  12  29  1   
 25  12  30  1   
 26  13  14  1   
 27  13  31  1   
 28  13  32  1   
 29  14  15  1   
 30  14  16  1   
 31  15  17  2   
 32  15  33  1   
 33  16  18  2   
 34  16  34  1   
 35  17  18  1   
 36  18  35  1   
@<TRIPOS>SUBSTRUCTURE
  1 ****  10 GROUP 4 **** **** 0

# MOE 2024.06 (io_trps.svl 2023.06)
