@<TRIPOS>MOLECULE
NONAME
41 43 1 0 0 
SMALL
USER_CHARGES


@<TRIPOS>ATOM
  1 O       -9.5780     0.2120     2.9900 O.2   1 <1>  -0.5700 
  2 C       -9.0340     0.6470     2.0040 C.2   1 <1>   0.6900 
  3 N       -9.5050     1.6620     1.2250 N.am  1 <1>  -0.4200 
  4 N       -7.8980     0.1100     1.5050 N.am  1 <1>  -0.7300 
  5 C       -8.7250     1.7810     0.1200 C.2   1 <1>   0.5690 
  6 C      -10.8900     2.1540     1.2960 C.3   1 <1>   0.2840 
  7 C       -7.6270     0.7280     0.1840 C.3   1 <1>   0.3610 
  8 O       -8.8230     2.5970    -0.7620 O.2   1 <1>  -0.5700 
  9 C      -11.7620     1.2310     0.4590 C.ar  1 <1>  -0.1430 
 10 C       -6.2520     1.4220     0.1570 C.3   1 <1>   0.3430 
 11 C       -7.7090    -0.3470    -0.9140 C.3   1 <1>  -0.1600 
 12 C      -12.3230     0.0960     1.0250 C.ar  1 <1>  -0.1500 
 13 C      -11.9850     1.5040    -0.8830 C.ar  1 <1>  -0.1500 
 14 N       -5.1270     0.4260     0.2650 N.4   1 <1>  -0.9060 
 15 C       -6.5080    -1.3150    -0.8480 C.3   1 <1>  -0.1600 
 16 C      -13.0950    -0.7620     0.2620 C.ar  1 <1>  -0.1500 
 17 C      -12.7550     0.6470    -1.6480 C.ar  1 <1>  -0.1500 
 18 C       -5.1550    -0.5860    -0.8320 C.3   1 <1>   0.3430 
 19 C      -13.3130    -0.4890    -1.0860 C.ar  1 <1>   0.0830 
 20 O      -14.0500    -1.2780    -1.9060 O.3   1 <1>  -0.3620 
 21 C      -14.6990    -2.4330    -1.4240 C.3   1 <1>   0.0400 
 22 H       -7.7880    -0.8950     1.6560 H     1 <1>   0.3700 
 23 H      -10.9360     3.1600     0.9150 H     1 <1>   0.0800 
 24 H      -11.2240     2.1590     2.3190 H     1 <1>   0.0800 
 25 H       -6.2030     2.1320     0.9670 H     1 <1>   0.0800 
 26 H       -6.1650     1.9700    -0.7670 H     1 <1>   0.0800 
 27 H       -7.7130     0.1420    -1.8740 H     1 <1>   0.0800 
 28 H       -8.6380    -0.8880    -0.8340 H     1 <1>   0.0800 
 29 H      -12.1560    -0.1290     2.0660 H     1 <1>   0.1500 
 30 H      -11.5570     2.3800    -1.3410 H     1 <1>   0.1500 
 31 H       -5.2080    -0.0540     1.1730 H     1 <1>   0.4500 
 32 H       -4.2220     0.9160     0.2680 H     1 <1>   0.4500 
 33 H       -6.5380    -1.9680    -1.7040 H     1 <1>   0.0800 
 34 H       -6.5840    -1.9410     0.0240 H     1 <1>   0.0800 
 35 H      -13.5130    -1.6320     0.7300 H     1 <1>   0.1500 
 36 H      -12.9300     0.8540    -2.6880 H     1 <1>   0.1500 
 37 H       -4.3590    -1.3030    -0.6970 H     1 <1>   0.0800 
 38 H       -5.0050    -0.0960    -1.7820 H     1 <1>   0.0800 
 39 H      -15.2320    -2.8830    -2.2420 H     1 <1>   0.0800 
 40 H      -15.3890    -2.1480    -0.6500 H     1 <1>   0.0800 
 41 H      -13.9590    -3.1190    -1.0500 H     1 <1>   0.0800 
@<TRIPOS>BOND
  1   1   2  2   
  2   2   3  am  
  3   2   4  am  
  4   3   5  am  
  5   3   6  1   
  6   4   7  1   
  7   4  22  1   
  8   5   7  1   
  9   5   8  2   
 10   6   9  1   
 11   6  23  1   
 12   6  24  1   
 13   7  10  1   
 14   7  11  1   
 15   9  12  ar  
 16   9  13  ar  
 17  10  14  1   
 18  10  25  1   
 19  10  26  1   
 20  11  15  1   
 21  11  27  1   
 22  11  28  1   
 23  12  16  ar  
 24  12  29  1   
 25  13  17  ar  
 26  13  30  1   
 27  14  18  1   
 28  14  31  1   
 29  14  32  1   
 30  15  18  1   
 31  15  33  1   
 32  15  34  1   
 33  16  19  ar  
 34  16  35  1   
 35  17  19  ar  
 36  17  36  1   
 37  18  37  1   
 38  18  38  1   
 39  19  20  1   
 40  20  21  1   
 41  21  39  1   
 42  21  40  1   
 43  21  41  1   
@<TRIPOS>SUBSTRUCTURE
  1 ****   3 GROUP 4 **** **** 0

# MOE 2024.06 (io_trps.svl 2023.06)
