@<TRIPOS>MOLECULE
NONAME
57 61 1 0 0 
SMALL
USER_CHARGES


@<TRIPOS>ATOM
  1 S        0.1520    -0.0950    -2.0250 S.3   1 <1>  -0.0800 
  2 C        1.7310    -0.4710    -1.3070 C.ar  1 <1>   0.0400 
  3 C        0.7720     1.3450    -2.8140 C.2   1 <1>  -0.1100 
  4 C        2.1250    -1.5320    -0.4740 C.ar  1 <1>   0.4100 
  5 C        2.6230     0.4950    -1.6930 C.ar  1 <1>   0.3070 
  6 C        2.0790     1.5120    -2.5400 C.2   1 <1>  -0.1500 
  7 N        3.4060    -1.5750    -0.0640 N.ar  1 <1>  -0.6200 
  8 N        1.3350    -2.5380    -0.0330 N.pl3 1 <1>  -0.8380 
  9 N        3.8940     0.3850    -1.2400 N.ar  1 <1>  -0.1250 
 10 C        4.2360    -0.6470    -0.4420 C.ar  1 <1>   0.5280 
 11 C        1.6980    -3.6290     0.8880 C.3   1 <1>   0.2890 
 12 C       -0.0630    -2.9060    -0.2380 C.3   1 <1>   0.2890 
 13 C        5.6680    -0.7390     0.0450 C.3   1 <1>  -0.0970 
 14 C        1.3750    -4.8740     0.0150 C.3   1 <1>   0.0610 
 15 C        0.6520    -3.3670     1.9910 C.3   1 <1>  -0.1600 
 16 C        0.0720    -4.3710    -0.6780 C.3   1 <1>  -0.1600 
 17 C       -0.5700    -2.8720     1.2030 C.3   1 <1>  -0.1600 
 18 C        1.2170    -6.1490     0.8800 C.2   1 <1>   0.5690 
 19 C        2.4880    -5.0920    -1.0590 C.3   1 <1>  -0.1600 
 20 O        1.8170    -6.1740     1.9320 O.2   1 <1>  -0.5700 
 21 N        0.4680    -7.2460     0.4960 N.am  1 <1>  -0.6600 
 22 C        3.8730    -5.4560    -0.5000 C.3   1 <1>  -0.2400 
 23 C        0.2250    -8.3590     1.4640 C.3   1 <1>   0.1400 
 24 C        0.0240    -7.5720    -0.8910 C.3   1 <1>   0.1400 
 25 C       -1.2660    -8.7040     1.4930 C.3   1 <1>  -0.1600 
 26 C       -1.4700    -7.9020    -0.8950 C.3   1 <1>  -0.1600 
 27 C       -1.7640    -9.0340     0.0880 C.3   1 <1>   0.2000 
 28 O       -3.1260    -9.2260     0.1390 O.3   1 <1>  -0.6800 
 29 H        0.0780     1.9200    -3.4070 H     1 <1>   0.1500 
 30 H        2.6780     2.3260    -2.9120 H     1 <1>   0.1500 
 31 H        4.5900     1.0810    -1.5000 H     1 <1>   0.4570 
 32 H        2.7070    -3.5980     1.2600 H     1 <1>   0.0800 
 33 H       -0.6300    -2.2990    -0.9170 H     1 <1>   0.0800 
 34 H        5.7870    -1.6030     0.6770 H     1 <1>   0.0800 
 35 H        5.9280     0.1320     0.6180 H     1 <1>   0.0800 
 36 H        6.3430    -0.8390    -0.7860 H     1 <1>   0.0800 
 37 H        0.4270    -4.2320     2.5860 H     1 <1>   0.0800 
 38 H        1.0140    -2.5930     2.6430 H     1 <1>   0.0800 
 39 H       -0.7950    -4.9260    -0.3740 H     1 <1>   0.0800 
 40 H        0.1490    -4.4140    -1.7490 H     1 <1>   0.0800 
 41 H       -0.8180    -1.8630     1.4800 H     1 <1>   0.0800 
 42 H       -1.4330    -3.4990     1.3440 H     1 <1>   0.0800 
 43 H        2.1910    -5.8800    -1.7260 H     1 <1>   0.0800 
 44 H        2.5940    -4.2040    -1.6560 H     1 <1>   0.0800 
 45 H        3.8300    -6.3600     0.0830 H     1 <1>   0.0800 
 46 H        4.2620    -4.6670     0.1170 H     1 <1>   0.0800 
 47 H        4.5620    -5.6160    -1.3110 H     1 <1>   0.0800 
 48 H        0.7990    -9.2180     1.1630 H     1 <1>   0.0800 
 49 H        0.5390    -8.0830     2.4570 H     1 <1>   0.0800 
 50 H        0.2130    -6.7660    -1.5710 H     1 <1>   0.0800 
 51 H        0.5810    -8.4260    -1.2380 H     1 <1>   0.0800 
 52 H       -1.8020    -7.8640     1.8960 H     1 <1>   0.0800 
 53 H       -1.4170    -9.5520     2.1370 H     1 <1>   0.0800 
 54 H       -1.7620    -8.2030    -1.8850 H     1 <1>   0.0800 
 55 H       -2.0240    -7.0210    -0.6250 H     1 <1>   0.0800 
 56 H       -1.3180    -9.9520    -0.2590 H     1 <1>   0.0800 
 57 H       -3.5630    -8.4330     0.5030 H     1 <1>   0.4000 
@<TRIPOS>BOND
  1   1   2  1   
  2   1   3  1   
  3   2   4  ar  
  4   2   5  ar  
  5   3   6  2   
  6   3  29  1   
  7   4   7  ar  
  8   4   8  1   
  9   5   6  1   
 10   5   9  ar  
 11   6  30  1   
 12   7  10  ar  
 13   8  11  1   
 14   8  12  1   
 15   9  10  ar  
 16   9  31  1   
 17  10  13  1   
 18  11  14  1   
 19  11  15  1   
 20  11  32  1   
 21  12  16  1   
 22  12  17  1   
 23  12  33  1   
 24  13  34  1   
 25  13  35  1   
 26  13  36  1   
 27  14  16  1   
 28  14  18  1   
 29  14  19  1   
 30  15  17  1   
 31  15  37  1   
 32  15  38  1   
 33  16  39  1   
 34  16  40  1   
 35  17  41  1   
 36  17  42  1   
 37  18  20  2   
 38  18  21  am  
 39  19  22  1   
 40  19  43  1   
 41  19  44  1   
 42  21  23  1   
 43  21  24  1   
 44  22  45  1   
 45  22  46  1   
 46  22  47  1   
 47  23  25  1   
 48  23  48  1   
 49  23  49  1   
 50  24  26  1   
 51  24  50  1   
 52  24  51  1   
 53  25  27  1   
 54  25  52  1   
 55  25  53  1   
 56  26  27  1   
 57  26  54  1   
 58  26  55  1   
 59  27  28  1   
 60  27  56  1   
 61  28  57  1   
@<TRIPOS>SUBSTRUCTURE
  1 ****  14 GROUP 4 **** **** 0

# MOE 2024.06 (io_trps.svl 2023.06)
