@<TRIPOS>MOLECULE
NONAME
41 43 1 0 0 
SMALL
USER_CHARGES


@<TRIPOS>ATOM
  1 S        0.6880    -0.5790     1.7090 S.3   1 <1>  -0.0800 
  2 C        0.9400    -0.9470     0.0130 C.2   1 <1>  -0.0450 
  3 C        1.0290     1.1000     1.3980 C.2   1 <1>   0.1980 
  4 C        1.2520     0.2240    -0.5980 C.2   1 <1>   0.0460 
  5 C        0.7870    -2.3120    -0.4260 C.2   1 <1>   0.7150 
  6 N        1.2970     1.3590     0.1850 N.2   1 <1>  -0.5650 
  7 C        0.9740     2.0560     2.5660 C.3   1 <1>  -0.0600 
  8 C        1.5640     0.4460    -2.0650 C.3   1 <1>  -0.0590 
  9 O        0.9010    -2.6270    -1.5940 O.2   1 <1>  -0.5700 
 10 N        0.4950    -3.2940     0.4730 N.am  1 <1>  -0.7300 
 11 C        0.2930    -4.7250     0.1580 C.3   1 <1>   0.2200 
 12 C       -1.1960    -5.0250     0.1500 C.3   1 <1>  -0.0800 
 13 C        0.7760    -5.5780     1.3250 C.3   1 <1>   0.1200 
 14 C       -1.4870    -5.2580     1.6370 C.3   1 <1>   0.1200 
 15 C       -1.5190    -6.2620    -0.7100 C.3   1 <1>  -0.0160 
 16 O       -0.2750    -5.6050     2.2450 O.3   1 <1>  -0.5600 
 17 C       -3.0140    -6.5430    -0.7400 C.ar  1 <1>  -0.1440 
 18 C       -3.8820    -5.7680    -1.4810 C.ar  1 <1>  -0.1500 
 19 C       -3.5790    -7.5850    -0.0320 C.ar  1 <1>  -0.1500 
 20 C       -5.2360    -6.0590    -1.4750 C.ar  1 <1>   0.1600 
 21 C       -4.9480    -7.7910    -0.0940 C.ar  1 <1>   0.1600 
 22 N       -5.7900    -7.0510    -0.7970 N.ar  1 <1>  -0.6200 
 23 H        1.2040     3.0510     2.2290 H     1 <1>   0.0800 
 24 H        1.6900     1.7640     3.3110 H     1 <1>   0.0800 
 25 H       -0.0110     2.0520     2.9950 H     1 <1>   0.0800 
 26 H        1.5320    -0.4670    -2.6260 H     1 <1>   0.0800 
 27 H        2.5450     0.8730    -2.1610 H     1 <1>   0.0800 
 28 H        0.8490     1.1310    -2.4830 H     1 <1>   0.0800 
 29 H        0.3590    -3.0430     1.4540 H     1 <1>   0.3700 
 30 H        0.7850    -4.9810    -0.7660 H     1 <1>   0.0800 
 31 H       -1.7600    -4.1890    -0.2250 H     1 <1>   0.0800 
 32 H        1.6580    -5.1810     1.7940 H     1 <1>   0.0800 
 33 H        0.9570    -6.5900     1.0080 H     1 <1>   0.0800 
 34 H       -2.2020    -6.0420     1.8120 H     1 <1>   0.0800 
 35 H       -1.8330    -4.3520     2.1020 H     1 <1>   0.0800 
 36 H       -0.9970    -7.1250    -0.3360 H     1 <1>   0.0800 
 37 H       -1.1830    -6.0910    -1.7190 H     1 <1>   0.0800 
 38 H       -3.5200    -4.9400    -2.0630 H     1 <1>   0.1500 
 39 H       -2.9720    -8.2380     0.5680 H     1 <1>   0.1500 
 40 H       -5.8990    -5.4430    -2.0580 H     1 <1>   0.1500 
 41 H       -5.3720    -8.6070     0.4660 H     1 <1>   0.1500 
@<TRIPOS>BOND
  1   1   2  1   
  2   1   3  1   
  3   2   4  2   
  4   2   5  1   
  5   3   6  2   
  6   3   7  1   
  7   4   6  1   
  8   4   8  1   
  9   5   9  2   
 10   5  10  am  
 11   7  23  1   
 12   7  24  1   
 13   7  25  1   
 14   8  26  1   
 15   8  27  1   
 16   8  28  1   
 17  10  11  1   
 18  10  29  1   
 19  11  12  1   
 20  11  13  1   
 21  11  30  1   
 22  12  14  1   
 23  12  15  1   
 24  12  31  1   
 25  13  16  1   
 26  13  32  1   
 27  13  33  1   
 28  14  16  1   
 29  14  34  1   
 30  14  35  1   
 31  15  17  1   
 32  15  36  1   
 33  15  37  1   
 34  17  18  ar  
 35  17  19  ar  
 36  18  20  ar  
 37  18  38  1   
 38  19  21  ar  
 39  19  39  1   
 40  20  22  ar  
 41  20  40  1   
 42  21  22  ar  
 43  21  41  1   
@<TRIPOS>SUBSTRUCTURE
  1 ****  10 GROUP 4 **** **** 0

# MOE 2024.06 (io_trps.svl 2023.06)
