@<TRIPOS>MOLECULE
NONAME
59 63 1 0 0 
SMALL
USER_CHARGES


@<TRIPOS>ATOM
  1 O       -2.9090     2.5000    -0.1780 O.3   1 <1>  -0.5600 
  2 C       -3.3280     1.2640    -0.6750 C.3   1 <1>   0.1200 
  3 C       -3.9440     3.2980     0.3150 C.3   1 <1>   0.1200 
  4 C       -4.0710     0.4730     0.4180 C.3   1 <1>   0.1100 
  5 C       -4.7060     2.5580     1.4300 C.3   1 <1>   0.1100 
  6 N       -5.2150     1.2490     0.9580 N.3   1 <1>  -0.8100 
  7 C       -5.8950     0.5250     2.0650 C.3   1 <1>   0.1100 
  8 C       -6.8730    -0.5330     1.5150 C.3   1 <1>   0.3430 
  9 N       -7.4730     0.0040     0.2630 N.4   1 <1>  -0.9590 
 10 C       -8.5770     0.9810     0.5270 C.3   1 <1>   0.3430 
 11 C       -7.8700    -1.0450    -0.7140 C.3   1 <1>   0.3430 
 12 C       -8.9900     1.7120    -0.7610 C.3   1 <1>   0.1430 
 13 C       -8.2720    -0.3860    -2.0380 C.3   1 <1>  -0.1600 
 14 C      -10.1650     2.6090    -0.4530 C.ar  1 <1>   0.1670 
 15 C       -9.3630     0.6880    -1.8540 C.3   1 <1>  -0.1600 
 16 C       -7.9150     2.7230    -1.2470 C.3   1 <1>  -0.1600 
 17 N      -11.2260     2.2390     0.2190 N.ar  1 <1>  -0.6200 
 18 C       -9.9860     3.8650    -0.9420 C.ar  1 <1>  -0.1440 
 19 C       -8.6670     4.0040    -1.6590 C.3   1 <1>  -0.0170 
 20 C      -12.1600     3.1880     0.3920 C.ar  1 <1>   0.6200 
 21 C      -10.9830     4.7790    -0.7190 C.ar  1 <1>   0.1600 
 22 N      -12.0660     4.4490    -0.0520 N.ar  1 <1>  -0.6200 
 23 C      -13.3610     2.8200     1.1270 C.ar  1 <1>   0.0000 
 24 C      -13.8920     1.5280     1.0650 C.ar  1 <1>  -0.1500 
 25 C      -14.0390     3.7430     1.9290 C.ar  1 <1>  -0.1500 
 26 C      -15.0300     1.1750     1.7660 C.ar  1 <1>  -0.1500 
 27 C      -15.1790     3.3970     2.6320 C.ar  1 <1>  -0.1500 
 28 C      -15.6770     2.1100     2.5530 C.ar  1 <1>  -0.1500 
 29 H       -2.4510     0.7280    -0.9950 H     1 <1>   0.0800 
 30 H       -3.9620     1.4320    -1.5280 H     1 <1>   0.0800 
 31 H       -4.6020     3.5500    -0.4980 H     1 <1>   0.0800 
 32 H       -3.5040     4.2020     0.6980 H     1 <1>   0.0800 
 33 H       -3.3710     0.2460     1.2060 H     1 <1>   0.0800 
 34 H       -4.4160    -0.4560     0.0010 H     1 <1>   0.0800 
 35 H       -5.5270     3.1730     1.7560 H     1 <1>   0.0800 
 36 H       -4.0400     2.4190     2.2660 H     1 <1>   0.0800 
 37 H       -6.4660     1.2260     2.6510 H     1 <1>   0.0800 
 38 H       -5.1760     0.0670     2.7240 H     1 <1>   0.0800 
 39 H       -7.6320    -0.7730     2.2420 H     1 <1>   0.0800 
 40 H       -6.3160    -1.4280     1.2950 H     1 <1>   0.0800 
 41 H       -6.6820     0.5630    -0.1200 H     1 <1>   0.4500 
 42 H       -8.2620     1.7110     1.2550 H     1 <1>   0.0800 
 43 H       -9.4360     0.4640     0.9220 H     1 <1>   0.0800 
 44 H       -8.7040    -1.6060    -0.3230 H     1 <1>   0.0800 
 45 H       -7.0510    -1.7240    -0.8830 H     1 <1>   0.0800 
 46 H       -8.6370    -1.1460    -2.7060 H     1 <1>   0.0800 
 47 H       -7.3990     0.0430    -2.4970 H     1 <1>   0.0800 
 48 H       -9.5460     1.1930    -2.7870 H     1 <1>   0.0800 
 49 H      -10.2820     0.2010    -1.5710 H     1 <1>   0.0800 
 50 H       -7.3170     2.3480    -2.0590 H     1 <1>   0.0800 
 51 H       -7.2580     2.9720    -0.4310 H     1 <1>   0.0800 
 52 H       -8.8350     4.0240    -2.7220 H     1 <1>   0.0800 
 53 H       -8.1380     4.8920    -1.3560 H     1 <1>   0.0800 
 54 H      -10.8950     5.7880    -1.0860 H     1 <1>   0.1500 
 55 H      -13.4050     0.7890     0.4540 H     1 <1>   0.1500 
 56 H      -13.6670     4.7500     2.0010 H     1 <1>   0.1500 
 57 H      -15.4160     0.1720     1.6990 H     1 <1>   0.1500 
 58 H      -15.6780     4.1300     3.2410 H     1 <1>   0.1500 
 59 H      -16.5640     1.8380     3.0990 H     1 <1>   0.1500 
@<TRIPOS>BOND
  1   1   2  1   
  2   1   3  1   
  3   2   4  1   
  4   2  29  1   
  5   2  30  1   
  6   3   5  1   
  7   3  31  1   
  8   3  32  1   
  9   4   6  1   
 10   4  33  1   
 11   4  34  1   
 12   5   6  1   
 13   5  35  1   
 14   5  36  1   
 15   6   7  1   
 16   7   8  1   
 17   7  37  1   
 18   7  38  1   
 19   8   9  1   
 20   8  39  1   
 21   8  40  1   
 22   9  10  1   
 23   9  11  1   
 24   9  41  1   
 25  10  12  1   
 26  10  42  1   
 27  10  43  1   
 28  11  13  1   
 29  11  44  1   
 30  11  45  1   
 31  12  14  1   
 32  12  15  1   
 33  12  16  1   
 34  13  15  1   
 35  13  46  1   
 36  13  47  1   
 37  14  17  ar  
 38  14  18  ar  
 39  15  48  1   
 40  15  49  1   
 41  16  19  1   
 42  16  50  1   
 43  16  51  1   
 44  17  20  ar  
 45  18  19  1   
 46  18  21  ar  
 47  19  52  1   
 48  19  53  1   
 49  20  22  ar  
 50  20  23  1   
 51  21  22  ar  
 52  21  54  1   
 53  23  24  ar  
 54  23  25  ar  
 55  24  26  ar  
 56  24  55  1   
 57  25  27  ar  
 58  25  56  1   
 59  26  28  ar  
 60  26  57  1   
 61  27  28  ar  
 62  27  58  1   
 63  28  59  1   
@<TRIPOS>SUBSTRUCTURE
  1 ****  12 GROUP 4 **** **** 0

# MOE 2024.06 (io_trps.svl 2023.06)
