@<TRIPOS>MOLECULE
NONAME
53 55 1 0 0 
SMALL
USER_CHARGES


@<TRIPOS>ATOM
  1 CL      -0.6140     2.3360     1.3590 Cl    1 <1>  -0.1770 
  2 C       -2.1030     2.9740     0.7030 C.ar  1 <1>   0.1770 
  3 C       -2.0710     3.7590    -0.4410 C.ar  1 <1>  -0.1440 
  4 C       -3.2890     2.6920     1.3530 C.ar  1 <1>  -0.1500 
  5 C       -3.2650     4.2630    -0.9370 C.ar  1 <1>  -0.1500 
  6 C       -0.7560     4.0550    -1.1360 C.3   1 <1>   0.4870 
  7 C       -4.4730     3.2020     0.8530 C.ar  1 <1>  -0.1500 
  8 C       -4.4590     3.9860    -0.2900 C.ar  1 <1>  -0.1500 
  9 N        0.0880     4.9100    -0.2500 N.4   1 <1>  -0.9590 
 10 C       -0.5650     6.2230     0.0350 C.3   1 <1>   0.3430 
 11 C        1.4710     5.0410    -0.7890 C.3   1 <1>   0.3430 
 12 C        0.2850     7.0150     1.0250 C.3   1 <1>  -0.1600 
 13 C        2.3370     5.8260     0.1960 C.3   1 <1>  -0.1600 
 14 C        1.7070     7.1840     0.4930 C.3   1 <1>   0.2890 
 15 N        2.5220     7.9010     1.4980 N.pl3 1 <1>  -0.8690 
 16 C        2.6730     9.2430     1.5300 C.ar  1 <1>   0.7710 
 17 N        2.0060     9.9700     0.6510 N.ar  1 <1>  -0.6200 
 18 N        3.4870     9.7930     2.4520 N.ar  1 <1>  -0.1790 
 19 C        2.1520    11.2830     0.6730 C.ar  1 <1>   0.4100 
 20 C        3.6580    11.1350     2.5180 C.ar  1 <1>   0.2110 
 21 N        1.4680    12.0120    -0.2520 N.pl3 1 <1>  -0.8380 
 22 C        2.9880    11.9000     1.6250 C.ar  1 <1>  -0.1500 
 23 C        1.8370    13.3930    -0.6700 C.3   1 <1>   0.2090 
 24 C        0.3460    11.4390    -1.0590 C.3   1 <1>   0.1290 
 25 C        0.9710    14.4000     0.0820 C.3   1 <1>  -0.2400 
 26 H       -3.2870     2.0800     2.2390 H     1 <1>   0.1500 
 27 H       -3.2890     4.8700    -1.8280 H     1 <1>   0.1500 
 28 H       -0.9400     4.5550    -2.0730 H     1 <1>   0.0800 
 29 H       -0.2520     3.1240    -1.3400 H     1 <1>   0.0800 
 30 H       -5.4060     2.9890     1.3490 H     1 <1>   0.1500 
 31 H       -5.3860     4.3770    -0.6760 H     1 <1>   0.1500 
 32 H        0.1390     4.3910     0.6410 H     1 <1>   0.4500 
 33 H       -1.5480     6.0680     0.4530 H     1 <1>   0.0800 
 34 H       -0.6730     6.7850    -0.8790 H     1 <1>   0.0800 
 35 H        1.4470     5.5550    -1.7370 H     1 <1>   0.0800 
 36 H        1.9010     4.0640    -0.9450 H     1 <1>   0.0800 
 37 H        0.2900     6.5110     1.9740 H     1 <1>   0.0800 
 38 H       -0.1630     7.9840     1.1600 H     1 <1>   0.0800 
 39 H        3.3090     5.9700    -0.2410 H     1 <1>   0.0800 
 40 H        2.4520     5.2520     1.0990 H     1 <1>   0.0800 
 41 H        1.6750     7.7530    -0.4250 H     1 <1>   0.0800 
 42 H        2.9570     7.2820     2.1850 H     1 <1>   0.4000 
 43 H        3.9670     9.1660     3.0900 H     1 <1>   0.4570 
 44 H        4.3110    11.5510     3.2690 H     1 <1>   0.1500 
 45 H        3.0760    12.9690     1.6380 H     1 <1>   0.1500 
 46 H        1.6850    13.5040    -1.7310 H     1 <1>   0.0800 
 47 H        2.8790    13.5790    -0.4760 H     1 <1>   0.0800 
 48 H       -0.1140    10.6150    -0.5440 H     1 <1>   0.0800 
 49 H        0.7210    11.0970    -2.0080 H     1 <1>   0.0800 
 50 H       -0.4100    12.1860    -1.2300 H     1 <1>   0.0800 
 51 H       -0.0660    14.2620    -0.1620 H     1 <1>   0.0800 
 52 H        1.2530    15.3990    -0.1990 H     1 <1>   0.0800 
 53 H        1.1000    14.2950     1.1440 H     1 <1>   0.0800 
@<TRIPOS>BOND
  1   1   2  1   
  2   2   3  ar  
  3   2   4  ar  
  4   3   5  ar  
  5   3   6  1   
  6   4   7  ar  
  7   4  26  1   
  8   5   8  ar  
  9   5  27  1   
 10   6   9  1   
 11   6  28  1   
 12   6  29  1   
 13   7   8  ar  
 14   7  30  1   
 15   8  31  1   
 16   9  10  1   
 17   9  11  1   
 18   9  32  1   
 19  10  12  1   
 20  10  33  1   
 21  10  34  1   
 22  11  13  1   
 23  11  35  1   
 24  11  36  1   
 25  12  14  1   
 26  12  37  1   
 27  12  38  1   
 28  13  14  1   
 29  13  39  1   
 30  13  40  1   
 31  14  15  1   
 32  14  41  1   
 33  15  16  1   
 34  15  42  1   
 35  16  17  ar  
 36  16  18  ar  
 37  17  19  ar  
 38  18  20  ar  
 39  18  43  1   
 40  19  21  1   
 41  19  22  ar  
 42  20  22  ar  
 43  20  44  1   
 44  21  23  1   
 45  21  24  1   
 46  22  45  1   
 47  23  25  1   
 48  23  46  1   
 49  23  47  1   
 50  24  48  1   
 51  24  49  1   
 52  24  50  1   
 53  25  51  1   
 54  25  52  1   
 55  25  53  1   
@<TRIPOS>SUBSTRUCTURE
  1 ****  12 GROUP 4 **** **** 0

# MOE 2024.06 (io_trps.svl 2023.06)
