@<TRIPOS>MOLECULE
NONAME
41 44 1 0 0 
SMALL
USER_CHARGES


@<TRIPOS>ATOM
  1 CL      -0.5620    -1.0870    -2.6540 Cl    1 <1>  -0.1400 
  2 C       -1.7560    -1.3870    -1.4080 C.2   1 <1>   0.1540 
  3 C       -2.5360    -0.2880    -0.9290 C.2   1 <1>   0.6160 
  4 C       -1.9230    -2.6450    -0.9220 C.2   1 <1>  -0.1500 
  5 O       -2.4570     0.8650    -1.3220 O.2   1 <1>  -0.5700 
  6 N       -3.4520    -0.5660     0.0510 N.am  1 <1>  -0.5390 
  7 C       -2.8990    -2.9040     0.0900 C.2   1 <1>   0.0140 
  8 C       -3.6270    -1.8330     0.5530 C.2   1 <1>  -0.0410 
  9 C       -3.0720    -4.2470     0.5940 C.2   1 <1>   0.6160 
 10 O       -2.0910    -4.9470     0.7700 O.2   1 <1>  -0.5700 
 11 N       -4.3180    -4.7710     0.8730 N.am  1 <1>  -0.6600 
 12 C       -4.4800    -5.9660     1.7490 C.3   1 <1>   0.1400 
 13 C       -5.5510    -4.3960     0.1280 C.3   1 <1>   0.1400 
 14 C       -4.9210    -7.1600     0.9020 C.3   1 <1>  -0.1600 
 15 C       -5.9950    -5.5790    -0.7340 C.3   1 <1>  -0.1600 
 16 C       -6.1920    -6.8500     0.1050 C.3   1 <1>   0.4610 
 17 O       -7.2070    -6.6120     1.0640 O.3   1 <1>  -0.5600 
 18 C       -6.5720    -8.0420    -0.7770 C.2   1 <1>  -0.1810 
 19 C       -8.5540    -6.7140     0.6630 C.3   1 <1>   0.1200 
 20 C       -7.7870    -8.6000    -0.6950 C.2   1 <1>  -0.1400 
 21 C       -5.7280    -8.6810    -1.7460 C.2   1 <1>  -0.1500 
 22 C       -8.8960    -8.1430     0.2130 C.3   1 <1>   0.0200 
 23 S       -7.9600    -9.9550    -1.7900 S.3   1 <1>  -0.0800 
 24 C       -6.3190    -9.7180    -2.3720 C.2   1 <1>  -0.1100 
 25 H       -1.3280    -3.4680    -1.2810 H     1 <1>   0.1500 
 26 H       -3.9740     0.2490     0.3830 H     1 <1>   0.3700 
 27 H       -4.3600    -1.9630     1.3340 H     1 <1>   0.1500 
 28 H       -5.2220    -5.7540     2.5000 H     1 <1>   0.0800 
 29 H       -3.5560    -6.1960     2.2520 H     1 <1>   0.0800 
 30 H       -5.3760    -3.5450    -0.5060 H     1 <1>   0.0800 
 31 H       -6.3260    -4.1420     0.8330 H     1 <1>   0.0800 
 32 H       -5.0980    -8.0120     1.5330 H     1 <1>   0.0800 
 33 H       -4.1200    -7.4130     0.2330 H     1 <1>   0.0800 
 34 H       -5.2400    -5.7630    -1.4760 H     1 <1>   0.0800 
 35 H       -6.9000    -5.3390    -1.2580 H     1 <1>   0.0800 
 36 H       -8.7250    -6.0190    -0.1400 H     1 <1>   0.0800 
 37 H       -9.1690    -6.4320     1.4990 H     1 <1>   0.0800 
 38 H       -4.7250    -8.3390    -1.9280 H     1 <1>   0.1500 
 39 H       -9.8360    -8.1470    -0.3090 H     1 <1>   0.0800 
 40 H       -8.9670    -8.7970     1.0640 H     1 <1>   0.0800 
 41 H       -5.9640   -10.3910    -3.1320 H     1 <1>   0.1500 
@<TRIPOS>BOND
  1   1   2  1   
  2   2   3  1   
  3   2   4  2   
  4   3   5  2   
  5   3   6  am  
  6   4   7  1   
  7   4  25  1   
  8   6   8  1   
  9   6  26  1   
 10   7   8  2   
 11   7   9  1   
 12   8  27  1   
 13   9  10  2   
 14   9  11  am  
 15  11  12  1   
 16  11  13  1   
 17  12  14  1   
 18  12  28  1   
 19  12  29  1   
 20  13  15  1   
 21  13  30  1   
 22  13  31  1   
 23  14  16  1   
 24  14  32  1   
 25  14  33  1   
 26  15  16  1   
 27  15  34  1   
 28  15  35  1   
 29  16  17  1   
 30  16  18  1   
 31  17  19  1   
 32  18  20  2   
 33  18  21  1   
 34  19  22  1   
 35  19  36  1   
 36  19  37  1   
 37  20  22  1   
 38  20  23  1   
 39  21  24  2   
 40  21  38  1   
 41  22  39  1   
 42  22  40  1   
 43  23  24  1   
 44  24  41  1   
@<TRIPOS>SUBSTRUCTURE
  1 ****  13 GROUP 4 **** **** 0

# MOE 2024.06 (io_trps.svl 2023.06)
