@<TRIPOS>MOLECULE
NONAME
42 44 1 0 0 
SMALL
USER_CHARGES


@<TRIPOS>ATOM
  1 CL       0.8150     0.4220    -0.7480 Cl    1 <1>  -0.1770 
  2 C        0.6540     2.0220    -0.0580 C.ar  1 <1>   0.1770 
  3 C        1.7530     2.7160     0.4420 C.ar  1 <1>  -0.1440 
  4 C       -0.6160     2.5680    -0.0340 C.ar  1 <1>  -0.1500 
  5 C        1.5400     3.9860     0.9660 C.ar  1 <1>  -0.1500 
  6 C        3.1730     2.1550     0.4350 C.3   1 <1>   0.3640 
  7 C       -0.8100     3.8310     0.4940 C.ar  1 <1>  -0.1500 
  8 C        0.2700     4.5380     0.9930 C.ar  1 <1>  -0.1500 
  9 N        3.2170     0.8980     1.2190 N.am  1 <1>  -0.7300 
 10 C        3.7500     1.9930    -0.9950 C.3   1 <1>   0.2610 
 11 C        3.8390    -0.2230     0.7890 C.2   1 <1>   0.5690 
 12 O        4.8370     1.0780    -1.0270 O.3   1 <1>  -0.5600 
 13 C        4.1200     3.3760    -1.5500 C.2   1 <1>   0.5690 
 14 O        3.8640    -1.2120     1.4770 O.2   1 <1>  -0.5700 
 15 C        4.5030    -0.2220    -0.5910 C.3   1 <1>   0.1810 
 16 O        3.3680     3.8290    -2.3830 O.2   1 <1>  -0.5700 
 17 N        5.2120     4.1050    -1.1160 N.am  1 <1>  -0.6600 
 18 C        5.5210     5.4380    -1.7160 C.3   1 <1>   0.1400 
 19 C        6.2570     3.6230    -0.1620 C.3   1 <1>   0.1400 
 20 C        5.6930     6.4780    -0.6080 C.3   1 <1>  -0.1600 
 21 C        6.4410     4.6440     0.9630 C.3   1 <1>  -0.1600 
 22 C        6.7600     6.0220     0.3870 C.3   1 <1>   0.2000 
 23 O        6.8090     6.9280     1.4220 O.3   1 <1>  -0.6800 
 24 H       -1.4440     2.0070    -0.4280 H     1 <1>   0.1500 
 25 H        2.3610     4.5620     1.3570 H     1 <1>   0.1500 
 26 H        3.8010     2.8570     0.9530 H     1 <1>   0.0800 
 27 H       -1.7970     4.2630     0.5150 H     1 <1>   0.1500 
 28 H        0.1200     5.5230     1.4010 H     1 <1>   0.1500 
 29 H        2.7180     0.8680     2.1080 H     1 <1>   0.3700 
 30 H        2.9940     1.5930    -1.6430 H     1 <1>   0.0800 
 31 H        3.8380    -0.6640    -1.3100 H     1 <1>   0.0800 
 32 H        5.4080    -0.8000    -0.5530 H     1 <1>   0.0800 
 33 H        6.4270     5.3600    -2.2920 H     1 <1>   0.0800 
 34 H        4.7350     5.7550    -2.3800 H     1 <1>   0.0800 
 35 H        5.9980     2.6750     0.2710 H     1 <1>   0.0800 
 36 H        7.1830     3.4960    -0.6970 H     1 <1>   0.0800 
 37 H        4.7470     6.6120    -0.1150 H     1 <1>   0.0800 
 38 H        5.9890     7.4140    -1.0480 H     1 <1>   0.0800 
 39 H        7.2490     4.3260     1.5970 H     1 <1>   0.0800 
 40 H        5.5400     4.6820     1.5480 H     1 <1>   0.0800 
 41 H        7.7280     6.0120    -0.0850 H     1 <1>   0.0800 
 42 H        5.9340     7.0050     1.8440 H     1 <1>   0.4000 
@<TRIPOS>BOND
  1   1   2  1   
  2   2   3  ar  
  3   2   4  ar  
  4   3   5  ar  
  5   3   6  1   
  6   4   7  ar  
  7   4  24  1   
  8   5   8  ar  
  9   5  25  1   
 10   6   9  1   
 11   6  10  1   
 12   6  26  1   
 13   7   8  ar  
 14   7  27  1   
 15   8  28  1   
 16   9  11  am  
 17   9  29  1   
 18  10  12  1   
 19  10  13  1   
 20  10  30  1   
 21  11  14  2   
 22  11  15  1   
 23  12  15  1   
 24  13  16  2   
 25  13  17  am  
 26  15  31  1   
 27  15  32  1   
 28  17  18  1   
 29  17  19  1   
 30  18  20  1   
 31  18  33  1   
 32  18  34  1   
 33  19  21  1   
 34  19  35  1   
 35  19  36  1   
 36  20  22  1   
 37  20  37  1   
 38  20  38  1   
 39  21  22  1   
 40  21  39  1   
 41  21  40  1   
 42  22  23  1   
 43  22  41  1   
 44  23  42  1   
@<TRIPOS>SUBSTRUCTURE
  1 ****   6 GROUP 4 **** **** 0

# MOE 2024.06 (io_trps.svl 2023.06)
