@<TRIPOS>MOLECULE
NONAME
53 54 1 0 0 
SMALL
USER_CHARGES


@<TRIPOS>ATOM
  1 S        0.1950     0.1110     0.8220 S.o2  1 <1>   1.3330 
  2 O       -0.6430    -1.0160     1.1480 O.2   1 <1>  -0.6500 
  3 O        1.1970     0.5850     1.7520 O.2   1 <1>  -0.6500 
  4 N        0.9810    -0.2020    -0.6480 N.am  1 <1>  -0.8490 
  5 C       -0.8250     1.5370     0.4330 C.3   1 <1>  -0.0550 
  6 C        0.1280    -0.9190    -1.6080 C.3   1 <1>   0.1160 
  7 C        2.2100    -0.9810    -0.4450 C.3   1 <1>   0.1160 
  8 C       -0.0290     2.7230    -0.1660 C.3   1 <1>  -0.0800 
  9 C       -0.8540     3.9680    -0.4810 C.3   1 <1>   0.2000 
 10 C        1.1270     3.2310     0.7120 C.3   1 <1>   0.3430 
 11 O       -1.7650     4.2130     0.5410 O.3   1 <1>  -0.6800 
 12 C        0.1930     5.0820    -0.5160 C.3   1 <1>   0.3430 
 13 N        1.1980     4.7180     0.5370 N.4   1 <1>  -0.9590 
 14 C        2.5810     5.1910     0.2410 C.3   1 <1>   0.3430 
 15 C        2.6310     6.7170     0.2780 C.3   1 <1>  -0.1600 
 16 C        4.0520     7.2340     0.0590 C.3   1 <1>   0.1200 
 17 O        3.9630     8.6130     0.0630 O.3   1 <1>  -0.5600 
 18 C        5.1730     9.2830    -0.1190 C.3   1 <1>   0.2630 
 19 C        4.8980    10.7770    -0.1240 C.ar  1 <1>  -0.1440 
 20 C        4.8180    11.4770     1.0700 C.ar  1 <1>  -0.1500 
 21 C        4.7290    11.4570    -1.3220 C.ar  1 <1>  -0.1500 
 22 C        4.5770    12.8400     1.0690 C.ar  1 <1>  -0.1500 
 23 C        4.4880    12.8200    -1.3250 C.ar  1 <1>  -0.1500 
 24 C        4.4130    13.5130    -0.1300 C.ar  1 <1>  -0.1500 
 25 H       -1.5870     1.2430    -0.2630 H     1 <1>   0.0800 
 26 H       -1.3240     1.8450     1.3320 H     1 <1>   0.0800 
 27 H        0.6480    -1.0460    -2.5430 H     1 <1>   0.0800 
 28 H       -0.7750    -0.3650    -1.7960 H     1 <1>   0.0800 
 29 H       -0.1390    -1.8910    -1.2260 H     1 <1>   0.0800 
 30 H        2.6990    -1.1650    -1.3870 H     1 <1>   0.0800 
 31 H        1.9830    -1.9260     0.0240 H     1 <1>   0.0800 
 32 H        2.8950    -0.4420     0.1880 H     1 <1>   0.0800 
 33 H        0.4120     2.3900    -1.0900 H     1 <1>   0.0800 
 34 H       -1.4010     3.8920    -1.4060 H     1 <1>   0.0800 
 35 H        2.0480     2.7520     0.4190 H     1 <1>   0.0800 
 36 H        0.9400     2.9940     1.7480 H     1 <1>   0.0800 
 37 H       -1.3640     4.2090     1.4310 H     1 <1>   0.4000 
 38 H       -0.2530     6.0470    -0.3400 H     1 <1>   0.0800 
 39 H        0.6680     5.0820    -1.4830 H     1 <1>   0.0800 
 40 H        0.9020     5.1590     1.4190 H     1 <1>   0.4500 
 41 H        3.2620     4.7990     0.9810 H     1 <1>   0.0800 
 42 H        2.8950     4.8370    -0.7280 H     1 <1>   0.0800 
 43 H        2.2900     7.0690     1.2360 H     1 <1>   0.0800 
 44 H        2.0080     7.1280    -0.4960 H     1 <1>   0.0800 
 45 H        4.4430     6.9180    -0.8940 H     1 <1>   0.0800 
 46 H        4.7100     6.9260     0.8560 H     1 <1>   0.0800 
 47 H        5.8380     9.0280     0.6870 H     1 <1>   0.0800 
 48 H        5.6040     8.9770    -1.0570 H     1 <1>   0.0800 
 49 H        4.9380    10.9610     2.0060 H     1 <1>   0.1500 
 50 H        4.7800    10.9270    -2.2560 H     1 <1>   0.1500 
 51 H        4.5160    13.3770     1.9990 H     1 <1>   0.1500 
 52 H        4.3580    13.3410    -2.2570 H     1 <1>   0.1500 
 53 H        4.2260    14.5720    -0.1320 H     1 <1>   0.1500 
@<TRIPOS>BOND
  1   1   2  2   
  2   1   3  2   
  3   1   4  am  
  4   1   5  1   
  5   4   6  1   
  6   4   7  1   
  7   5   8  1   
  8   5  25  1   
  9   5  26  1   
 10   6  27  1   
 11   6  28  1   
 12   6  29  1   
 13   7  30  1   
 14   7  31  1   
 15   7  32  1   
 16   8   9  1   
 17   8  10  1   
 18   8  33  1   
 19   9  11  1   
 20   9  12  1   
 21   9  34  1   
 22  10  13  1   
 23  10  35  1   
 24  10  36  1   
 25  11  37  1   
 26  12  13  1   
 27  12  38  1   
 28  12  39  1   
 29  13  14  1   
 30  13  40  1   
 31  14  15  1   
 32  14  41  1   
 33  14  42  1   
 34  15  16  1   
 35  15  43  1   
 36  15  44  1   
 37  16  17  1   
 38  16  45  1   
 39  16  46  1   
 40  17  18  1   
 41  18  19  1   
 42  18  47  1   
 43  18  48  1   
 44  19  20  ar  
 45  19  21  ar  
 46  20  22  ar  
 47  20  49  1   
 48  21  23  ar  
 49  21  50  1   
 50  22  24  ar  
 51  22  51  1   
 52  23  24  ar  
 53  23  52  1   
 54  24  53  1   
@<TRIPOS>SUBSTRUCTURE
  1 ****  14 GROUP 4 **** **** 0

# MOE 2024.06 (io_trps.svl 2023.06)
