@<TRIPOS>MOLECULE
NONAME
48 51 1 0 0 
SMALL
USER_CHARGES


@<TRIPOS>ATOM
  1 O        1.6460    -0.3770    -2.0630 O.2   1 <1>  -0.5700 
  2 C        1.5320    -1.3090    -1.3050 C.2   1 <1>   0.5690 
  3 N        0.3900    -1.6560    -0.6590 N.am  1 <1>  -0.6600 
  4 C        2.6680    -2.2670    -1.0410 C.3   1 <1>  -0.0190 
  5 C       -0.8530    -0.8570    -0.6540 C.3   1 <1>   0.2200 
  6 C        0.5680    -2.8910     0.1440 C.3   1 <1>   0.1400 
  7 C        2.0830    -3.0940     0.1060 C.3   1 <1>   0.4180 
  8 C        4.0610    -1.8670    -0.4490 C.3   1 <1>  -0.0190 
  9 C       -1.0060    -0.1730     0.7020 C.3   1 <1>  -0.2400 
 10 C       -2.0500    -1.7500    -0.9740 C.3   1 <1>  -0.2400 
 11 O        2.6890    -2.4780     1.1890 O.3   1 <1>  -0.5600 
 12 C        2.7850    -4.4270     0.1600 C.2   1 <1>  -0.2880 
 13 C        4.4400    -0.4210    -0.1260 C.2   1 <1>   0.5690 
 14 C        4.0220    -2.6490     0.8740 C.3   1 <1>   0.3380 
 15 C        4.0010    -4.1470     0.6140 C.2   1 <1>  -0.2880 
 16 O        5.4310    -0.2730     0.5490 O.2   1 <1>  -0.5700 
 17 N        3.7310     0.6480    -0.5930 N.am  1 <1>  -0.4940 
 18 C        3.8650     2.0130    -0.3210 C.2   1 <1>   0.2040 
 19 O        2.7820     2.7520    -0.3470 O.3   1 <1>  -0.0190 
 20 C        4.9000     2.8270    -0.0180 C.2   1 <1>  -0.1810 
 21 N        3.0290     4.0020    -0.0580 N.2   1 <1>  -0.4100 
 22 C        4.2950     4.0740     0.1460 C.2   1 <1>   0.1080 
 23 C        6.3840     2.5220     0.1080 C.3   1 <1>  -0.0590 
 24 C        4.9990     5.3680     0.5150 C.3   1 <1>   0.0210 
 25 C        5.4970     6.1050    -0.7330 C.3   1 <1>  -0.2400 
 26 H        2.7850    -2.8850    -1.9120 H     1 <1>   0.0800 
 27 H       -0.7780    -0.0960    -1.4150 H     1 <1>   0.0800 
 28 H        0.2210    -2.7710     1.1550 H     1 <1>   0.0800 
 29 H        0.0620    -3.7090    -0.3360 H     1 <1>   0.0800 
 30 H        4.8470    -2.2680    -1.0610 H     1 <1>   0.0800 
 31 H       -1.1280    -0.8920     1.4900 H     1 <1>   0.0800 
 32 H       -1.8690     0.4680     0.6910 H     1 <1>   0.0800 
 33 H       -0.1410     0.4350     0.9050 H     1 <1>   0.0800 
 34 H       -2.2010    -2.4860    -0.2070 H     1 <1>   0.0800 
 35 H       -1.9000    -2.2390    -1.9200 H     1 <1>   0.0800 
 36 H       -2.9380    -1.1490    -1.0450 H     1 <1>   0.0800 
 37 H        2.3100    -5.3390    -0.1550 H     1 <1>   0.1500 
 38 H        4.6520    -2.3220     1.6850 H     1 <1>   0.0800 
 39 H        4.8690    -4.7560     0.8010 H     1 <1>   0.1500 
 40 H        2.8970     0.4400    -1.1530 H     1 <1>   0.3700 
 41 H        6.9750     3.3680    -0.1900 H     1 <1>   0.0800 
 42 H        6.6470     1.6940    -0.5240 H     1 <1>   0.0800 
 43 H        6.6180     2.2680     1.1270 H     1 <1>   0.0800 
 44 H        4.3080     5.9970     1.0480 H     1 <1>   0.0800 
 45 H        5.8230     5.1560     1.1720 H     1 <1>   0.0800 
 46 H        4.6660     6.3340    -1.3770 H     1 <1>   0.0800 
 47 H        6.1930     5.4930    -1.2780 H     1 <1>   0.0800 
 48 H        5.9820     7.0220    -0.4540 H     1 <1>   0.0800 
@<TRIPOS>BOND
  1   1   2  2   
  2   2   3  am  
  3   2   4  1   
  4   3   5  1   
  5   3   6  1   
  6   4   7  1   
  7   4   8  1   
  8   4  26  1   
  9   5   9  1   
 10   5  10  1   
 11   5  27  1   
 12   6   7  1   
 13   6  28  1   
 14   6  29  1   
 15   7  11  1   
 16   7  12  1   
 17   8  13  1   
 18   8  14  1   
 19   8  30  1   
 20   9  31  1   
 21   9  32  1   
 22   9  33  1   
 23  10  34  1   
 24  10  35  1   
 25  10  36  1   
 26  11  14  1   
 27  12  15  2   
 28  12  37  1   
 29  13  16  2   
 30  13  17  am  
 31  14  15  1   
 32  14  38  1   
 33  15  39  1   
 34  17  18  1   
 35  17  40  1   
 36  18  19  1   
 37  18  20  2   
 38  19  21  1   
 39  20  22  1   
 40  20  23  1   
 41  21  22  2   
 42  22  24  1   
 43  23  41  1   
 44  23  42  1   
 45  23  43  1   
 46  24  25  1   
 47  24  44  1   
 48  24  45  1   
 49  25  46  1   
 50  25  47  1   
 51  25  48  1   
@<TRIPOS>SUBSTRUCTURE
  1 ****  17 GROUP 4 **** **** 0

# MOE 2024.06 (io_trps.svl 2023.06)
