@<TRIPOS>MOLECULE
NONAME
40 42 1 0 0 
SMALL
USER_CHARGES


@<TRIPOS>ATOM
  1 S       -1.5180    -0.0630    -0.5460 S.3   1 <1>  -0.0800 
  2 C       -1.0550    -1.2410     0.6360 C.2   1 <1>   0.4420 
  3 C       -0.3700     1.0130     0.1800 C.2   1 <1>   0.1980 
  4 N       -0.1430    -0.8020     1.4270 N.2   1 <1>  -0.3380 
  5 N       -1.6910    -2.4580     0.5660 N.am  1 <1>  -0.4940 
  6 N        0.2410     0.4830     1.1620 N.2   1 <1>  -0.3380 
  7 C       -0.1990     2.4140    -0.3980 C.3   1 <1>   0.3800 
  8 C       -1.6390    -3.5350     1.4060 C.2   1 <1>   0.7160 
  9 O       -1.4560     3.0000    -0.5910 O.3   1 <1>  -0.5600 
 10 C        0.5300     2.3850    -1.7440 C.3   1 <1>  -0.2400 
 11 O       -1.0950    -3.4150     2.4830 O.2   1 <1>  -0.5700 
 12 C       -2.2310    -4.8060     1.0260 C.2   1 <1>  -0.0860 
 13 C       -1.4990     4.3860    -0.4610 C.3   1 <1>   0.0400 
 14 C       -3.2330    -5.0750     0.0430 C.2   1 <1>  -0.0860 
 15 C       -1.9550    -6.0350     1.5590 C.2   1 <1>  -0.0400 
 16 C       -3.9810    -4.2600    -0.8740 C.2   1 <1>   0.5950 
 17 C       -3.4340    -6.4130     0.1050 C.2   1 <1>  -0.0400 
 18 O       -2.6820    -6.9720     1.0050 O.3   1 <1>  -0.2800 
 19 C       -0.9850    -6.4910     2.6360 C.3   1 <1>  -0.0600 
 20 O       -3.7690    -3.0930    -1.0820 O.2   1 <1>  -0.5700 
 21 C       -5.1200    -4.9360    -1.6320 C.3   1 <1>  -0.0990 
 22 C       -4.4000    -7.2270    -0.7310 C.3   1 <1>   0.0200 
 23 C       -4.8220    -6.4140    -1.9690 C.3   1 <1>  -0.1600 
 24 H       -2.3540    -2.5480    -0.2070 H     1 <1>   0.3700 
 25 H        0.3560     3.0010     0.3140 H     1 <1>   0.0800 
 26 H       -0.0540     1.8490    -2.4700 H     1 <1>   0.0800 
 27 H        1.4750     1.8860    -1.6290 H     1 <1>   0.0800 
 28 H        0.7150     3.3810    -2.0970 H     1 <1>   0.0800 
 29 H       -2.5120     4.7050    -0.6370 H     1 <1>   0.0800 
 30 H       -0.8490     4.8390    -1.1880 H     1 <1>   0.0800 
 31 H       -1.2050     4.6590     0.5380 H     1 <1>   0.0800 
 32 H       -0.3330    -5.6990     2.9510 H     1 <1>   0.0800 
 33 H       -0.3800    -7.2940     2.2570 H     1 <1>   0.0800 
 34 H       -1.5350    -6.8450     3.4880 H     1 <1>   0.0800 
 35 H       -5.3050    -4.3920    -2.5410 H     1 <1>   0.0800 
 36 H       -6.0050    -4.8750    -1.0260 H     1 <1>   0.0800 
 37 H       -5.2580    -7.4710    -0.1300 H     1 <1>   0.0800 
 38 H       -3.9300    -8.1450    -1.0380 H     1 <1>   0.0800 
 39 H       -4.0170    -6.4440    -2.6840 H     1 <1>   0.0800 
 40 H       -5.6820    -6.8710    -2.4270 H     1 <1>   0.0800 
@<TRIPOS>BOND
  1   1   2  1   
  2   1   3  1   
  3   2   4  2   
  4   2   5  1   
  5   3   6  2   
  6   3   7  1   
  7   4   6  1   
  8   5   8  am  
  9   5  24  1   
 10   7   9  1   
 11   7  10  1   
 12   7  25  1   
 13   8  11  2   
 14   8  12  1   
 15   9  13  1   
 16  10  26  1   
 17  10  27  1   
 18  10  28  1   
 19  12  14  1   
 20  12  15  2   
 21  13  29  1   
 22  13  30  1   
 23  13  31  1   
 24  14  16  1   
 25  14  17  2   
 26  15  18  1   
 27  15  19  1   
 28  16  20  2   
 29  16  21  1   
 30  17  18  1   
 31  17  22  1   
 32  19  32  1   
 33  19  33  1   
 34  19  34  1   
 35  21  23  1   
 36  21  35  1   
 37  21  36  1   
 38  22  23  1   
 39  22  37  1   
 40  22  38  1   
 41  23  39  1   
 42  23  40  1   
@<TRIPOS>SUBSTRUCTURE
  1 ****   5 GROUP 4 **** **** 0

# MOE 2024.06 (io_trps.svl 2023.06)
