@<TRIPOS>MOLECULE
NONAME
41 43 1 0 0 
SMALL
USER_CHARGES


@<TRIPOS>ATOM
  1 O        0.1010    -0.8370     0.6140 O.2   1 <1>  -0.5700 
  2 C        0.8140    -1.5130    -0.0870 C.2   1 <1>   0.5690 
  3 N        1.8850    -0.9860    -0.7380 N.am  1 <1>  -0.7300 
  4 C        0.5270    -2.9970    -0.2490 C.3   1 <1>  -0.0190 
  5 C        2.3110     0.4240    -0.6640 C.3   1 <1>   0.1400 
  6 C       -0.9280    -3.2890    -0.5810 C.3   1 <1>   0.2090 
  7 C        0.7690    -3.8270     1.0120 C.3   1 <1>  -0.1600 
  8 C        3.8110     0.4650    -0.4000 C.3   1 <1>  -0.2400 
  9 N       -1.1240    -4.7050    -0.1650 N.pl3 1 <1>  -0.8380 
 10 C       -0.0650    -5.0870     0.8020 C.3   1 <1>   0.2090 
 11 C       -2.3850    -5.2500    -0.0510 C.ar  1 <1>   0.4100 
 12 N       -3.3580    -4.4430     0.2630 N.ar  1 <1>  -0.6200 
 13 C       -2.6050    -6.6390    -0.2420 C.ar  1 <1>   0.0000 
 14 C       -4.5570    -4.9910     0.4700 C.ar  1 <1>   0.4770 
 15 C       -3.8990    -7.0950     0.0250 C.ar  1 <1>   0.3100 
 16 C       -1.6460    -7.5720    -0.6890 C.ar  1 <1>  -0.1500 
 17 N       -4.8770    -6.2410     0.3880 N.ar  1 <1>  -0.6200 
 18 C       -5.6410    -4.0130     0.8500 C.3   1 <1>  -0.0970 
 19 C       -4.1890    -8.4610    -0.1030 C.ar  1 <1>  -0.1500 
 20 C       -1.9500    -8.9040    -0.8160 C.ar  1 <1>  -0.1500 
 21 C       -3.2350    -9.3560    -0.5120 C.ar  1 <1>  -0.1500 
 22 H        2.4670    -1.5840    -1.3250 H     1 <1>   0.3700 
 23 H        1.1270    -3.3900    -1.0480 H     1 <1>   0.0800 
 24 H        1.7830     0.9300     0.1290 H     1 <1>   0.0800 
 25 H        2.0810     0.9170    -1.5940 H     1 <1>   0.0800 
 26 H       -1.1340    -3.1650    -1.6300 H     1 <1>   0.0800 
 27 H       -1.5790    -2.6480    -0.0090 H     1 <1>   0.0800 
 28 H        0.3920    -3.3020     1.8740 H     1 <1>   0.0800 
 29 H        1.8090    -4.0520     1.1650 H     1 <1>   0.0800 
 30 H        4.0360    -0.0250     0.5310 H     1 <1>   0.0800 
 31 H        4.1350     1.4880    -0.3300 H     1 <1>   0.0800 
 32 H        4.3500    -0.0090    -1.2000 H     1 <1>   0.0800 
 33 H       -0.4960    -5.4300     1.7280 H     1 <1>   0.0800 
 34 H        0.5440    -5.8640     0.3770 H     1 <1>   0.0800 
 35 H       -0.6640    -7.2200    -0.9420 H     1 <1>   0.1500 
 36 H       -5.3600    -3.5030     1.7520 H     1 <1>   0.0800 
 37 H       -6.5720    -4.5240     1.0100 H     1 <1>   0.0800 
 38 H       -5.7650    -3.2940     0.0620 H     1 <1>   0.0800 
 39 H       -5.1880    -8.7830     0.1270 H     1 <1>   0.1500 
 40 H       -1.2090    -9.6090    -1.1520 H     1 <1>   0.1500 
 41 H       -3.4650   -10.4030    -0.6090 H     1 <1>   0.1500 
@<TRIPOS>BOND
  1   1   2  2   
  2   2   3  am  
  3   2   4  1   
  4   3   5  1   
  5   3  22  1   
  6   4   6  1   
  7   4   7  1   
  8   4  23  1   
  9   5   8  1   
 10   5  24  1   
 11   5  25  1   
 12   6   9  1   
 13   6  26  1   
 14   6  27  1   
 15   7  10  1   
 16   7  28  1   
 17   7  29  1   
 18   8  30  1   
 19   8  31  1   
 20   8  32  1   
 21   9  10  1   
 22   9  11  1   
 23  10  33  1   
 24  10  34  1   
 25  11  12  ar  
 26  11  13  ar  
 27  12  14  ar  
 28  13  15  ar  
 29  13  16  ar  
 30  14  17  ar  
 31  14  18  1   
 32  15  17  ar  
 33  15  19  ar  
 34  16  20  ar  
 35  16  35  1   
 36  18  36  1   
 37  18  37  1   
 38  18  38  1   
 39  19  21  ar  
 40  19  39  1   
 41  20  21  ar  
 42  20  40  1   
 43  21  41  1   
@<TRIPOS>SUBSTRUCTURE
  1 ****   9 GROUP 4 **** **** 0

# MOE 2024.06 (io_trps.svl 2023.06)
