@<TRIPOS>MOLECULE
NONAME
48 50 1 0 0 
SMALL
USER_CHARGES


@<TRIPOS>ATOM
  1 S       -1.8960    -0.9360     0.6170 S.3   1 <1>  -0.0800 
  2 C       -2.2110    -1.3800    -1.0300 C.2   1 <1>   0.4420 
  3 C       -1.3040     0.5730     0.0150 C.2   1 <1>   0.1980 
  4 N       -1.8830    -0.4500    -1.8520 N.2   1 <1>  -0.3380 
  5 N       -2.7510    -2.6260    -1.2450 N.am  1 <1>  -0.4940 
  6 N       -1.3660     0.6610    -1.2490 N.2   1 <1>  -0.3380 
  7 C       -0.7900     1.5990     1.0000 C.3   1 <1>   0.0200 
  8 C       -3.1310    -3.2480    -2.3960 C.2   1 <1>   0.5690 
  9 C       -0.2820     2.8170     0.2200 C.3   1 <1>   0.3430 
 10 O       -3.0610    -2.7590    -3.4950 O.2   1 <1>  -0.5700 
 11 C       -3.6790    -4.6660    -2.2340 C.3   1 <1>   0.1710 
 12 N        0.3130     3.8770     1.1010 N.4   1 <1>  -0.9590 
 13 N       -4.1500    -4.9450    -0.8450 N.3   1 <1>  -0.8100 
 14 C       -0.7140     4.5580     1.9550 C.3   1 <1>   0.2630 
 15 C        1.0230     4.8880     0.2560 C.3   1 <1>   0.2630 
 16 C       -4.1630    -6.3960    -0.5720 C.3   1 <1>   0.2530 
 17 C       -5.4910    -4.3820    -0.6090 C.3   1 <1>   0.1100 
 18 C       -4.7430    -6.7180     0.8030 C.ar  1 <1>  -0.1430 
 19 C       -5.8170    -4.4330     0.8870 C.3   1 <1>  -0.0170 
 20 C       -5.5360    -5.8040     1.4860 C.ar  1 <1>  -0.1430 
 21 C       -4.4860    -7.9560     1.3730 C.ar  1 <1>  -0.1500 
 22 C       -6.0620    -6.1340     2.7250 C.ar  1 <1>  -0.1500 
 23 C       -5.0120    -8.2820     2.6110 C.ar  1 <1>  -0.1500 
 24 C       -5.8020    -7.3710     3.2870 C.ar  1 <1>  -0.1500 
 25 H       -2.9470    -3.2060    -0.4240 H     1 <1>   0.3700 
 26 H        0.0100     1.1610     1.5680 H     1 <1>   0.0800 
 27 H       -1.5940     1.8730     1.6570 H     1 <1>   0.0800 
 28 H       -1.0970     3.2320    -0.3540 H     1 <1>   0.0800 
 29 H        0.4630     2.4760    -0.4820 H     1 <1>   0.0800 
 30 H       -2.8800    -5.3390    -2.4870 H     1 <1>   0.0800 
 31 H       -4.4780    -4.8200    -2.9390 H     1 <1>   0.0800 
 32 H        1.0160     3.4370     1.7160 H     1 <1>   0.4500 
 33 H       -1.4710     5.0160     1.3380 H     1 <1>   0.0800 
 34 H       -0.2510     5.3250     2.5560 H     1 <1>   0.0800 
 35 H       -1.1880     3.8510     2.6160 H     1 <1>   0.0800 
 36 H        0.3280     5.3750    -0.4110 H     1 <1>   0.0800 
 37 H        1.7890     4.4110    -0.3350 H     1 <1>   0.0800 
 38 H        1.4870     5.6380     0.8770 H     1 <1>   0.0800 
 39 H       -3.1560    -6.7730    -0.6230 H     1 <1>   0.0800 
 40 H       -4.7520    -6.9020    -1.3190 H     1 <1>   0.0800 
 41 H       -6.2270    -4.9480    -1.1570 H     1 <1>   0.0800 
 42 H       -5.5340    -3.3590    -0.9420 H     1 <1>   0.0800 
 43 H       -6.8510    -4.1780     1.0300 H     1 <1>   0.0800 
 44 H       -5.2200    -3.7020     1.4010 H     1 <1>   0.0800 
 45 H       -3.8740    -8.6740     0.8570 H     1 <1>   0.1500 
 46 H       -6.6740    -5.4280     3.2580 H     1 <1>   0.1500 
 47 H       -4.8080    -9.2440     3.0470 H     1 <1>   0.1500 
 48 H       -6.2120    -7.6230     4.2490 H     1 <1>   0.1500 
@<TRIPOS>BOND
  1   1   2  1   
  2   1   3  1   
  3   2   4  2   
  4   2   5  1   
  5   3   6  2   
  6   3   7  1   
  7   4   6  1   
  8   5   8  am  
  9   5  25  1   
 10   7   9  1   
 11   7  26  1   
 12   7  27  1   
 13   8  10  2   
 14   8  11  1   
 15   9  12  1   
 16   9  28  1   
 17   9  29  1   
 18  11  13  1   
 19  11  30  1   
 20  11  31  1   
 21  12  14  1   
 22  12  15  1   
 23  12  32  1   
 24  13  16  1   
 25  13  17  1   
 26  14  33  1   
 27  14  34  1   
 28  14  35  1   
 29  15  36  1   
 30  15  37  1   
 31  15  38  1   
 32  16  18  1   
 33  16  39  1   
 34  16  40  1   
 35  17  19  1   
 36  17  41  1   
 37  17  42  1   
 38  18  20  ar  
 39  18  21  ar  
 40  19  20  1   
 41  19  43  1   
 42  19  44  1   
 43  20  22  ar  
 44  21  23  ar  
 45  21  45  1   
 46  22  24  ar  
 47  22  46  1   
 48  23  24  ar  
 49  23  47  1   
 50  24  48  1   
@<TRIPOS>SUBSTRUCTURE
  1 ****   5 GROUP 4 **** **** 0

# MOE 2024.06 (io_trps.svl 2023.06)
