@<TRIPOS>MOLECULE
NONAME
49 51 1 0 0 
SMALL
USER_CHARGES


@<TRIPOS>ATOM
  1 O       -0.8640     0.1420    -0.5240 O.2   1 <1>  -0.5700 
  2 C       -1.4990     1.1120    -0.1350 C.2   1 <1>   0.7160 
  3 N       -2.8770     0.9630    -0.0160 N.am  1 <1>  -0.6600 
  4 C       -0.7680     2.3420     0.1770 C.2   1 <1>   0.2030 
  5 C       -3.5920    -0.2030    -0.6220 C.3   1 <1>   0.1400 
  6 C       -3.7320     1.9060     0.7560 C.3   1 <1>   0.1400 
  7 N       -1.2330     3.5820     0.2260 N.2   1 <1>  -0.7070 
  8 C        0.6080     2.3420     0.4560 C.2   1 <1>  -0.1500 
  9 C       -4.6820     0.2340    -1.6140 C.3   1 <1>   0.1400 
 10 C       -4.4520     2.8540    -0.2070 C.3   1 <1>  -0.1600 
 11 N       -0.1680     4.3490     0.5380 N.pl3 1 <1>   0.3000 
 12 C        0.9660     3.6230     0.6770 C.2   1 <1>  -0.0680 
 13 N       -5.8520     0.8500    -0.9120 N.am  1 <1>  -0.6600 
 14 C       -5.7990     2.3340    -0.7310 C.3   1 <1>   0.1400 
 15 N        2.2300     4.1340     0.9940 N.pl3 1 <1>  -0.8840 
 16 C       -6.9490     0.1380    -0.4880 C.2   1 <1>   0.5690 
 17 O       -7.8930     0.6800     0.0380 O.2   1 <1>  -0.5700 
 18 C       -7.0060    -1.3700    -0.6740 C.3   1 <1>  -0.0990 
 19 C       -8.1820    -2.0080     0.0640 C.3   1 <1>   0.1200 
 20 O       -8.1120    -3.4040    -0.1240 O.3   1 <1>  -0.3630 
 21 C       -9.0270    -4.2320     0.4390 C.ar  1 <1>   0.0830 
 22 C      -10.0990    -3.7920     1.2120 C.ar  1 <1>  -0.1500 
 23 C       -8.8620    -5.5900     0.2140 C.ar  1 <1>  -0.1500 
 24 C      -10.9870    -4.7090     1.7500 C.ar  1 <1>  -0.1500 
 25 C       -9.7500    -6.5040     0.7530 C.ar  1 <1>  -0.1500 
 26 C      -10.8130    -6.0630     1.5220 C.ar  1 <1>  -0.1500 
 27 H       -4.0240    -0.7990     0.1620 H     1 <1>   0.0800 
 28 H       -2.8960    -0.8280    -1.1530 H     1 <1>   0.0800 
 29 H       -3.1250     2.4730     1.4390 H     1 <1>   0.0800 
 30 H       -4.4450     1.3570     1.3480 H     1 <1>   0.0800 
 31 H        1.2290     1.4650     0.4790 H     1 <1>   0.1500 
 32 H       -5.0050    -0.6230    -2.1750 H     1 <1>   0.0800 
 33 H       -4.2650     0.9330    -2.3190 H     1 <1>   0.0800 
 34 H       -3.8040     3.0940    -1.0310 H     1 <1>   0.0800 
 35 H       -4.6420     3.7780     0.3070 H     1 <1>   0.0800 
 36 H       -0.2270     5.3630     0.6750 H     1 <1>   0.2700 
 37 H       -6.0270     2.8100    -1.6690 H     1 <1>   0.0800 
 38 H       -6.5600     2.6330    -0.0300 H     1 <1>   0.0800 
 39 H        2.5300     4.9540     0.4530 H     1 <1>   0.4000 
 40 H        2.9780     3.4300     0.9850 H     1 <1>   0.4000 
 41 H       -6.0990    -1.8040    -0.3000 H     1 <1>   0.0800 
 42 H       -7.1000    -1.5810    -1.7220 H     1 <1>   0.0800 
 43 H       -9.1180    -1.6530    -0.3320 H     1 <1>   0.0800 
 44 H       -8.1230    -1.8010     1.1190 H     1 <1>   0.0800 
 45 H      -10.2580    -2.7480     1.4060 H     1 <1>   0.1500 
 46 H       -8.0340    -5.9240    -0.3840 H     1 <1>   0.1500 
 47 H      -11.8140    -4.3670     2.3480 H     1 <1>   0.1500 
 48 H       -9.6140    -7.5570     0.5740 H     1 <1>   0.1500 
 49 H      -11.5050    -6.7730     1.9410 H     1 <1>   0.1500 
@<TRIPOS>BOND
  1   1   2  2   
  2   2   3  am  
  3   2   4  1   
  4   3   5  1   
  5   3   6  1   
  6   4   7  2   
  7   4   8  1   
  8   5   9  1   
  9   5  27  1   
 10   5  28  1   
 11   6  10  1   
 12   6  29  1   
 13   6  30  1   
 14   7  11  1   
 15   8  12  2   
 16   8  31  1   
 17   9  13  1   
 18   9  32  1   
 19   9  33  1   
 20  10  14  1   
 21  10  34  1   
 22  10  35  1   
 23  11  12  1   
 24  11  36  1   
 25  12  15  1   
 26  13  14  1   
 27  13  16  am  
 28  14  37  1   
 29  14  38  1   
 30  15  39  1   
 31  15  40  1   
 32  16  17  2   
 33  16  18  1   
 34  18  19  1   
 35  18  41  1   
 36  18  42  1   
 37  19  20  1   
 38  19  43  1   
 39  19  44  1   
 40  20  21  1   
 41  21  22  ar  
 42  21  23  ar  
 43  22  24  ar  
 44  22  45  1   
 45  23  25  ar  
 46  23  46  1   
 47  24  26  ar  
 48  24  47  1   
 49  25  26  ar  
 50  25  48  1   
 51  26  49  1   
@<TRIPOS>SUBSTRUCTURE
  1 ****   5 GROUP 4 **** **** 0

# MOE 2024.06 (io_trps.svl 2023.06)
