@<TRIPOS>MOLECULE
NONAME
54 57 1 0 0 
SMALL
USER_CHARGES


@<TRIPOS>ATOM
  1 O        0.5360    -0.4740     1.1130 O.2   1 <1>  -0.5700 
  2 C        1.4500    -0.8590     0.4190 C.2   1 <1>   0.5690 
  3 N        2.3900    -0.0150    -0.1480 N.am  1 <1>  -0.4770 
  4 C        1.4980    -2.3820     0.1910 C.3   1 <1>   0.4040 
  5 C        2.3140     1.4020    -0.0970 C.ar  1 <1>   0.1170 
  6 C        3.6780    -0.5300    -0.6960 C.3   1 <1>   0.1400 
  7 N        0.1820    -3.0780     0.4680 N.4   1 <1>  -0.9590 
  8 C        3.4750     2.1730     0.0320 C.ar  1 <1>  -0.1430 
  9 C        1.0950     2.0710    -0.1920 C.ar  1 <1>  -0.1500 
 10 C        4.8160     0.0130     0.1660 C.3   1 <1>  -0.1600 
 11 C        0.3260    -4.5460     0.6600 C.3   1 <1>   0.3430 
 12 C       -0.8580    -2.7140    -0.5370 C.3   1 <1>   0.3430 
 13 C        3.3940     3.5540     0.0910 C.ar  1 <1>  -0.1500 
 14 C        4.8630     1.5430     0.0840 C.3   1 <1>  -0.0170 
 15 C        1.0220     3.4490    -0.1340 C.ar  1 <1>  -0.1500 
 16 C       -1.0060    -5.1320     1.1160 C.3   1 <1>  -0.1600 
 17 C       -2.2070    -3.2750    -0.0990 C.3   1 <1>  -0.1600 
 18 C        2.1730     4.2010     0.0140 C.ar  1 <1>  -0.1430 
 19 C       -2.1550    -4.7900     0.1530 C.3   1 <1>   0.1000 
 20 C        2.1000     5.7160     0.0820 C.3   1 <1>  -0.0970 
 21 C       -3.4810    -5.2610     0.7390 C.2   1 <1>   0.0060 
 22 N       -3.9140    -4.8760     1.8910 N.2   1 <1>  -0.3380 
 23 N       -4.3430    -6.1040     0.1530 N.pl3 1 <1>   0.0480 
 24 N       -5.0890    -5.4690     2.0920 N.2   1 <1>  -0.3380 
 25 C       -5.3240    -6.1900     1.0530 C.2   1 <1>   0.0360 
 26 C       -4.2780    -6.7910    -1.1510 C.3   1 <1>   0.0160 
 27 H        2.2530    -2.7780     0.8470 H     1 <1>   0.0800 
 28 H        1.8000    -2.5710    -0.8240 H     1 <1>   0.0800 
 29 H        3.7930    -0.1810    -1.7100 H     1 <1>   0.0800 
 30 H        3.7200    -1.6020    -0.7030 H     1 <1>   0.0800 
 31 H       -0.1520    -2.6590     1.3570 H     1 <1>   0.4500 
 32 H        0.1840     1.5170    -0.3110 H     1 <1>   0.1500 
 33 H        5.7570    -0.3910    -0.1630 H     1 <1>   0.0800 
 34 H        4.6630    -0.2870     1.1880 H     1 <1>   0.0800 
 35 H        1.0770    -4.7500     1.4070 H     1 <1>   0.0800 
 36 H        0.6280    -5.0090    -0.2650 H     1 <1>   0.0800 
 37 H       -0.5930    -3.1120    -1.5030 H     1 <1>   0.0800 
 38 H       -0.9330    -1.6400    -0.6180 H     1 <1>   0.0800 
 39 H        4.2920     4.1370     0.1950 H     1 <1>   0.1500 
 40 H        5.4090     1.9320     0.9260 H     1 <1>   0.0800 
 41 H        5.3890     1.8290    -0.8100 H     1 <1>   0.0800 
 42 H        0.0650     3.9350    -0.2030 H     1 <1>   0.1500 
 43 H       -1.2290    -4.7580     2.1010 H     1 <1>   0.0800 
 44 H       -0.9170    -6.2010     1.1980 H     1 <1>   0.0800 
 45 H       -2.9430    -3.0630    -0.8540 H     1 <1>   0.0800 
 46 H       -2.5200    -2.7650     0.7970 H     1 <1>   0.0800 
 47 H       -1.9780    -5.2900    -0.7830 H     1 <1>   0.0800 
 48 H        2.8790     6.1010     0.7140 H     1 <1>   0.0800 
 49 H        1.1530     6.0300     0.4830 H     1 <1>   0.0800 
 50 H        2.2150     6.1300    -0.9040 H     1 <1>   0.0800 
 51 H       -6.2030    -6.7930     0.9160 H     1 <1>   0.1500 
 52 H       -3.4240    -7.4430    -1.1700 H     1 <1>   0.0800 
 53 H       -4.1990    -6.0620    -1.9370 H     1 <1>   0.0800 
 54 H       -5.1700    -7.3730    -1.2970 H     1 <1>   0.0800 
@<TRIPOS>BOND
  1   1   2  2   
  2   2   3  am  
  3   2   4  1   
  4   3   5  1   
  5   3   6  1   
  6   4   7  1   
  7   4  27  1   
  8   4  28  1   
  9   5   8  ar  
 10   5   9  ar  
 11   6  10  1   
 12   6  29  1   
 13   6  30  1   
 14   7  11  1   
 15   7  12  1   
 16   7  31  1   
 17   8  13  ar  
 18   8  14  1   
 19   9  15  ar  
 20   9  32  1   
 21  10  14  1   
 22  10  33  1   
 23  10  34  1   
 24  11  16  1   
 25  11  35  1   
 26  11  36  1   
 27  12  17  1   
 28  12  37  1   
 29  12  38  1   
 30  13  18  ar  
 31  13  39  1   
 32  14  40  1   
 33  14  41  1   
 34  15  18  ar  
 35  15  42  1   
 36  16  19  1   
 37  16  43  1   
 38  16  44  1   
 39  17  19  1   
 40  17  45  1   
 41  17  46  1   
 42  18  20  1   
 43  19  21  1   
 44  19  47  1   
 45  20  48  1   
 46  20  49  1   
 47  20  50  1   
 48  21  22  2   
 49  21  23  1   
 50  22  24  1   
 51  23  25  1   
 52  23  26  1   
 53  24  25  2   
 54  25  51  1   
 55  26  52  1   
 56  26  53  1   
 57  26  54  1   
@<TRIPOS>SUBSTRUCTURE
  1 ****   1 GROUP 4 **** **** 0

# MOE 2024.06 (io_trps.svl 2023.06)
