@<TRIPOS>MOLECULE
NONAME
44 45 1 0 0 
SMALL
USER_CHARGES


@<TRIPOS>ATOM
  1 CL      -3.0430    -1.3230     3.0350 Cl    1 <1>  -0.1770 
  2 C       -3.1060    -0.7310     1.3920 C.ar  1 <1>   0.1770 
  3 C       -2.0070    -0.8390     0.5550 C.ar  1 <1>   0.1770 
  4 C       -4.2770    -0.1530     0.9370 C.ar  1 <1>  -0.1500 
  5 CL      -0.5200    -1.5670     1.1160 Cl    1 <1>  -0.1770 
  6 C       -2.0730    -0.3710    -0.7450 C.ar  1 <1>  -0.1500 
  7 C       -4.3520     0.3210    -0.3670 C.ar  1 <1>  -0.1440 
  8 C       -3.2470     0.2090    -1.2020 C.ar  1 <1>  -0.1500 
  9 C       -5.6470     0.9500    -0.8790 C.3   1 <1>   0.0440 
 10 C       -6.6540    -0.0670    -1.3910 C.2   1 <1>   0.5690 
 11 O       -7.7520     0.3160    -1.7100 O.2   1 <1>  -0.5700 
 12 N       -6.3060    -1.3760    -1.4790 N.am  1 <1>  -0.7300 
 13 C       -7.1900    -2.4720    -1.9270 C.3   1 <1>   0.2200 
 14 C       -7.4560    -3.4040    -0.7580 C.3   1 <1>  -0.0800 
 15 C       -6.4330    -3.3800    -2.8890 C.3   1 <1>   0.1200 
 16 C       -6.2110    -4.2980    -0.7810 C.3   1 <1>   0.1200 
 17 C       -8.7530    -4.2100    -0.9750 C.3   1 <1>  -0.0550 
 18 O       -5.7450    -4.3040    -2.0990 O.3   1 <1>  -0.5600 
 19 S       -9.2830    -5.1250     0.4740 S.o2  1 <1>   1.3330 
 20 O       -9.5640    -4.1660     1.5180 O.2   1 <1>  -0.6500 
 21 O       -8.3640    -6.2110     0.7320 O.2   1 <1>  -0.6500 
 22 N      -10.7530    -5.8020    -0.0370 N.am  1 <1>  -0.8490 
 23 C      -10.5900    -7.0600    -0.7730 C.3   1 <1>   0.1160 
 24 C      -11.6930    -5.9920     1.0720 C.3   1 <1>   0.1160 
 25 H       -5.1200    -0.0800     1.6030 H     1 <1>   0.1500 
 26 H       -1.2150    -0.4590    -1.3870 H     1 <1>   0.1500 
 27 H       -3.2930     0.5720    -2.2160 H     1 <1>   0.1500 
 28 H       -5.4320     1.6370    -1.6760 H     1 <1>   0.0800 
 29 H       -6.1120     1.5110    -0.0900 H     1 <1>   0.0800 
 30 H       -5.3590    -1.6630    -1.2140 H     1 <1>   0.3700 
 31 H       -8.0890    -2.0710    -2.3680 H     1 <1>   0.0800 
 32 H       -7.5340    -2.8570     0.1670 H     1 <1>   0.0800 
 33 H       -5.7360    -2.8410    -3.5070 H     1 <1>   0.0800 
 34 H       -7.1180    -3.9310    -3.5100 H     1 <1>   0.0800 
 35 H       -6.3980    -5.3120    -0.4740 H     1 <1>   0.0800 
 36 H       -5.4330    -3.8810    -0.1650 H     1 <1>   0.0800 
 37 H       -8.6250    -4.8860    -1.7980 H     1 <1>   0.0800 
 38 H       -9.5380    -3.5260    -1.2330 H     1 <1>   0.0800 
 39 H      -11.5410    -7.3930    -1.1520 H     1 <1>   0.0800 
 40 H      -10.1820    -7.8240    -0.1300 H     1 <1>   0.0800 
 41 H       -9.9230    -6.9200    -1.6060 H     1 <1>   0.0800 
 42 H      -12.6180    -6.4080     0.7110 H     1 <1>   0.0800 
 43 H      -11.9110    -5.0450     1.5380 H     1 <1>   0.0800 
 44 H      -11.2710    -6.6520     1.8120 H     1 <1>   0.0800 
@<TRIPOS>BOND
  1   1   2  1   
  2   2   3  ar  
  3   2   4  ar  
  4   3   5  1   
  5   3   6  ar  
  6   4   7  ar  
  7   4  25  1   
  8   6   8  ar  
  9   6  26  1   
 10   7   8  ar  
 11   7   9  1   
 12   8  27  1   
 13   9  10  1   
 14   9  28  1   
 15   9  29  1   
 16  10  11  2   
 17  10  12  am  
 18  12  13  1   
 19  12  30  1   
 20  13  14  1   
 21  13  15  1   
 22  13  31  1   
 23  14  16  1   
 24  14  17  1   
 25  14  32  1   
 26  15  18  1   
 27  15  33  1   
 28  15  34  1   
 29  16  18  1   
 30  16  35  1   
 31  16  36  1   
 32  17  19  1   
 33  17  37  1   
 34  17  38  1   
 35  19  20  2   
 36  19  21  2   
 37  19  22  am  
 38  22  23  1   
 39  22  24  1   
 40  23  39  1   
 41  23  40  1   
 42  23  41  1   
 43  24  42  1   
 44  24  43  1   
 45  24  44  1   
@<TRIPOS>SUBSTRUCTURE
  1 ****  14 GROUP 4 **** **** 0

# MOE 2024.06 (io_trps.svl 2023.06)
