@<TRIPOS>MOLECULE
NONAME
55 56 1 0 0 
SMALL
USER_CHARGES


@<TRIPOS>ATOM
  1 S       -0.1800     0.1650     1.6340 S.o2  1 <1>   1.5760 
  2 O        0.6100    -0.7220     2.4560 O.2   1 <1>  -0.6500 
  3 O       -0.9850     1.2060     2.2310 O.2   1 <1>  -0.6500 
  4 N       -1.1970    -0.8180     0.7050 N.am  1 <1>  -0.8490 
  5 N        0.7840     0.8470     0.4300 N.am  1 <1>  -0.8490 
  6 C       -2.3470    -1.2420     1.5210 C.3   1 <1>   0.1960 
  7 C       -0.4490    -1.9270     0.1040 C.3   1 <1>   0.1960 
  8 C        0.0390     1.8230    -0.3710 C.3   1 <1>   0.1960 
  9 C        1.9850     1.4530     1.0080 C.3   1 <1>   0.1960 
 10 C       -3.4170    -2.0490     0.7630 C.3   1 <1>   0.3430 
 11 C       -1.1970    -2.4580    -1.1200 C.3   1 <1>  -0.1600 
 12 C        0.9000     2.3110    -1.5410 C.3   1 <1>  -0.1600 
 13 C        2.9220     1.9380    -0.1050 C.3   1 <1>  -0.1600 
 14 N       -2.9620    -3.4320     0.4250 N.4   1 <1>  -0.9590 
 15 C       -2.1840    -3.5910    -0.8430 C.3   1 <1>   0.3430 
 16 C        2.2150     2.9220    -1.0450 C.3   1 <1>  -0.1600 
 17 C       -4.0920    -4.4600     0.4630 C.3   1 <1>   0.3170 
 18 C       -3.5730    -5.9220     0.4540 C.2   1 <1>   0.9060 
 19 C       -5.1400    -4.1870    -0.6450 C.3   1 <1>  -0.1600 
 20 O       -3.0320    -6.3570    -0.5710 O.co2 1 <1>  -0.9000 
 21 O       -3.5920    -6.5420     1.5180 O.co2 1 <1>  -0.9000 
 22 C       -6.5850    -4.4640    -0.1950 C.3   1 <1>  -0.1600 
 23 C       -6.8340    -5.9330     0.1770 C.3   1 <1>  -0.1600 
 24 C       -8.3190    -6.1830     0.4560 C.3   1 <1>  -0.2400 
 25 H       -2.8380    -0.3600     1.8970 H     1 <1>   0.0800 
 26 H       -2.0060    -1.8040     2.3750 H     1 <1>   0.0800 
 27 H       -0.2510    -2.7030     0.8260 H     1 <1>   0.0800 
 28 H        0.5060    -1.5630    -0.2420 H     1 <1>   0.0800 
 29 H       -0.2510     2.6610     0.2430 H     1 <1>   0.0800 
 30 H       -0.8550     1.3670    -0.7600 H     1 <1>   0.0800 
 31 H        2.5090     0.7260     1.6060 H     1 <1>   0.0800 
 32 H        1.7100     2.2780     1.6450 H     1 <1>   0.0800 
 33 H       -3.7040    -1.5200    -0.1300 H     1 <1>   0.0800 
 34 H       -4.2840    -2.1190     1.3980 H     1 <1>   0.0800 
 35 H       -0.4710    -2.8470    -1.8110 H     1 <1>   0.0800 
 36 H       -1.6930    -1.6490    -1.6250 H     1 <1>   0.0800 
 37 H        0.3510     3.0430    -2.1070 H     1 <1>   0.0800 
 38 H        1.1060     1.4780    -2.1910 H     1 <1>   0.0800 
 39 H        3.2650     1.0850    -0.6630 H     1 <1>   0.0800 
 40 H        3.7820     2.4110     0.3340 H     1 <1>   0.0800 
 41 H       -2.3300    -3.7560     1.1710 H     1 <1>   0.4500 
 42 H       -1.6400    -4.5230    -0.7940 H     1 <1>   0.0800 
 43 H       -2.8590    -3.6730    -1.6780 H     1 <1>   0.0800 
 44 H        2.0070     3.8360    -0.5150 H     1 <1>   0.0800 
 45 H        2.8520     3.1570    -1.8810 H     1 <1>   0.0800 
 46 H       -4.5930    -4.3550     1.4080 H     1 <1>   0.0800 
 47 H       -4.9190    -4.8020    -1.5020 H     1 <1>   0.0800 
 48 H       -5.0970    -3.1640    -0.9670 H     1 <1>   0.0800 
 49 H       -7.2460    -4.1990    -1.0030 H     1 <1>   0.0800 
 50 H       -6.8320    -3.8380     0.6450 H     1 <1>   0.0800 
 51 H       -6.2720    -6.2020     1.0550 H     1 <1>   0.0800 
 52 H       -6.5140    -6.5740    -0.6280 H     1 <1>   0.0800 
 53 H       -8.6580    -5.5690     1.2720 H     1 <1>   0.0800 
 54 H       -8.4690    -7.2150     0.7200 H     1 <1>   0.0800 
 55 H       -8.9100    -5.9650    -0.4160 H     1 <1>   0.0800 
@<TRIPOS>BOND
  1   1   2  2   
  2   1   3  2   
  3   1   4  am  
  4   1   5  am  
  5   4   6  1   
  6   4   7  1   
  7   5   8  1   
  8   5   9  1   
  9   6  10  1   
 10   6  25  1   
 11   6  26  1   
 12   7  11  1   
 13   7  27  1   
 14   7  28  1   
 15   8  12  1   
 16   8  29  1   
 17   8  30  1   
 18   9  13  1   
 19   9  31  1   
 20   9  32  1   
 21  10  14  1   
 22  10  33  1   
 23  10  34  1   
 24  11  15  1   
 25  11  35  1   
 26  11  36  1   
 27  12  16  1   
 28  12  37  1   
 29  12  38  1   
 30  13  16  1   
 31  13  39  1   
 32  13  40  1   
 33  14  15  1   
 34  14  17  1   
 35  14  41  1   
 36  15  42  1   
 37  15  43  1   
 38  16  44  1   
 39  16  45  1   
 40  17  18  1   
 41  17  19  1   
 42  17  46  1   
 43  18  20  ar  
 44  18  21  ar  
 45  19  22  1   
 46  19  47  1   
 47  19  48  1   
 48  22  23  1   
 49  22  49  1   
 50  22  50  1   
 51  23  24  1   
 52  23  51  1   
 53  23  52  1   
 54  24  53  1   
 55  24  54  1   
 56  24  55  1   
@<TRIPOS>SUBSTRUCTURE
  1 ****   4 GROUP 4 **** **** 0

# MOE 2024.06 (io_trps.svl 2023.06)
