@<TRIPOS>MOLECULE
NONAME
51 54 1 0 0 
SMALL
USER_CHARGES


@<TRIPOS>ATOM
  1 O       -0.0500     0.1340    -0.8520 O.2   1 <1>  -0.5700 
  2 C       -1.0830     0.7490    -0.7460 C.2   1 <1>   0.5690 
  3 N       -2.2820     0.1160    -0.5630 N.am  1 <1>  -0.6600 
  4 C       -0.9970     2.2620    -0.8010 C.3   1 <1>  -0.0990 
  5 C       -3.6110     0.7470    -0.3620 C.3   1 <1>   0.1400 
  6 C       -2.3960    -1.3620    -0.5190 C.3   1 <1>   0.1400 
  7 C       -0.6120     2.8360     0.5690 C.3   1 <1>  -0.0220 
  8 C       -4.5890    -0.4200    -0.2060 C.3   1 <1>   0.2000 
  9 C       -3.7400    -1.6360     0.1590 C.3   1 <1>  -0.0800 
 10 C       -0.4240     4.3560     0.4960 C.2   1 <1>  -0.1240 
 11 O       -5.5160    -0.1730     0.7950 O.3   1 <1>  -0.6800 
 12 C       -4.4000    -2.9630    -0.2570 C.3   1 <1>  -0.0170 
 13 C       -1.5280     5.2290     0.7960 C.2   1 <1>   0.3750 
 14 C        0.7810     4.9070     0.1490 C.2   1 <1>  -0.1690 
 15 C       -3.5630    -4.1650     0.1500 C.ar  1 <1>   0.1670 
 16 N       -1.4460     6.5170     0.7670 N.2   1 <1>  -0.5760 
 17 C       -2.8900     4.6700     1.1720 C.3   1 <1>  -0.1790 
 18 N        0.8560     6.2940     0.1310 N.pl3 1 <1>   0.6010 
 19 C        2.0640     4.1620    -0.2330 C.3   1 <1>  -0.1020 
 20 N       -2.5540    -4.4780    -0.6470 N.ar  1 <1>  -0.6200 
 21 C       -3.8740    -4.8730     1.3100 C.ar  1 <1>   0.1600 
 22 C       -0.2330     7.0520     0.4320 C.2   1 <1>   0.3120 
 23 N        1.8740     7.1050    -0.1500 N.2   1 <1>  -0.7070 
 24 C       -1.8820    -5.5300    -0.2090 C.ar  1 <1>   0.1600 
 25 N       -3.2040    -5.9250     1.7500 N.ar  1 <1>  -0.6200 
 26 N        0.0490     8.3140     0.3540 N.2   1 <1>  -0.5650 
 27 C        1.3320     8.2730     0.0000 C.2   1 <1>   0.3660 
 28 C       -2.1960    -6.2290     0.9500 C.ar  1 <1>   0.1600 
 29 H       -0.2410     2.5220    -1.5210 H     1 <1>   0.0800 
 30 H       -1.9210     2.6830    -1.1450 H     1 <1>   0.0800 
 31 H       -3.5900     1.3530     0.5260 H     1 <1>   0.0800 
 32 H       -3.8750     1.3420    -1.2190 H     1 <1>   0.0800 
 33 H       -2.3880    -1.7440    -1.5260 H     1 <1>   0.0800 
 34 H       -1.5780    -1.8010     0.0290 H     1 <1>   0.0800 
 35 H        0.2980     2.3690     0.9030 H     1 <1>   0.0800 
 36 H       -1.3530     2.5650     1.2980 H     1 <1>   0.0800 
 37 H       -5.1200    -0.5730    -1.1300 H     1 <1>   0.0800 
 38 H       -3.5600    -1.6450     1.2200 H     1 <1>   0.0800 
 39 H       -5.0780    -0.1280     1.6660 H     1 <1>   0.4000 
 40 H       -4.5440    -2.9840    -1.3230 H     1 <1>   0.0800 
 41 H       -5.3710    -3.0320     0.2000 H     1 <1>   0.0800 
 42 H       -3.2400     3.9920     0.4180 H     1 <1>   0.0800 
 43 H       -3.6070     5.4670     1.2600 H     1 <1>   0.0800 
 44 H       -2.8330     4.1680     2.1190 H     1 <1>   0.0800 
 45 H        2.4360     4.5360    -1.1710 H     1 <1>   0.0800 
 46 H        1.9230     3.1040    -0.3410 H     1 <1>   0.0800 
 47 H        2.8180     4.3310     0.5160 H     1 <1>   0.0800 
 48 H       -4.7140    -4.5550     1.9020 H     1 <1>   0.1500 
 49 H       -1.0410    -5.8550    -0.7960 H     1 <1>   0.1500 
 50 H        1.8820     9.1890    -0.1510 H     1 <1>   0.1500 
 51 H       -1.5880    -7.0730     1.2240 H     1 <1>   0.1500 
@<TRIPOS>BOND
  1   1   2  2   
  2   2   3  am  
  3   2   4  1   
  4   3   5  1   
  5   3   6  1   
  6   4   7  1   
  7   4  29  1   
  8   4  30  1   
  9   5   8  1   
 10   5  31  1   
 11   5  32  1   
 12   6   9  1   
 13   6  33  1   
 14   6  34  1   
 15   7  10  1   
 16   7  35  1   
 17   7  36  1   
 18   8   9  1   
 19   8  11  1   
 20   8  37  1   
 21   9  12  1   
 22   9  38  1   
 23  10  13  1   
 24  10  14  2   
 25  11  39  1   
 26  12  15  1   
 27  12  40  1   
 28  12  41  1   
 29  13  16  2   
 30  13  17  1   
 31  14  18  1   
 32  14  19  1   
 33  15  20  ar  
 34  15  21  ar  
 35  16  22  1   
 36  17  42  1   
 37  17  43  1   
 38  17  44  1   
 39  18  22  1   
 40  18  23  1   
 41  19  45  1   
 42  19  46  1   
 43  19  47  1   
 44  20  24  ar  
 45  21  25  ar  
 46  21  48  1   
 47  22  26  2   
 48  23  27  2   
 49  24  28  ar  
 50  24  49  1   
 51  25  28  ar  
 52  26  27  1   
 53  27  50  1   
 54  28  51  1   
@<TRIPOS>SUBSTRUCTURE
  1 ****   2 GROUP 4 **** **** 0

# MOE 2024.06 (io_trps.svl 2023.06)
