@<TRIPOS>MOLECULE
NONAME
57 60 1 0 0 
SMALL
USER_CHARGES


@<TRIPOS>ATOM
  1 O        0.2120     0.0310    -0.7390 O.2   1 <1>  -0.5700 
  2 C       -0.7820     0.7110    -0.8170 C.2   1 <1>   0.5690 
  3 N       -2.0340     0.1600    -0.8370 N.am  1 <1>  -0.6600 
  4 C       -0.6030     2.2140    -0.8740 C.3   1 <1>  -0.0990 
  5 C       -3.3270     0.8860    -0.8710 C.3   1 <1>   0.1400 
  6 C       -2.2610    -1.3020    -0.7480 C.3   1 <1>   0.1400 
  7 C       -0.5640     2.8100     0.5350 C.3   1 <1>   0.0210 
  8 C       -4.4030    -0.1930    -0.7280 C.3   1 <1>   0.2000 
  9 C       -3.6870    -1.4410    -0.2130 C.3   1 <1>  -0.0800 
 10 C       -0.4750     4.3230     0.4560 C.2   1 <1>  -0.1810 
 11 O       -5.3840     0.1910     0.1720 O.3   1 <1>  -0.6800 
 12 C       -4.3870    -2.7440    -0.6350 C.3   1 <1>  -0.0170 
 13 C       -1.5390     5.2210     0.4400 C.2   1 <1>   0.1080 
 14 C        0.6280     5.0980     0.3780 C.2   1 <1>  -0.3320 
 15 C       -3.6420    -3.9640    -0.1220 C.ar  1 <1>   0.1670 
 16 N       -1.1420     6.4490     0.3600 N.2   1 <1>  -0.7070 
 17 C       -3.0060     4.8610     0.5040 C.3   1 <1>  -0.0590 
 18 N        0.1970     6.3780     0.3240 N.pl3 1 <1>   0.3140 
 19 C        2.0950     4.6930     0.3460 C.3   1 <1>  -0.0600 
 20 N       -2.6970    -4.4440    -0.8700 N.ar  1 <1>  -0.6200 
 21 C       -3.9990    -4.5040     1.1240 C.ar  1 <1>  -0.1500 
 22 C        1.0170     7.5920     0.2330 C.3   1 <1>   0.0160 
 23 C       -2.0150    -5.5260    -0.4130 C.ar  1 <1>   0.3100 
 24 C       -3.3340    -5.5910     1.6060 C.ar  1 <1>  -0.1500 
 25 C       -2.3000    -6.1370     0.8280 C.ar  1 <1>   0.0000 
 26 C       -0.9830    -6.0600    -1.1990 C.ar  1 <1>  -0.1500 
 27 C       -1.5440    -7.2560     1.2300 C.ar  1 <1>  -0.1500 
 28 C       -0.2580    -7.1480    -0.7910 C.ar  1 <1>  -0.1500 
 29 C       -0.5430    -7.7520     0.4380 C.ar  1 <1>  -0.1500 
 30 H        0.3240     2.4310    -1.3720 H     1 <1>   0.0800 
 31 H       -1.3890     2.6650    -1.4480 H     1 <1>   0.0800 
 32 H       -3.3720     1.5850    -0.0550 H     1 <1>   0.0800 
 33 H       -3.4370     1.4010    -1.8090 H     1 <1>   0.0800 
 34 H       -2.1750    -1.7310    -1.7320 H     1 <1>   0.0800 
 35 H       -1.5440    -1.7720    -0.0960 H     1 <1>   0.0800 
 36 H        0.2880     2.4220     1.0650 H     1 <1>   0.0800 
 37 H       -1.4430     2.5270     1.0850 H     1 <1>   0.0800 
 38 H       -4.8680    -0.3710    -1.6830 H     1 <1>   0.0800 
 39 H       -3.6220    -1.4050     0.8610 H     1 <1>   0.0800 
 40 H       -5.0030     0.2960     1.0650 H     1 <1>   0.4000 
 41 H       -4.4450    -2.7970    -1.7080 H     1 <1>   0.0800 
 42 H       -5.3930    -2.7510    -0.2570 H     1 <1>   0.0800 
 43 H       -3.2600     4.2160    -0.3140 H     1 <1>   0.0800 
 44 H       -3.6010     5.7540     0.4390 H     1 <1>   0.0800 
 45 H       -3.2190     4.3700     1.4340 H     1 <1>   0.0800 
 46 H        2.1950     3.6230     0.3600 H     1 <1>   0.0800 
 47 H        2.6080     5.0940     1.2010 H     1 <1>   0.0800 
 48 H        2.5610     5.0630    -0.5490 H     1 <1>   0.0800 
 49 H       -4.7960    -4.0520     1.6860 H     1 <1>   0.1500 
 50 H        1.6750     7.6360     1.0800 H     1 <1>   0.0800 
 51 H        0.3720     8.4510     0.2320 H     1 <1>   0.0800 
 52 H        1.5840     7.5650    -0.6770 H     1 <1>   0.0800 
 53 H       -3.5780    -6.0330     2.5550 H     1 <1>   0.1500 
 54 H       -0.7790    -5.5810    -2.1390 H     1 <1>   0.1500 
 55 H       -1.7670    -7.7150     2.1760 H     1 <1>   0.1500 
 56 H        0.5320    -7.5470    -1.4040 H     1 <1>   0.1500 
 57 H        0.0340    -8.6070     0.7480 H     1 <1>   0.1500 
@<TRIPOS>BOND
  1   1   2  2   
  2   2   3  am  
  3   2   4  1   
  4   3   5  1   
  5   3   6  1   
  6   4   7  1   
  7   4  30  1   
  8   4  31  1   
  9   5   8  1   
 10   5  32  1   
 11   5  33  1   
 12   6   9  1   
 13   6  34  1   
 14   6  35  1   
 15   7  10  1   
 16   7  36  1   
 17   7  37  1   
 18   8   9  1   
 19   8  11  1   
 20   8  38  1   
 21   9  12  1   
 22   9  39  1   
 23  10  13  1   
 24  10  14  2   
 25  11  40  1   
 26  12  15  1   
 27  12  41  1   
 28  12  42  1   
 29  13  16  2   
 30  13  17  1   
 31  14  18  1   
 32  14  19  1   
 33  15  20  ar  
 34  15  21  ar  
 35  16  18  1   
 36  17  43  1   
 37  17  44  1   
 38  17  45  1   
 39  18  22  1   
 40  19  46  1   
 41  19  47  1   
 42  19  48  1   
 43  20  23  ar  
 44  21  24  ar  
 45  21  49  1   
 46  22  50  1   
 47  22  51  1   
 48  22  52  1   
 49  23  25  ar  
 50  23  26  ar  
 51  24  25  ar  
 52  24  53  1   
 53  25  27  ar  
 54  26  28  ar  
 55  26  54  1   
 56  27  29  ar  
 57  27  55  1   
 58  28  29  ar  
 59  28  56  1   
 60  29  57  1   
@<TRIPOS>SUBSTRUCTURE
  1 ****   3 GROUP 4 **** **** 0

# MOE 2024.06 (io_trps.svl 2023.06)
