@<TRIPOS>MOLECULE
NONAME
53 56 1 0 0 
SMALL
USER_CHARGES


@<TRIPOS>ATOM
  1 O        0.7070     1.5560     0.1570 O.3   1 <1>  -0.0190 
  2 N        1.3820     0.4870    -0.1550 N.2   1 <1>  -0.4100 
  3 C        0.9850     2.5550    -0.6370 C.2   1 <1>  -0.0400 
  4 C        2.1020     0.8040    -1.1700 C.2   1 <1>   0.1080 
  5 C        1.8900     2.1320    -1.5320 C.2   1 <1>  -0.1500 
  6 C        0.3140     3.8990    -0.4330 C.3   1 <1>   0.0200 
  7 C        3.0500    -0.1440    -1.8700 C.3   1 <1>  -0.0590 
  8 C        0.6560     4.4840     0.9450 C.3   1 <1>  -0.0800 
  9 C        0.1090     5.8920     1.1390 C.3   1 <1>   0.2000 
 10 C        2.1580     4.6310     1.1900 C.3   1 <1>   0.2090 
 11 O       -1.2160     5.8370     1.5540 O.3   1 <1>  -0.6800 
 12 C        1.0190     6.5230     2.1880 C.3   1 <1>   0.2090 
 13 N        2.3370     5.8470     2.0290 N.pl3 1 <1>  -0.8380 
 14 C        3.3970     6.6520     1.6810 C.ar  1 <1>   0.4100 
 15 N        3.3040     7.3420     0.5790 N.ar  1 <1>  -0.6200 
 16 C        4.5220     6.6790     2.5210 C.ar  1 <1>  -0.1500 
 17 C        4.3610     8.1220     0.2510 C.ar  1 <1>   0.3100 
 18 C        5.6000     7.4510     2.2200 C.ar  1 <1>  -0.1440 
 19 C        5.5360     8.2180     1.0350 C.ar  1 <1>   0.0000 
 20 C        4.2720     8.8680    -0.9340 C.ar  1 <1>  -0.1500 
 21 C        6.8200     7.4800     3.1290 C.3   1 <1>  -0.0970 
 22 C        6.5670     9.0700     0.5910 C.ar  1 <1>  -0.1500 
 23 C        5.2880     9.6950    -1.3560 C.ar  1 <1>   0.0820 
 24 C        6.4510     9.7990    -0.5620 C.ar  1 <1>   0.0820 
 25 O        5.2290    10.4080    -2.5140 O.3   1 <1>  -0.3620 
 26 O        7.4900    10.5960    -0.9120 O.3   1 <1>  -0.3620 
 27 C        4.1560    10.2670    -3.4180 C.3   1 <1>   0.0400 
 28 C        7.2660    11.9880    -0.8830 C.3   1 <1>   0.0400 
 29 H        2.3610     2.6580    -2.3410 H     1 <1>   0.1500 
 30 H        0.6370     4.5740    -1.2070 H     1 <1>   0.0800 
 31 H       -0.7520     3.7790    -0.5190 H     1 <1>   0.0800 
 32 H        4.0540     0.2310    -1.8060 H     1 <1>   0.0800 
 33 H        2.7710    -0.2420    -2.9030 H     1 <1>   0.0800 
 34 H        3.0090    -1.1130    -1.4050 H     1 <1>   0.0800 
 35 H        0.2720     3.8380     1.7150 H     1 <1>   0.0800 
 36 H        0.1620     6.4660     0.2300 H     1 <1>   0.0800 
 37 H        2.6830     4.7540     0.2560 H     1 <1>   0.0800 
 38 H        2.5510     3.7650     1.6960 H     1 <1>   0.0800 
 39 H       -1.2960     5.2940     2.3610 H     1 <1>   0.4000 
 40 H        0.6510     6.3310     3.1800 H     1 <1>   0.0800 
 41 H        1.1020     7.5860     2.0310 H     1 <1>   0.0800 
 42 H        4.4840     6.0650     3.4000 H     1 <1>   0.1500 
 43 H        3.3640     8.7550    -1.4910 H     1 <1>   0.1500 
 44 H        6.6820     6.8310     3.9740 H     1 <1>   0.0800 
 45 H        6.9850     8.4790     3.4920 H     1 <1>   0.0800 
 46 H        7.6900     7.1530     2.5880 H     1 <1>   0.0800 
 47 H        7.4690     9.1590     1.1650 H     1 <1>   0.1500 
 48 H        4.3550    10.8910    -4.2710 H     1 <1>   0.0800 
 49 H        3.2490    10.5850    -2.9360 H     1 <1>   0.0800 
 50 H        4.0920     9.2390    -3.7260 H     1 <1>   0.0800 
 51 H        8.2130    12.4820    -1.0050 H     1 <1>   0.0800 
 52 H        6.8300    12.2520     0.0640 H     1 <1>   0.0800 
 53 H        6.6100    12.2600    -1.6890 H     1 <1>   0.0800 
@<TRIPOS>BOND
  1   1   2  1   
  2   1   3  1   
  3   2   4  2   
  4   3   5  2   
  5   3   6  1   
  6   4   5  1   
  7   4   7  1   
  8   5  29  1   
  9   6   8  1   
 10   6  30  1   
 11   6  31  1   
 12   7  32  1   
 13   7  33  1   
 14   7  34  1   
 15   8   9  1   
 16   8  10  1   
 17   8  35  1   
 18   9  11  1   
 19   9  12  1   
 20   9  36  1   
 21  10  13  1   
 22  10  37  1   
 23  10  38  1   
 24  11  39  1   
 25  12  13  1   
 26  12  40  1   
 27  12  41  1   
 28  13  14  1   
 29  14  15  ar  
 30  14  16  ar  
 31  15  17  ar  
 32  16  18  ar  
 33  16  42  1   
 34  17  19  ar  
 35  17  20  ar  
 36  18  19  ar  
 37  18  21  1   
 38  19  22  ar  
 39  20  23  ar  
 40  20  43  1   
 41  21  44  1   
 42  21  45  1   
 43  21  46  1   
 44  22  24  ar  
 45  22  47  1   
 46  23  24  ar  
 47  23  25  1   
 48  24  26  1   
 49  25  27  1   
 50  26  28  1   
 51  27  48  1   
 52  27  49  1   
 53  27  50  1   
 54  28  51  1   
 55  28  52  1   
 56  28  53  1   
@<TRIPOS>SUBSTRUCTURE
  1 ****  15 GROUP 4 **** **** 0

# MOE 2024.06 (io_trps.svl 2023.06)
