@<TRIPOS>MOLECULE
NONAME
48 50 1 0 0 
SMALL
USER_CHARGES


@<TRIPOS>ATOM
  1 S       -0.2460    -0.4300     0.7540 S.o2  1 <1>   1.4470 
  2 O        0.2480    -1.6060     1.4320 O.2   1 <1>  -0.6500 
  3 O       -1.4760     0.1910     1.1850 O.2   1 <1>  -0.6500 
  4 N       -0.5720    -0.8250    -0.8460 N.am  1 <1>  -0.9140 
  5 C        1.0760     0.8000     0.6040 C.ar  1 <1>  -0.0090 
  6 C       -1.0070    -2.1860    -1.1810 C.3   1 <1>   0.2760 
  7 C        0.7880     2.1460     0.4280 C.ar  1 <1>  -0.1500 
  8 C        2.4130     0.4270     0.6320 C.ar  1 <1>  -0.1500 
  9 C       -2.1210    -2.7760    -0.3040 C.3   1 <1>  -0.0800 
 10 C        0.1030    -3.2410    -1.1490 C.3   1 <1>   0.1200 
 11 C        1.7790     3.1030     0.2850 C.ar  1 <1>   0.0820 
 12 C        3.4240     1.3600     0.4870 C.ar  1 <1>  -0.1500 
 13 C       -1.5040    -4.0910     0.1830 C.3   1 <1>   0.1200 
 14 C       -3.4110    -3.0040    -1.1110 C.3   1 <1>  -0.0160 
 15 O       -0.5330    -4.4140    -0.7560 O.3   1 <1>  -0.5600 
 16 O        1.3100     4.3730     0.1300 O.3   1 <1>  -0.3630 
 17 C        3.1290     2.7090     0.3050 C.ar  1 <1>   0.0820 
 18 C       -4.5220    -3.5750    -0.2420 C.ar  1 <1>  -0.1430 
 19 C        2.0820     5.5090     0.4500 C.3   1 <1>   0.0400 
 20 O        4.1190     3.6310     0.1320 O.3   1 <1>  -0.3620 
 21 C       -5.1500    -2.8180     0.7260 C.ar  1 <1>  -0.1500 
 22 C       -4.9590    -4.8780    -0.3760 C.ar  1 <1>  -0.1500 
 23 C        5.4810     3.2740     0.0380 C.3   1 <1>   0.0400 
 24 C       -6.1550    -3.3850     1.4930 C.ar  1 <1>   0.1600 
 25 C       -5.9740    -5.3470     0.4420 C.ar  1 <1>   0.1600 
 26 N       -6.5830    -4.6310     1.3740 N.ar  1 <1>  -0.6200 
 27 H       -1.3400    -0.1980    -1.0730 H     1 <1>   0.4200 
 28 H       -1.3500    -2.1590    -2.2020 H     1 <1>   0.0800 
 29 H       -0.2370     2.4700     0.4030 H     1 <1>   0.1500 
 30 H        2.6670    -0.6120     0.7690 H     1 <1>   0.1500 
 31 H       -2.3550    -2.1710     0.5500 H     1 <1>   0.0800 
 32 H        0.8660    -3.0200    -0.4250 H     1 <1>   0.0800 
 33 H        0.5430    -3.3940    -2.1170 H     1 <1>   0.0800 
 34 H        4.4380     1.0080     0.5180 H     1 <1>   0.1500 
 35 H       -2.2090    -4.9000     0.2570 H     1 <1>   0.0800 
 36 H       -1.0120    -3.9540     1.1320 H     1 <1>   0.0800 
 37 H       -3.2140    -3.6710    -1.9330 H     1 <1>   0.0800 
 38 H       -3.7470    -2.0680    -1.5220 H     1 <1>   0.0800 
 39 H        1.4230     6.3550     0.5140 H     1 <1>   0.0800 
 40 H        2.8040     5.6690    -0.3310 H     1 <1>   0.0800 
 41 H        2.5690     5.3480     1.3950 H     1 <1>   0.0800 
 42 H       -4.8680    -1.7950     0.8950 H     1 <1>   0.1500 
 43 H       -4.5220    -5.5330    -1.1070 H     1 <1>   0.1500 
 44 H        6.0480     4.1690    -0.1410 H     1 <1>   0.0800 
 45 H        5.6080     2.5930    -0.7850 H     1 <1>   0.0800 
 46 H        5.7900     2.8260     0.9650 H     1 <1>   0.0800 
 47 H       -6.6320    -2.7790     2.2450 H     1 <1>   0.1500 
 48 H       -6.3020    -6.3650     0.3230 H     1 <1>   0.1500 
@<TRIPOS>BOND
  1   1   2  2   
  2   1   3  2   
  3   1   4  am  
  4   1   5  1   
  5   4   6  1   
  6   4  27  1   
  7   5   7  ar  
  8   5   8  ar  
  9   6   9  1   
 10   6  10  1   
 11   6  28  1   
 12   7  11  ar  
 13   7  29  1   
 14   8  12  ar  
 15   8  30  1   
 16   9  13  1   
 17   9  14  1   
 18   9  31  1   
 19  10  15  1   
 20  10  32  1   
 21  10  33  1   
 22  11  16  1   
 23  11  17  ar  
 24  12  17  ar  
 25  12  34  1   
 26  13  15  1   
 27  13  35  1   
 28  13  36  1   
 29  14  18  1   
 30  14  37  1   
 31  14  38  1   
 32  16  19  1   
 33  17  20  1   
 34  18  21  ar  
 35  18  22  ar  
 36  19  39  1   
 37  19  40  1   
 38  19  41  1   
 39  20  23  1   
 40  21  24  ar  
 41  21  42  1   
 42  22  25  ar  
 43  22  43  1   
 44  23  44  1   
 45  23  45  1   
 46  23  46  1   
 47  24  26  ar  
 48  24  47  1   
 49  25  26  ar  
 50  25  48  1   
@<TRIPOS>SUBSTRUCTURE
  1 ****   1 GROUP 4 **** **** 0

# MOE 2024.06 (io_trps.svl 2023.06)
