@<TRIPOS>MOLECULE
NONAME
45 46 1 0 0 
SMALL
USER_CHARGES


@<TRIPOS>ATOM
  1 S        0.6440     0.0350    -0.3620 S.o2  1 <1>   1.3330 
  2 O        1.9100     0.3180     0.2770 O.2   1 <1>  -0.6500 
  3 O        0.5820    -0.0330    -1.8020 O.2   1 <1>  -0.6500 
  4 N       -0.0330    -1.3630     0.3110 N.am  1 <1>  -0.8490 
  5 C       -0.4550     1.3470     0.1650 C.3   1 <1>  -0.0550 
  6 C       -1.1040    -1.9450    -0.5070 C.3   1 <1>   0.1160 
  7 C        0.9750    -2.3870     0.6060 C.3   1 <1>   0.1160 
  8 C       -0.0350     2.7210    -0.4100 C.3   1 <1>  -0.0800 
  9 C       -0.8530     3.9140     0.0810 C.3   1 <1>   0.2000 
 10 C        1.4090     3.1180    -0.0940 C.3   1 <1>   0.3430 
 11 O       -1.0730     3.8030     1.4500 O.3   1 <1>  -0.6800 
 12 C        0.0480     5.1240    -0.1940 C.3   1 <1>   0.3430 
 13 N        1.4580     4.6000    -0.2340 N.4   1 <1>  -0.9590 
 14 C        2.3680     5.2690     0.7340 C.3   1 <1>   0.4860 
 15 C        2.4000     6.7330     0.3680 C.ar  1 <1>  -0.1440 
 16 C        1.7190     7.6630     1.1380 C.ar  1 <1>  -0.1500 
 17 C        3.0820     7.1550    -0.7630 C.ar  1 <1>  -0.1500 
 18 C        1.6940     8.9900     0.7580 C.ar  1 <1>  -0.1500 
 19 C        3.0490     8.4850    -1.1340 C.ar  1 <1>  -0.1500 
 20 C        2.3440     9.4340    -0.3940 C.ar  1 <1>  -0.1790 
 21 C        2.2870    10.8300    -0.8100 C.2   1 <1>   0.9790 
 22 O        1.6710    11.6660    -0.1270 O.co2 1 <1>  -0.9000 
 23 O        2.8380    11.1950    -1.8630 O.co2 1 <1>  -0.9000 
 24 H       -1.4550     1.1260    -0.1560 H     1 <1>   0.0800 
 25 H       -0.4590     1.3750     1.2380 H     1 <1>   0.0800 
 26 H       -1.5500    -2.7800     0.0070 H     1 <1>   0.0800 
 27 H       -0.7150    -2.2850    -1.4530 H     1 <1>   0.0800 
 28 H       -1.8720    -1.2140    -0.6920 H     1 <1>   0.0800 
 29 H        0.5120    -3.2480     1.0580 H     1 <1>   0.0800 
 30 H        1.7060    -2.0000     1.2960 H     1 <1>   0.0800 
 31 H        1.4790    -2.6900    -0.2980 H     1 <1>   0.0800 
 32 H       -0.1240     2.6710    -1.4820 H     1 <1>   0.0800 
 33 H       -1.8120     4.0000    -0.4040 H     1 <1>   0.0800 
 34 H        2.1080     2.6320    -0.7580 H     1 <1>   0.0800 
 35 H        1.6430     2.8350     0.9210 H     1 <1>   0.0800 
 36 H       -0.2500     3.7720     1.9730 H     1 <1>   0.4000 
 37 H       -0.0890     5.8810     0.5600 H     1 <1>   0.0800 
 38 H       -0.2010     5.5460    -1.1540 H     1 <1>   0.0800 
 39 H        1.8290     4.8410    -1.1640 H     1 <1>   0.4500 
 40 H        2.0090     5.1460     1.7420 H     1 <1>   0.0800 
 41 H        3.3620     4.8570     0.6640 H     1 <1>   0.0800 
 42 H        1.1970     7.3770     2.0340 H     1 <1>   0.1500 
 43 H        3.6440     6.4680    -1.3710 H     1 <1>   0.1500 
 44 H        1.1600     9.7170     1.3510 H     1 <1>   0.1500 
 45 H        3.5730     8.8160    -2.0170 H     1 <1>   0.1500 
@<TRIPOS>BOND
  1   1   2  2   
  2   1   3  2   
  3   1   4  am  
  4   1   5  1   
  5   4   6  1   
  6   4   7  1   
  7   5   8  1   
  8   5  24  1   
  9   5  25  1   
 10   6  26  1   
 11   6  27  1   
 12   6  28  1   
 13   7  29  1   
 14   7  30  1   
 15   7  31  1   
 16   8   9  1   
 17   8  10  1   
 18   8  32  1   
 19   9  11  1   
 20   9  12  1   
 21   9  33  1   
 22  10  13  1   
 23  10  34  1   
 24  10  35  1   
 25  11  36  1   
 26  12  13  1   
 27  12  37  1   
 28  12  38  1   
 29  13  14  1   
 30  13  39  1   
 31  14  15  1   
 32  14  40  1   
 33  14  41  1   
 34  15  16  ar  
 35  15  17  ar  
 36  16  18  ar  
 37  16  42  1   
 38  17  19  ar  
 39  17  43  1   
 40  18  20  ar  
 41  18  44  1   
 42  19  20  ar  
 43  19  45  1   
 44  20  21  1   
 45  21  22  ar  
 46  21  23  ar  
@<TRIPOS>SUBSTRUCTURE
  1 ****  13 GROUP 4 **** **** 0

# MOE 2024.06 (io_trps.svl 2023.06)
