@<TRIPOS>MOLECULE
NONAME
23 24 1 0 0 
SMALL
USER_CHARGES


@<TRIPOS>ATOM
  1 O       -6.4740     2.2370     0.1120 O.2   1 <1>  -0.5700 
  2 C       -6.2100     1.0700     0.2510 C.2   1 <1>   0.6300 
  3 N       -7.1740     0.1190     0.1000 N.am  1 <1>  -0.5100 
  4 C       -4.7940     0.6490     0.6220 C.3   1 <1>  -0.1000 
  5 C       -7.0560    -1.3170    -0.3090 C.3   1 <1>   0.2250 
  6 C       -8.3720     0.2490    -0.7920 C.3   1 <1>   0.2250 
  7 C       -3.6030     1.3470     0.0300 C.3   1 <1>  -0.2000 
  8 C       -3.9030    -0.0660    -0.3560 C.3   1 <1>  -0.2000 
  9 C       -8.5960    -1.2670    -0.5370 C.3   1 <1>   0.4720 
 10 N       -9.3890    -1.5290     0.7040 N.4   1 <1>  -0.8220 
 11 H       -4.7190     0.3890     1.6620 H     1 <1>   0.1000 
 12 H       -6.7470    -1.9550     0.5000 H     1 <1>   0.0000 
 13 H       -6.4820    -1.4250    -1.2130 H     1 <1>   0.0000 
 14 H       -8.0880     0.4890    -1.8020 H     1 <1>   0.0000 
 15 H       -9.1320     0.8860    -0.3750 H     1 <1>   0.0000 
 16 H       -2.7570     1.5490     0.6640 H     1 <1>   0.1000 
 17 H       -3.7750     2.1350    -0.6850 H     1 <1>   0.1000 
 18 H       -4.2310    -0.2390    -1.3660 H     1 <1>   0.1000 
 19 H       -3.2450    -0.8400     0.0020 H     1 <1>   0.1000 
 20 H       -8.9500    -1.8250    -1.3850 H     1 <1>   0.0000 
 21 H       -9.0120    -0.9430     1.4590 H     1 <1>   0.4500 
 22 H       -9.3290    -2.5130     0.9860 H     1 <1>   0.4500 
 23 H      -10.3750    -1.2810     0.5670 H     1 <1>   0.4500 
@<TRIPOS>BOND
  1   1   2  2   
  2   2   3  am  
  3   2   4  1   
  4   3   5  1   
  5   3   6  1   
  6   4   7  1   
  7   4   8  1   
  8   4  11  1   
  9   5   9  1   
 10   5  12  1   
 11   5  13  1   
 12   6   9  1   
 13   6  14  1   
 14   6  15  1   
 15   7   8  1   
 16   7  16  1   
 17   7  17  1   
 18   8  18  1   
 19   8  19  1   
 20   9  10  1   
 21   9  20  1   
 22  10  21  1   
 23  10  22  1   
 24  10  23  1   
@<TRIPOS>SUBSTRUCTURE
  1 ****   3 GROUP 4 **** **** 0

# MOE 2024.06 (io_trps.svl 2023.06)
