@<TRIPOS>MOLECULE
NONAME
54 56 1 0 0 
SMALL
USER_CHARGES


@<TRIPOS>ATOM
  1 O       -0.0020     1.2990     0.2650 O.2   1 <1>  -0.5700 
  2 C       -0.1150     2.4970     0.2100 C.2   1 <1>   0.5690 
  3 N       -1.1650     3.1200     0.7870 N.am  1 <1>  -0.7300 
  4 C        0.9150     3.3360    -0.5460 C.3   1 <1>   0.1810 
  5 C       -1.4200     4.5790     0.6870 C.3   1 <1>   0.3640 
  6 O        0.9080     4.6840    -0.1340 O.3   1 <1>  -0.5600 
  7 C       -2.8330     4.7780     0.1420 C.ar  1 <1>  -0.1440 
  8 C       -0.3680     5.3180    -0.1870 C.3   1 <1>   0.2610 
  9 C       -3.6510     5.7500     0.6980 C.ar  1 <1>  -0.1500 
 10 C       -3.3240     4.0160    -0.9110 C.ar  1 <1>  -0.1500 
 11 C       -0.2520     6.7780     0.2680 C.2   1 <1>   0.5690 
 12 C       -4.9300     5.9780     0.2130 C.ar  1 <1>   0.0830 
 13 C       -4.6090     4.2200    -1.3860 C.ar  1 <1>  -0.1500 
 14 O       -1.1950     7.5250     0.1470 O.2   1 <1>  -0.5700 
 15 N        0.9210     7.2030     0.8100 N.am  1 <1>  -0.7300 
 16 O       -5.6430     6.9880     0.7680 O.3   1 <1>  -0.3630 
 17 C       -5.4300     5.1860    -0.8310 C.ar  1 <1>   0.0830 
 18 C        1.2390     8.5710     1.2600 C.3   1 <1>   0.1400 
 19 C       -5.1850     8.2910     0.4770 C.3   1 <1>   0.0400 
 20 O       -6.6750     5.2790    -1.3770 O.3   1 <1>  -0.3630 
 21 C        2.4960     9.0470     0.5370 C.3   1 <1>  -0.1600 
 22 C       -7.7690     5.7440    -0.6170 C.3   1 <1>   0.0400 
 23 C        2.8810    10.4720     0.9590 C.3   1 <1>  -0.0170 
 24 C        4.1650    10.9170     0.2780 C.ar  1 <1>   0.1670 
 25 N        5.2860    10.3870     0.7440 N.ar  1 <1>  -0.6200 
 26 C        4.1130    11.8270    -0.7680 C.ar  1 <1>  -0.1500 
 27 C        6.3980    10.7790     0.1440 C.ar  1 <1>   0.1600 
 28 C        5.2800    12.2270    -1.3830 C.ar  1 <1>  -0.1500 
 29 C        6.4510    11.6810    -0.9050 C.ar  1 <1>  -0.1500 
 30 H       -1.8780     2.5540     1.2490 H     1 <1>   0.3700 
 31 H        0.7110     3.2970    -1.6000 H     1 <1>   0.0800 
 32 H        1.8980     2.9410    -0.3650 H     1 <1>   0.0800 
 33 H       -1.3730     4.9850     1.6840 H     1 <1>   0.0800 
 34 H       -0.6900     5.3150    -1.2130 H     1 <1>   0.0800 
 35 H       -3.2950     6.3570     1.5120 H     1 <1>   0.1500 
 36 H       -2.7160     3.2550    -1.3700 H     1 <1>   0.1500 
 37 H       -4.9860     3.6220    -2.1960 H     1 <1>   0.1500 
 38 H        1.6900     6.5240     0.8330 H     1 <1>   0.3700 
 39 H        0.4130     9.2290     1.0430 H     1 <1>   0.0800 
 40 H        1.4020     8.5640     2.3250 H     1 <1>   0.0800 
 41 H       -5.8660     8.9950     0.9200 H     1 <1>   0.0800 
 42 H       -5.1620     8.4180    -0.5910 H     1 <1>   0.0800 
 43 H       -4.1990     8.4230     0.8880 H     1 <1>   0.0800 
 44 H        3.3130     8.3850     0.7660 H     1 <1>   0.0800 
 45 H        2.3280     9.0290    -0.5260 H     1 <1>   0.0800 
 46 H       -8.6740     5.4370    -1.1090 H     1 <1>   0.0800 
 47 H       -7.7270     6.8170    -0.5690 H     1 <1>   0.0800 
 48 H       -7.7200     5.3150     0.3690 H     1 <1>   0.0800 
 49 H        3.0310    10.5090     2.0240 H     1 <1>   0.0800 
 50 H        2.0830    11.1510     0.7160 H     1 <1>   0.0800 
 51 H        3.1700    12.2190    -1.1020 H     1 <1>   0.1500 
 52 H        7.3190    10.3580     0.5090 H     1 <1>   0.1500 
 53 H        5.2760    12.9310    -2.1970 H     1 <1>   0.1500 
 54 H        7.3970    11.9490    -1.3390 H     1 <1>   0.1500 
@<TRIPOS>BOND
  1   1   2  2   
  2   2   3  am  
  3   2   4  1   
  4   3   5  1   
  5   3  30  1   
  6   4   6  1   
  7   4  31  1   
  8   4  32  1   
  9   5   7  1   
 10   5   8  1   
 11   5  33  1   
 12   6   8  1   
 13   7   9  ar  
 14   7  10  ar  
 15   8  11  1   
 16   8  34  1   
 17   9  12  ar  
 18   9  35  1   
 19  10  13  ar  
 20  10  36  1   
 21  11  14  2   
 22  11  15  am  
 23  12  16  1   
 24  12  17  ar  
 25  13  17  ar  
 26  13  37  1   
 27  15  18  1   
 28  15  38  1   
 29  16  19  1   
 30  17  20  1   
 31  18  21  1   
 32  18  39  1   
 33  18  40  1   
 34  19  41  1   
 35  19  42  1   
 36  19  43  1   
 37  20  22  1   
 38  21  23  1   
 39  21  44  1   
 40  21  45  1   
 41  22  46  1   
 42  22  47  1   
 43  22  48  1   
 44  23  24  1   
 45  23  49  1   
 46  23  50  1   
 47  24  25  ar  
 48  24  26  ar  
 49  25  27  ar  
 50  26  28  ar  
 51  26  51  1   
 52  27  29  ar  
 53  27  52  1   
 54  28  29  ar  
 55  28  53  1   
 56  29  54  1   
@<TRIPOS>SUBSTRUCTURE
  1 ****  11 GROUP 4 **** **** 0

# MOE 2024.06 (io_trps.svl 2023.06)
