@<TRIPOS>MOLECULE
NONAME
47 50 1 0 0 
SMALL
USER_CHARGES


@<TRIPOS>ATOM
  1 CL      -0.3800     0.9630    -1.7920 Cl    1 <1>  -0.1770 
  2 C       -0.0390     2.5460    -1.1550 C.ar  1 <1>   0.1770 
  3 C        1.2620     2.9370    -0.9740 C.ar  1 <1>  -0.1500 
  4 C       -1.0970     3.3890    -0.8400 C.ar  1 <1>  -0.1500 
  5 C        1.5370     4.2080    -0.4630 C.ar  1 <1>   0.3610 
  6 C       -0.8360     4.6400    -0.3350 C.ar  1 <1>  -0.1500 
  7 N        2.8430     4.6280    -0.2710 N.ar  1 <1>  -0.1790 
  8 C        0.4840     5.0840    -0.1330 C.ar  1 <1>   0.0000 
  9 C        3.2010     5.8240     0.2140 C.ar  1 <1>   0.4610 
 10 C        0.8280     6.3670     0.3890 C.ar  1 <1>  -0.1430 
 11 N        4.5140     6.1370     0.3750 N.pl3 1 <1>  -0.8380 
 12 C        2.1380     6.7060     0.5470 C.ar  1 <1>  -0.1500 
 13 C       -0.2720     7.3550     0.7670 C.3   1 <1>  -0.0970 
 14 C        4.9930     7.1210     1.4360 C.3   1 <1>   0.2090 
 15 C        5.6620     5.4130    -0.2860 C.3   1 <1>   0.2090 
 16 C        5.9410     8.2840     0.9930 C.3   1 <1>   0.4230 
 17 C        6.5610     6.3590    -1.1130 C.3   1 <1>  -0.0800 
 18 N        5.8320     8.7360    -0.4530 N.4   1 <1>  -0.9590 
 19 C        7.4100     7.9790     1.3580 C.3   1 <1>   0.1200 
 20 C        7.9470     6.5750    -0.4830 C.3   1 <1>   0.1200 
 21 C        5.8490     7.6630    -1.5040 C.3   1 <1>   0.3430 
 22 C        4.6470     9.6240    -0.6590 C.3   1 <1>   0.2630 
 23 O        7.8290     6.7350     0.8920 O.3   1 <1>  -0.5600 
 24 H        2.0490     2.2510    -1.2310 H     1 <1>   0.1500 
 25 H       -2.1060     3.0460    -0.9960 H     1 <1>   0.1500 
 26 H       -1.6660     5.2820    -0.0950 H     1 <1>   0.1500 
 27 H        3.5790     3.9520    -0.4410 H     1 <1>   0.4570 
 28 H        2.3800     7.6780     0.9250 H     1 <1>   0.1500 
 29 H        0.1370     8.2730     1.1490 H     1 <1>   0.0800 
 30 H       -0.9050     6.9340     1.5280 H     1 <1>   0.0800 
 31 H       -0.8740     7.5910    -0.0930 H     1 <1>   0.0800 
 32 H        4.1580     7.5650     1.9440 H     1 <1>   0.0800 
 33 H        5.5030     6.5560     2.2000 H     1 <1>   0.0800 
 34 H        6.2450     4.8980     0.4620 H     1 <1>   0.0800 
 35 H        5.2890     4.6600    -0.9580 H     1 <1>   0.0800 
 36 H        5.6830     9.1300     1.6080 H     1 <1>   0.0800 
 37 H        6.7530     5.8500    -2.0420 H     1 <1>   0.0800 
 38 H        6.6690     9.3110    -0.6230 H     1 <1>   0.4500 
 39 H        7.5070     7.9480     2.4300 H     1 <1>   0.0800 
 40 H        8.0800     8.7370     0.9920 H     1 <1>   0.0800 
 41 H        8.4720     7.4160    -0.9050 H     1 <1>   0.0800 
 42 H        8.5520     5.6960    -0.6340 H     1 <1>   0.0800 
 43 H        4.8350     7.4150    -1.7710 H     1 <1>   0.0800 
 44 H        6.3200     8.0600    -2.3890 H     1 <1>   0.0800 
 45 H        3.7340     9.0720    -0.5090 H     1 <1>   0.0800 
 46 H        4.6460    10.0210    -1.6620 H     1 <1>   0.0800 
 47 H        4.6700    10.4520     0.0320 H     1 <1>   0.0800 
@<TRIPOS>BOND
  1   1   2  1   
  2   2   3  ar  
  3   2   4  ar  
  4   3   5  ar  
  5   3  24  1   
  6   4   6  ar  
  7   4  25  1   
  8   5   7  ar  
  9   5   8  ar  
 10   6   8  ar  
 11   6  26  1   
 12   7   9  ar  
 13   7  27  1   
 14   8  10  ar  
 15   9  11  1   
 16   9  12  ar  
 17  10  12  ar  
 18  10  13  1   
 19  11  14  1   
 20  11  15  1   
 21  12  28  1   
 22  13  29  1   
 23  13  30  1   
 24  13  31  1   
 25  14  16  1   
 26  14  32  1   
 27  14  33  1   
 28  15  17  1   
 29  15  34  1   
 30  15  35  1   
 31  16  18  1   
 32  16  19  1   
 33  16  36  1   
 34  17  20  1   
 35  17  21  1   
 36  17  37  1   
 37  18  21  1   
 38  18  22  1   
 39  18  38  1   
 40  19  23  1   
 41  19  39  1   
 42  19  40  1   
 43  20  23  1   
 44  20  41  1   
 45  20  42  1   
 46  21  43  1   
 47  21  44  1   
 48  22  45  1   
 49  22  46  1   
 50  22  47  1   
@<TRIPOS>SUBSTRUCTURE
  1 ****   9 GROUP 4 **** **** 0

# MOE 2024.06 (io_trps.svl 2023.06)
