@<TRIPOS>MOLECULE
NONAME
47 49 1 0 0 
SMALL
USER_CHARGES


@<TRIPOS>ATOM
  1 S        0.2050     0.0620    -1.0000 S.o2  1 <1>   1.3330 
  2 O        0.8180     0.2520    -2.2950 O.2   1 <1>  -0.6500 
  3 O       -0.6180    -1.1010    -0.7600 O.2   1 <1>  -0.6500 
  4 N        1.4330     0.0690     0.1730 N.am  1 <1>  -0.8490 
  5 C       -0.7440     1.5380    -0.6220 C.3   1 <1>  -0.0550 
  6 C        2.6700    -0.5590    -0.3020 C.3   1 <1>   0.1160 
  7 C        1.0280    -0.5280     1.4500 C.3   1 <1>   0.1160 
  8 C        0.0070     2.8620    -0.8850 C.3   1 <1>  -0.0800 
  9 C       -0.8650     4.1130    -0.7570 C.3   1 <1>   0.2000 
 10 C        1.1880     3.1290     0.0590 C.3   1 <1>   0.1400 
 11 O       -1.6300     4.0160     0.3960 O.3   1 <1>  -0.6800 
 12 C        0.1470     5.2400    -0.5600 C.3   1 <1>   0.1400 
 13 N        1.2520     4.6070     0.2040 N.am  1 <1>  -0.6600 
 14 C        2.3740     5.2520     0.6730 C.2   1 <1>   0.5440 
 15 O        3.3100     4.5790     1.0580 O.2   1 <1>  -0.5700 
 16 C        2.4660     6.6960     0.7070 C.ar  1 <1>   0.0860 
 17 C        3.4890     7.3590     0.0310 C.ar  1 <1>  -0.1500 
 18 C        1.5510     7.4750     1.4190 C.ar  1 <1>  -0.1500 
 19 C        3.5890     8.7360     0.0500 C.ar  1 <1>   0.0820 
 20 C        1.6410     8.8560     1.4440 C.ar  1 <1>  -0.1500 
 21 O        4.6040     9.3220    -0.6470 O.3   1 <1>  -0.3620 
 22 C        2.6590     9.5030     0.7590 C.ar  1 <1>   0.1170 
 23 C        4.9760    10.6740    -0.3580 C.3   1 <1>   0.1810 
 24 N        2.7750    10.8900     0.7550 N.am  1 <1>  -0.5470 
 25 C        3.8330    11.5240     0.1950 C.2   1 <1>   0.5690 
 26 O        3.8860    12.7280     0.1550 O.2   1 <1>  -0.5700 
 27 H       -1.6260     1.5320    -1.2340 H     1 <1>   0.0800 
 28 H       -1.0680     1.5000     0.3990 H     1 <1>   0.0800 
 29 H        3.4280    -0.5160     0.4610 H     1 <1>   0.0800 
 30 H        3.0390    -0.0370    -1.1700 H     1 <1>   0.0800 
 31 H        2.4890    -1.5870    -0.5680 H     1 <1>   0.0800 
 32 H        1.8090    -0.4030     2.1810 H     1 <1>   0.0800 
 33 H        0.8260    -1.5790     1.3270 H     1 <1>   0.0800 
 34 H        0.1380    -0.0470     1.8200 H     1 <1>   0.0800 
 35 H        0.3970     2.8410    -1.8880 H     1 <1>   0.0800 
 36 H       -1.5210     4.2710    -1.5960 H     1 <1>   0.0800 
 37 H        2.1090     2.7430    -0.3460 H     1 <1>   0.0800 
 38 H        1.0210     2.6920     1.0280 H     1 <1>   0.0800 
 39 H       -1.0300     4.0430     1.1690 H     1 <1>   0.4000 
 40 H       -0.2890     6.0730    -0.0370 H     1 <1>   0.0800 
 41 H        0.5240     5.5680    -1.5130 H     1 <1>   0.0800 
 42 H        4.2170     6.7830    -0.5150 H     1 <1>   0.1500 
 43 H        0.7650     6.9830     1.9640 H     1 <1>   0.1500 
 44 H        0.9220     9.4310     1.9990 H     1 <1>   0.1500 
 45 H        5.7710    10.6440     0.3640 H     1 <1>   0.0800 
 46 H        5.3450    11.1120    -1.2660 H     1 <1>   0.0800 
 47 H        2.0460    11.4840     1.1490 H     1 <1>   0.3700 
@<TRIPOS>BOND
  1   1   2  2   
  2   1   3  2   
  3   1   4  am  
  4   1   5  1   
  5   4   6  1   
  6   4   7  1   
  7   5   8  1   
  8   5  27  1   
  9   5  28  1   
 10   6  29  1   
 11   6  30  1   
 12   6  31  1   
 13   7  32  1   
 14   7  33  1   
 15   7  34  1   
 16   8   9  1   
 17   8  10  1   
 18   8  35  1   
 19   9  11  1   
 20   9  12  1   
 21   9  36  1   
 22  10  13  1   
 23  10  37  1   
 24  10  38  1   
 25  11  39  1   
 26  12  13  1   
 27  12  40  1   
 28  12  41  1   
 29  13  14  am  
 30  14  15  2   
 31  14  16  1   
 32  16  17  ar  
 33  16  18  ar  
 34  17  19  ar  
 35  17  42  1   
 36  18  20  ar  
 37  18  43  1   
 38  19  21  1   
 39  19  22  ar  
 40  20  22  ar  
 41  20  44  1   
 42  21  23  1   
 43  22  24  1   
 44  23  25  1   
 45  23  45  1   
 46  23  46  1   
 47  24  25  am  
 48  24  47  1   
 49  25  26  2   
@<TRIPOS>SUBSTRUCTURE
  1 ****  13 GROUP 4 **** **** 0

# MOE 2024.06 (io_trps.svl 2023.06)
