@<TRIPOS>MOLECULE
NONAME
51 53 1 0 0 
SMALL
USER_CHARGES


@<TRIPOS>ATOM
  1 O        0.1640     0.8460     1.5690 O.2   1 <1>  -0.5700 
  2 C        0.0260     1.6060     0.6310 C.2   1 <1>   0.7800 
  3 O       -0.6960     1.2730    -0.4400 O.3   1 <1>  -0.4300 
  4 N        0.6080     2.8400     0.6190 N.am  1 <1>  -0.6600 
  5 C       -1.3910     0.0650    -0.6590 C.3   1 <1>   0.2800 
  6 C        1.5250     3.3120     1.6800 C.3   1 <1>   0.1400 
  7 C        0.6230     3.7410    -0.5580 C.3   1 <1>   0.1400 
  8 C       -2.4830    -0.1190     0.4010 C.3   1 <1>  -0.2400 
  9 C       -0.4100    -1.1120    -0.7000 C.3   1 <1>  -0.2400 
 10 C       -2.0450     0.2240    -2.0320 C.3   1 <1>  -0.2400 
 11 C        2.4270     4.3590     1.0090 C.3   1 <1>   0.2250 
 12 C        1.6390     4.8370    -0.2370 C.3   1 <1>   0.0000 
 13 N        3.7780     3.8340     0.6820 N.am  1 <1>  -0.6550 
 14 C        2.3280     5.8080     1.5690 C.3   1 <1>   0.0000 
 15 C        1.1110     6.0200     0.6260 C.3   1 <1>   0.0000 
 16 C        4.7800     4.4130    -0.0150 C.2   1 <1>   0.7800 
 17 O        4.7530     5.5480    -0.4440 O.2   1 <1>  -0.5700 
 18 O        5.8380     3.6440    -0.2240 O.3   1 <1>  -0.4300 
 19 C        6.9420     4.1420    -0.9440 C.3   1 <1>   0.2630 
 20 C        7.9900     3.0450    -1.0330 C.ar  1 <1>  -0.1440 
 21 C        7.9460     2.1170    -2.0630 C.ar  1 <1>  -0.1500 
 22 C        8.9990     2.9620    -0.0850 C.ar  1 <1>  -0.1500 
 23 C        8.9020     1.1210    -2.1480 C.ar  1 <1>  -0.1500 
 24 C        9.9560     1.9650    -0.1690 C.ar  1 <1>  -0.1500 
 25 C        9.9090     1.0440    -1.2010 C.ar  1 <1>  -0.1500 
 26 H        2.0960     2.4960     2.0880 H     1 <1>   0.0800 
 27 H        0.9400     3.7580     2.4650 H     1 <1>   0.0800 
 28 H       -0.3570     4.1520    -0.7330 H     1 <1>   0.0800 
 29 H        0.9390     3.1860    -1.4250 H     1 <1>   0.0800 
 30 H       -2.0570    -0.3030     1.3700 H     1 <1>   0.0800 
 31 H       -3.0970    -0.9640     0.1520 H     1 <1>   0.0800 
 32 H       -3.1080     0.7540     0.4500 H     1 <1>   0.0800 
 33 H        0.0160    -1.2950     0.2690 H     1 <1>   0.0800 
 34 H        0.3790    -0.9180    -1.4030 H     1 <1>   0.0800 
 35 H       -0.9230    -2.0070    -1.0020 H     1 <1>   0.0800 
 36 H       -2.7200     1.0600    -2.0300 H     1 <1>   0.0800 
 37 H       -2.6020    -0.6600    -2.2860 H     1 <1>   0.0800 
 38 H       -1.2950     0.3800    -2.7870 H     1 <1>   0.0800 
 39 H        2.2300     5.1730    -1.0710 H     1 <1>   0.0000 
 40 H        3.9170     2.8470     0.8910 H     1 <1>   0.3700 
 41 H        3.1540     6.4450     1.3090 H     1 <1>   0.0000 
 42 H        2.0650     5.8590     2.6100 H     1 <1>   0.0000 
 43 H        0.1720     5.8130     1.1100 H     1 <1>   0.0000 
 44 H        1.1270     6.9660     0.1140 H     1 <1>   0.0000 
 45 H        7.3280     5.0030    -0.4270 H     1 <1>   0.0800 
 46 H        6.6090     4.4340    -1.9250 H     1 <1>   0.0800 
 47 H        7.1640     2.1660    -2.8010 H     1 <1>   0.1500 
 48 H        9.0420     3.6710     0.7230 H     1 <1>   0.1500 
 49 H        8.8640     0.4040    -2.9490 H     1 <1>   0.1500 
 50 H       10.7370     1.9060     0.5690 H     1 <1>   0.1500 
 51 H       10.6520     0.2700    -1.2660 H     1 <1>   0.1500 
@<TRIPOS>BOND
  1   1   2  2   
  2   2   3  1   
  3   2   4  am  
  4   3   5  1   
  5   4   6  1   
  6   4   7  1   
  7   5   8  1   
  8   5   9  1   
  9   5  10  1   
 10   6  11  1   
 11   6  26  1   
 12   6  27  1   
 13   7  12  1   
 14   7  28  1   
 15   7  29  1   
 16   8  30  1   
 17   8  31  1   
 18   8  32  1   
 19   9  33  1   
 20   9  34  1   
 21   9  35  1   
 22  10  36  1   
 23  10  37  1   
 24  10  38  1   
 25  11  12  1   
 26  11  13  1   
 27  11  14  1   
 28  12  15  1   
 29  12  39  1   
 30  13  16  am  
 31  13  40  1   
 32  14  15  1   
 33  14  41  1   
 34  14  42  1   
 35  15  43  1   
 36  15  44  1   
 37  16  17  2   
 38  16  18  1   
 39  18  19  1   
 40  19  20  1   
 41  19  45  1   
 42  19  46  1   
 43  20  21  ar  
 44  20  22  ar  
 45  21  23  ar  
 46  21  47  1   
 47  22  24  ar  
 48  22  48  1   
 49  23  25  ar  
 50  23  49  1   
 51  24  25  ar  
 52  24  50  1   
 53  25  51  1   
@<TRIPOS>SUBSTRUCTURE
  1 ****  13 GROUP 4 **** **** 0

# MOE 2024.06 (io_trps.svl 2023.06)
