@<TRIPOS>MOLECULE
NONAME
52 54 1 0 0 
SMALL
USER_CHARGES


@<TRIPOS>ATOM
  1 O       -0.6530     3.8640     3.6860 O.2   1 <1>  -0.5700 
  2 C       -1.1370     3.9290     2.5790 C.2   1 <1>   0.5690 
  3 N       -2.4540     3.5820     2.3490 N.am  1 <1>  -0.6600 
  4 C       -0.2120     4.4280     1.4700 C.3   1 <1>   0.0440 
  5 C       -3.0920     3.6500     0.9980 C.3   1 <1>   0.2200 
  6 C       -3.2850     3.0860     3.4920 C.3   1 <1>   0.0600 
  7 C        0.0560     3.3890     0.3840 C.ar  1 <1>  -0.1440 
  8 C       -4.4940     4.2530     0.9770 C.3   1 <1>  -0.1600 
  9 C       -3.2810     2.2780     0.3630 C.3   1 <1>  -0.1600 
 10 C       -0.1090     3.7110    -0.9570 C.ar  1 <1>  -0.1500 
 11 C        0.4650     2.1090     0.7330 C.ar  1 <1>  -0.1500 
 12 C       -5.0810     3.7880    -0.3650 C.3   1 <1>  -0.0800 
 13 C       -4.3070     2.5160    -0.7530 C.3   1 <1>  -0.0800 
 14 C        0.1170     2.7600    -1.9360 C.ar  1 <1>  -0.1500 
 15 C        0.6950     1.1550    -0.2430 C.ar  1 <1>  -0.1500 
 16 C       -6.5620     3.3930    -0.2940 C.3   1 <1>  -0.1600 
 17 C       -5.3430     1.3930    -0.8930 C.3   1 <1>  -0.1600 
 18 C        0.5160     1.4850    -1.5760 C.ar  1 <1>   0.0820 
 19 C       -6.5460     1.8780    -0.0890 C.3   1 <1>   0.4230 
 20 O        0.7310     0.5720    -2.5330 O.3   1 <1>  -0.5320 
 21 N       -7.8170     1.1820    -0.4620 N.4   1 <1>  -0.9590 
 22 C       -8.2810     1.4010    -1.8730 C.3   1 <1>   0.2630 
 23 C       -8.9120     1.5310     0.4960 C.3   1 <1>   0.2630 
 24 H       -0.6340     5.3210     1.0500 H     1 <1>   0.0800 
 25 H        0.7290     4.7030     1.9100 H     1 <1>   0.0800 
 26 H       -2.4900     4.2420     0.3330 H     1 <1>   0.0800 
 27 H       -3.9250     2.2830     3.1780 H     1 <1>   0.0800 
 28 H       -3.8830     3.8920     3.8780 H     1 <1>   0.0800 
 29 H       -2.6590     2.7170     4.2870 H     1 <1>   0.0800 
 30 H       -5.0860     3.8690     1.7870 H     1 <1>   0.0800 
 31 H       -4.4550     5.3260     1.0400 H     1 <1>   0.0800 
 32 H       -2.3560     1.9000    -0.0340 H     1 <1>   0.0800 
 33 H       -3.6610     1.5850     1.0900 H     1 <1>   0.0800 
 34 H       -0.4120     4.7020    -1.2480 H     1 <1>   0.1500 
 35 H        0.6030     1.8520     1.7710 H     1 <1>   0.1500 
 36 H       -4.9260     4.5550    -1.1070 H     1 <1>   0.0800 
 37 H       -3.7850     2.6700    -1.6850 H     1 <1>   0.0800 
 38 H       -0.0090     2.9990    -2.9760 H     1 <1>   0.1500 
 39 H        1.0100     0.1680     0.0400 H     1 <1>   0.1500 
 40 H       -7.0150     3.6530    -1.2320 H     1 <1>   0.0800 
 41 H       -7.0740     3.9050     0.5020 H     1 <1>   0.0800 
 42 H       -4.9670     0.4530    -0.5290 H     1 <1>   0.0800 
 43 H       -5.5840     1.2970    -1.9350 H     1 <1>   0.0800 
 44 H       -6.3310     1.6920     0.9510 H     1 <1>   0.0800 
 45 H        1.0600    -0.2750    -2.1860 H     1 <1>   0.4500 
 46 H       -7.6240     0.1750    -0.3590 H     1 <1>   0.4500 
 47 H       -8.5200     2.4390    -2.0360 H     1 <1>   0.0800 
 48 H       -9.1640     0.8150    -2.0690 H     1 <1>   0.0800 
 49 H       -7.5180     1.1080    -2.5750 H     1 <1>   0.0800 
 50 H       -9.1560     2.5780     0.4210 H     1 <1>   0.0800 
 51 H       -8.6060     1.3190     1.5080 H     1 <1>   0.0800 
 52 H       -9.7970     0.9550     0.2780 H     1 <1>   0.0800 
@<TRIPOS>BOND
  1   1   2  2   
  2   2   3  am  
  3   2   4  1   
  4   3   5  1   
  5   3   6  1   
  6   4   7  1   
  7   4  24  1   
  8   4  25  1   
  9   5   8  1   
 10   5   9  1   
 11   5  26  1   
 12   6  27  1   
 13   6  28  1   
 14   6  29  1   
 15   7  10  ar  
 16   7  11  ar  
 17   8  12  1   
 18   8  30  1   
 19   8  31  1   
 20   9  13  1   
 21   9  32  1   
 22   9  33  1   
 23  10  14  ar  
 24  10  34  1   
 25  11  15  ar  
 26  11  35  1   
 27  12  13  1   
 28  12  16  1   
 29  12  36  1   
 30  13  17  1   
 31  13  37  1   
 32  14  18  ar  
 33  14  38  1   
 34  15  18  ar  
 35  15  39  1   
 36  16  19  1   
 37  16  40  1   
 38  16  41  1   
 39  17  19  1   
 40  17  42  1   
 41  17  43  1   
 42  18  20  1   
 43  19  21  1   
 44  19  44  1   
 45  20  45  1   
 46  21  22  1   
 47  21  23  1   
 48  21  46  1   
 49  22  47  1   
 50  22  48  1   
 51  22  49  1   
 52  23  50  1   
 53  23  51  1   
 54  23  52  1   
@<TRIPOS>SUBSTRUCTURE
  1 ****   9 GROUP 4 **** **** 0

# MOE 2024.06 (io_trps.svl 2023.06)
