@<TRIPOS>MOLECULE
NONAME
45 47 1 0 0 
SMALL
USER_CHARGES


@<TRIPOS>ATOM
  1 S        0.7560    -0.6560     1.2760 S.o2  1 <1>   1.4470 
  2 O        1.6150    -1.8220     1.2750 O.2   1 <1>  -0.6500 
  3 O        0.3310    -0.1140     2.5490 O.2   1 <1>  -0.6500 
  4 N        1.6530     0.5530     0.4930 N.am  1 <1>  -0.8490 
  5 C       -0.6950    -0.8920     0.1960 C.ar  1 <1>  -0.0090 
  6 C        2.4290     1.3900     1.4270 C.3   1 <1>   0.1960 
  7 C        2.4030     0.0520    -0.6660 C.3   1 <1>   0.1960 
  8 C       -1.4790    -2.0480     0.2330 C.ar  1 <1>  -0.1440 
  9 C       -1.0660     0.1110    -0.6980 C.ar  1 <1>  -0.1500 
 10 C        3.2060     2.5590     0.7760 C.3   1 <1>   0.2200 
 11 C        2.7780     1.1350    -1.7000 C.3   1 <1>  -0.0190 
 12 C       -2.5640    -2.1860    -0.6190 C.ar  1 <1>  -0.1500 
 13 C       -1.1740    -3.1840     1.2030 C.3   1 <1>  -0.0960 
 14 C       -2.1440    -0.0250    -1.5530 C.ar  1 <1>  -0.1440 
 15 N        2.3970     3.1860    -0.3220 N.am  1 <1>  -0.6600 
 16 C        4.6310     2.1210     0.3430 C.3   1 <1>   0.1200 
 17 C        2.1110     2.4830    -1.4640 C.2   1 <1>   0.5690 
 18 C        4.2990     1.2860    -1.8740 C.3   1 <1>   0.1200 
 19 C       -2.8950    -1.1830    -1.5100 C.ar  1 <1>  -0.1500 
 20 C       -2.4940     1.0930    -2.5190 C.3   1 <1>  -0.0960 
 21 C        1.8220     4.5290    -0.0490 C.3   1 <1>   0.0600 
 22 O        4.8710     2.2390    -1.0280 O.3   1 <1>  -0.5600 
 23 O        1.3370     2.8860    -2.3020 O.2   1 <1>  -0.5700 
 24 H        1.7420     1.8320     2.1290 H     1 <1>   0.0800 
 25 H        3.1010     0.7710     1.9980 H     1 <1>   0.0800 
 26 H        3.2790    -0.4750    -0.3250 H     1 <1>   0.0800 
 27 H        1.7890    -0.6710    -1.1780 H     1 <1>   0.0800 
 28 H       -0.5020     1.0280    -0.7340 H     1 <1>   0.1500 
 29 H        3.3470     3.2920     1.5510 H     1 <1>   0.0800 
 30 H        2.4160     0.7700    -2.6430 H     1 <1>   0.0800 
 31 H       -3.1650    -3.0790    -0.5950 H     1 <1>   0.1500 
 32 H       -1.9730    -3.9030     1.2180 H     1 <1>   0.0800 
 33 H       -1.0520    -2.8050     2.2020 H     1 <1>   0.0800 
 34 H       -0.2710    -3.6900     0.9080 H     1 <1>   0.0800 
 35 H        4.8490     1.1110     0.6440 H     1 <1>   0.0800 
 36 H        5.3450     2.7610     0.8310 H     1 <1>   0.0800 
 37 H        4.5010     1.6220    -2.8770 H     1 <1>   0.0800 
 38 H        4.8100     0.3500    -1.7290 H     1 <1>   0.0800 
 39 H       -3.7400    -1.3070    -2.1650 H     1 <1>   0.1500 
 40 H       -2.9050     0.6900    -3.4270 H     1 <1>   0.0800 
 41 H       -1.6170     1.6640    -2.7690 H     1 <1>   0.0800 
 42 H       -3.2170     1.7490    -2.0700 H     1 <1>   0.0800 
 43 H        2.6130     5.2250     0.1670 H     1 <1>   0.0800 
 44 H        1.1510     4.4740     0.7900 H     1 <1>   0.0800 
 45 H        1.2760     4.8870    -0.9050 H     1 <1>   0.0800 
@<TRIPOS>BOND
  1   1   2  2   
  2   1   3  2   
  3   1   4  am  
  4   1   5  1   
  5   4   6  1   
  6   4   7  1   
  7   5   8  ar  
  8   5   9  ar  
  9   6  10  1   
 10   6  24  1   
 11   6  25  1   
 12   7  11  1   
 13   7  26  1   
 14   7  27  1   
 15   8  12  ar  
 16   8  13  1   
 17   9  14  ar  
 18   9  28  1   
 19  10  15  1   
 20  10  16  1   
 21  10  29  1   
 22  11  17  1   
 23  11  18  1   
 24  11  30  1   
 25  12  19  ar  
 26  12  31  1   
 27  13  32  1   
 28  13  33  1   
 29  13  34  1   
 30  14  19  ar  
 31  14  20  1   
 32  15  17  am  
 33  15  21  1   
 34  16  22  1   
 35  16  35  1   
 36  16  36  1   
 37  17  23  2   
 38  18  22  1   
 39  18  37  1   
 40  18  38  1   
 41  19  39  1   
 42  20  40  1   
 43  20  41  1   
 44  20  42  1   
 45  21  43  1   
 46  21  44  1   
 47  21  45  1   
@<TRIPOS>SUBSTRUCTURE
  1 ****   4 GROUP 4 **** **** 0

# MOE 2024.06 (io_trps.svl 2023.06)
