@<TRIPOS>MOLECULE
NONAME
36 38 1 0 0 
SMALL
USER_CHARGES


@<TRIPOS>ATOM
  1 O        0.0450    -0.1480     0.0670 O.2   1 <1>  -0.5700 
  2 C        1.1310    -0.6950     0.0420 C.2   1 <1>   0.7150 
  3 N        2.2810     0.0390     0.1850 N.am  1 <1>  -0.4940 
  4 C        1.2530    -2.1130    -0.1460 C.2   1 <1>  -0.2370 
  5 C        2.4600     1.4230     0.4410 C.2   1 <1>  -0.0880 
  6 N        0.2400    -2.9440    -0.5200 N.pl3 1 <1>   0.3140 
  7 C        2.3410    -2.9260    -0.0060 C.2   1 <1>  -0.1500 
  8 N        3.6530     2.0840     0.4090 N.pl3 1 <1>   0.3140 
  9 C        1.5280     2.3480     0.7720 C.2   1 <1>  -0.1500 
 10 N        0.6440    -4.2180    -0.6250 N.2   1 <1>  -0.7070 
 11 C       -1.1640    -2.6000    -0.8100 C.3   1 <1>   0.0160 
 12 C        1.9020    -4.1990    -0.3130 C.2   1 <1>   0.1390 
 13 N        3.4950     3.3950     0.7240 N.2   1 <1>  -0.7070 
 14 C        4.9860     1.4920     0.0910 C.3   1 <1>   0.1760 
 15 C        2.2240     3.5360     0.9320 C.2   1 <1>   0.1390 
 16 C        5.8700     1.3300     1.3290 C.3   1 <1>  -0.1600 
 17 C        5.8350     2.3360    -0.8600 C.3   1 <1>  -0.1600 
 18 C        7.3120     1.3190     0.8050 C.3   1 <1>  -0.1600 
 19 C        7.2610     1.8280    -0.6410 C.3   1 <1>  -0.1600 
 20 H        3.1210    -0.5250     0.0920 H     1 <1>   0.3700 
 21 H        3.3450    -2.6790     0.2860 H     1 <1>   0.1500 
 22 H        0.4680     2.2160     0.8940 H     1 <1>   0.1500 
 23 H       -1.1950    -1.8570    -1.5850 H     1 <1>   0.0800 
 24 H       -1.6250    -2.2150     0.0800 H     1 <1>   0.0800 
 25 H       -1.6870    -3.4810    -1.1340 H     1 <1>   0.0800 
 26 H        2.5160    -5.0840    -0.3010 H     1 <1>   0.1500 
 27 H        4.8410     0.5300    -0.3610 H     1 <1>   0.0800 
 28 H        1.7690     4.4750     1.2020 H     1 <1>   0.1500 
 29 H        5.6350     0.4320     1.8720 H     1 <1>   0.0800 
 30 H        5.7400     2.1830     1.9740 H     1 <1>   0.0800 
 31 H        5.7900     3.3740    -0.5750 H     1 <1>   0.0800 
 32 H        5.5220     2.2300    -1.8830 H     1 <1>   0.0800 
 33 H        7.7190     0.3220     0.8310 H     1 <1>   0.0800 
 34 H        7.9300     1.9590     1.4120 H     1 <1>   0.0800 
 35 H        7.9840     2.6070    -0.8140 H     1 <1>   0.0800 
 36 H        7.4610     1.0130    -1.3160 H     1 <1>   0.0800 
@<TRIPOS>BOND
  1   1   2  2   
  2   2   3  am  
  3   2   4  1   
  4   3   5  1   
  5   3  20  1   
  6   4   6  1   
  7   4   7  2   
  8   5   8  1   
  9   5   9  2   
 10   6  10  1   
 11   6  11  1   
 12   7  12  1   
 13   7  21  1   
 14   8  13  1   
 15   8  14  1   
 16   9  15  1   
 17   9  22  1   
 18  10  12  2   
 19  11  23  1   
 20  11  24  1   
 21  11  25  1   
 22  12  26  1   
 23  13  15  2   
 24  14  16  1   
 25  14  17  1   
 26  14  27  1   
 27  15  28  1   
 28  16  18  1   
 29  16  29  1   
 30  16  30  1   
 31  17  19  1   
 32  17  31  1   
 33  17  32  1   
 34  18  19  1   
 35  18  33  1   
 36  18  34  1   
 37  19  35  1   
 38  19  36  1   
@<TRIPOS>SUBSTRUCTURE
  1 ****   3 GROUP 4 **** **** 0

# MOE 2024.06 (io_trps.svl 2023.06)
