@<TRIPOS>MOLECULE
NONAME
51 52 1 0 0 
SMALL
USER_CHARGES


@<TRIPOS>ATOM
  1 O        1.2080     0.3380     0.4900 O.2   1 <1>  -0.5700 
  2 C        2.1350    -0.4440     0.6270 C.2   1 <1>   0.5440 
  3 N        3.3890     0.0810     0.9090 N.am  1 <1>  -0.6600 
  4 C        1.8680    -1.8720     0.4280 C.ar  1 <1>   0.3960 
  5 C        3.5880     1.5520     1.0750 C.3   1 <1>   0.2840 
  6 C        4.6370    -0.7310     0.9990 C.3   1 <1>   0.1400 
  7 N        2.3730    -2.8010     1.2360 N.ar  1 <1>  -0.6200 
  8 C        1.0670    -2.2530    -0.6350 C.ar  1 <1>  -0.1500 
  9 C        4.3290     2.1150    -0.1280 C.ar  1 <1>  -0.1440 
 10 C        5.0780    -1.2200    -0.3850 C.3   1 <1>  -0.1600 
 11 C        2.0870    -4.0440     0.9280 C.ar  1 <1>   0.7200 
 12 C        0.8270    -3.5880    -0.8490 C.ar  1 <1>   0.1660 
 13 C        3.6700     2.2530    -1.3390 C.ar  1 <1>  -0.1500 
 14 C        5.6620     2.4870    -0.0350 C.ar  1 <1>  -0.1500 
 15 C        6.3070    -2.1160    -0.2590 C.3   1 <1>   0.1200 
 16 N        1.3460    -4.4990    -0.0610 N.ar  1 <1>  -0.6200 
 17 N        2.6000    -4.9730     1.7330 N.pl3 1 <1>  -0.9000 
 18 C       -0.0540    -4.0360    -2.0180 C.3   1 <1>   0.0630 
 19 C        4.3350     2.7530    -2.4450 C.ar  1 <1>  -0.1500 
 20 C        6.3260     2.9860    -1.1430 C.ar  1 <1>  -0.1500 
 21 O        6.6760    -2.5350    -1.5220 O.3   1 <1>  -0.6800 
 22 C       -1.2890    -4.8000    -1.5210 C.3   1 <1>  -0.2400 
 23 C        0.7410    -4.8950    -3.0120 C.3   1 <1>  -0.2400 
 24 C        5.6660     3.1220    -2.3530 C.ar  1 <1>  -0.1430 
 25 C        6.3970     3.6650    -3.5670 C.3   1 <1>  -0.0970 
 26 H        4.1470     1.7340     1.9750 H     1 <1>   0.0800 
 27 H        2.6460     2.0600     1.1780 H     1 <1>   0.0800 
 28 H        4.4800    -1.5650     1.6590 H     1 <1>   0.0800 
 29 H        5.4240    -0.1350     1.4280 H     1 <1>   0.0800 
 30 H        0.6460    -1.5010    -1.2750 H     1 <1>   0.1500 
 31 H        5.3200    -0.3710    -1.0010 H     1 <1>   0.0800 
 32 H        4.2850    -1.7780    -0.8450 H     1 <1>   0.0800 
 33 H        2.6360     1.9640    -1.4190 H     1 <1>   0.1500 
 34 H        6.1910     2.3870     0.8950 H     1 <1>   0.1500 
 35 H        6.0970    -2.9870     0.3380 H     1 <1>   0.0800 
 36 H        7.1380    -1.5780     0.1660 H     1 <1>   0.0800 
 37 H        2.1580    -5.8860     1.6590 H     1 <1>   0.4000 
 38 H        2.8290    -4.6610     2.6720 H     1 <1>   0.4000 
 39 H       -0.4000    -3.1630    -2.5430 H     1 <1>   0.0800 
 40 H        3.8080     2.8510    -3.3780 H     1 <1>   0.1500 
 41 H        7.3610     3.2660    -1.0590 H     1 <1>   0.1500 
 42 H        5.9420    -3.0200    -1.9480 H     1 <1>   0.4000 
 43 H       -0.9930    -5.7030    -1.0150 H     1 <1>   0.0800 
 44 H       -1.9280    -5.0610    -2.3460 H     1 <1>   0.0800 
 45 H       -1.8470    -4.1910    -0.8330 H     1 <1>   0.0800 
 46 H        1.0840    -5.7960    -2.5350 H     1 <1>   0.0800 
 47 H        1.5970    -4.3500    -3.3670 H     1 <1>   0.0800 
 48 H        0.1270    -5.1610    -3.8530 H     1 <1>   0.0800 
 49 H        5.7120     4.1660    -4.2260 H     1 <1>   0.0800 
 50 H        6.8650     2.8570    -4.0990 H     1 <1>   0.0800 
 51 H        7.1530     4.3680    -3.2660 H     1 <1>   0.0800 
@<TRIPOS>BOND
  1   1   2  2   
  2   2   3  am  
  3   2   4  1   
  4   3   5  1   
  5   3   6  1   
  6   4   7  ar  
  7   4   8  ar  
  8   5   9  1   
  9   5  26  1   
 10   5  27  1   
 11   6  10  1   
 12   6  28  1   
 13   6  29  1   
 14   7  11  ar  
 15   8  12  ar  
 16   8  30  1   
 17   9  13  ar  
 18   9  14  ar  
 19  10  15  1   
 20  10  31  1   
 21  10  32  1   
 22  11  16  ar  
 23  11  17  1   
 24  12  16  ar  
 25  12  18  1   
 26  13  19  ar  
 27  13  33  1   
 28  14  20  ar  
 29  14  34  1   
 30  15  21  1   
 31  15  35  1   
 32  15  36  1   
 33  17  37  1   
 34  17  38  1   
 35  18  22  1   
 36  18  23  1   
 37  18  39  1   
 38  19  24  ar  
 39  19  40  1   
 40  20  24  ar  
 41  20  41  1   
 42  21  42  1   
 43  22  43  1   
 44  22  44  1   
 45  22  45  1   
 46  23  46  1   
 47  23  47  1   
 48  23  48  1   
 49  24  25  1   
 50  25  49  1   
 51  25  50  1   
 52  25  51  1   
@<TRIPOS>SUBSTRUCTURE
  1 ****   2 GROUP 4 **** **** 0

# MOE 2024.06 (io_trps.svl 2023.06)
