@<TRIPOS>MOLECULE
NONAME
54 57 1 0 0 
SMALL
USER_CHARGES


@<TRIPOS>ATOM
  1 O       -0.4910     0.0910     0.7890 O.2   1 <1>  -0.5700 
  2 C       -1.5210     0.6680     0.4980 C.2   1 <1>   0.5440 
  3 N       -2.6130    -0.0810     0.1280 N.am  1 <1>  -0.6600 
  4 C       -1.5860     2.1050     0.5400 C.ar  1 <1>   0.0860 
  5 C       -3.7750     0.4330    -0.6440 C.3   1 <1>   0.1400 
  6 C       -2.5800    -1.5640     0.1020 C.3   1 <1>   0.1400 
  7 C       -0.7520     2.9480    -0.1800 C.ar  1 <1>   0.1660 
  8 C       -2.5280     2.7410     1.3260 C.ar  1 <1>   0.1600 
  9 C       -4.3560    -0.7980    -1.3390 C.3   1 <1>   0.2000 
 10 C       -3.9250    -1.9910    -0.4890 C.3   1 <1>  -0.0800 
 11 N       -0.8640     4.2520    -0.1320 N.ar  1 <1>  -0.6200 
 12 C        0.3470     2.4050    -1.0760 C.3   1 <1>  -0.0960 
 13 N       -2.6650     4.0400     1.3870 N.ar  1 <1>  -0.6200 
 14 O       -5.7390    -0.7400    -1.4090 O.3   1 <1>  -0.6800 
 15 C       -3.8540    -3.3030    -1.2880 C.3   1 <1>  -0.0160 
 16 C       -1.8180     4.7580     0.6500 C.ar  1 <1>   0.7200 
 17 C       -3.4570    -4.4690    -0.3890 C.ar  1 <1>  -0.1440 
 18 N       -1.9390     6.1270     0.6980 N.pl3 1 <1>  -0.8380 
 19 C       -4.3760    -5.1000     0.4830 C.ar  1 <1>   0.0000 
 20 C       -2.1750    -4.9360    -0.3980 C.ar  1 <1>  -0.1500 
 21 C       -3.0990     6.8070     1.3390 C.3   1 <1>   0.1290 
 22 C       -0.8960     7.0370     0.1450 C.3   1 <1>   0.1290 
 23 C       -3.8940    -6.1570     1.2930 C.ar  1 <1>   0.3100 
 24 C       -5.7410    -4.7470     0.5980 C.ar  1 <1>  -0.1500 
 25 C       -1.8030    -5.9940     0.4390 C.ar  1 <1>   0.1600 
 26 N       -2.6090    -6.5910     1.2590 N.ar  1 <1>  -0.6200 
 27 C       -4.7790    -6.7930     2.1780 C.ar  1 <1>  -0.1500 
 28 C       -6.5790    -5.3900     1.4690 C.ar  1 <1>  -0.1500 
 29 C       -6.0940    -6.4250     2.2720 C.ar  1 <1>  -0.1500 
 30 H       -4.4900     0.8610     0.0360 H     1 <1>   0.0800 
 31 H       -3.4600     1.1660    -1.3660 H     1 <1>   0.0800 
 32 H       -1.7630    -1.8820    -0.5240 H     1 <1>   0.0800 
 33 H       -2.4400    -1.9600     1.0940 H     1 <1>   0.0800 
 34 H       -3.1900     2.1390     1.9250 H     1 <1>   0.1500 
 35 H       -3.9680    -0.8690    -2.3410 H     1 <1>   0.0800 
 36 H       -4.6060    -2.1030     0.3360 H     1 <1>   0.0800 
 37 H        0.0080     1.5410    -1.6180 H     1 <1>   0.0800 
 38 H        1.1960     2.1300    -0.4760 H     1 <1>   0.0800 
 39 H        0.6550     3.1520    -1.7860 H     1 <1>   0.0800 
 40 H       -6.1260    -0.6820    -0.5140 H     1 <1>   0.4000 
 41 H       -3.1360    -3.1980    -2.0830 H     1 <1>   0.0800 
 42 H       -4.8030    -3.5050    -1.7530 H     1 <1>   0.0800 
 43 H       -1.4220    -4.5100    -1.0360 H     1 <1>   0.1500 
 44 H       -3.3220     7.7240     0.8220 H     1 <1>   0.0800 
 45 H       -2.8660     7.0250     2.3660 H     1 <1>   0.0800 
 46 H       -3.9740     6.1810     1.3040 H     1 <1>   0.0800 
 47 H       -0.8400     7.9370     0.7320 H     1 <1>   0.0800 
 48 H       -1.1420     7.2890    -0.8710 H     1 <1>   0.0800 
 49 H        0.0710     6.5630     0.1640 H     1 <1>   0.0800 
 50 H       -6.1380    -3.9590    -0.0130 H     1 <1>   0.1500 
 51 H       -0.7810    -6.3310     0.4010 H     1 <1>   0.1500 
 52 H       -4.3840    -7.5880     2.7830 H     1 <1>   0.1500 
 53 H       -7.6160    -5.1120     1.5460 H     1 <1>   0.1500 
 54 H       -6.7610    -6.9230     2.9540 H     1 <1>   0.1500 
@<TRIPOS>BOND
  1   1   2  2   
  2   2   3  am  
  3   2   4  1   
  4   3   5  1   
  5   3   6  1   
  6   4   7  ar  
  7   4   8  ar  
  8   5   9  1   
  9   5  30  1   
 10   5  31  1   
 11   6  10  1   
 12   6  32  1   
 13   6  33  1   
 14   7  11  ar  
 15   7  12  1   
 16   8  13  ar  
 17   8  34  1   
 18   9  10  1   
 19   9  14  1   
 20   9  35  1   
 21  10  15  1   
 22  10  36  1   
 23  11  16  ar  
 24  12  37  1   
 25  12  38  1   
 26  12  39  1   
 27  13  16  ar  
 28  14  40  1   
 29  15  17  1   
 30  15  41  1   
 31  15  42  1   
 32  16  18  1   
 33  17  19  ar  
 34  17  20  ar  
 35  18  21  1   
 36  18  22  1   
 37  19  23  ar  
 38  19  24  ar  
 39  20  25  ar  
 40  20  43  1   
 41  21  44  1   
 42  21  45  1   
 43  21  46  1   
 44  22  47  1   
 45  22  48  1   
 46  22  49  1   
 47  23  26  ar  
 48  23  27  ar  
 49  24  28  ar  
 50  24  50  1   
 51  25  26  ar  
 52  25  51  1   
 53  27  29  ar  
 54  27  52  1   
 55  28  29  ar  
 56  28  53  1   
 57  29  54  1   
@<TRIPOS>SUBSTRUCTURE
  1 ****   3 GROUP 4 **** **** 0

# MOE 2024.06 (io_trps.svl 2023.06)
