@<TRIPOS>MOLECULE
NONAME
34 35 1 0 0 
SMALL
USER_CHARGES


@<TRIPOS>ATOM
  1 O        6.5290     2.3870    -1.1450 O.2   1 <1>  -0.5700 
  2 C        6.7110     1.7990    -0.1100 C.2   1 <1>   0.6590 
  3 O        5.7550     1.6570     0.7980 O.3   1 <1>  -0.4300 
  4 C        8.0410     1.1690     0.2480 C.3   1 <1>  -0.0990 
  5 C        4.4620     2.1900     0.6030 C.3   1 <1>   0.0400 
  6 C        9.1200     1.3760    -0.8250 C.3   1 <1>  -0.0170 
  7 C       10.4210     0.7110    -0.4020 C.ar  1 <1>  -0.1440 
  8 C       10.6840    -0.6010    -0.7560 C.ar  1 <1>  -0.1500 
  9 C       11.3510     1.4120     0.3450 C.ar  1 <1>  -0.1500 
 10 C       11.8640    -1.2150    -0.3700 C.ar  1 <1>  -0.1440 
 11 C       12.5310     0.8070     0.7350 C.ar  1 <1>  -0.1500 
 12 C       12.7960    -0.5080     0.3830 C.ar  1 <1>  -0.1430 
 13 C       12.1160    -2.6550    -0.7980 C.3   1 <1>  -0.0170 
 14 C       14.0990    -1.1400     0.8400 C.3   1 <1>   0.4860 
 15 C       13.3310    -3.2710    -0.0990 C.3   1 <1>   0.3430 
 16 N       14.4430    -2.2810    -0.0470 N.4   1 <1>  -0.9060 
 17 H        7.8840     0.1170     0.3980 H     1 <1>   0.0800 
 18 H        8.3740     1.5920     1.1770 H     1 <1>   0.0800 
 19 H        3.8610     1.9540     1.4620 H     1 <1>   0.0800 
 20 H        4.0350     1.7510    -0.2820 H     1 <1>   0.0800 
 21 H        4.5400     3.2580     0.4860 H     1 <1>   0.0800 
 22 H        9.2820     2.4300    -0.9770 H     1 <1>   0.0800 
 23 H        8.7870     0.9630    -1.7610 H     1 <1>   0.0800 
 24 H        9.9590    -1.1430    -1.3390 H     1 <1>   0.1500 
 25 H       11.1580     2.4340     0.6260 H     1 <1>   0.1500 
 26 H       13.2340     1.3790     1.3180 H     1 <1>   0.1500 
 27 H       12.2680    -2.6800    -1.8630 H     1 <1>   0.0800 
 28 H       11.2490    -3.2550    -0.5820 H     1 <1>   0.0800 
 29 H       13.9870    -1.4820     1.8560 H     1 <1>   0.0800 
 30 H       14.8850    -0.4020     0.8130 H     1 <1>   0.0800 
 31 H       13.6400    -4.1570    -0.6300 H     1 <1>   0.0800 
 32 H       13.0560    -3.5560     0.9040 H     1 <1>   0.0800 
 33 H       15.3170    -2.7190     0.2640 H     1 <1>   0.4500 
 34 H       14.5910    -1.8990    -0.9890 H     1 <1>   0.4500 
@<TRIPOS>BOND
  1   1   2  2   
  2   2   3  1   
  3   2   4  1   
  4   3   5  1   
  5   4   6  1   
  6   4  17  1   
  7   4  18  1   
  8   5  19  1   
  9   5  20  1   
 10   5  21  1   
 11   6   7  1   
 12   6  22  1   
 13   6  23  1   
 14   7   8  ar  
 15   7   9  ar  
 16   8  10  ar  
 17   8  24  1   
 18   9  11  ar  
 19   9  25  1   
 20  10  12  ar  
 21  10  13  1   
 22  11  12  ar  
 23  11  26  1   
 24  12  14  1   
 25  13  15  1   
 26  13  27  1   
 27  13  28  1   
 28  14  16  1   
 29  14  29  1   
 30  14  30  1   
 31  15  16  1   
 32  15  31  1   
 33  15  32  1   
 34  16  33  1   
 35  16  34  1   
@<TRIPOS>SUBSTRUCTURE
  1 ****   7 GROUP 4 **** **** 0

# MOE 2024.06 (io_trps.svl 2023.06)
