@<TRIPOS>MOLECULE
NONAME
37 38 1 0 0 
SMALL
USER_CHARGES


@<TRIPOS>ATOM
  1 S        0.8940     0.1760    -1.6780 S.3   1 <1>  -0.0800 
  2 C        1.5320    -0.0240    -0.0510 C.2   1 <1>  -0.1400 
  3 C       -0.7180    -0.2700    -1.1490 C.2   1 <1>  -0.1100 
  4 C        0.5540    -0.4030     0.7930 C.2   1 <1>  -0.1500 
  5 C        3.0070     0.2450     0.1580 C.3   1 <1>   0.3200 
  6 C       -0.7270    -0.5430     0.1680 C.2   1 <1>  -0.1500 
  7 N        3.2540     1.6700    -0.1090 N.am  1 <1>  -0.7300 
  8 C        4.1520     2.4370     0.5530 C.2   1 <1>   0.5690 
  9 O        4.8840     1.9730     1.3920 O.2   1 <1>  -0.5700 
 10 C        4.2330     3.9280     0.2360 C.3   1 <1>  -0.0190 
 11 C        2.8810     4.6380     0.4490 C.3   1 <1>  -0.1600 
 12 C        4.7880     4.1870    -1.1860 C.3   1 <1>  -0.1600 
 13 C        2.9970     6.1680     0.2870 C.3   1 <1>   0.2000 
 14 C        4.4070     5.5680    -1.7580 C.3   1 <1>  -0.1600 
 15 O        1.7840     6.6410    -0.2460 O.3   1 <1>  -0.5600 
 16 C        4.1630     6.5910    -0.6450 C.3   1 <1>   0.2000 
 17 C        0.7530     6.8040     0.6780 C.3   1 <1>   0.0400 
 18 O        3.8560     7.7990    -1.2370 O.3   1 <1>  -0.6800 
 19 H       -1.4970    -0.2820    -1.8900 H     1 <1>   0.1500 
 20 H        0.6740    -0.5920     1.8460 H     1 <1>   0.1500 
 21 H        3.5920    -0.3550    -0.5170 H     1 <1>   0.0800 
 22 H        3.2890     0.0060     1.1700 H     1 <1>   0.0800 
 23 H       -1.5890    -0.8410     0.7390 H     1 <1>   0.1500 
 24 H        2.6240     2.0820    -0.7980 H     1 <1>   0.3700 
 25 H        4.9290     4.3520     0.9410 H     1 <1>   0.0800 
 26 H        2.5130     4.4140     1.4340 H     1 <1>   0.0800 
 27 H        2.1760     4.2590    -0.2700 H     1 <1>   0.0800 
 28 H        5.8600     4.1000    -1.1480 H     1 <1>   0.0800 
 29 H        4.4340     3.4340    -1.8680 H     1 <1>   0.0800 
 30 H        3.1600     6.6320     1.2450 H     1 <1>   0.0800 
 31 H        3.5020     5.4710    -2.3330 H     1 <1>   0.0800 
 32 H        5.1870     5.9160    -2.4120 H     1 <1>   0.0800 
 33 H        5.0680     6.7220    -0.0770 H     1 <1>   0.0800 
 34 H       -0.1090     7.1780     0.1550 H     1 <1>   0.0800 
 35 H        1.0570     7.5150     1.4280 H     1 <1>   0.0800 
 36 H        0.5180     5.8550     1.1280 H     1 <1>   0.0800 
 37 H        2.8750     7.8150    -1.3140 H     1 <1>   0.4000 
@<TRIPOS>BOND
  1   1   2  1   
  2   1   3  1   
  3   2   4  2   
  4   2   5  1   
  5   3   6  2   
  6   3  19  1   
  7   4   6  1   
  8   4  20  1   
  9   5   7  1   
 10   5  21  1   
 11   5  22  1   
 12   6  23  1   
 13   7   8  am  
 14   7  24  1   
 15   8   9  2   
 16   8  10  1   
 17  10  11  1   
 18  10  12  1   
 19  10  25  1   
 20  11  13  1   
 21  11  26  1   
 22  11  27  1   
 23  12  14  1   
 24  12  28  1   
 25  12  29  1   
 26  13  15  1   
 27  13  16  1   
 28  13  30  1   
 29  14  16  1   
 30  14  31  1   
 31  14  32  1   
 32  15  17  1   
 33  16  18  1   
 34  16  33  1   
 35  17  34  1   
 36  17  35  1   
 37  17  36  1   
 38  18  37  1   
@<TRIPOS>SUBSTRUCTURE
  1 ****  11 GROUP 4 **** **** 0

# MOE 2024.06 (io_trps.svl 2023.06)
