@<TRIPOS>MOLECULE
NONAME
35 37 1 0 0 
SMALL
USER_CHARGES


@<TRIPOS>ATOM
  1 F       -3.6060     1.1670     0.0180 F     1 <1>  -0.1900 
  2 C       -3.6380    -0.1350     0.1580 C.ar  1 <1>   0.1900 
  3 C       -3.1690    -0.7270     1.3060 C.ar  1 <1>   0.1600 
  4 C       -4.1430    -0.9330    -0.8410 C.ar  1 <1>   0.1600 
  5 N       -3.1980    -2.0350     1.4570 N.ar  1 <1>  -0.6200 
  6 N       -4.1810    -2.2430    -0.7110 N.ar  1 <1>  -0.6200 
  7 C       -3.6960    -2.7230     0.4360 C.ar  1 <1>   0.7200 
  8 N       -3.7070    -4.0590     0.6210 N.pl3 1 <1>  -0.8690 
  9 C       -4.4690    -5.0260    -0.2020 C.3   1 <1>   0.2890 
 10 C       -5.9060    -5.0940     0.2900 C.3   1 <1>  -0.0800 
 11 C       -3.9650    -6.4470     0.0580 C.3   1 <1>   0.1200 
 12 C       -5.7920    -6.1140     1.4210 C.3   1 <1>   0.1200 
 13 C       -6.8580    -5.5620    -0.8270 C.3   1 <1>  -0.0160 
 14 O       -4.7900    -7.0080     1.0430 O.3   1 <1>  -0.5600 
 15 C       -8.2980    -5.6330    -0.3420 C.ar  1 <1>  -0.1430 
 16 C       -9.0620    -4.4980    -0.1630 C.ar  1 <1>  -0.1500 
 17 C       -8.9160    -6.8350    -0.0590 C.ar  1 <1>  -0.1500 
 18 C      -10.3690    -4.6150     0.2800 C.ar  1 <1>   0.1600 
 19 C      -10.2300    -6.8420     0.3790 C.ar  1 <1>   0.1600 
 20 N      -10.9720    -5.7600     0.5570 N.ar  1 <1>  -0.6200 
 21 H       -2.7710    -0.1190     2.1000 H     1 <1>   0.1500 
 22 H       -4.5150    -0.4880    -1.7460 H     1 <1>   0.1500 
 23 H       -3.4900    -4.3460     1.5740 H     1 <1>   0.4000 
 24 H       -4.3890    -4.7630    -1.2440 H     1 <1>   0.0800 
 25 H       -6.2410    -4.1410     0.6590 H     1 <1>   0.0800 
 26 H       -2.9440    -6.4620     0.3950 H     1 <1>   0.0800 
 27 H       -4.0660    -7.0500    -0.8260 H     1 <1>   0.0800 
 28 H       -6.7020    -6.6560     1.6050 H     1 <1>   0.0800 
 29 H       -5.4730    -5.6340     2.3310 H     1 <1>   0.0800 
 30 H       -6.5540    -6.5270    -1.1950 H     1 <1>   0.0800 
 31 H       -6.8070    -4.8700    -1.6500 H     1 <1>   0.0800 
 32 H       -8.6530    -3.5250    -0.3630 H     1 <1>   0.1500 
 33 H       -8.3900    -7.7650    -0.1740 H     1 <1>   0.1500 
 34 H      -10.9490    -3.7180     0.4150 H     1 <1>   0.1500 
 35 H      -10.6960    -7.7880     0.5950 H     1 <1>   0.1500 
@<TRIPOS>BOND
  1   1   2  1   
  2   2   3  ar  
  3   2   4  ar  
  4   3   5  ar  
  5   3  21  1   
  6   4   6  ar  
  7   4  22  1   
  8   5   7  ar  
  9   6   7  ar  
 10   7   8  1   
 11   8   9  1   
 12   8  23  1   
 13   9  10  1   
 14   9  11  1   
 15   9  24  1   
 16  10  12  1   
 17  10  13  1   
 18  10  25  1   
 19  11  14  1   
 20  11  26  1   
 21  11  27  1   
 22  12  14  1   
 23  12  28  1   
 24  12  29  1   
 25  13  15  1   
 26  13  30  1   
 27  13  31  1   
 28  15  16  ar  
 29  15  17  ar  
 30  16  18  ar  
 31  16  32  1   
 32  17  19  ar  
 33  17  33  1   
 34  18  20  ar  
 35  18  34  1   
 36  19  20  ar  
 37  19  35  1   
@<TRIPOS>SUBSTRUCTURE
  1 ****  10 GROUP 4 **** **** 0

# MOE 2024.06 (io_trps.svl 2023.06)
