@<TRIPOS>MOLECULE
NONAME
56 58 1 0 0 
SMALL
USER_CHARGES


@<TRIPOS>ATOM
  1 CL       1.6160     1.2490     3.6190 Cl    1 <1>  -0.1770 
  2 C        2.2820     0.1600     2.4310 C.ar  1 <1>   0.1770 
  3 C        3.0400     0.6690     1.3970 C.ar  1 <1>  -0.1500 
  4 C        2.0280    -1.1920     2.5470 C.ar  1 <1>  -0.1500 
  5 C        3.5710    -0.1970     0.4460 C.ar  1 <1>   0.0830 
  6 C        2.5490    -2.0700     1.6070 C.ar  1 <1>  -0.1440 
  7 O        4.2860     0.2690    -0.6170 O.3   1 <1>  -0.3620 
  8 C        3.3420    -1.5790     0.5690 C.ar  1 <1>   0.0830 
  9 C        2.2470    -3.5550     1.7350 C.3   1 <1>   0.4870 
 10 C        4.5200     1.6470    -0.8240 C.3   1 <1>   0.0400 
 11 O        3.8460    -2.5040    -0.2980 O.3   1 <1>  -0.3630 
 12 N        1.7150    -4.0980     0.4510 N.4   1 <1>  -0.9590 
 13 C        5.1810    -2.4020    -0.7520 C.3   1 <1>   0.1200 
 14 C        0.2520    -3.8880     0.2390 C.3   1 <1>   0.4230 
 15 C        2.1320    -5.5250     0.2990 C.3   1 <1>   0.2630 
 16 C        5.6810    -3.8080    -1.0860 C.3   1 <1>  -0.1600 
 17 C       -0.2160    -4.4750    -1.0930 C.3   1 <1>  -0.1600 
 18 C       -0.1360    -2.4150     0.1310 C.3   1 <1>  -0.1600 
 19 C        7.1280    -3.7740    -1.5890 C.3   1 <1>  -0.2400 
 20 C       -1.5000    -3.7140    -1.4440 C.3   1 <1>  -0.0800 
 21 C       -1.4460    -2.3930    -0.6640 C.3   1 <1>  -0.0800 
 22 C       -2.7860    -4.4280    -1.0010 C.3   1 <1>  -0.1600 
 23 C       -2.7050    -2.3550     0.2150 C.3   1 <1>  -0.1600 
 24 C       -3.6700    -3.3140    -0.4640 C.3   1 <1>   0.2000 
 25 O       -4.5720    -3.8140     0.4470 O.3   1 <1>  -0.6800 
 26 H        3.1920     1.7300     1.3600 H     1 <1>   0.1500 
 27 H        1.4250    -1.5320     3.3710 H     1 <1>   0.1500 
 28 H        1.5430    -3.7280     2.5320 H     1 <1>   0.0800 
 29 H        3.1680    -4.0560     1.9840 H     1 <1>   0.0800 
 30 H        5.0920     1.7570    -1.7270 H     1 <1>   0.0800 
 31 H        5.0770     2.0380     0.0090 H     1 <1>   0.0800 
 32 H        3.5760     2.1520    -0.9290 H     1 <1>   0.0800 
 33 H        2.2170    -3.5410    -0.2660 H     1 <1>   0.4500 
 34 H        5.1960    -1.7770    -1.6280 H     1 <1>   0.0800 
 35 H        5.7810    -1.9560     0.0240 H     1 <1>   0.0800 
 36 H       -0.3140    -4.3430     1.0360 H     1 <1>   0.0800 
 37 H        1.6390    -6.1420     1.0320 H     1 <1>   0.0800 
 38 H        3.1990    -5.6160     0.4270 H     1 <1>   0.0800 
 39 H        1.8810    -5.8870    -0.6850 H     1 <1>   0.0800 
 40 H        5.6320    -4.4240    -0.2060 H     1 <1>   0.0800 
 41 H        5.0570    -4.2350    -1.8510 H     1 <1>   0.0800 
 42 H        0.5130    -4.2690    -1.8570 H     1 <1>   0.0800 
 43 H       -0.3890    -5.5350    -1.0370 H     1 <1>   0.0800 
 44 H       -0.2550    -1.9500     1.0920 H     1 <1>   0.0800 
 45 H        0.6060    -1.8810    -0.4370 H     1 <1>   0.0800 
 46 H        7.7800    -3.3620    -0.8380 H     1 <1>   0.0800 
 47 H        7.2050    -3.1740    -2.4790 H     1 <1>   0.0800 
 48 H        7.4630    -4.7700    -1.8210 H     1 <1>   0.0800 
 49 H       -1.5480    -3.5160    -2.5040 H     1 <1>   0.0800 
 50 H       -1.4620    -1.5590    -1.3480 H     1 <1>   0.0800 
 51 H       -2.5770    -5.1350    -0.2170 H     1 <1>   0.0800 
 52 H       -3.2590    -4.9330    -1.8250 H     1 <1>   0.0800 
 53 H       -3.1190    -1.3630     0.2650 H     1 <1>   0.0800 
 54 H       -2.4860    -2.7040     1.2090 H     1 <1>   0.0800 
 55 H       -4.2080    -2.8260    -1.2610 H     1 <1>   0.0800 
 56 H       -4.1150    -4.2510     1.1860 H     1 <1>   0.4000 
@<TRIPOS>BOND
  1   1   2  1   
  2   2   3  ar  
  3   2   4  ar  
  4   3   5  ar  
  5   3  26  1   
  6   4   6  ar  
  7   4  27  1   
  8   5   7  1   
  9   5   8  ar  
 10   6   8  ar  
 11   6   9  1   
 12   7  10  1   
 13   8  11  1   
 14   9  12  1   
 15   9  28  1   
 16   9  29  1   
 17  10  30  1   
 18  10  31  1   
 19  10  32  1   
 20  11  13  1   
 21  12  14  1   
 22  12  15  1   
 23  12  33  1   
 24  13  16  1   
 25  13  34  1   
 26  13  35  1   
 27  14  17  1   
 28  14  18  1   
 29  14  36  1   
 30  15  37  1   
 31  15  38  1   
 32  15  39  1   
 33  16  19  1   
 34  16  40  1   
 35  16  41  1   
 36  17  20  1   
 37  17  42  1   
 38  17  43  1   
 39  18  21  1   
 40  18  44  1   
 41  18  45  1   
 42  19  46  1   
 43  19  47  1   
 44  19  48  1   
 45  20  21  1   
 46  20  22  1   
 47  20  49  1   
 48  21  23  1   
 49  21  50  1   
 50  22  24  1   
 51  22  51  1   
 52  22  52  1   
 53  23  24  1   
 54  23  53  1   
 55  23  54  1   
 56  24  25  1   
 57  24  55  1   
 58  25  56  1   
@<TRIPOS>SUBSTRUCTURE
  1 ****  18 GROUP 4 **** **** 0

# MOE 2024.06 (io_trps.svl 2023.06)
