@<TRIPOS>MOLECULE
NONAME
49 51 1 0 0 
SMALL
USER_CHARGES


@<TRIPOS>ATOM
  1 S       -2.9990     0.5950     1.4150 S.3   1 <1>  -0.0800 
  2 C       -2.5350     1.2090    -0.1560 C.2   1 <1>   0.1980 
  3 C       -1.4410     1.0670     2.0270 C.2   1 <1>  -0.1100 
  4 N       -1.3600     1.6990    -0.1990 N.2   1 <1>  -0.5650 
  5 C       -3.5510     1.0870    -1.2780 C.3   1 <1>   0.3200 
  6 C       -0.7210     1.6260     1.0380 C.2   1 <1>   0.0460 
  7 N       -3.7010    -0.3320    -1.6810 N.am  1 <1>  -0.7300 
  8 C        0.7120     2.1790     1.1440 C.3   1 <1>   0.1810 
  9 C       -4.8320    -1.0700    -1.5490 C.2   1 <1>   0.5690 
 10 C        1.2700     2.0210     2.5680 C.3   1 <1>  -0.2400 
 11 C        0.7190     3.6730     0.7860 C.3   1 <1>  -0.2400 
 12 C        1.6320     1.4210     0.1760 C.3   1 <1>  -0.2400 
 13 O       -5.8690    -0.5660    -1.1940 O.2   1 <1>  -0.5700 
 14 C       -4.7740    -2.5730    -1.8280 C.3   1 <1>   0.2610 
 15 O       -3.7620    -2.8600    -2.7870 O.3   1 <1>  -0.5600 
 16 C       -4.5110    -3.3270    -0.4990 C.3   1 <1>   0.3640 
 17 C       -3.6760    -4.2220    -3.1500 C.3   1 <1>   0.1810 
 18 N       -3.9720    -4.6900    -0.7280 N.am  1 <1>  -0.7300 
 19 C       -5.7740    -3.4400     0.3490 C.ar  1 <1>  -0.1440 
 20 C       -3.5850    -5.1510    -1.9370 C.2   1 <1>   0.5690 
 21 C       -5.9640    -2.5790     1.4210 C.ar  1 <1>  -0.1500 
 22 C       -6.7500    -4.3900     0.0690 C.ar  1 <1>  -0.1500 
 23 O       -3.1960    -6.2840    -2.0690 O.2   1 <1>  -0.5700 
 24 C       -7.1040    -2.6670     2.2010 C.ar  1 <1>  -0.1500 
 25 C       -7.8890    -4.4790     0.8490 C.ar  1 <1>  -0.1500 
 26 C       -8.0670    -3.6180     1.9160 C.ar  1 <1>  -0.1500 
 27 H       -1.2340     0.8730     3.0620 H     1 <1>   0.1500 
 28 H       -3.2160     1.6620    -2.1230 H     1 <1>   0.0800 
 29 H       -4.4950     1.4870    -0.9480 H     1 <1>   0.0800 
 30 H       -2.8590    -0.7830    -2.0510 H     1 <1>   0.3700 
 31 H        2.2710     2.4100     2.6260 H     1 <1>   0.0800 
 32 H        1.2950     0.9830     2.8480 H     1 <1>   0.0800 
 33 H        0.6590     2.5560     3.2730 H     1 <1>   0.0800 
 34 H        1.7100     4.0820     0.8710 H     1 <1>   0.0800 
 35 H        0.0620     4.2150     1.4420 H     1 <1>   0.0800 
 36 H        0.3770     3.8160    -0.2240 H     1 <1>   0.0800 
 37 H        2.6430     1.7800     0.2490 H     1 <1>   0.0800 
 38 H        1.2970     1.5520    -0.8370 H     1 <1>   0.0800 
 39 H        1.6200     0.3690     0.4010 H     1 <1>   0.0800 
 40 H       -5.7200    -2.8770    -2.2410 H     1 <1>   0.0800 
 41 H       -3.7720    -2.7760     0.0580 H     1 <1>   0.0800 
 42 H       -4.5430    -4.4750    -3.7330 H     1 <1>   0.0800 
 43 H       -2.8000    -4.3450    -3.7600 H     1 <1>   0.0800 
 44 H       -3.9480    -5.3220     0.0740 H     1 <1>   0.3700 
 45 H       -5.2310    -1.8260     1.6550 H     1 <1>   0.1500 
 46 H       -6.6300    -5.0690    -0.7580 H     1 <1>   0.1500 
 47 H       -7.2420    -1.9920     3.0280 H     1 <1>   0.1500 
 48 H       -8.6390    -5.2180     0.6250 H     1 <1>   0.1500 
 49 H       -8.9530    -3.6860     2.5230 H     1 <1>   0.1500 
@<TRIPOS>BOND
  1   1   2  1   
  2   1   3  1   
  3   2   4  2   
  4   2   5  1   
  5   3   6  2   
  6   3  27  1   
  7   4   6  1   
  8   5   7  1   
  9   5  28  1   
 10   5  29  1   
 11   6   8  1   
 12   7   9  am  
 13   7  30  1   
 14   8  10  1   
 15   8  11  1   
 16   8  12  1   
 17   9  13  2   
 18   9  14  1   
 19  10  31  1   
 20  10  32  1   
 21  10  33  1   
 22  11  34  1   
 23  11  35  1   
 24  11  36  1   
 25  12  37  1   
 26  12  38  1   
 27  12  39  1   
 28  14  15  1   
 29  14  16  1   
 30  14  40  1   
 31  15  17  1   
 32  16  18  1   
 33  16  19  1   
 34  16  41  1   
 35  17  20  1   
 36  17  42  1   
 37  17  43  1   
 38  18  20  am  
 39  18  44  1   
 40  19  21  ar  
 41  19  22  ar  
 42  20  23  2   
 43  21  24  ar  
 44  21  45  1   
 45  22  25  ar  
 46  22  46  1   
 47  24  26  ar  
 48  24  47  1   
 49  25  26  ar  
 50  25  48  1   
 51  26  49  1   
@<TRIPOS>SUBSTRUCTURE
  1 ****   7 GROUP 4 **** **** 0

# MOE 2024.06 (io_trps.svl 2023.06)
