@<TRIPOS>MOLECULE
NONAME
50 53 1 0 0 
SMALL
USER_CHARGES


@<TRIPOS>ATOM
  1 O        3.5740    -0.1440     2.2980 O.co2 1 <1>  -0.9000 
  2 C        3.2700     0.9350     1.7620 C.2   1 <1>   0.9060 
  3 O        3.1050     1.9580     2.4230 O.co2 1 <1>  -0.9000 
  4 C        3.0950     0.9840     0.2310 C.3   1 <1>  -0.1060 
  5 C        4.0230    -0.0700    -0.4120 C.3   1 <1>   0.4230 
  6 C        3.4870     2.3860    -0.3210 C.3   1 <1>  -0.1600 
  7 C        1.6280     0.6840    -0.1580 C.3   1 <1>  -0.1600 
  8 N        3.6190    -1.4530     0.0170 N.4   1 <1>  -0.9590 
  9 C        5.5020     0.2810    -0.1280 C.3   1 <1>   0.1400 
 10 C        4.9670     2.7150    -0.0810 C.3   1 <1>   0.1400 
 11 C        1.2430    -0.7650     0.1800 C.3   1 <1>  -0.1600 
 12 C        2.2310    -1.7820    -0.3960 C.3   1 <1>   0.3430 
 13 C        4.5840    -2.5360    -0.3110 C.3   1 <1>   0.2630 
 14 N        5.8010     1.6340    -0.6900 N.am  1 <1>  -0.6600 
 15 C        6.7240     1.8030    -1.6950 C.2   1 <1>   0.5690 
 16 O        7.2450     0.8480    -2.2240 O.2   1 <1>  -0.5700 
 17 C        7.1120     3.1700    -2.2180 C.3   1 <1>   0.1570 
 18 N        7.8410     3.9200    -1.1880 N.pl3 1 <1>   0.3140 
 19 N        7.4230     5.1330    -0.8000 N.2   1 <1>  -0.7070 
 20 C        8.9470     3.5260    -0.5430 C.2   1 <1>  -0.3020 
 21 C        8.2920     5.4920     0.1210 C.ar  1 <1>   0.2890 
 22 C        9.2830     4.5160     0.3260 C.ar  1 <1>   0.0000 
 23 C        8.3300     6.6840     0.8820 C.ar  1 <1>  -0.1500 
 24 C       10.3060     4.7340     1.2840 C.ar  1 <1>  -0.1500 
 25 C        9.3200     6.8790     1.8000 C.ar  1 <1>  -0.1500 
 26 C       10.3190     5.8930     2.0020 C.ar  1 <1>  -0.1500 
 27 H        3.8970    -0.0110    -1.4790 H     1 <1>   0.0800 
 28 H        2.8890     3.1410     0.1610 H     1 <1>   0.0800 
 29 H        3.2880     2.4460    -1.3760 H     1 <1>   0.0800 
 30 H        0.9750     1.3600     0.3700 H     1 <1>   0.0800 
 31 H        1.4880     0.8480    -1.2130 H     1 <1>   0.0800 
 32 H        3.5890    -1.3280     1.0660 H     1 <1>   0.4500 
 33 H        6.1480    -0.4480    -0.5780 H     1 <1>   0.0800 
 34 H        5.6940     0.2920     0.9310 H     1 <1>   0.0800 
 35 H        5.1690     2.7700     0.9780 H     1 <1>   0.0800 
 36 H        5.1910     3.6780    -0.5020 H     1 <1>   0.0800 
 37 H        0.2590    -0.9710    -0.2020 H     1 <1>   0.0800 
 38 H        1.1990    -0.8880     1.2490 H     1 <1>   0.0800 
 39 H        2.1650    -1.7780    -1.4720 H     1 <1>   0.0800 
 40 H        1.9690    -2.7660    -0.0410 H     1 <1>   0.0800 
 41 H        4.7190    -2.6080    -1.3780 H     1 <1>   0.0800 
 42 H        4.2200    -3.4800     0.0610 H     1 <1>   0.0800 
 43 H        5.5370    -2.3380     0.1510 H     1 <1>   0.0800 
 44 H        6.2360     3.7180    -2.5030 H     1 <1>   0.0800 
 45 H        7.7480     3.0630    -3.0740 H     1 <1>   0.0800 
 46 H        9.4400     2.5870    -0.7120 H     1 <1>   0.1500 
 47 H        7.5570     7.4060     0.7020 H     1 <1>   0.1500 
 48 H       11.0490     3.9690     1.4160 H     1 <1>   0.1500 
 49 H        9.3630     7.7790     2.3880 H     1 <1>   0.1500 
 50 H       11.0830     6.0840     2.7360 H     1 <1>   0.1500 
@<TRIPOS>BOND
  1   1   2  ar  
  2   2   3  ar  
  3   2   4  1   
  4   4   5  1   
  5   4   6  1   
  6   4   7  1   
  7   5   8  1   
  8   5   9  1   
  9   5  27  1   
 10   6  10  1   
 11   6  28  1   
 12   6  29  1   
 13   7  11  1   
 14   7  30  1   
 15   7  31  1   
 16   8  12  1   
 17   8  13  1   
 18   8  32  1   
 19   9  14  1   
 20   9  33  1   
 21   9  34  1   
 22  10  14  1   
 23  10  35  1   
 24  10  36  1   
 25  11  12  1   
 26  11  37  1   
 27  11  38  1   
 28  12  39  1   
 29  12  40  1   
 30  13  41  1   
 31  13  42  1   
 32  13  43  1   
 33  14  15  am  
 34  15  16  2   
 35  15  17  1   
 36  17  18  1   
 37  17  44  1   
 38  17  45  1   
 39  18  19  1   
 40  18  20  1   
 41  19  21  2   
 42  20  22  2   
 43  20  46  1   
 44  21  22  ar  
 45  21  23  ar  
 46  22  24  ar  
 47  23  25  ar  
 48  23  47  1   
 49  24  26  ar  
 50  24  48  1   
 51  25  26  ar  
 52  25  49  1   
 53  26  50  1   
@<TRIPOS>SUBSTRUCTURE
  1 ****  14 GROUP 4 **** **** 0

# MOE 2024.06 (io_trps.svl 2023.06)
