@<TRIPOS>MOLECULE
NONAME
55 57 1 0 0 
SMALL
USER_CHARGES


@<TRIPOS>ATOM
  1 O        1.5540    -0.4700     2.2200 O.2   1 <1>  -0.5700 
  2 C        1.8890    -0.5860     1.0690 C.2   1 <1>   0.5690 
  3 N        2.4840     0.4510     0.3960 N.am  1 <1>  -0.6600 
  4 C        1.6560    -1.9190     0.3980 C.3   1 <1>  -0.1790 
  5 C        2.5570     1.8080     1.0130 C.3   1 <1>   0.1400 
  6 C        3.2750     0.3160    -0.8610 C.3   1 <1>   0.1400 
  7 C        4.0220     2.1810     1.2880 C.3   1 <1>   0.3430 
  8 C        4.7440     0.7250    -0.6100 C.3   1 <1>   0.3430 
  9 N        4.8730     2.0830     0.0430 N.4   1 <1>  -0.9590 
 10 C        6.3040     2.4610     0.2850 C.3   1 <1>   0.3430 
 11 C        6.4880     3.9970     0.3510 C.3   1 <1>   0.2000 
 12 O        5.6040     4.5660    -0.5800 O.3   1 <1>  -0.5600 
 13 C        7.9430     4.3960    -0.0100 C.3   1 <1>   0.3430 
 14 C        4.9830     5.7670    -0.2250 C.3   1 <1>   0.1200 
 15 N        8.2490     5.8700     0.0420 N.4   1 <1>  -0.9590 
 16 C        5.9940     6.8940     0.0130 C.3   1 <1>  -0.1600 
 17 C        7.3100     6.7310    -0.7450 C.3   1 <1>   0.3430 
 18 C        9.6580     6.1340    -0.3790 C.3   1 <1>   0.4860 
 19 C       10.0300     7.5330     0.0660 C.ar  1 <1>  -0.1440 
 20 C       10.1320     8.5580    -0.8650 C.ar  1 <1>  -0.1500 
 21 C       10.2670     7.8030     1.4080 C.ar  1 <1>  -0.1500 
 22 C       10.4490     9.8410    -0.4560 C.ar  1 <1>  -0.1500 
 23 C       10.5840     9.0870     1.8140 C.ar  1 <1>  -0.1500 
 24 C       10.6720    10.1060     0.8830 C.ar  1 <1>  -0.1500 
 25 H        1.2050    -1.7760    -0.5650 H     1 <1>   0.0800 
 26 H        0.9890    -2.5100     1.0000 H     1 <1>   0.0800 
 27 H        2.5840    -2.4480     0.2970 H     1 <1>   0.0800 
 28 H        2.0040     1.8380     1.9370 H     1 <1>   0.0800 
 29 H        2.1090     2.5270     0.3500 H     1 <1>   0.0800 
 30 H        2.8440     0.9440    -1.6220 H     1 <1>   0.0800 
 31 H        3.2520    -0.6960    -1.2240 H     1 <1>   0.0800 
 32 H        4.4000     1.5120     2.0450 H     1 <1>   0.0800 
 33 H        4.0570     3.1830     1.6820 H     1 <1>   0.0800 
 34 H        5.2710     0.7180    -1.5500 H     1 <1>   0.0800 
 35 H        5.1930    -0.0220     0.0240 H     1 <1>   0.0800 
 36 H        4.5150     2.7920    -0.6230 H     1 <1>   0.4500 
 37 H        6.9010     2.0890    -0.5310 H     1 <1>   0.0800 
 38 H        6.6670     1.9990     1.1890 H     1 <1>   0.0800 
 39 H        6.2390     4.3370     1.3420 H     1 <1>   0.0800 
 40 H        8.1480     4.0320    -1.0030 H     1 <1>   0.0800 
 41 H        8.6120     3.8840     0.6630 H     1 <1>   0.0800 
 42 H        4.3660     5.6090     0.6440 H     1 <1>   0.0800 
 43 H        4.3380     6.0350    -1.0470 H     1 <1>   0.0800 
 44 H        8.2040     6.2160     1.0100 H     1 <1>   0.4500 
 45 H        6.1770     7.0220     1.0650 H     1 <1>   0.0800 
 46 H        5.5310     7.8080    -0.3190 H     1 <1>   0.0800 
 47 H        7.1320     6.3150    -1.7240 H     1 <1>   0.0800 
 48 H        7.7410     7.7120    -0.8710 H     1 <1>   0.0800 
 49 H        9.7580     6.0450    -1.4490 H     1 <1>   0.0800 
 50 H       10.3290     5.4310     0.0880 H     1 <1>   0.0800 
 51 H        9.9710     8.3770    -1.9140 H     1 <1>   0.1500 
 52 H       10.2170     7.0280     2.1540 H     1 <1>   0.1500 
 53 H       10.5280    10.6370    -1.1780 H     1 <1>   0.1500 
 54 H       10.7680     9.3000     2.8540 H     1 <1>   0.1500 
 55 H       10.9200    11.1050     1.2000 H     1 <1>   0.1500 
@<TRIPOS>BOND
  1   1   2  2   
  2   2   3  am  
  3   2   4  1   
  4   3   5  1   
  5   3   6  1   
  6   4  25  1   
  7   4  26  1   
  8   4  27  1   
  9   5   7  1   
 10   5  28  1   
 11   5  29  1   
 12   6   8  1   
 13   6  30  1   
 14   6  31  1   
 15   7   9  1   
 16   7  32  1   
 17   7  33  1   
 18   8   9  1   
 19   8  34  1   
 20   8  35  1   
 21   9  10  1   
 22   9  36  1   
 23  10  11  1   
 24  10  37  1   
 25  10  38  1   
 26  11  12  1   
 27  11  13  1   
 28  11  39  1   
 29  12  14  1   
 30  13  15  1   
 31  13  40  1   
 32  13  41  1   
 33  14  16  1   
 34  14  42  1   
 35  14  43  1   
 36  15  17  1   
 37  15  18  1   
 38  15  44  1   
 39  16  17  1   
 40  16  45  1   
 41  16  46  1   
 42  17  47  1   
 43  17  48  1   
 44  18  19  1   
 45  18  49  1   
 46  18  50  1   
 47  19  20  ar  
 48  19  21  ar  
 49  20  22  ar  
 50  20  51  1   
 51  21  23  ar  
 52  21  52  1   
 53  22  24  ar  
 54  22  53  1   
 55  23  24  ar  
 56  23  54  1   
 57  24  55  1   
@<TRIPOS>SUBSTRUCTURE
  1 ****  11 GROUP 4 **** **** 0

# MOE 2024.06 (io_trps.svl 2023.06)
