@<TRIPOS>MOLECULE
NONAME
44 45 1 0 0 
SMALL
USER_CHARGES


@<TRIPOS>ATOM
  1 O        2.9550     0.5100    -1.4140 O.2   1 <1>  -0.5700 
  2 C        2.2220     0.2670    -0.4800 C.2   1 <1>   0.5690 
  3 N        0.8650     0.3290    -0.6090 N.am  1 <1>  -0.7300 
  4 C        2.8310    -0.1080     0.8840 C.3   1 <1>   0.2700 
  5 C        0.1340     0.6220    -1.8690 C.3   1 <1>   0.0600 
  6 N        3.3650     1.0520     1.6870 N.pl3 1 <1>  -0.8380 
  7 C        4.1490     1.9360     1.0290 C.ar  1 <1>   0.4100 
  8 C        3.6400     0.7380     3.1150 C.3   1 <1>   0.1290 
  9 N        5.4250     1.6210     0.9590 N.ar  1 <1>  -0.6200 
 10 C        3.6000     3.0720     0.3830 C.ar  1 <1>  -0.1440 
 11 C        6.1780     2.3190     0.1280 C.ar  1 <1>   0.7710 
 12 C        4.4050     3.7590    -0.4730 C.ar  1 <1>   0.2180 
 13 C        2.1460     3.4730     0.6520 C.3   1 <1>  -0.0960 
 14 N        5.6870     3.3410    -0.5880 N.ar  1 <1>  -0.1790 
 15 N        7.4890     1.9980    -0.0050 N.pl3 1 <1>  -0.8380 
 16 C        3.9970     4.9570    -1.3210 C.3   1 <1>  -0.0970 
 17 C        8.0970     0.8860     0.7770 C.3   1 <1>   0.2090 
 18 C        8.4990     2.5810    -0.9290 C.3   1 <1>   0.2090 
 19 C        9.5890     0.9600     0.4830 C.3   1 <1>  -0.1600 
 20 C        9.6750     1.6140    -0.8910 C.3   1 <1>  -0.1600 
 21 H        0.2750     0.1610     0.2110 H     1 <1>   0.3700 
 22 H        3.6360    -0.7990     0.7050 H     1 <1>   0.0800 
 23 H        2.0820    -0.6200     1.4610 H     1 <1>   0.0800 
 24 H        0.8260     0.7800    -2.6780 H     1 <1>   0.0800 
 25 H       -0.4650     1.5070    -1.7460 H     1 <1>   0.0800 
 26 H       -0.5060    -0.2070    -2.1190 H     1 <1>   0.0800 
 27 H        2.7170     0.5580     3.6370 H     1 <1>   0.0800 
 28 H        4.1470     1.5650     3.5820 H     1 <1>   0.0800 
 29 H        4.2680    -0.1340     3.1860 H     1 <1>   0.0800 
 30 H        1.8080     3.0930     1.5990 H     1 <1>   0.0800 
 31 H        1.5070     3.0810    -0.1190 H     1 <1>   0.0800 
 32 H        2.0360     4.5410     0.6860 H     1 <1>   0.0800 
 33 H        6.3450     3.7840    -1.2110 H     1 <1>   0.4570 
 34 H        2.9330     5.1000    -1.3210 H     1 <1>   0.0800 
 35 H        4.2990     4.8100    -2.3420 H     1 <1>   0.0800 
 36 H        4.4580     5.8530    -0.9440 H     1 <1>   0.0800 
 37 H        7.6940    -0.0520     0.4330 H     1 <1>   0.0800 
 38 H        7.9000     0.9940     1.8310 H     1 <1>   0.0800 
 39 H        8.8110     3.5440    -0.5600 H     1 <1>   0.0800 
 40 H        8.1190     2.6700    -1.9330 H     1 <1>   0.0800 
 41 H       10.0480    -0.0130     0.5050 H     1 <1>   0.0800 
 42 H       10.0610     1.5860     1.2200 H     1 <1>   0.0800 
 43 H       10.6140     2.1140    -1.0480 H     1 <1>   0.0800 
 44 H        9.5440     0.8690    -1.6570 H     1 <1>   0.0800 
@<TRIPOS>BOND
  1   1   2  2   
  2   2   3  am  
  3   2   4  1   
  4   3   5  1   
  5   3  21  1   
  6   4   6  1   
  7   4  22  1   
  8   4  23  1   
  9   5  24  1   
 10   5  25  1   
 11   5  26  1   
 12   6   7  1   
 13   6   8  1   
 14   7   9  ar  
 15   7  10  ar  
 16   8  27  1   
 17   8  28  1   
 18   8  29  1   
 19   9  11  ar  
 20  10  12  ar  
 21  10  13  1   
 22  11  14  ar  
 23  11  15  1   
 24  12  14  ar  
 25  12  16  1   
 26  13  30  1   
 27  13  31  1   
 28  13  32  1   
 29  14  33  1   
 30  15  17  1   
 31  15  18  1   
 32  16  34  1   
 33  16  35  1   
 34  16  36  1   
 35  17  19  1   
 36  17  37  1   
 37  17  38  1   
 38  18  20  1   
 39  18  39  1   
 40  18  40  1   
 41  19  20  1   
 42  19  41  1   
 43  19  42  1   
 44  20  43  1   
 45  20  44  1   
@<TRIPOS>SUBSTRUCTURE
  1 ****   9 GROUP 4 **** **** 0

# MOE 2024.06 (io_trps.svl 2023.06)
