@<TRIPOS>MOLECULE
NONAME
54 56 1 0 0 
SMALL
USER_CHARGES


@<TRIPOS>ATOM
  1 O       -3.2800     0.6580     1.7500 O.2   1 <1>  -0.5700 
  2 C       -2.6700     1.1690     0.8290 C.2   1 <1>   0.5440 
  3 N       -2.7310     0.5110    -0.3690 N.am  1 <1>  -0.6600 
  4 C       -2.0340     2.4670     0.9660 C.ar  1 <1>   0.0860 
  5 C       -2.3190    -0.9250    -0.4460 C.3   1 <1>   0.3210 
  6 C       -3.4200     1.1110    -1.5570 C.3   1 <1>   0.1400 
  7 C       -1.1100     2.9330     0.0410 C.ar  1 <1>  -0.1500 
  8 C       -2.3560     3.3080     2.0550 C.ar  1 <1>  -0.1500 
  9 C       -3.4980    -1.8980    -0.4710 C.2   1 <1>   0.0460 
 10 C       -4.9410     0.8410    -1.5530 C.3   1 <1>   0.3430 
 11 C       -0.5480     4.2030     0.1620 C.ar  1 <1>   0.0000 
 12 C       -1.8090     4.5600     2.1960 C.ar  1 <1>  -0.1500 
 13 N       -4.1660    -2.1610    -1.6160 N.2   1 <1>  -0.5650 
 14 C       -3.9900    -2.6410     0.5490 C.2   1 <1>  -0.3320 
 15 N       -5.5060     0.8500    -0.1650 N.4   1 <1>  -0.9590 
 16 C       -0.9040     5.0100     1.2340 C.ar  1 <1>  -0.1520 
 17 C        0.3810     4.9420    -0.6060 C.2   1 <1>  -0.1810 
 18 C       -5.0120    -3.0800    -1.2800 C.2   1 <1>   0.0360 
 19 N       -4.9600    -3.4130     0.0260 N.pl3 1 <1>   0.0330 
 20 C       -3.5930    -2.7090     2.0150 C.3   1 <1>  -0.0600 
 21 C       -6.6670    -0.0700    -0.0460 C.3   1 <1>   0.2630 
 22 C       -5.8040     2.2190     0.3450 C.3   1 <1>   0.2630 
 23 N       -0.2240     6.1920     1.1250 N.pl3 1 <1>   0.0330 
 24 C        0.5550     6.1420     0.0020 C.2   1 <1>  -0.3320 
 25 C        1.0240     4.4030    -1.8700 C.3   1 <1>  -0.0590 
 26 C        1.4330     7.3200    -0.3830 C.3   1 <1>  -0.0600 
 27 H       -1.6990    -1.1550     0.4030 H     1 <1>   0.0800 
 28 H       -1.7220    -1.0790    -1.3280 H     1 <1>   0.0800 
 29 H       -2.9910     0.7180    -2.4630 H     1 <1>   0.0800 
 30 H       -3.2620     2.1750    -1.5600 H     1 <1>   0.0800 
 31 H       -0.8050     2.3240    -0.7890 H     1 <1>   0.1500 
 32 H       -3.0480     2.9480     2.7970 H     1 <1>   0.1500 
 33 H       -5.1070    -0.1240    -1.9970 H     1 <1>   0.0800 
 34 H       -5.4450     1.5650    -2.1710 H     1 <1>   0.0800 
 35 H       -2.0620     5.1910     3.0300 H     1 <1>   0.1500 
 36 H       -4.7390     0.4520     0.4290 H     1 <1>   0.4500 
 37 H       -5.6980    -3.5540    -1.9620 H     1 <1>   0.1500 
 38 H       -5.5140    -4.1310     0.5050 H     1 <1>   0.2700 
 39 H       -2.8110    -2.0050     2.2350 H     1 <1>   0.0800 
 40 H       -3.2400    -3.6950     2.2600 H     1 <1>   0.0800 
 41 H       -4.4360    -2.4760     2.6420 H     1 <1>   0.0800 
 42 H       -7.4840     0.2730    -0.6580 H     1 <1>   0.0800 
 43 H       -6.9930    -0.1240     0.9790 H     1 <1>   0.0800 
 44 H       -6.3820    -1.0590    -0.3670 H     1 <1>   0.0800 
 45 H       -6.5870     2.6750    -0.2380 H     1 <1>   0.0800 
 46 H       -4.9220     2.8360     0.2910 H     1 <1>   0.0800 
 47 H       -6.1190     2.1680     1.3750 H     1 <1>   0.0800 
 48 H       -0.2850     6.9740     1.7840 H     1 <1>   0.2700 
 49 H        1.5610     3.5000    -1.6470 H     1 <1>   0.0800 
 50 H        1.7110     5.1140    -2.2880 H     1 <1>   0.0800 
 51 H        0.2650     4.1890    -2.6010 H     1 <1>   0.0800 
 52 H        1.9730     7.1210    -1.2890 H     1 <1>   0.0800 
 53 H        2.1440     7.5190     0.3990 H     1 <1>   0.0800 
 54 H        0.8280     8.1960    -0.5350 H     1 <1>   0.0800 
@<TRIPOS>BOND
  1   1   2  2   
  2   2   3  am  
  3   2   4  1   
  4   3   5  1   
  5   3   6  1   
  6   4   7  ar  
  7   4   8  ar  
  8   5   9  1   
  9   5  27  1   
 10   5  28  1   
 11   6  10  1   
 12   6  29  1   
 13   6  30  1   
 14   7  11  ar  
 15   7  31  1   
 16   8  12  ar  
 17   8  32  1   
 18   9  13  1   
 19   9  14  2   
 20  10  15  1   
 21  10  33  1   
 22  10  34  1   
 23  11  16  ar  
 24  11  17  1   
 25  12  16  ar  
 26  12  35  1   
 27  13  18  2   
 28  14  19  1   
 29  14  20  1   
 30  15  21  1   
 31  15  22  1   
 32  15  36  1   
 33  16  23  1   
 34  17  24  2   
 35  17  25  1   
 36  18  19  1   
 37  18  37  1   
 38  19  38  1   
 39  20  39  1   
 40  20  40  1   
 41  20  41  1   
 42  21  42  1   
 43  21  43  1   
 44  21  44  1   
 45  22  45  1   
 46  22  46  1   
 47  22  47  1   
 48  23  24  1   
 49  23  48  1   
 50  24  26  1   
 51  25  49  1   
 52  25  50  1   
 53  25  51  1   
 54  26  52  1   
 55  26  53  1   
 56  26  54  1   
@<TRIPOS>SUBSTRUCTURE
  1 ****   2 GROUP 4 **** **** 0

# MOE 2024.06 (io_trps.svl 2023.06)
