@<TRIPOS>MOLECULE
NONAME
51 54 1 0 0 
SMALL
USER_CHARGES


@<TRIPOS>ATOM
  1 O       -1.8940    -2.3450    -0.4590 O.2   1 <1>  -0.5700 
  2 C       -0.8010    -2.7990    -0.2280 C.2   1 <1>   0.5690 
  3 N       -0.5950    -4.0230     0.3470 N.am  1 <1>  -0.6600 
  4 C        0.4230    -1.9810    -0.5880 C.3   1 <1>  -0.0990 
  5 C        0.7780    -4.5070     0.6260 C.3   1 <1>   0.1400 
  6 C       -1.7180    -4.8990     0.7790 C.3   1 <1>   0.0600 
  7 C        1.4730    -2.8680    -1.2830 C.3   1 <1>  -0.0800 
  8 C        1.6940    -4.2320    -0.5850 C.3   1 <1>  -0.0800 
  9 C        2.8520    -2.2020    -1.3980 C.3   1 <1>  -0.1600 
 10 C        3.1890    -4.2910    -0.2420 C.3   1 <1>  -0.1600 
 11 C        3.8400    -3.3540    -1.2580 C.3   1 <1>   0.4230 
 12 N        5.2100    -2.9050    -0.8940 N.4   1 <1>  -0.9590 
 13 C        5.3670    -2.2540     0.4410 C.3   1 <1>   0.5230 
 14 C        6.2210    -3.9920    -1.0780 C.3   1 <1>   0.2630 
 15 C        6.6620    -1.4700     0.4170 C.2   1 <1>  -0.0400 
 16 O        6.8340    -0.6260    -0.5990 O.3   1 <1>  -0.2800 
 17 C        7.7280    -1.4660     1.2430 C.2   1 <1>  -0.1810 
 18 C        8.0280    -0.0540    -0.4420 C.ar  1 <1>   0.1400 
 19 C        8.6440    -0.5400     0.6980 C.ar  1 <1>   0.0000 
 20 C        8.0010    -2.2450     2.5180 C.3   1 <1>  -0.0590 
 21 C        8.6300     0.8930    -1.2590 C.ar  1 <1>  -0.1500 
 22 C        9.9120    -0.0680     1.0420 C.ar  1 <1>  -0.1500 
 23 C        9.8840     1.3530    -0.9120 C.ar  1 <1>  -0.1500 
 24 C       10.5210     0.8720     0.2350 C.ar  1 <1>  -0.1500 
 25 H        0.1330    -1.1730    -1.2340 H     1 <1>   0.0800 
 26 H        0.8110    -1.5630     0.3220 H     1 <1>   0.0800 
 27 H        1.1410    -3.9940     1.5000 H     1 <1>   0.0800 
 28 H        0.7620    -5.5630     0.8380 H     1 <1>   0.0800 
 29 H       -1.6640    -5.8420     0.2630 H     1 <1>   0.0800 
 30 H       -2.6650    -4.4390     0.5540 H     1 <1>   0.0800 
 31 H       -1.6630    -5.0690     1.8400 H     1 <1>   0.0800 
 32 H        1.1070    -3.0750    -2.2760 H     1 <1>   0.0800 
 33 H        1.4890    -5.0000    -1.3140 H     1 <1>   0.0800 
 34 H        2.9690    -1.4870    -0.6060 H     1 <1>   0.0800 
 35 H        2.9580    -1.7040    -2.3460 H     1 <1>   0.0800 
 36 H        3.5630    -5.2960    -0.3280 H     1 <1>   0.0800 
 37 H        3.3340    -3.9330     0.7600 H     1 <1>   0.0800 
 38 H        3.8750    -3.8660    -2.2080 H     1 <1>   0.0800 
 39 H        5.4720    -2.1490    -1.5480 H     1 <1>   0.4500 
 40 H        4.5570    -1.5690     0.6250 H     1 <1>   0.0800 
 41 H        5.3870    -2.9900     1.2270 H     1 <1>   0.0800 
 42 H        6.0400    -4.7980    -0.3860 H     1 <1>   0.0800 
 43 H        7.2160    -3.6090    -0.9100 H     1 <1>   0.0800 
 44 H        6.1740    -4.3810    -2.0830 H     1 <1>   0.0800 
 45 H        8.8900    -2.8390     2.4000 H     1 <1>   0.0800 
 46 H        7.1810    -2.8930     2.7630 H     1 <1>   0.0800 
 47 H        8.1540    -1.5610     3.3350 H     1 <1>   0.0800 
 48 H        8.1210     1.2500    -2.1360 H     1 <1>   0.1500 
 49 H       10.3990    -0.4380     1.9260 H     1 <1>   0.1500 
 50 H       10.3800     2.0880    -1.5230 H     1 <1>   0.1500 
 51 H       11.4990     1.2460     0.4870 H     1 <1>   0.1500 
@<TRIPOS>BOND
  1   1   2  2   
  2   2   3  am  
  3   2   4  1   
  4   3   5  1   
  5   3   6  1   
  6   4   7  1   
  7   4  25  1   
  8   4  26  1   
  9   5   8  1   
 10   5  27  1   
 11   5  28  1   
 12   6  29  1   
 13   6  30  1   
 14   6  31  1   
 15   7   8  1   
 16   7   9  1   
 17   7  32  1   
 18   8  10  1   
 19   8  33  1   
 20   9  11  1   
 21   9  34  1   
 22   9  35  1   
 23  10  11  1   
 24  10  36  1   
 25  10  37  1   
 26  11  12  1   
 27  11  38  1   
 28  12  13  1   
 29  12  14  1   
 30  12  39  1   
 31  13  15  1   
 32  13  40  1   
 33  13  41  1   
 34  14  42  1   
 35  14  43  1   
 36  14  44  1   
 37  15  16  1   
 38  15  17  2   
 39  16  18  1   
 40  17  19  1   
 41  17  20  1   
 42  18  19  ar  
 43  18  21  ar  
 44  19  22  ar  
 45  20  45  1   
 46  20  46  1   
 47  20  47  1   
 48  21  23  ar  
 49  21  48  1   
 50  22  24  ar  
 51  22  49  1   
 52  23  24  ar  
 53  23  50  1   
 54  24  51  1   
@<TRIPOS>SUBSTRUCTURE
  1 ****  13 GROUP 4 **** **** 0

# MOE 2024.06 (io_trps.svl 2023.06)
