@<TRIPOS>MOLECULE
NONAME
50 52 1 0 0 
SMALL
USER_CHARGES


@<TRIPOS>ATOM
  1 S       -0.6210     0.9420     2.8070 S.3   1 <1>  -0.0800 
  2 C       -0.9530     0.9860     1.0890 C.2   1 <1>   0.1980 
  3 C        0.2260     2.4460     2.6580 C.2   1 <1>  -0.1100 
  4 N       -0.4740     2.0070     0.4980 N.2   1 <1>  -0.5650 
  5 C       -1.7560    -0.1590     0.4760 C.3   1 <1>   0.1000 
  6 C        0.2050     2.8710     1.3760 C.2   1 <1>   0.1410 
  7 C       -3.1590    -0.2580     1.0890 C.3   1 <1>  -0.2400 
  8 C       -1.0160    -1.4970     0.6060 C.3   1 <1>  -0.2400 
  9 C        0.8250     4.1020     0.8990 C.2   1 <1>   0.7160 
 10 O        1.6520     4.6900     1.5750 O.2   1 <1>  -0.5700 
 11 N        0.6110     4.6100    -0.3630 N.am  1 <1>  -0.6600 
 12 C        1.1740     3.8920    -1.5450 C.3   1 <1>   0.1400 
 13 C        0.2900     6.0500    -0.5720 C.3   1 <1>   0.1400 
 14 C        2.7180     3.9550    -1.5440 C.3   1 <1>   0.3430 
 15 C        1.5410     6.9470    -0.5870 C.3   1 <1>  -0.1600 
 16 N        3.2240     5.1830    -0.8500 N.4   1 <1>  -0.9590 
 17 C        2.7060     6.4460    -1.4430 C.3   1 <1>   0.3430 
 18 C        4.6960     5.1810    -0.6240 C.3   1 <1>   0.5230 
 19 C        5.0630     6.2570     0.3810 C.2   1 <1>  -0.0400 
 20 O        5.1900     7.5040    -0.0320 O.3   1 <1>  -0.2800 
 21 C        5.2980     6.1740     1.7080 C.2   1 <1>  -0.1500 
 22 C        5.5090     8.2410     1.0110 C.2   1 <1>  -0.0400 
 23 C        5.5900     7.4790     2.1210 C.2   1 <1>  -0.1500 
 24 C        5.7230     9.7270     0.8200 C.3   1 <1>  -0.0600 
 25 H        0.6590     2.8750     3.5430 H     1 <1>   0.1500 
 26 H       -1.8690     0.0560    -0.5730 H     1 <1>   0.0800 
 27 H       -3.1050    -0.5140     2.1320 H     1 <1>   0.0800 
 28 H       -3.7360    -1.0100     0.5810 H     1 <1>   0.0800 
 29 H       -3.6670     0.6860     0.9930 H     1 <1>   0.0800 
 30 H       -0.9070    -1.7750     1.6400 H     1 <1>   0.0800 
 31 H       -0.0370    -1.4200     0.1670 H     1 <1>   0.0800 
 32 H       -1.5580    -2.2740     0.0970 H     1 <1>   0.0800 
 33 H        0.7940     4.3340    -2.4500 H     1 <1>   0.0800 
 34 H        0.8570     2.8630    -1.5410 H     1 <1>   0.0800 
 35 H       -0.3680     6.3790     0.2160 H     1 <1>   0.0800 
 36 H       -0.2470     6.1560    -1.5000 H     1 <1>   0.0800 
 37 H        3.0820     3.9130    -2.5570 H     1 <1>   0.0800 
 38 H        3.0850     3.0830    -1.0280 H     1 <1>   0.0800 
 39 H        1.8850     7.1030     0.4210 H     1 <1>   0.0800 
 40 H        1.2470     7.9140    -0.9550 H     1 <1>   0.0800 
 41 H        2.7980     5.1620     0.1010 H     1 <1>   0.4500 
 42 H        3.4770     7.1990    -1.4550 H     1 <1>   0.0800 
 43 H        2.3830     6.2840    -2.4580 H     1 <1>   0.0800 
 44 H        5.2240     5.3510    -1.5470 H     1 <1>   0.0800 
 45 H        4.9960     4.2260    -0.2250 H     1 <1>   0.0800 
 46 H        5.2750     5.3160     2.3590 H     1 <1>   0.1500 
 47 H        5.8290     7.7770     3.1280 H     1 <1>   0.1500 
 48 H        4.8260    10.1820     0.4410 H     1 <1>   0.0800 
 49 H        6.5220     9.8930     0.1200 H     1 <1>   0.0800 
 50 H        5.9800    10.1890     1.7560 H     1 <1>   0.0800 
@<TRIPOS>BOND
  1   1   2  1   
  2   1   3  1   
  3   2   4  2   
  4   2   5  1   
  5   3   6  2   
  6   3  25  1   
  7   4   6  1   
  8   5   7  1   
  9   5   8  1   
 10   5  26  1   
 11   6   9  1   
 12   7  27  1   
 13   7  28  1   
 14   7  29  1   
 15   8  30  1   
 16   8  31  1   
 17   8  32  1   
 18   9  10  2   
 19   9  11  am  
 20  11  12  1   
 21  11  13  1   
 22  12  14  1   
 23  12  33  1   
 24  12  34  1   
 25  13  15  1   
 26  13  35  1   
 27  13  36  1   
 28  14  16  1   
 29  14  37  1   
 30  14  38  1   
 31  15  17  1   
 32  15  39  1   
 33  15  40  1   
 34  16  17  1   
 35  16  18  1   
 36  16  41  1   
 37  17  42  1   
 38  17  43  1   
 39  18  19  1   
 40  18  44  1   
 41  18  45  1   
 42  19  20  1   
 43  19  21  2   
 44  20  22  1   
 45  21  23  1   
 46  21  46  1   
 47  22  23  2   
 48  22  24  1   
 49  23  47  1   
 50  24  48  1   
 51  24  49  1   
 52  24  50  1   
@<TRIPOS>SUBSTRUCTURE
  1 ****   9 GROUP 4 **** **** 0

# MOE 2024.06 (io_trps.svl 2023.06)
