@<TRIPOS>MOLECULE
NONAME
43 44 1 0 0 
SMALL
USER_CHARGES


@<TRIPOS>ATOM
  1 F       -1.2730     3.0660    -2.1960 F     1 <1>  -0.1900 
  2 C       -1.7660     2.6820    -1.0460 C.ar  1 <1>   0.1900 
  3 C       -0.9260     2.5790     0.0530 C.ar  1 <1>  -0.1440 
  4 C       -3.1200     2.4110    -0.9800 C.ar  1 <1>  -0.1500 
  5 C       -1.4940     2.2090     1.2640 C.ar  1 <1>  -0.1500 
  6 C        0.5670     2.8930    -0.0680 C.3   1 <1>   0.3940 
  7 C       -3.6640     2.0310     0.2340 C.ar  1 <1>  -0.1500 
  8 C       -2.8510     1.9340     1.3530 C.ar  1 <1>  -0.1500 
  9 N        1.3910     1.9080     0.7150 N.3   1 <1>  -0.8100 
 10 C        0.7580     4.4030     0.2360 C.2   1 <1>   0.5690 
 11 C        1.2110     0.5290     0.2320 C.3   1 <1>   0.0300 
 12 C        2.8230     2.2450     0.7190 C.3   1 <1>   0.0300 
 13 O        1.1030     4.7920     1.3300 O.2   1 <1>  -0.5700 
 14 N        0.4960     5.2770    -0.7920 N.am  1 <1>  -0.4940 
 15 C        0.5190     6.6920    -0.8280 C.2   1 <1>  -0.0880 
 16 N        1.4270     7.5330    -0.2480 N.pl3 1 <1>   0.3140 
 17 C       -0.3730     7.4780    -1.4760 C.2   1 <1>  -0.1810 
 18 N        1.1220     8.8300    -0.5130 N.2   1 <1>  -0.7070 
 19 C        2.6330     7.1640     0.5370 C.3   1 <1>   0.0960 
 20 C        0.0520     8.7800    -1.2410 C.2   1 <1>   0.1390 
 21 C       -1.5960     7.0860    -2.2840 C.3   1 <1>  -0.0590 
 22 C        3.8260     8.1020     0.2930 C.3   1 <1>  -0.2400 
 23 H       -3.7340     2.4970    -1.8590 H     1 <1>   0.1500 
 24 H       -0.8730     2.1340     2.1430 H     1 <1>   0.1500 
 25 H        0.8540     2.7630    -1.0960 H     1 <1>   0.0800 
 26 H       -4.7160     1.8130     0.3130 H     1 <1>   0.1500 
 27 H       -3.2730     1.6440     2.3000 H     1 <1>   0.1500 
 28 H        0.1800     0.2310     0.3120 H     1 <1>   0.0800 
 29 H        1.7950    -0.1470     0.8340 H     1 <1>   0.0800 
 30 H        1.5240     0.4420    -0.7950 H     1 <1>   0.0800 
 31 H        2.9860     3.1920     1.2020 H     1 <1>   0.0800 
 32 H        3.2070     2.2880    -0.2860 H     1 <1>   0.0800 
 33 H        3.3710     1.5010     1.2720 H     1 <1>   0.0800 
 34 H        0.0390     4.8560    -1.6030 H     1 <1>   0.3700 
 35 H        2.9200     6.1660     0.2670 H     1 <1>   0.0800 
 36 H        2.3640     7.1700     1.5780 H     1 <1>   0.0800 
 37 H       -0.4440     9.6590    -1.6150 H     1 <1>   0.1500 
 38 H       -1.8110     6.0400    -2.1690 H     1 <1>   0.0800 
 39 H       -1.4300     7.2970    -3.3250 H     1 <1>   0.0800 
 40 H       -2.4490     7.6470    -1.9470 H     1 <1>   0.0800 
 41 H        4.0760     8.1210    -0.7520 H     1 <1>   0.0800 
 42 H        4.6790     7.7600     0.8490 H     1 <1>   0.0800 
 43 H        3.5850     9.1000     0.6180 H     1 <1>   0.0800 
@<TRIPOS>BOND
  1   1   2  1   
  2   2   3  ar  
  3   2   4  ar  
  4   3   5  ar  
  5   3   6  1   
  6   4   7  ar  
  7   4  23  1   
  8   5   8  ar  
  9   5  24  1   
 10   6   9  1   
 11   6  10  1   
 12   6  25  1   
 13   7   8  ar  
 14   7  26  1   
 15   8  27  1   
 16   9  11  1   
 17   9  12  1   
 18  10  13  2   
 19  10  14  am  
 20  11  28  1   
 21  11  29  1   
 22  11  30  1   
 23  12  31  1   
 24  12  32  1   
 25  12  33  1   
 26  14  15  1   
 27  14  34  1   
 28  15  16  1   
 29  15  17  2   
 30  16  18  1   
 31  16  19  1   
 32  17  20  1   
 33  17  21  1   
 34  18  20  2   
 35  19  22  1   
 36  19  35  1   
 37  19  36  1   
 38  20  37  1   
 39  21  38  1   
 40  21  39  1   
 41  21  40  1   
 42  22  41  1   
 43  22  42  1   
 44  22  43  1   
@<TRIPOS>SUBSTRUCTURE
  1 ****  10 GROUP 4 **** **** 0

# MOE 2024.06 (io_trps.svl 2023.06)
