@<TRIPOS>MOLECULE
NONAME
53 55 1 0 0 
SMALL
USER_CHARGES


@<TRIPOS>ATOM
  1 F       -0.9720     0.4670    -0.2070 F     1 <1>  -0.1900 
  2 C       -2.2440     0.7130    -0.0270 C.ar  1 <1>   0.1900 
  3 C       -2.9340     1.6570    -0.7950 C.ar  1 <1>   0.0820 
  4 C       -2.8770    -0.0140     0.9630 C.ar  1 <1>  -0.1500 
  5 O       -2.4230     2.4360    -1.7910 O.3   1 <1>  -0.3630 
  6 C       -4.2830     1.8360    -0.5360 C.ar  1 <1>  -0.1500 
  7 C       -4.2240     0.1890     1.1980 C.ar  1 <1>  -0.1500 
  8 C       -1.0460     2.4850    -2.0980 C.3   1 <1>   0.0400 
  9 C       -4.9580     1.1110     0.4480 C.ar  1 <1>   0.0530 
 10 C       -6.3680     1.3080     0.6730 C.2   1 <1>   0.0870 
 11 O       -6.9410     2.4570     0.4210 O.3   1 <1>  -0.0190 
 12 C       -7.3490     0.4730     1.0960 C.2   1 <1>  -0.0860 
 13 N       -8.2270     2.4470     0.6600 N.2   1 <1>  -0.4100 
 14 C       -8.4970     1.2700     1.1040 C.2   1 <1>   0.3720 
 15 C       -7.3330    -0.9240     1.3620 C.2   1 <1>   0.7160 
 16 N       -9.7850     0.8480     1.5080 N.pl3 1 <1>  -0.8210 
 17 O       -7.0850    -1.3380     2.4780 O.2   1 <1>  -0.5700 
 18 N       -7.6670    -1.8130     0.3640 N.am  1 <1>  -0.6600 
 19 C      -10.8420     1.9010     1.3490 C.3   1 <1>   0.1290 
 20 C       -9.8010     0.3440     2.9220 C.3   1 <1>   0.1290 
 21 C       -7.6850    -1.4380    -1.0830 C.3   1 <1>   0.1400 
 22 C       -8.1890    -3.1640     0.6750 C.3   1 <1>   0.1400 
 23 C       -9.0000    -0.7540    -1.5150 C.3   1 <1>   0.3430 
 24 C       -9.7180    -3.1180     0.7510 C.3   1 <1>  -0.1600 
 25 N      -10.1930    -1.1100    -0.6730 N.4   1 <1>  -0.9590 
 26 C      -10.4180    -2.5760    -0.5010 C.3   1 <1>   0.3430 
 27 C      -11.4110    -0.4350    -1.2020 C.3   1 <1>   0.2630 
 28 H       -2.3180    -0.7280     1.5430 H     1 <1>   0.1500 
 29 H       -4.8170     2.5640    -1.1200 H     1 <1>   0.1500 
 30 H       -4.7030    -0.3720     1.9820 H     1 <1>   0.1500 
 31 H       -0.9000     3.2260    -2.8630 H     1 <1>   0.0800 
 32 H       -0.7330     1.5220    -2.4600 H     1 <1>   0.0800 
 33 H       -0.4990     2.7620    -1.2140 H     1 <1>   0.0800 
 34 H      -10.8440     2.2810     0.3420 H     1 <1>   0.0800 
 35 H      -10.6480     2.7220     2.0210 H     1 <1>   0.0800 
 36 H      -11.8140     1.4940     1.5670 H     1 <1>   0.0800 
 37 H       -9.5300    -0.6960     2.9550 H     1 <1>   0.0800 
 38 H      -10.7800     0.4460     3.3580 H     1 <1>   0.0800 
 39 H       -9.1010     0.9000     3.5250 H     1 <1>   0.0800 
 40 H       -7.5370    -2.3210    -1.6800 H     1 <1>   0.0800 
 41 H       -6.8590    -0.7810    -1.3000 H     1 <1>   0.0800 
 42 H       -7.7920    -3.5050     1.6180 H     1 <1>   0.0800 
 43 H       -7.8670    -3.8620    -0.0790 H     1 <1>   0.0800 
 44 H       -9.1910    -0.9960    -2.5470 H     1 <1>   0.0800 
 45 H       -8.8500     0.3120    -1.4610 H     1 <1>   0.0800 
 46 H      -10.0230    -2.5530     1.6120 H     1 <1>   0.0800 
 47 H      -10.0610    -4.1250     0.9090 H     1 <1>   0.0800 
 48 H      -10.0020    -0.6900     0.2670 H     1 <1>   0.4500 
 49 H      -11.4750    -2.7580    -0.3900 H     1 <1>   0.0800 
 50 H      -10.0830    -3.1100    -1.3750 H     1 <1>   0.0800 
 51 H      -11.6550    -0.8100    -2.1820 H     1 <1>   0.0800 
 52 H      -11.2440     0.6290    -1.2680 H     1 <1>   0.0800 
 53 H      -12.2460    -0.6080    -0.5440 H     1 <1>   0.0800 
@<TRIPOS>BOND
  1   1   2  1   
  2   2   3  ar  
  3   2   4  ar  
  4   3   5  1   
  5   3   6  ar  
  6   4   7  ar  
  7   4  28  1   
  8   5   8  1   
  9   6   9  ar  
 10   6  29  1   
 11   7   9  ar  
 12   7  30  1   
 13   8  31  1   
 14   8  32  1   
 15   8  33  1   
 16   9  10  1   
 17  10  11  1   
 18  10  12  2   
 19  11  13  1   
 20  12  14  1   
 21  12  15  1   
 22  13  14  2   
 23  14  16  1   
 24  15  17  2   
 25  15  18  am  
 26  16  19  1   
 27  16  20  1   
 28  18  21  1   
 29  18  22  1   
 30  19  34  1   
 31  19  35  1   
 32  19  36  1   
 33  20  37  1   
 34  20  38  1   
 35  20  39  1   
 36  21  23  1   
 37  21  40  1   
 38  21  41  1   
 39  22  24  1   
 40  22  42  1   
 41  22  43  1   
 42  23  25  1   
 43  23  44  1   
 44  23  45  1   
 45  24  26  1   
 46  24  46  1   
 47  24  47  1   
 48  25  26  1   
 49  25  27  1   
 50  25  48  1   
 51  26  49  1   
 52  26  50  1   
 53  27  51  1   
 54  27  52  1   
 55  27  53  1   
@<TRIPOS>SUBSTRUCTURE
  1 ****  12 GROUP 4 **** **** 0

# MOE 2024.06 (io_trps.svl 2023.06)
