@<TRIPOS>MOLECULE
NONAME
39 40 1 0 0 
SMALL
USER_CHARGES


@<TRIPOS>ATOM
  1 F        1.9170    -0.5990    -3.3230 F     1 <1>  -0.1900 
  2 C        2.2750    -1.0970    -2.1710 C.ar  1 <1>   0.1900 
  3 C        2.3160    -2.4700    -2.0300 C.ar  1 <1>  -0.1500 
  4 C        2.5940    -0.2360    -1.1400 C.ar  1 <1>  -0.1500 
  5 C        2.6860    -3.0040    -0.8040 C.ar  1 <1>  -0.1440 
  6 C        2.9740    -0.7690     0.0800 C.ar  1 <1>  -0.1440 
  7 C        3.0180    -2.1470     0.2410 C.ar  1 <1>  -0.1500 
  8 C        2.7240    -4.5070    -0.6040 C.3   1 <1>   0.4870 
  9 C        3.3400     0.1510     1.2330 C.3   1 <1>  -0.0970 
 10 N        1.3250    -5.0040    -0.4920 N.4   1 <1>  -0.9590 
 11 C        1.2780    -6.4960    -0.5150 C.3   1 <1>   0.3430 
 12 C        0.6190    -4.4090     0.6920 C.3   1 <1>   0.3430 
 13 C       -0.1660    -6.9970    -0.6800 C.3   1 <1>  -0.0800 
 14 C       -0.5500    -5.2770     1.1730 C.3   1 <1>  -0.1600 
 15 C       -1.1770    -6.0600     0.0210 C.3   1 <1>   0.2000 
 16 C       -0.2510    -8.4680    -0.2400 C.3   1 <1>   0.1200 
 17 O       -2.2610    -6.7580     0.5100 O.3   1 <1>  -0.6800 
 18 O        0.8370    -9.1480    -0.7660 O.3   1 <1>  -0.6800 
 19 H        2.0640    -3.0850    -2.8760 H     1 <1>   0.1500 
 20 H        2.5460     0.8270    -1.3000 H     1 <1>   0.1500 
 21 H        3.3210    -2.5450     1.1960 H     1 <1>   0.1500 
 22 H        3.2800    -4.7480     0.2870 H     1 <1>   0.0800 
 23 H        3.2150    -4.9660    -1.4480 H     1 <1>   0.0800 
 24 H        4.1470    -0.2670     1.8080 H     1 <1>   0.0800 
 25 H        2.4910     0.2910     1.8760 H     1 <1>   0.0800 
 26 H        3.6550     1.1120     0.8650 H     1 <1>   0.0800 
 27 H        0.8400    -4.6660    -1.3330 H     1 <1>   0.4500 
 28 H        1.8760    -6.8870    -1.3230 H     1 <1>   0.0800 
 29 H        1.6800    -6.8820     0.4080 H     1 <1>   0.0800 
 30 H        1.3110    -4.2780     1.5080 H     1 <1>   0.0800 
 31 H        0.2500    -3.4310     0.4210 H     1 <1>   0.0800 
 32 H       -0.3980    -6.9770    -1.7300 H     1 <1>   0.0800 
 33 H       -1.2870    -4.6380     1.6290 H     1 <1>   0.0800 
 34 H       -0.1880    -5.9560     1.9250 H     1 <1>   0.0800 
 35 H       -1.5670    -5.3640    -0.7050 H     1 <1>   0.0800 
 36 H       -1.1540    -8.9250    -0.6110 H     1 <1>   0.0800 
 37 H       -0.2150    -8.5630     0.8320 H     1 <1>   0.0800 
 38 H       -2.0800    -7.1610     1.3810 H     1 <1>   0.4000 
 39 H        0.7280   -10.1170    -0.6540 H     1 <1>   0.4000 
@<TRIPOS>BOND
  1   1   2  1   
  2   2   3  ar  
  3   2   4  ar  
  4   3   5  ar  
  5   3  19  1   
  6   4   6  ar  
  7   4  20  1   
  8   5   7  ar  
  9   5   8  1   
 10   6   7  ar  
 11   6   9  1   
 12   7  21  1   
 13   8  10  1   
 14   8  22  1   
 15   8  23  1   
 16   9  24  1   
 17   9  25  1   
 18   9  26  1   
 19  10  11  1   
 20  10  12  1   
 21  10  27  1   
 22  11  13  1   
 23  11  28  1   
 24  11  29  1   
 25  12  14  1   
 26  12  30  1   
 27  12  31  1   
 28  13  15  1   
 29  13  16  1   
 30  13  32  1   
 31  14  15  1   
 32  14  33  1   
 33  14  34  1   
 34  15  17  1   
 35  15  35  1   
 36  16  18  1   
 37  16  36  1   
 38  16  37  1   
 39  17  38  1   
 40  18  39  1   
@<TRIPOS>SUBSTRUCTURE
  1 ****  10 GROUP 4 **** **** 0

# MOE 2024.06 (io_trps.svl 2023.06)
