@<TRIPOS>MOLECULE
NONAME
43 44 1 0 0 
SMALL
USER_CHARGES


@<TRIPOS>ATOM
  1 O       -0.9640     0.2290     2.1760 O.2   1 <1>  -0.5700 
  2 C       -1.7850     0.6950     1.4250 C.2   1 <1>   0.5690 
  3 N       -2.9980     0.1190     1.2480 N.am  1 <1>  -0.7300 
  4 C       -1.4430     1.9630     0.6470 C.3   1 <1>  -0.0190 
  5 C       -3.4020    -1.1810     1.8080 C.3   1 <1>   0.2840 
  6 C       -2.4250     3.1120     0.9510 C.3   1 <1>  -0.1600 
  7 C       -1.3410     1.6950    -0.8750 C.3   1 <1>  -0.1600 
  8 C       -4.1420    -1.9460     0.7220 C.ar  1 <1>  -0.1440 
  9 C       -1.9850     4.4370     0.2950 C.3   1 <1>   0.2000 
 10 C       -1.5390     2.9560    -1.7400 C.3   1 <1>  -0.1600 
 11 C       -3.4700    -2.6900    -0.2450 C.ar  1 <1>  -0.1440 
 12 C       -5.5290    -1.8870     0.6970 C.ar  1 <1>  -0.1500 
 13 O       -3.1440     5.1640    -0.0340 O.3   1 <1>  -0.5600 
 14 C       -1.1340     4.2250    -0.9860 C.3   1 <1>   0.2000 
 15 C       -4.1970    -3.3650    -1.2140 C.ar  1 <1>  -0.1500 
 16 C       -1.9500    -2.7840    -0.2680 C.3   1 <1>  -0.0970 
 17 C       -6.2460    -2.5610    -0.2740 C.ar  1 <1>  -0.1500 
 18 C       -3.7110     5.8810     1.0190 C.3   1 <1>   0.0400 
 19 O       -1.3120     5.2990    -1.8330 O.3   1 <1>  -0.6800 
 20 C       -5.5790    -3.3020    -1.2310 C.ar  1 <1>  -0.1500 
 21 H       -3.6390     0.4820     0.5410 H     1 <1>   0.3700 
 22 H       -0.4720     2.2780     0.9890 H     1 <1>   0.0800 
 23 H       -2.5400    -1.7300     2.1460 H     1 <1>   0.0800 
 24 H       -4.0450    -1.0170     2.6550 H     1 <1>   0.0800 
 25 H       -2.4940     3.2500     2.0150 H     1 <1>   0.0800 
 26 H       -3.3990     2.8390     0.5810 H     1 <1>   0.0800 
 27 H       -0.3710     1.2730    -1.0760 H     1 <1>   0.0800 
 28 H       -2.0710     0.9640    -1.1780 H     1 <1>   0.0800 
 29 H       -1.3950     5.0150     0.9860 H     1 <1>   0.0800 
 30 H       -2.5790     3.0370    -2.0070 H     1 <1>   0.0800 
 31 H       -0.9630     2.8670    -2.6450 H     1 <1>   0.0800 
 32 H       -6.0610    -1.3140     1.4360 H     1 <1>   0.1500 
 33 H       -0.0880     4.1720    -0.7350 H     1 <1>   0.0800 
 34 H       -3.6920    -3.9460    -1.9650 H     1 <1>   0.1500 
 35 H       -1.6090    -3.3230    -1.1320 H     1 <1>   0.0800 
 36 H       -1.5990    -3.2960     0.6100 H     1 <1>   0.0800 
 37 H       -1.5150    -1.8010    -0.2940 H     1 <1>   0.0800 
 38 H       -7.3210    -2.5100    -0.2860 H     1 <1>   0.1500 
 39 H       -4.5790     6.3940     0.6440 H     1 <1>   0.0800 
 40 H       -2.9980     6.5990     1.3850 H     1 <1>   0.0800 
 41 H       -4.0030     5.2030     1.8020 H     1 <1>   0.0800 
 42 H       -2.2240     5.6250    -1.6600 H     1 <1>   0.4000 
 43 H       -6.1330    -3.8290    -1.9880 H     1 <1>   0.1500 
@<TRIPOS>BOND
  1   1   2  2   
  2   2   3  am  
  3   2   4  1   
  4   3   5  1   
  5   3  21  1   
  6   4   6  1   
  7   4   7  1   
  8   4  22  1   
  9   5   8  1   
 10   5  23  1   
 11   5  24  1   
 12   6   9  1   
 13   6  25  1   
 14   6  26  1   
 15   7  10  1   
 16   7  27  1   
 17   7  28  1   
 18   8  11  ar  
 19   8  12  ar  
 20   9  13  1   
 21   9  14  1   
 22   9  29  1   
 23  10  14  1   
 24  10  30  1   
 25  10  31  1   
 26  11  15  ar  
 27  11  16  1   
 28  12  17  ar  
 29  12  32  1   
 30  13  18  1   
 31  14  19  1   
 32  14  33  1   
 33  15  20  ar  
 34  15  34  1   
 35  16  35  1   
 36  16  36  1   
 37  16  37  1   
 38  17  20  ar  
 39  17  38  1   
 40  18  39  1   
 41  18  40  1   
 42  18  41  1   
 43  19  42  1   
 44  20  43  1   
@<TRIPOS>SUBSTRUCTURE
  1 ****   3 GROUP 4 **** **** 0

# MOE 2024.06 (io_trps.svl 2023.06)
