@<TRIPOS>MOLECULE
NONAME
50 52 1 0 0 
SMALL
USER_CHARGES


@<TRIPOS>ATOM
  1 F       -2.2080    -0.5120    -1.4510 F     1 <1>  -0.1900 
  2 C       -2.5730    -1.6950    -1.0250 C.ar  1 <1>   0.1900 
  3 C       -3.1650    -2.5710    -1.9150 C.ar  1 <1>  -0.1500 
  4 C       -2.3520    -2.0240     0.2990 C.ar  1 <1>  -0.1500 
  5 C       -3.5490    -3.8190    -1.4570 C.ar  1 <1>  -0.1500 
  6 C       -2.7410    -3.2760     0.7420 C.ar  1 <1>  -0.1500 
  7 C       -3.3440    -4.1820    -0.1290 C.ar  1 <1>   0.1000 
  8 N       -3.7410    -5.4430     0.3060 N.pl3 1 <1>  -0.8380 
  9 C       -4.8340    -5.4800     1.3180 C.3   1 <1>   0.2090 
 10 C       -2.6400    -6.4190     0.4940 C.3   1 <1>   0.2090 
 11 C       -5.9940    -6.3540     0.8070 C.3   1 <1>   0.3430 
 12 C       -3.1710    -7.8550     0.5470 C.3   1 <1>  -0.1600 
 13 N       -5.6580    -7.8130     0.6340 N.4   1 <1>  -0.9590 
 14 C       -4.4660    -8.0610    -0.2410 C.3   1 <1>   0.3430 
 15 C       -6.8380    -8.5380     0.1140 C.3   1 <1>   0.5230 
 16 C       -6.6020   -10.0250     0.2440 C.2   1 <1>  -0.3320 
 17 N       -7.2280   -10.9420    -0.5300 N.pl3 1 <1>   0.0480 
 18 C       -5.8090   -10.7210     1.0920 C.2   1 <1>   0.0770 
 19 C       -6.7490   -12.1310    -0.0990 C.2   1 <1>   0.0360 
 20 C       -8.1910   -10.7650    -1.6470 C.3   1 <1>   0.0960 
 21 N       -5.8970   -12.0380     0.8670 N.2   1 <1>  -0.5650 
 22 C       -9.5760   -10.3250    -1.1610 C.3   1 <1>   0.1200 
 23 O       -9.5100    -9.0250    -0.6570 O.3   1 <1>  -0.5600 
 24 C      -10.7450    -8.5400    -0.2250 C.3   1 <1>   0.0400 
 25 H       -3.3170    -2.2770    -2.9380 H     1 <1>   0.1500 
 26 H       -1.8860    -1.3150     0.9590 H     1 <1>   0.1500 
 27 H       -4.0080    -4.5210    -2.1270 H     1 <1>   0.1500 
 28 H       -2.5750    -3.5550     1.7660 H     1 <1>   0.1500 
 29 H       -5.2050    -4.4800     1.4760 H     1 <1>   0.0800 
 30 H       -4.4680    -5.8470     2.2600 H     1 <1>   0.0800 
 31 H       -2.0900    -6.1880     1.3910 H     1 <1>   0.0800 
 32 H       -1.9620    -6.3240    -0.3390 H     1 <1>   0.0800 
 33 H       -6.3160    -5.9460    -0.1370 H     1 <1>   0.0800 
 34 H       -6.8160    -6.2610     1.4980 H     1 <1>   0.0800 
 35 H       -3.2930    -8.1670     1.5680 H     1 <1>   0.0800 
 36 H       -2.4130    -8.4880     0.1220 H     1 <1>   0.0800 
 37 H       -5.4610    -8.2240     1.5500 H     1 <1>   0.4500 
 38 H       -4.4860    -9.0820    -0.5890 H     1 <1>   0.0800 
 39 H       -4.4850    -7.4120    -1.1020 H     1 <1>   0.0800 
 40 H       -7.0060    -8.2780    -0.9190 H     1 <1>   0.0800 
 41 H       -7.7210    -8.2730     0.6740 H     1 <1>   0.0800 
 42 H       -5.1620   -10.3590     1.8740 H     1 <1>   0.1500 
 43 H       -7.0580   -13.0660    -0.5330 H     1 <1>   0.1500 
 44 H       -8.2870   -11.7060    -2.1590 H     1 <1>   0.0800 
 45 H       -7.8030   -10.0480    -2.3470 H     1 <1>   0.0800 
 46 H       -9.9340   -10.9880    -0.3900 H     1 <1>   0.0800 
 47 H      -10.2680   -10.3330    -1.9860 H     1 <1>   0.0800 
 48 H      -10.6080    -7.5380     0.1430 H     1 <1>   0.0800 
 49 H      -11.1200    -9.1680     0.5660 H     1 <1>   0.0800 
 50 H      -11.4340    -8.5270    -1.0530 H     1 <1>   0.0800 
@<TRIPOS>BOND
  1   1   2  1   
  2   2   3  ar  
  3   2   4  ar  
  4   3   5  ar  
  5   3  25  1   
  6   4   6  ar  
  7   4  26  1   
  8   5   7  ar  
  9   5  27  1   
 10   6   7  ar  
 11   6  28  1   
 12   7   8  1   
 13   8   9  1   
 14   8  10  1   
 15   9  11  1   
 16   9  29  1   
 17   9  30  1   
 18  10  12  1   
 19  10  31  1   
 20  10  32  1   
 21  11  13  1   
 22  11  33  1   
 23  11  34  1   
 24  12  14  1   
 25  12  35  1   
 26  12  36  1   
 27  13  14  1   
 28  13  15  1   
 29  13  37  1   
 30  14  38  1   
 31  14  39  1   
 32  15  16  1   
 33  15  40  1   
 34  15  41  1   
 35  16  17  1   
 36  16  18  2   
 37  17  19  1   
 38  17  20  1   
 39  18  21  1   
 40  18  42  1   
 41  19  21  2   
 42  19  43  1   
 43  20  22  1   
 44  20  44  1   
 45  20  45  1   
 46  22  23  1   
 47  22  46  1   
 48  22  47  1   
 49  23  24  1   
 50  24  48  1   
 51  24  49  1   
 52  24  50  1   
@<TRIPOS>SUBSTRUCTURE
  1 ****  13 GROUP 4 **** **** 0

# MOE 2024.06 (io_trps.svl 2023.06)
