@<TRIPOS>MOLECULE
NONAME
45 46 1 0 0 
SMALL
USER_CHARGES


@<TRIPOS>ATOM
  1 CL       0.3440     0.1910     2.0990 Cl    1 <1>  -0.1770 
  2 C        1.5000    -0.8540     1.3170 C.ar  1 <1>   0.1770 
  3 C        2.5740    -0.2920     0.6560 C.ar  1 <1>  -0.1500 
  4 C        1.3150    -2.2200     1.3730 C.ar  1 <1>  -0.1500 
  5 C        3.4910    -1.1340     0.0360 C.ar  1 <1>   0.0830 
  6 C        2.2200    -3.0780     0.7500 C.ar  1 <1>   0.0860 
  7 O        4.5800    -0.6900    -0.6380 O.3   1 <1>  -0.3630 
  8 C        3.3070    -2.5060     0.0930 C.ar  1 <1>  -0.1500 
  9 C        2.0430    -4.5150     0.7830 C.2   1 <1>   0.5440 
 10 C        4.9000     0.6830    -0.6980 C.3   1 <1>   0.0400 
 11 O        2.8840    -5.2140     1.3130 O.2   1 <1>  -0.5700 
 12 N        0.9430    -5.1170     0.2200 N.am  1 <1>  -0.6600 
 13 C       -0.0550    -4.4570    -0.6600 C.3   1 <1>   0.1400 
 14 C        0.7940    -6.5930     0.1460 C.3   1 <1>   0.1400 
 15 C       -1.1200    -5.5290    -0.8810 C.3   1 <1>   0.2000 
 16 C       -0.3260    -6.8380    -0.8750 C.3   1 <1>  -0.0800 
 17 O       -1.9770    -5.5140     0.2100 O.3   1 <1>  -0.6800 
 18 C       -1.1820    -8.0960    -0.6060 C.3   1 <1>  -0.0550 
 19 S       -0.3020    -9.6460    -0.8190 S.o2  1 <1>   1.3330 
 20 O        0.4280    -9.5700    -2.0650 O.2   1 <1>  -0.6500 
 21 O       -1.2150   -10.7420    -0.5890 O.2   1 <1>  -0.6500 
 22 N        0.8230    -9.6410     0.4540 N.am  1 <1>  -0.8490 
 23 C        0.2750   -10.1370     1.7210 C.3   1 <1>   0.1160 
 24 C        2.0520   -10.3680     0.1220 C.3   1 <1>   0.1160 
 25 H        2.6710     0.7760     0.6390 H     1 <1>   0.1500 
 26 H        0.4720    -2.6230     1.9050 H     1 <1>   0.1500 
 27 H        4.0280    -3.1480    -0.3820 H     1 <1>   0.1500 
 28 H        5.8120     0.7880    -1.2570 H     1 <1>   0.0800 
 29 H        5.0410     1.0530     0.3020 H     1 <1>   0.0800 
 30 H        4.1040     1.2080    -1.1960 H     1 <1>   0.0800 
 31 H       -0.4730    -3.5720    -0.2150 H     1 <1>   0.0800 
 32 H        0.4150    -4.2070    -1.5950 H     1 <1>   0.0800 
 33 H        1.7170    -7.0550    -0.1640 H     1 <1>   0.0800 
 34 H        0.5240    -6.9640     1.1200 H     1 <1>   0.0800 
 35 H       -1.6980    -5.3780    -1.7770 H     1 <1>   0.0800 
 36 H        0.1370    -6.9400    -1.8410 H     1 <1>   0.0800 
 37 H       -1.4380    -5.4690     1.0260 H     1 <1>   0.4000 
 38 H       -2.0090    -8.0860    -1.2890 H     1 <1>   0.0800 
 39 H       -1.5890    -8.0540     0.3850 H     1 <1>   0.0800 
 40 H        0.9990   -10.0150     2.5090 H     1 <1>   0.0800 
 41 H        0.0180   -11.1800     1.6380 H     1 <1>   0.0800 
 42 H       -0.6110    -9.5840     1.9850 H     1 <1>   0.0800 
 43 H        2.7450   -10.3240     0.9450 H     1 <1>   0.0800 
 44 H        2.5240    -9.9210    -0.7370 H     1 <1>   0.0800 
 45 H        1.8290   -11.3980    -0.1020 H     1 <1>   0.0800 
@<TRIPOS>BOND
  1   1   2  1   
  2   2   3  ar  
  3   2   4  ar  
  4   3   5  ar  
  5   3  25  1   
  6   4   6  ar  
  7   4  26  1   
  8   5   7  1   
  9   5   8  ar  
 10   6   8  ar  
 11   6   9  1   
 12   7  10  1   
 13   8  27  1   
 14   9  11  2   
 15   9  12  am  
 16  10  28  1   
 17  10  29  1   
 18  10  30  1   
 19  12  13  1   
 20  12  14  1   
 21  13  15  1   
 22  13  31  1   
 23  13  32  1   
 24  14  16  1   
 25  14  33  1   
 26  14  34  1   
 27  15  16  1   
 28  15  17  1   
 29  15  35  1   
 30  16  18  1   
 31  16  36  1   
 32  17  37  1   
 33  18  19  1   
 34  18  38  1   
 35  18  39  1   
 36  19  20  2   
 37  19  21  2   
 38  19  22  am  
 39  22  23  1   
 40  22  24  1   
 41  23  40  1   
 42  23  41  1   
 43  23  42  1   
 44  24  43  1   
 45  24  44  1   
 46  24  45  1   
@<TRIPOS>SUBSTRUCTURE
  1 ****  12 GROUP 4 **** **** 0

# MOE 2024.06 (io_trps.svl 2023.06)
