@<TRIPOS>MOLECULE
NONAME
44 46 1 0 0 
SMALL
USER_CHARGES


@<TRIPOS>ATOM
  1 F       -1.7800    -0.1410    -1.2100 F     1 <1>  -0.1900 
  2 C       -2.1590     0.5530    -0.1630 C.ar  1 <1>   0.1900 
  3 C       -2.0370     1.9420    -0.2050 C.ar  1 <1>   0.0820 
  4 C       -2.6620    -0.1290     0.9350 C.ar  1 <1>  -0.1440 
  5 O       -1.5350     2.5170    -1.3340 O.3   1 <1>  -0.3630 
  6 C       -2.4350     2.6790     0.9100 C.ar  1 <1>  -0.1500 
  7 C       -3.0370     0.6470     2.0200 C.ar  1 <1>   0.1900 
  8 C       -2.7980    -1.6450     0.9550 C.3   1 <1>   0.2540 
  9 C       -1.3970     3.9150    -1.4550 C.3   1 <1>   0.0400 
 10 C       -2.9350     2.0280     2.0260 C.ar  1 <1>  -0.1500 
 11 F       -3.5020     0.0700     3.0990 F     1 <1>  -0.1900 
 12 N       -4.1760    -2.0430     0.6340 N.3   1 <1>  -0.8100 
 13 C       -4.5790    -1.7090    -0.7370 C.3   1 <1>   0.1100 
 14 C       -4.3860    -3.4930     0.7630 C.3   1 <1>   0.1100 
 15 C       -5.8170    -2.5650    -0.9650 C.3   1 <1>   0.2000 
 16 C       -5.4690    -3.8780    -0.2640 C.3   1 <1>  -0.0800 
 17 O       -6.8560    -1.9780    -0.2690 O.3   1 <1>  -0.6800 
 18 C       -4.9710    -4.9290    -1.2720 C.3   1 <1>  -0.0170 
 19 C       -4.6720    -6.2630    -0.6060 C.ar  1 <1>   0.1670 
 20 N       -3.4100    -6.4930    -0.2760 N.ar  1 <1>  -0.6200 
 21 C       -5.7080    -7.1570    -0.3800 C.ar  1 <1>  -0.1500 
 22 C       -3.1710    -7.6610     0.2990 C.ar  1 <1>   0.1600 
 23 C       -5.4450    -8.3700     0.2210 C.ar  1 <1>  -0.1500 
 24 C       -4.1340    -8.6190     0.5660 C.ar  1 <1>  -0.1500 
 25 H       -2.3630     3.7510     0.9300 H     1 <1>   0.1500 
 26 H       -2.5500    -2.0070     1.9380 H     1 <1>   0.0800 
 27 H       -2.1120    -2.0970     0.2580 H     1 <1>   0.0800 
 28 H       -0.9900     4.1270    -2.4270 H     1 <1>   0.0800 
 29 H       -0.7250     4.2680    -0.6930 H     1 <1>   0.0800 
 30 H       -2.3670     4.3720    -1.3590 H     1 <1>   0.0800 
 31 H       -3.2450     2.5790     2.8960 H     1 <1>   0.1500 
 32 H       -4.7910    -0.6590    -0.8480 H     1 <1>   0.0800 
 33 H       -3.8070    -1.9960    -1.4310 H     1 <1>   0.0800 
 34 H       -3.4680    -4.0200     0.5590 H     1 <1>   0.0800 
 35 H       -4.7030    -3.7280     1.7640 H     1 <1>   0.0800 
 36 H       -6.1000    -2.6630    -1.9990 H     1 <1>   0.0800 
 37 H       -6.3330    -4.2750     0.2410 H     1 <1>   0.0800 
 38 H       -6.4780    -1.7060     0.5960 H     1 <1>   0.4000 
 39 H       -4.0850    -4.5750    -1.7700 H     1 <1>   0.0800 
 40 H       -5.7230    -5.0830    -2.0250 H     1 <1>   0.0800 
 41 H       -6.7120    -6.9090    -0.6700 H     1 <1>   0.1500 
 42 H       -2.1510    -7.8670     0.5720 H     1 <1>   0.1500 
 43 H       -6.2250    -9.0870     0.4110 H     1 <1>   0.1500 
 44 H       -3.8590    -9.5450     1.0370 H     1 <1>   0.1500 
@<TRIPOS>BOND
  1   1   2  1   
  2   2   3  ar  
  3   2   4  ar  
  4   3   5  1   
  5   3   6  ar  
  6   4   7  ar  
  7   4   8  1   
  8   5   9  1   
  9   6  10  ar  
 10   6  25  1   
 11   7  10  ar  
 12   7  11  1   
 13   8  12  1   
 14   8  26  1   
 15   8  27  1   
 16   9  28  1   
 17   9  29  1   
 18   9  30  1   
 19  10  31  1   
 20  12  13  1   
 21  12  14  1   
 22  13  15  1   
 23  13  32  1   
 24  13  33  1   
 25  14  16  1   
 26  14  34  1   
 27  14  35  1   
 28  15  16  1   
 29  15  17  1   
 30  15  36  1   
 31  16  18  1   
 32  16  37  1   
 33  17  38  1   
 34  18  19  1   
 35  18  39  1   
 36  18  40  1   
 37  19  20  ar  
 38  19  21  ar  
 39  20  22  ar  
 40  21  23  ar  
 41  21  41  1   
 42  22  24  ar  
 43  22  42  1   
 44  23  24  ar  
 45  23  43  1   
 46  24  44  1   
@<TRIPOS>SUBSTRUCTURE
  1 ****  12 GROUP 4 **** **** 0

# MOE 2024.06 (io_trps.svl 2023.06)
