@<TRIPOS>MOLECULE
NONAME
63 66 1 0 0 
SMALL
USER_CHARGES


@<TRIPOS>ATOM
  1 O        0.1580    -0.8660    -1.0740 O.2   1 <1>  -0.5700 
  2 C        0.6280    -1.7680    -0.4220 C.2   1 <1>   0.5690 
  3 N        1.4560    -1.5170     0.6470 N.am  1 <1>  -0.6600 
  4 C        0.2470    -3.1630    -0.8730 C.3   1 <1>  -0.0990 
  5 C        2.1400    -2.5440     1.5020 C.3   1 <1>   0.1400 
  6 C        1.7540    -0.1090     1.0340 C.3   1 <1>   0.1400 
  7 C        0.3450    -4.2450     0.1960 C.3   1 <1>   0.1200 
  8 C        2.6770    -3.8140     0.7840 C.3   1 <1>   0.2800 
  9 C        3.0520     0.3470     0.3570 C.3   1 <1>  -0.1600 
 10 O        1.6610    -4.6820     0.3500 O.3   1 <1>  -0.5600 
 11 C        3.5410    -3.4860    -0.4600 C.3   1 <1>  -0.1600 
 12 C        3.4770    -4.6430     1.8110 C.3   1 <1>  -0.1600 
 13 C        3.5200     1.7400     0.8160 C.3   1 <1>  -0.0800 
 14 C        5.0300    -3.3580    -0.1340 C.3   1 <1>   0.1400 
 15 C        4.5480    -5.5050     1.1460 C.3   1 <1>   0.1400 
 16 C        2.5200     2.8440     0.4190 C.3   1 <1>  -0.1600 
 17 C        4.9080     2.0400     0.2230 C.3   1 <1>  -0.1600 
 18 N        5.5460    -4.6180     0.4760 N.am  1 <1>  -0.6600 
 19 C        3.0240     4.2370     0.8210 C.3   1 <1>  -0.1600 
 20 C        5.4120     3.4300     0.6340 C.3   1 <1>  -0.1600 
 21 C        6.8460    -5.0470     0.2950 C.2   1 <1>   0.5440 
 22 C        4.4110     4.5200     0.2320 C.3   1 <1>  -0.1600 
 23 O        7.1300    -6.1980     0.5680 O.2   1 <1>  -0.5700 
 24 C        7.8770    -4.1660    -0.2220 C.ar  1 <1>   0.0860 
 25 C        8.1630    -2.9400     0.3810 C.ar  1 <1>  -0.1500 
 26 C        8.6230    -4.5210    -1.3450 C.ar  1 <1>  -0.1500 
 27 C        9.1370    -2.0980    -0.1250 C.ar  1 <1>  -0.1500 
 28 C        9.5990    -3.6850    -1.8560 C.ar  1 <1>  -0.1500 
 29 C        9.8550    -2.4690    -1.2480 C.ar  1 <1>  -0.1500 
 30 H        0.8360    -3.4370    -1.7290 H     1 <1>   0.0800 
 31 H       -0.7760    -3.1170    -1.1950 H     1 <1>   0.0800 
 32 H        1.4830    -2.8330     2.3030 H     1 <1>   0.0800 
 33 H        2.9870    -2.0670     1.9640 H     1 <1>   0.0800 
 34 H        1.8460    -0.0400     2.1040 H     1 <1>   0.0800 
 35 H        0.9400     0.5300     0.7360 H     1 <1>   0.0800 
 36 H       -0.2240    -5.1030    -0.1190 H     1 <1>   0.0800 
 37 H       -0.0490    -3.9170     1.1430 H     1 <1>   0.0800 
 38 H        2.9010     0.3540    -0.7090 H     1 <1>   0.0800 
 39 H        3.8280    -0.3620     0.5800 H     1 <1>   0.0800 
 40 H        3.2190    -2.5770    -0.9300 H     1 <1>   0.0800 
 41 H        3.4370    -4.2720    -1.1880 H     1 <1>   0.0800 
 42 H        2.8070    -5.2680     2.3760 H     1 <1>   0.0800 
 43 H        3.9790    -4.0020     2.5130 H     1 <1>   0.0800 
 44 H        3.6110     1.7340     1.8900 H     1 <1>   0.0800 
 45 H        5.1820    -2.5450     0.5550 H     1 <1>   0.0800 
 46 H        5.5710    -3.1420    -1.0390 H     1 <1>   0.0800 
 47 H        4.1010    -6.1580     0.4150 H     1 <1>   0.0800 
 48 H        5.0380    -6.1120     1.8880 H     1 <1>   0.0800 
 49 H        1.5700     2.6770     0.8930 H     1 <1>   0.0800 
 50 H        2.3640     2.8200    -0.6460 H     1 <1>   0.0800 
 51 H        4.8570     1.9900    -0.8510 H     1 <1>   0.0800 
 52 H        5.6150     1.3000     0.5550 H     1 <1>   0.0800 
 53 H        3.0740     4.3020     1.8950 H     1 <1>   0.0800 
 54 H        2.3290     4.9830     0.4780 H     1 <1>   0.0800 
 55 H        6.3610     3.6240     0.1640 H     1 <1>   0.0800 
 56 H        5.5590     3.4570     1.7000 H     1 <1>   0.0800 
 57 H        4.7610     5.4780     0.5770 H     1 <1>   0.0800 
 58 H        4.3400     4.5610    -0.8410 H     1 <1>   0.0800 
 59 H        7.6160    -2.6540     1.2620 H     1 <1>   0.1500 
 60 H        8.4280    -5.4710    -1.8130 H     1 <1>   0.1500 
 61 H        9.3410    -1.1570     0.3550 H     1 <1>   0.1500 
 62 H       10.1600    -3.9810    -2.7260 H     1 <1>   0.1500 
 63 H       10.6150    -1.8170    -1.6440 H     1 <1>   0.1500 
@<TRIPOS>BOND
  1   1   2  2   
  2   2   3  am  
  3   2   4  1   
  4   3   5  1   
  5   3   6  1   
  6   4   7  1   
  7   4  30  1   
  8   4  31  1   
  9   5   8  1   
 10   5  32  1   
 11   5  33  1   
 12   6   9  1   
 13   6  34  1   
 14   6  35  1   
 15   7  10  1   
 16   7  36  1   
 17   7  37  1   
 18   8  10  1   
 19   8  11  1   
 20   8  12  1   
 21   9  13  1   
 22   9  38  1   
 23   9  39  1   
 24  11  14  1   
 25  11  40  1   
 26  11  41  1   
 27  12  15  1   
 28  12  42  1   
 29  12  43  1   
 30  13  16  1   
 31  13  17  1   
 32  13  44  1   
 33  14  18  1   
 34  14  45  1   
 35  14  46  1   
 36  15  18  1   
 37  15  47  1   
 38  15  48  1   
 39  16  19  1   
 40  16  49  1   
 41  16  50  1   
 42  17  20  1   
 43  17  51  1   
 44  17  52  1   
 45  18  21  am  
 46  19  22  1   
 47  19  53  1   
 48  19  54  1   
 49  20  22  1   
 50  20  55  1   
 51  20  56  1   
 52  21  23  2   
 53  21  24  1   
 54  22  57  1   
 55  22  58  1   
 56  24  25  ar  
 57  24  26  ar  
 58  25  27  ar  
 59  25  59  1   
 60  26  28  ar  
 61  26  60  1   
 62  27  29  ar  
 63  27  61  1   
 64  28  29  ar  
 65  28  62  1   
 66  29  63  1   
@<TRIPOS>SUBSTRUCTURE
  1 ****  14 GROUP 4 **** **** 0

# MOE 2024.06 (io_trps.svl 2023.06)
