@<TRIPOS>MOLECULE
NONAME
46 48 1 0 0 
SMALL
USER_CHARGES


@<TRIPOS>ATOM
  1 O       -2.0670    -2.6770    -3.0150 O.co2 1 <1>  -0.9000 
  2 C       -1.1650    -3.0830    -2.2710 C.2   1 <1>   0.9060 
  3 O       -0.1350    -2.4270    -2.0670 O.co2 1 <1>  -0.9000 
  4 C       -1.2770    -4.4760    -1.6710 C.3   1 <1>   0.0140 
  5 O       -1.9560    -4.5010    -0.4140 O.3   1 <1>  -0.3630 
  6 C       -2.2990    -5.6700     0.1710 C.ar  1 <1>   0.0830 
  7 C       -3.1370    -5.5950     1.2690 C.ar  1 <1>  -0.1500 
  8 C       -1.8650    -6.9130    -0.2760 C.ar  1 <1>  -0.1500 
  9 C       -3.5630    -6.7440     1.9090 C.ar  1 <1>  -0.1500 
 10 C       -2.2900    -8.0650     0.3620 C.ar  1 <1>  -0.1500 
 11 C       -3.1500    -7.9870     1.4490 C.ar  1 <1>  -0.1440 
 12 C       -3.6600    -9.2510     2.1060 C.3   1 <1>   0.4870 
 13 N       -4.5790    -9.9020     1.1430 N.4   1 <1>  -0.9590 
 14 C       -5.7620    -9.0740     0.7350 C.3   1 <1>   0.3430 
 15 C       -5.0890   -11.2380     1.5180 C.3   1 <1>   0.3430 
 16 C       -6.9340   -10.0630     0.5940 C.3   1 <1>   0.2000 
 17 C       -6.2710   -11.4430     0.5660 C.3   1 <1>  -0.0800 
 18 O       -7.7580    -9.9840     1.7100 O.3   1 <1>  -0.6800 
 19 C       -5.8550   -11.8040    -0.8880 C.3   1 <1>  -0.0170 
 20 C       -4.4760   -12.4370    -1.0250 C.ar  1 <1>   0.1670 
 21 N       -3.4390   -11.6080    -0.9620 N.ar  1 <1>  -0.6200 
 22 C       -4.3570   -13.8130    -1.2110 C.ar  1 <1>   0.1600 
 23 C       -2.2890   -12.2490    -1.1280 C.ar  1 <1>   0.1600 
 24 N       -3.2070   -14.4480    -1.3440 N.ar  1 <1>  -0.6200 
 25 C       -2.1770   -13.6220    -1.3100 C.ar  1 <1>   0.1600 
 26 H       -0.2870    -4.8620    -1.5280 H     1 <1>   0.0800 
 27 H       -1.8220    -5.0870    -2.3630 H     1 <1>   0.0800 
 28 H       -3.4510    -4.6220     1.6080 H     1 <1>   0.1500 
 29 H       -1.1990    -6.9900    -1.1160 H     1 <1>   0.1500 
 30 H       -4.2180    -6.6500     2.7580 H     1 <1>   0.1500 
 31 H       -1.9430    -9.0150    -0.0060 H     1 <1>   0.1500 
 32 H       -4.1770    -9.0130     3.0200 H     1 <1>   0.0800 
 33 H       -2.8300    -9.9020     2.3310 H     1 <1>   0.0800 
 34 H       -4.0230   -10.0700     0.2790 H     1 <1>   0.4500 
 35 H       -5.9970    -8.3220     1.4700 H     1 <1>   0.0800 
 36 H       -5.5570    -8.5940    -0.2080 H     1 <1>   0.0800 
 37 H       -4.3350   -12.0010     1.4050 H     1 <1>   0.0800 
 38 H       -5.4380   -11.2290     2.5380 H     1 <1>   0.0800 
 39 H       -7.5410    -9.8570    -0.2720 H     1 <1>   0.0800 
 40 H       -6.9280   -12.2090     0.9420 H     1 <1>   0.0800 
 41 H       -7.3010   -10.1660     2.5530 H     1 <1>   0.4000 
 42 H       -5.8560   -10.9270    -1.5120 H     1 <1>   0.0800 
 43 H       -6.5970   -12.4640    -1.3050 H     1 <1>   0.0800 
 44 H       -5.2460   -14.4190    -1.2530 H     1 <1>   0.1500 
 45 H       -1.3840   -11.6650    -1.1210 H     1 <1>   0.1500 
 46 H       -1.1980   -14.0540    -1.4320 H     1 <1>   0.1500 
@<TRIPOS>BOND
  1   1   2  ar  
  2   2   3  ar  
  3   2   4  1   
  4   4   5  1   
  5   4  26  1   
  6   4  27  1   
  7   5   6  1   
  8   6   7  ar  
  9   6   8  ar  
 10   7   9  ar  
 11   7  28  1   
 12   8  10  ar  
 13   8  29  1   
 14   9  11  ar  
 15   9  30  1   
 16  10  11  ar  
 17  10  31  1   
 18  11  12  1   
 19  12  13  1   
 20  12  32  1   
 21  12  33  1   
 22  13  14  1   
 23  13  15  1   
 24  13  34  1   
 25  14  16  1   
 26  14  35  1   
 27  14  36  1   
 28  15  17  1   
 29  15  37  1   
 30  15  38  1   
 31  16  17  1   
 32  16  18  1   
 33  16  39  1   
 34  17  19  1   
 35  17  40  1   
 36  18  41  1   
 37  19  20  1   
 38  19  42  1   
 39  19  43  1   
 40  20  21  ar  
 41  20  22  ar  
 42  21  23  ar  
 43  22  24  ar  
 44  22  44  1   
 45  23  25  ar  
 46  23  45  1   
 47  24  25  ar  
 48  25  46  1   
@<TRIPOS>SUBSTRUCTURE
  1 ****  10 GROUP 4 **** **** 0

# MOE 2024.06 (io_trps.svl 2023.06)
