@<TRIPOS>MOLECULE
NONAME
48 51 1 0 0 
SMALL
USER_CHARGES


@<TRIPOS>ATOM
  1 O       -0.6750     0.2940     0.3480 O.2   1 <1>  -0.5700 
  2 C       -1.2110     1.2370    -0.2050 C.2   1 <1>   0.6160 
  3 N       -2.5280     1.1090    -0.5980 N.am  1 <1>  -0.6600 
  4 C       -0.4570     2.4410    -0.4340 C.2   1 <1>  -0.1360 
  5 C       -3.1340    -0.2560    -0.6850 C.3   1 <1>   0.1400 
  6 C       -3.4250     2.2780    -0.8360 C.3   1 <1>   0.1400 
  7 C        0.7260     2.7780     0.1310 C.2   1 <1>  -0.1780 
  8 C       -3.6980    -0.7030     0.6710 C.3   1 <1>   0.1400 
  9 C       -4.8280     2.1380    -0.2250 C.3   1 <1>  -0.1600 
 10 C        1.5170     3.9660    -0.0710 C.ar  1 <1>   0.0280 
 11 N       -4.9760     0.0030     0.9970 N.am  1 <1>  -0.6600 
 12 C       -4.8570     1.4770     1.1570 C.3   1 <1>   0.1400 
 13 C        2.5670     4.2540     0.8000 C.ar  1 <1>  -0.1500 
 14 C        1.2860     4.8610    -1.1160 C.ar  1 <1>  -0.1500 
 15 C       -6.1980    -0.6160     1.1100 C.2   1 <1>   0.6300 
 16 C        3.3470     5.3850     0.6430 C.ar  1 <1>  -0.1500 
 17 C        2.0610     5.9950    -1.2770 C.ar  1 <1>  -0.1500 
 18 O       -7.1980     0.0000     1.3980 O.2   1 <1>  -0.5700 
 19 C       -6.3300    -2.1150     0.8730 C.3   1 <1>  -0.1000 
 20 C        3.0940     6.2610    -0.3970 C.ar  1 <1>  -0.1500 
 21 C       -7.5380    -2.6670     0.1440 C.3   1 <1>   0.0000 
 22 C       -6.1580    -2.7120    -0.4580 C.3   1 <1>  -0.2000 
 23 C       -8.7450    -3.1770    -0.6080 C.3   1 <1>  -0.2000 
 24 C       -8.9210    -2.6770     0.7540 C.3   1 <1>  -0.2000 
 25 H       -0.9120     3.1060    -1.1370 H     1 <1>   0.1500 
 26 H       -3.9050    -0.2790    -1.4350 H     1 <1>   0.0800 
 27 H       -2.3710    -0.9540    -0.9830 H     1 <1>   0.0800 
 28 H       -2.9770     3.1550    -0.4020 H     1 <1>   0.0800 
 29 H       -3.5130     2.4440    -1.8960 H     1 <1>   0.0800 
 30 H        1.1560     2.0860     0.8360 H     1 <1>   0.1500 
 31 H       -2.9730    -0.5070     1.4420 H     1 <1>   0.0800 
 32 H       -3.8490    -1.7650     0.6440 H     1 <1>   0.0800 
 33 H       -5.4750     1.6030    -0.8970 H     1 <1>   0.0800 
 34 H       -5.2370     3.1270    -0.1320 H     1 <1>   0.0800 
 35 H       -5.7040     1.8490     1.7090 H     1 <1>   0.0800 
 36 H       -3.9710     1.7190     1.7190 H     1 <1>   0.0800 
 37 H        2.7750     3.5830     1.6140 H     1 <1>   0.1500 
 38 H        0.4970     4.6740    -1.8180 H     1 <1>   0.1500 
 39 H        4.1500     5.5850     1.3300 H     1 <1>   0.1500 
 40 H        1.8640     6.6720    -2.0900 H     1 <1>   0.1500 
 41 H       -6.0340    -2.6670     1.7450 H     1 <1>   0.1000 
 42 H        3.6980     7.1430    -0.5210 H     1 <1>   0.1500 
 43 H       -5.7100    -3.6830    -0.5710 H     1 <1>   0.1000 
 44 H       -5.9880    -2.0860    -1.3160 H     1 <1>   0.1000 
 45 H       -9.0780    -2.5950    -1.4490 H     1 <1>   0.1000 
 46 H       -8.7940    -4.2340    -0.8040 H     1 <1>   0.1000 
 47 H       -9.0860    -3.3530     1.5740 H     1 <1>   0.1000 
 48 H       -9.3780    -1.7180     0.9280 H     1 <1>   0.1000 
@<TRIPOS>BOND
  1   1   2  2   
  2   2   3  am  
  3   2   4  1   
  4   3   5  1   
  5   3   6  1   
  6   4   7  2   
  7   4  25  1   
  8   5   8  1   
  9   5  26  1   
 10   5  27  1   
 11   6   9  1   
 12   6  28  1   
 13   6  29  1   
 14   7  10  1   
 15   7  30  1   
 16   8  11  1   
 17   8  31  1   
 18   8  32  1   
 19   9  12  1   
 20   9  33  1   
 21   9  34  1   
 22  10  13  ar  
 23  10  14  ar  
 24  11  12  1   
 25  11  15  am  
 26  12  35  1   
 27  12  36  1   
 28  13  16  ar  
 29  13  37  1   
 30  14  17  ar  
 31  14  38  1   
 32  15  18  2   
 33  15  19  1   
 34  16  20  ar  
 35  16  39  1   
 36  17  20  ar  
 37  17  40  1   
 38  19  21  1   
 39  19  22  1   
 40  19  41  1   
 41  20  42  1   
 42  21  22  1   
 43  21  23  1   
 44  21  24  1   
 45  22  43  1   
 46  22  44  1   
 47  23  24  1   
 48  23  45  1   
 49  23  46  1   
 50  24  47  1   
 51  24  48  1   
@<TRIPOS>SUBSTRUCTURE
  1 ****   3 GROUP 4 **** **** 0

# MOE 2024.06 (io_trps.svl 2023.06)
