@<TRIPOS>MOLECULE
NONAME
49 52 1 0 0 
SMALL
USER_CHARGES


@<TRIPOS>ATOM
  1 CL       1.3860     2.2080    -1.5250 Cl    1 <1>  -0.1770 
  2 C       -0.2210     2.0150    -0.8460 C.ar  1 <1>   0.1770 
  3 C       -0.6750     2.8650     0.1700 C.ar  1 <1>   0.1000 
  4 C       -1.0110     1.0000    -1.3510 C.ar  1 <1>  -0.1500 
  5 N        0.0830     3.9060     0.7160 N.pl3 1 <1>  -0.8380 
  6 C       -1.9580     2.6530     0.6590 C.ar  1 <1>  -0.1500 
  7 C       -2.2870     0.8100    -0.8460 C.ar  1 <1>  -0.1500 
  8 C        1.0010     3.6550     1.8420 C.3   1 <1>   0.2090 
  9 C        0.0700     5.2450     0.0990 C.3   1 <1>   0.2090 
 10 C       -2.7570     1.6390     0.1600 C.ar  1 <1>  -0.1500 
 11 C        2.4230     3.9350     1.3670 C.3   1 <1>  -0.1600 
 12 C        1.4780     5.5500    -0.4020 C.3   1 <1>  -0.1600 
 13 C        2.5200     5.3190     0.7010 C.3   1 <1>   0.4230 
 14 N        3.8860     5.5720     0.1500 N.4   1 <1>  -0.9590 
 15 C        4.8870     5.8400     1.2500 C.3   1 <1>   0.3430 
 16 C        4.3440     4.5190    -0.8400 C.3   1 <1>   0.3430 
 17 C        6.2140     6.4900     0.7650 C.3   1 <1>   0.2200 
 18 C        5.5910     4.8910    -1.6560 C.3   1 <1>  -0.0190 
 19 N        6.0690     7.0840    -0.5980 N.am  1 <1>  -0.7300 
 20 C        7.3500     5.4520     0.7900 C.3   1 <1>   0.1200 
 21 C        5.7870     6.3890    -1.7210 C.2   1 <1>   0.5690 
 22 C        6.8510     4.1800    -1.1460 C.3   1 <1>   0.1200 
 23 O        6.9240     4.2360     0.2460 O.3   1 <1>  -0.5600 
 24 O        5.6320     6.9630    -2.7630 O.2   1 <1>  -0.5700 
 25 H       -0.6330     0.3650    -2.1310 H     1 <1>   0.1500 
 26 H       -2.3280     3.2930     1.4400 H     1 <1>   0.1500 
 27 H       -2.9100     0.0220    -1.2330 H     1 <1>   0.1500 
 28 H        0.7370     4.2970     2.6650 H     1 <1>   0.0800 
 29 H        0.9100     2.6310     2.1670 H     1 <1>   0.0800 
 30 H       -0.6310     5.2650    -0.7200 H     1 <1>   0.0800 
 31 H       -0.2420     5.9710     0.8310 H     1 <1>   0.0800 
 32 H       -3.7480     1.4930     0.5540 H     1 <1>   0.1500 
 33 H        2.6890     3.1510     0.6860 H     1 <1>   0.0800 
 34 H        3.0790     3.8790     2.2160 H     1 <1>   0.0800 
 35 H        1.5080     6.5730    -0.7300 H     1 <1>   0.0800 
 36 H        1.6580     4.9210    -1.2520 H     1 <1>   0.0800 
 37 H        2.3210     6.0520     1.4670 H     1 <1>   0.0800 
 38 H        3.8310     6.4520    -0.3850 H     1 <1>   0.4500 
 39 H        4.4440     6.5060     1.9710 H     1 <1>   0.0800 
 40 H        5.1160     4.9210     1.7660 H     1 <1>   0.0800 
 41 H        4.5350     3.5930    -0.3210 H     1 <1>   0.0800 
 42 H        3.5470     4.3300    -1.5400 H     1 <1>   0.0800 
 43 H        6.4840     7.2760     1.4490 H     1 <1>   0.0800 
 44 H        5.4360     4.5460    -2.6620 H     1 <1>   0.0800 
 45 H        6.2960     8.0780    -0.7210 H     1 <1>   0.3700 
 46 H        7.6290     5.2510     1.8100 H     1 <1>   0.0800 
 47 H        8.2240     5.8030     0.2670 H     1 <1>   0.0800 
 48 H        7.7480     4.5980    -1.5740 H     1 <1>   0.0800 
 49 H        6.8090     3.1370    -1.4120 H     1 <1>   0.0800 
@<TRIPOS>BOND
  1   1   2  1   
  2   2   3  ar  
  3   2   4  ar  
  4   3   5  1   
  5   3   6  ar  
  6   4   7  ar  
  7   4  25  1   
  8   5   8  1   
  9   5   9  1   
 10   6  10  ar  
 11   6  26  1   
 12   7  10  ar  
 13   7  27  1   
 14   8  11  1   
 15   8  28  1   
 16   8  29  1   
 17   9  12  1   
 18   9  30  1   
 19   9  31  1   
 20  10  32  1   
 21  11  13  1   
 22  11  33  1   
 23  11  34  1   
 24  12  13  1   
 25  12  35  1   
 26  12  36  1   
 27  13  14  1   
 28  13  37  1   
 29  14  15  1   
 30  14  16  1   
 31  14  38  1   
 32  15  17  1   
 33  15  39  1   
 34  15  40  1   
 35  16  18  1   
 36  16  41  1   
 37  16  42  1   
 38  17  19  1   
 39  17  20  1   
 40  17  43  1   
 41  18  21  1   
 42  18  22  1   
 43  18  44  1   
 44  19  21  am  
 45  19  45  1   
 46  20  23  1   
 47  20  46  1   
 48  20  47  1   
 49  21  24  2   
 50  22  23  1   
 51  22  48  1   
 52  22  49  1   
@<TRIPOS>SUBSTRUCTURE
  1 ****  13 GROUP 4 **** **** 0

# MOE 2024.06 (io_trps.svl 2023.06)
