@<TRIPOS>MOLECULE
NONAME
48 51 1 0 0 
SMALL
USER_CHARGES


@<TRIPOS>ATOM
  1 O       -0.6540     1.0010    -1.0260 O.2   1 <1>  -0.5700 
  2 C       -1.7010     1.3930    -0.5320 C.2   1 <1>   0.7150 
  3 N       -2.8320     0.6210    -0.7460 N.am  1 <1>  -0.6600 
  4 C       -1.7040     2.6200     0.2580 C.2   1 <1>   0.1010 
  5 C       -4.0840     0.7380     0.0530 C.3   1 <1>   0.1400 
  6 C       -2.9250    -0.3450    -1.8770 C.3   1 <1>   0.1400 
  7 N       -2.6990     3.4800     0.3700 N.2   1 <1>  -0.5650 
  8 N       -0.6160     3.0310     0.9820 N.pl3 1 <1>   0.0480 
  9 C       -4.4780    -0.6400     0.5920 C.3   1 <1>  -0.1600 
 10 C       -3.3050    -1.7280    -1.3440 C.3   1 <1>  -0.1600 
 11 C       -2.2360     4.4430     1.1730 C.2   1 <1>   0.0770 
 12 C       -0.9690     4.1870     1.5580 C.2   1 <1>  -0.3020 
 13 C        0.7000     2.3760     1.1390 C.3   1 <1>   0.0160 
 14 C       -4.6040    -1.6880    -0.5270 C.3   1 <1>   0.4240 
 15 O       -5.5960    -1.2530    -1.4280 O.3   1 <1>  -0.5600 
 16 C       -4.9280    -3.0850     0.0480 C.ar  1 <1>  -0.1430 
 17 C       -6.9230    -1.5260    -1.1050 C.3   1 <1>   0.1200 
 18 C       -6.1280    -3.7240    -0.2470 C.ar  1 <1>  -0.1430 
 19 C       -4.0220    -3.7300     0.8830 C.ar  1 <1>  -0.1500 
 20 C       -7.1370    -3.0360    -1.1450 C.3   1 <1>  -0.0170 
 21 C       -6.4090    -4.9790     0.2700 C.ar  1 <1>  -0.1500 
 22 C       -4.3020    -4.9810     1.4030 C.ar  1 <1>  -0.1500 
 23 C       -5.4940    -5.6160     1.1010 C.ar  1 <1>   0.0830 
 24 O       -5.6900    -6.8410     1.6480 O.3   1 <1>  -0.3620 
 25 C       -6.8610    -7.5820     1.3860 C.3   1 <1>   0.0400 
 26 H       -4.8660     1.1320    -0.5740 H     1 <1>   0.0800 
 27 H       -3.9520     1.4030     0.8860 H     1 <1>   0.0800 
 28 H       -1.9910    -0.4070    -2.4090 H     1 <1>   0.0800 
 29 H       -3.6750     0.0000    -2.5680 H     1 <1>   0.0800 
 30 H       -5.3980    -0.5710     1.1390 H     1 <1>   0.0800 
 31 H       -3.7230    -0.9520     1.2890 H     1 <1>   0.0800 
 32 H       -2.4930    -2.0870    -0.7410 H     1 <1>   0.0800 
 33 H       -3.4270    -2.4130    -2.1630 H     1 <1>   0.0800 
 34 H       -2.8430     5.2910     1.4420 H     1 <1>   0.1500 
 35 H       -0.3220     4.7610     2.1950 H     1 <1>   0.1500 
 36 H        0.5570     1.3440     1.4030 H     1 <1>   0.0800 
 37 H        1.2620     2.8690     1.9100 H     1 <1>   0.0800 
 38 H        1.2360     2.4340     0.2090 H     1 <1>   0.0800 
 39 H       -7.5470    -1.0380    -1.8320 H     1 <1>   0.0800 
 40 H       -7.1420    -1.1290    -0.1300 H     1 <1>   0.0800 
 41 H       -3.0870    -3.2660     1.1400 H     1 <1>   0.1500 
 42 H       -7.0200    -3.3860    -2.1550 H     1 <1>   0.0800 
 43 H       -8.1380    -3.2590    -0.8220 H     1 <1>   0.0800 
 44 H       -7.3400    -5.4470     0.0190 H     1 <1>   0.1500 
 45 H       -3.5970    -5.4750     2.0460 H     1 <1>   0.1500 
 46 H       -6.7910    -8.5150     1.9150 H     1 <1>   0.0800 
 47 H       -6.9290    -7.7650     0.3280 H     1 <1>   0.0800 
 48 H       -7.7120    -7.0260     1.7380 H     1 <1>   0.0800 
@<TRIPOS>BOND
  1   1   2  2   
  2   2   3  am  
  3   2   4  1   
  4   3   5  1   
  5   3   6  1   
  6   4   7  2   
  7   4   8  1   
  8   5   9  1   
  9   5  26  1   
 10   5  27  1   
 11   6  10  1   
 12   6  28  1   
 13   6  29  1   
 14   7  11  1   
 15   8  12  1   
 16   8  13  1   
 17   9  14  1   
 18   9  30  1   
 19   9  31  1   
 20  10  14  1   
 21  10  32  1   
 22  10  33  1   
 23  11  12  2   
 24  11  34  1   
 25  12  35  1   
 26  13  36  1   
 27  13  37  1   
 28  13  38  1   
 29  14  15  1   
 30  14  16  1   
 31  15  17  1   
 32  16  18  ar  
 33  16  19  ar  
 34  17  20  1   
 35  17  39  1   
 36  17  40  1   
 37  18  20  1   
 38  18  21  ar  
 39  19  22  ar  
 40  19  41  1   
 41  20  42  1   
 42  20  43  1   
 43  21  23  ar  
 44  21  44  1   
 45  22  23  ar  
 46  22  45  1   
 47  23  24  1   
 48  24  25  1   
 49  25  46  1   
 50  25  47  1   
 51  25  48  1   
@<TRIPOS>SUBSTRUCTURE
  1 ****   9 GROUP 4 **** **** 0

# MOE 2024.06 (io_trps.svl 2023.06)
