@<TRIPOS>MOLECULE
NONAME
55 57 1 0 0 
SMALL
USER_CHARGES


@<TRIPOS>ATOM
  1 CL      -0.4440    -0.8940     2.4300 Cl    1 <1>  -0.1770 
  2 C       -1.8680    -0.9270     1.4080 C.ar  1 <1>   0.1770 
  3 C       -2.8100     0.0990     1.4250 C.ar  1 <1>   0.0820 
  4 C       -2.0330    -2.0440     0.6100 C.ar  1 <1>  -0.1500 
  5 O       -2.6050     1.2280     2.1560 O.3   1 <1>  -0.3630 
  6 C       -3.9770    -0.0610     0.6680 C.ar  1 <1>   0.0830 
  7 C       -3.1730    -2.1780    -0.1680 C.ar  1 <1>  -0.1440 
  8 C       -1.5390     2.0930     1.7320 C.3   1 <1>   0.0140 
  9 O       -5.0050     0.8230     0.6640 O.3   1 <1>  -0.3630 
 10 C       -4.1410    -1.1850    -0.1240 C.ar  1 <1>  -0.1500 
 11 C       -3.3690    -3.3930    -1.0480 C.3   1 <1>   0.4860 
 12 C       -1.4900     2.3650     0.2290 C.2   1 <1>   0.9060 
 13 C       -4.7380     2.1280     0.1920 C.3   1 <1>   0.0400 
 14 N       -3.8730    -4.5000    -0.1960 N.4   1 <1>  -0.9590 
 15 O       -1.9480     3.4330    -0.1960 O.co2 1 <1>  -0.9000 
 16 O       -0.9940     1.5200    -0.5290 O.co2 1 <1>  -0.9000 
 17 C       -5.2010    -4.1870     0.3980 C.3   1 <1>   0.3430 
 18 C       -4.0510    -5.7740    -0.9230 C.3   1 <1>   0.3430 
 19 C       -5.9260    -5.5180     0.6060 C.3   1 <1>  -0.0800 
 20 C       -5.0020    -6.5740    -0.0430 C.3   1 <1>  -0.0800 
 21 C       -7.3650    -5.4970     0.0320 C.3   1 <1>   0.2800 
 22 C       -5.7210    -7.6770    -0.8390 C.3   1 <1>  -0.1600 
 23 O       -7.2700    -5.0860    -1.2850 O.3   1 <1>  -0.6800 
 24 C       -7.9870    -6.9150     0.0410 C.3   1 <1>  -0.1600 
 25 C       -8.3380    -4.5260     0.7490 C.3   1 <1>  -0.1600 
 26 C       -7.0040    -8.0920    -0.1220 C.3   1 <1>  -0.1600 
 27 C       -8.0800    -3.0100     0.6400 C.3   1 <1>  -0.2400 
 28 H       -1.2570    -2.7890     0.6120 H     1 <1>   0.1500 
 29 H       -1.6660     3.0290     2.2380 H     1 <1>   0.0800 
 30 H       -0.6050     1.6650     2.0310 H     1 <1>   0.0800 
 31 H       -5.0400    -1.2550    -0.7100 H     1 <1>   0.1500 
 32 H       -2.4290    -3.6640    -1.5010 H     1 <1>   0.0800 
 33 H       -4.0770    -3.1690    -1.8300 H     1 <1>   0.0800 
 34 H       -5.6710     2.5990    -0.0540 H     1 <1>   0.0800 
 35 H       -4.1140     2.0690    -0.6840 H     1 <1>   0.0800 
 36 H       -4.2430     2.6910     0.9620 H     1 <1>   0.0800 
 37 H       -3.2110    -4.6310     0.5770 H     1 <1>   0.4500 
 38 H       -5.0960    -3.6430     1.3230 H     1 <1>   0.0800 
 39 H       -5.7650    -3.5830    -0.2940 H     1 <1>   0.0800 
 40 H       -4.5260    -5.5870    -1.8730 H     1 <1>   0.0800 
 41 H       -3.1160    -6.2890    -1.0770 H     1 <1>   0.0800 
 42 H       -5.9950    -5.7190     1.6610 H     1 <1>   0.0800 
 43 H       -4.4250    -7.0420     0.7370 H     1 <1>   0.0800 
 44 H       -5.9770    -7.3310    -1.8270 H     1 <1>   0.0800 
 45 H       -5.0740    -8.5320    -0.9520 H     1 <1>   0.0800 
 46 H       -8.1580    -5.1160    -1.6930 H     1 <1>   0.4000 
 47 H       -8.4950    -7.0690     0.9770 H     1 <1>   0.0800 
 48 H       -8.7420    -6.9750    -0.7240 H     1 <1>   0.0800 
 49 H       -9.3280    -4.7100     0.3680 H     1 <1>   0.0800 
 50 H       -8.3710    -4.7840     1.7940 H     1 <1>   0.0800 
 51 H       -6.7460    -8.4750     0.8520 H     1 <1>   0.0800 
 52 H       -7.4850    -8.8900    -0.6620 H     1 <1>   0.0800 
 53 H       -7.9400    -2.7090    -0.3830 H     1 <1>   0.0800 
 54 H       -7.2310    -2.7060     1.2230 H     1 <1>   0.0800 
 55 H       -8.9340    -2.4780     1.0230 H     1 <1>   0.0800 
@<TRIPOS>BOND
  1   1   2  1   
  2   2   3  ar  
  3   2   4  ar  
  4   3   5  1   
  5   3   6  ar  
  6   4   7  ar  
  7   4  28  1   
  8   5   8  1   
  9   6   9  1   
 10   6  10  ar  
 11   7  10  ar  
 12   7  11  1   
 13   8  12  1   
 14   8  29  1   
 15   8  30  1   
 16   9  13  1   
 17  10  31  1   
 18  11  14  1   
 19  11  32  1   
 20  11  33  1   
 21  12  15  ar  
 22  12  16  ar  
 23  13  34  1   
 24  13  35  1   
 25  13  36  1   
 26  14  17  1   
 27  14  18  1   
 28  14  37  1   
 29  17  19  1   
 30  17  38  1   
 31  17  39  1   
 32  18  20  1   
 33  18  40  1   
 34  18  41  1   
 35  19  20  1   
 36  19  21  1   
 37  19  42  1   
 38  20  22  1   
 39  20  43  1   
 40  21  23  1   
 41  21  24  1   
 42  21  25  1   
 43  22  26  1   
 44  22  44  1   
 45  22  45  1   
 46  23  46  1   
 47  24  26  1   
 48  24  47  1   
 49  24  48  1   
 50  25  27  1   
 51  25  49  1   
 52  25  50  1   
 53  26  51  1   
 54  26  52  1   
 55  27  53  1   
 56  27  54  1   
 57  27  55  1   
@<TRIPOS>SUBSTRUCTURE
  1 ****   7 GROUP 4 **** **** 0

# MOE 2024.06 (io_trps.svl 2023.06)
