@<TRIPOS>MOLECULE
NONAME
44 47 1 0 0 
SMALL
USER_CHARGES


@<TRIPOS>ATOM
  1 O       -3.5650     2.0390    -2.4350 O.2   1 <1>  -0.5700 
  2 C       -3.0900     1.7180    -1.3610 C.2   1 <1>   0.5440 
  3 N       -3.2960     0.4430    -0.8840 N.am  1 <1>  -0.6600 
  4 C       -2.3340     2.6960    -0.6120 C.ar  1 <1>   0.0860 
  5 C       -2.9540     0.0610     0.5290 C.3   1 <1>   0.1400 
  6 C       -4.0100    -0.5820    -1.7100 C.3   1 <1>   0.1400 
  7 C       -0.9290     2.6140    -0.4650 C.ar  1 <1>   0.0000 
  8 C       -2.9570     3.7600    -0.0170 C.ar  1 <1>  -0.1500 
  9 C       -3.7950    -1.1320     0.9860 C.3   1 <1>  -0.1860 
 10 C       -3.4540    -1.9750    -1.4140 C.3   1 <1>  -0.1600 
 11 C       -0.2830     3.6220     0.2860 C.ar  1 <1>   0.3100 
 12 C       -0.1390     1.5890    -1.0310 C.ar  1 <1>  -0.1500 
 13 C       -2.2290     4.7080     0.7030 C.ar  1 <1>   0.2780 
 14 C       -3.5000    -1.5350     2.4080 C.2   1 <1>   0.9060 
 15 C       -3.5630    -2.3370     0.0730 C.3   1 <1>   0.2000 
 16 N       -0.9430     4.6560     0.8600 N.ar  1 <1>  -0.6200 
 17 C        1.1110     3.5580     0.4430 C.ar  1 <1>  -0.1500 
 18 C        1.2190     1.5560    -0.8590 C.ar  1 <1>  -0.1500 
 19 C       -2.9750     5.8640     1.3490 C.3   1 <1>  -0.0680 
 20 O       -2.6240    -0.9420     3.0440 O.co2 1 <1>  -0.9000 
 21 O       -4.1490    -2.4780     2.8780 O.co2 1 <1>  -0.9000 
 22 O       -4.6300    -3.1880     0.2610 O.3   1 <1>  -0.6800 
 23 C        1.8540     2.5520    -0.1130 C.ar  1 <1>  -0.1500 
 24 C       -3.9750     6.6770     0.5780 C.3   1 <1>  -0.2000 
 25 C       -2.6570     7.2760     0.9560 C.3   1 <1>  -0.2000 
 26 H       -1.9100    -0.1940     0.5910 H     1 <1>   0.0800 
 27 H       -3.1350     0.8900     1.1930 H     1 <1>   0.0800 
 28 H       -5.0610    -0.5520    -1.4770 H     1 <1>   0.0800 
 29 H       -3.8900    -0.3620    -2.7570 H     1 <1>   0.0800 
 30 H       -4.0220     3.8720    -0.1010 H     1 <1>   0.1500 
 31 H       -4.8260    -0.8360     0.9550 H     1 <1>   0.0800 
 32 H       -2.4160    -1.9780    -1.6930 H     1 <1>   0.0800 
 33 H       -3.9550    -2.7120    -2.0160 H     1 <1>   0.0800 
 34 H       -0.6190     0.8180    -1.6080 H     1 <1>   0.1500 
 35 H       -2.6760    -2.8670     0.3810 H     1 <1>   0.0800 
 36 H        1.5790     4.3340     1.0210 H     1 <1>   0.1500 
 37 H        1.8090     0.7670    -1.2930 H     1 <1>   0.1500 
 38 H       -3.1660     5.6820     2.3920 H     1 <1>   0.1000 
 39 H       -4.7390    -3.2610     1.2490 H     1 <1>   0.4000 
 40 H        2.9220     2.5150     0.0170 H     1 <1>   0.1500 
 41 H       -4.1480     6.4590    -0.4620 H     1 <1>   0.1000 
 42 H       -4.8620     7.0160     1.0820 H     1 <1>   0.1000 
 43 H       -2.6190     8.0230     1.7300 H     1 <1>   0.1000 
 44 H       -1.9100     7.4310     0.1960 H     1 <1>   0.1000 
@<TRIPOS>BOND
  1   1   2  2   
  2   2   3  am  
  3   2   4  1   
  4   3   5  1   
  5   3   6  1   
  6   4   7  ar  
  7   4   8  ar  
  8   5   9  1   
  9   5  26  1   
 10   5  27  1   
 11   6  10  1   
 12   6  28  1   
 13   6  29  1   
 14   7  11  ar  
 15   7  12  ar  
 16   8  13  ar  
 17   8  30  1   
 18   9  14  1   
 19   9  15  1   
 20   9  31  1   
 21  10  15  1   
 22  10  32  1   
 23  10  33  1   
 24  11  16  ar  
 25  11  17  ar  
 26  12  18  ar  
 27  12  34  1   
 28  13  16  ar  
 29  13  19  1   
 30  14  20  ar  
 31  14  21  ar  
 32  15  22  1   
 33  15  35  1   
 34  17  23  ar  
 35  17  36  1   
 36  18  23  ar  
 37  18  37  1   
 38  19  24  1   
 39  19  25  1   
 40  19  38  1   
 41  22  39  1   
 42  23  40  1   
 43  24  25  1   
 44  24  41  1   
 45  24  42  1   
 46  25  43  1   
 47  25  44  1   
@<TRIPOS>SUBSTRUCTURE
  1 ****   4 GROUP 4 **** **** 0

# MOE 2024.06 (io_trps.svl 2023.06)
