@<TRIPOS>MOLECULE
NONAME
42 44 1 0 0 
SMALL
USER_CHARGES


@<TRIPOS>ATOM
  1 S        0.8900     0.0050     2.5880 S.3   1 <1>  -0.0800 
  2 C        1.0150    -0.7630     1.0230 C.2   1 <1>  -0.0450 
  3 C        0.9650     1.5680     1.8170 C.2   1 <1>   0.1980 
  4 C        1.1150     0.2220     0.1010 C.2   1 <1>   0.0460 
  5 C        0.9710    -2.1980     0.9510 C.2   1 <1>   0.7150 
  6 N        1.0720     1.5230     0.5510 N.2   1 <1>  -0.5650 
  7 C        0.8970     2.7870     2.7050 C.3   1 <1>  -0.0600 
  8 C        1.2790     0.0350    -1.3920 C.3   1 <1>  -0.0590 
  9 O        1.8750    -2.8490     1.4430 O.2   1 <1>  -0.5700 
 10 N       -0.0770    -2.8620     0.3370 N.am  1 <1>  -0.6600 
 11 C       -1.3510    -2.1580    -0.0010 C.3   1 <1>   0.2200 
 12 C       -0.0350    -4.3520     0.2140 C.3   1 <1>   0.0600 
 13 C       -2.5790    -2.7230     0.7090 C.3   1 <1>  -0.1600 
 14 C       -1.7130    -2.2190    -1.4820 C.3   1 <1>  -0.1600 
 15 C       -3.7610    -2.1940    -0.1140 C.3   1 <1>  -0.0800 
 16 C       -3.2100    -1.8820    -1.5180 C.3   1 <1>  -0.0800 
 17 C       -4.3370    -0.8780     0.4280 C.3   1 <1>  -0.1600 
 18 C       -3.4890    -0.3930    -1.7740 C.3   1 <1>  -0.1600 
 19 C       -4.6110    -0.0400    -0.8100 C.3   1 <1>   0.2000 
 20 O       -4.5640     1.3000    -0.4980 O.3   1 <1>  -0.6800 
 21 H        0.9540     3.6760     2.1040 H     1 <1>   0.0800 
 22 H        1.7180     2.7790     3.3970 H     1 <1>   0.0800 
 23 H       -0.0290     2.7900     3.2500 H     1 <1>   0.0800 
 24 H        1.3270    -1.0080    -1.6450 H     1 <1>   0.0800 
 25 H        2.1880     0.5110    -1.7140 H     1 <1>   0.0800 
 26 H        0.4520     0.4870    -1.9070 H     1 <1>   0.0800 
 27 H       -1.2880    -1.1180     0.2700 H     1 <1>   0.0800 
 28 H       -0.6500    -4.6940    -0.5980 H     1 <1>   0.0800 
 29 H       -0.3810    -4.7970     1.1310 H     1 <1>   0.0800 
 30 H        0.9740    -4.6810     0.0350 H     1 <1>   0.0800 
 31 H       -2.5870    -3.7960     0.6580 H     1 <1>   0.0800 
 32 H       -2.6210    -2.4160     1.7390 H     1 <1>   0.0800 
 33 H       -1.1270    -1.5370    -2.0700 H     1 <1>   0.0800 
 34 H       -1.5780    -3.2140    -1.8640 H     1 <1>   0.0800 
 35 H       -4.5430    -2.9330    -0.1760 H     1 <1>   0.0800 
 36 H       -3.7170    -2.4790    -2.2580 H     1 <1>   0.0800 
 37 H       -3.6120    -0.3800     1.0490 H     1 <1>   0.0800 
 38 H       -5.2370    -1.0450     0.9910 H     1 <1>   0.0800 
 39 H       -3.7840    -0.2190    -2.7930 H     1 <1>   0.0800 
 40 H       -2.6170     0.1950    -1.5450 H     1 <1>   0.0800 
 41 H       -5.5760    -0.2710    -1.2320 H     1 <1>   0.0800 
 42 H       -3.6850     1.5280    -0.1420 H     1 <1>   0.4000 
@<TRIPOS>BOND
  1   1   2  1   
  2   1   3  1   
  3   2   4  2   
  4   2   5  1   
  5   3   6  2   
  6   3   7  1   
  7   4   6  1   
  8   4   8  1   
  9   5   9  2   
 10   5  10  am  
 11   7  21  1   
 12   7  22  1   
 13   7  23  1   
 14   8  24  1   
 15   8  25  1   
 16   8  26  1   
 17  10  11  1   
 18  10  12  1   
 19  11  13  1   
 20  11  14  1   
 21  11  27  1   
 22  12  28  1   
 23  12  29  1   
 24  12  30  1   
 25  13  15  1   
 26  13  31  1   
 27  13  32  1   
 28  14  16  1   
 29  14  33  1   
 30  14  34  1   
 31  15  16  1   
 32  15  17  1   
 33  15  35  1   
 34  16  18  1   
 35  16  36  1   
 36  17  19  1   
 37  17  37  1   
 38  17  38  1   
 39  18  19  1   
 40  18  39  1   
 41  18  40  1   
 42  19  20  1   
 43  19  41  1   
 44  20  42  1   
@<TRIPOS>SUBSTRUCTURE
  1 ****  11 GROUP 4 **** **** 0

# MOE 2024.06 (io_trps.svl 2023.06)
