@<TRIPOS>MOLECULE
NONAME
48 49 1 0 0 
SMALL
USER_CHARGES


@<TRIPOS>ATOM
  1 S        0.6440     0.5190    -0.0630 S.o2  1 <1>   1.3330 
  2 O        0.4690    -0.3940    -1.1710 O.2   1 <1>  -0.6500 
  3 O        0.5410     0.0200     1.2910 O.2   1 <1>  -0.6500 
  4 N       -0.4700     1.7890    -0.2340 N.am  1 <1>  -0.8490 
  5 C        2.2240     1.3340    -0.2680 C.3   1 <1>  -0.0550 
  6 C       -1.7680     1.3250    -0.7290 C.3   1 <1>   0.1160 
  7 C       -0.6520     2.5750     0.9900 C.3   1 <1>   0.1160 
  8 C        3.4170     0.3580    -0.2540 C.3   1 <1>  -0.0800 
  9 C        4.7710     0.9950    -0.5300 C.3   1 <1>   0.2200 
 10 C        3.6420    -0.3620     1.0840 C.3   1 <1>   0.1200 
 11 N        4.9020     2.2850     0.1890 N.am  1 <1>  -0.7300 
 12 C        5.6940    -0.0210     0.1260 C.3   1 <1>   0.1200 
 13 O        5.0260    -0.4040     1.2880 O.3   1 <1>  -0.5600 
 14 C        4.7610     3.5210    -0.3690 C.2   1 <1>   0.5440 
 15 O        4.4740     3.5870    -1.5470 O.2   1 <1>  -0.5700 
 16 C        4.9330     4.7240     0.4270 C.ar  1 <1>   0.0860 
 17 C        4.7090     4.7300     1.8020 C.ar  1 <1>  -0.1500 
 18 C        5.3250     5.9250    -0.1630 C.ar  1 <1>  -0.1500 
 19 C        4.8790     5.8840     2.5380 C.ar  1 <1>   0.0820 
 20 C        5.5080     7.1080     0.5560 C.ar  1 <1>   0.0860 
 21 O        4.6530     5.8470     3.8580 O.3   1 <1>  -0.5320 
 22 C        5.2740     7.0600     1.9310 C.ar  1 <1>  -0.1500 
 23 C        5.9240     8.3300    -0.1090 C.2   1 <1>   0.6340 
 24 O        6.1890     8.3880    -1.2910 O.2   1 <1>  -0.5700 
 25 O        6.0200     9.4430     0.6270 O.3   1 <1>  -0.4300 
 26 C        6.4160    10.6770     0.0620 C.3   1 <1>   0.0400 
 27 H        2.2230     1.8570    -1.2050 H     1 <1>   0.0800 
 28 H        2.3440     2.0620     0.5090 H     1 <1>   0.0800 
 29 H       -2.4430     2.1550    -0.8440 H     1 <1>   0.0800 
 30 H       -2.1960     0.6100    -0.0450 H     1 <1>   0.0800 
 31 H       -1.6490     0.8540    -1.6910 H     1 <1>   0.0800 
 32 H       -1.3030     3.4110     0.7990 H     1 <1>   0.0800 
 33 H        0.2950     2.9550     1.3320 H     1 <1>   0.0800 
 34 H       -1.0820     1.9660     1.7690 H     1 <1>   0.0800 
 35 H        3.2460    -0.3960    -1.0040 H     1 <1>   0.0800 
 36 H        4.9720     1.1180    -1.5820 H     1 <1>   0.0800 
 37 H        3.2600    -1.3690     1.0650 H     1 <1>   0.0800 
 38 H        3.2070     0.1740     1.9100 H     1 <1>   0.0800 
 39 H        5.1670     2.1790     1.1720 H     1 <1>   0.3700 
 40 H        6.6580     0.3860     0.3740 H     1 <1>   0.0800 
 41 H        5.8090    -0.8930    -0.4950 H     1 <1>   0.0800 
 42 H        4.3920     3.8390     2.3110 H     1 <1>   0.1500 
 43 H        5.4960     5.9370    -1.2280 H     1 <1>   0.1500 
 44 H        4.7970     6.6990     4.3090 H     1 <1>   0.4500 
 45 H        5.4030     7.9490     2.5230 H     1 <1>   0.1500 
 46 H        6.4200    11.4230     0.8360 H     1 <1>   0.0800 
 47 H        5.7160    10.9460    -0.7110 H     1 <1>   0.0800 
 48 H        7.4030    10.5680    -0.3550 H     1 <1>   0.0800 
@<TRIPOS>BOND
  1   1   2  2   
  2   1   3  2   
  3   1   4  am  
  4   1   5  1   
  5   4   6  1   
  6   4   7  1   
  7   5   8  1   
  8   5  27  1   
  9   5  28  1   
 10   6  29  1   
 11   6  30  1   
 12   6  31  1   
 13   7  32  1   
 14   7  33  1   
 15   7  34  1   
 16   8   9  1   
 17   8  10  1   
 18   8  35  1   
 19   9  11  1   
 20   9  12  1   
 21   9  36  1   
 22  10  13  1   
 23  10  37  1   
 24  10  38  1   
 25  11  14  am  
 26  11  39  1   
 27  12  13  1   
 28  12  40  1   
 29  12  41  1   
 30  14  15  2   
 31  14  16  1   
 32  16  17  ar  
 33  16  18  ar  
 34  17  19  ar  
 35  17  42  1   
 36  18  20  ar  
 37  18  43  1   
 38  19  21  1   
 39  19  22  ar  
 40  20  22  ar  
 41  20  23  1   
 42  21  44  1   
 43  22  45  1   
 44  23  24  2   
 45  23  25  1   
 46  25  26  1   
 47  26  46  1   
 48  26  47  1   
 49  26  48  1   
@<TRIPOS>SUBSTRUCTURE
  1 ****  14 GROUP 4 **** **** 0

# MOE 2024.06 (io_trps.svl 2023.06)
