@<TRIPOS>MOLECULE
NONAME
42 44 1 0 0 
SMALL
USER_CHARGES


@<TRIPOS>ATOM
  1 O       -0.7450     0.5750     1.2550 O.2   1 <1>  -0.5700 
  2 C       -1.6430     1.1270     0.6360 C.2   1 <1>   0.7160 
  3 N       -2.7490     0.3590     0.3210 N.am  1 <1>  -0.6600 
  4 C       -1.4910     2.5360     0.2680 C.2   1 <1>   0.1410 
  5 C       -3.9620     0.8140    -0.4020 C.3   1 <1>   0.1400 
  6 C       -2.8790    -1.0710     0.6720 C.3   1 <1>   0.1400 
  7 N       -2.3310     3.2630    -0.5350 N.2   1 <1>  -0.5650 
  8 C       -0.4740     3.3580     0.6630 C.2   1 <1>  -0.3020 
  9 C       -4.9110    -0.3930    -0.4330 C.3   1 <1>   0.2000 
 10 C       -3.9770    -1.5960    -0.2550 C.3   1 <1>  -0.0800 
 11 C       -1.8090     4.4420    -0.5870 C.2   1 <1>   0.0360 
 12 N       -0.6710     4.5660     0.1250 N.pl3 1 <1>   0.0480 
 13 O       -5.7940    -0.3470     0.6540 O.3   1 <1>  -0.5600 
 14 C       -4.6640    -2.8710     0.2670 C.3   1 <1>   0.0200 
 15 C        0.1700     5.7640     0.2770 C.3   1 <1>   0.0160 
 16 C       -6.9150     0.4610     0.4750 C.3   1 <1>   0.0400 
 17 C       -3.7510    -4.0860     0.2620 C.2   1 <1>  -0.0400 
 18 O       -4.1950    -5.2070     0.7660 O.3   1 <1>  -0.0190 
 19 C       -2.4990    -4.3050    -0.1740 C.2   1 <1>  -0.1500 
 20 N       -3.3110    -6.1600     0.6940 N.2   1 <1>  -0.4100 
 21 C       -2.2780    -5.6440     0.1320 C.2   1 <1>   0.1080 
 22 C       -0.9990    -6.3990    -0.1520 C.3   1 <1>  -0.0590 
 23 H       -4.4040     1.6620     0.0900 H     1 <1>   0.0800 
 24 H       -3.6830     1.0850    -1.4050 H     1 <1>   0.0800 
 25 H       -1.9460    -1.5890     0.5320 H     1 <1>   0.0800 
 26 H       -3.1820    -1.1480     1.7020 H     1 <1>   0.0800 
 27 H        0.3590     3.1110     1.2950 H     1 <1>   0.1500 
 28 H       -5.4760    -0.4530    -1.3470 H     1 <1>   0.0800 
 29 H       -3.5310    -1.8060    -1.2100 H     1 <1>   0.0800 
 30 H       -2.2250     5.2660    -1.1410 H     1 <1>   0.1500 
 31 H       -5.5210    -3.0900    -0.3460 H     1 <1>   0.0800 
 32 H       -5.0150    -2.7110     1.2710 H     1 <1>   0.0800 
 33 H        1.0090     5.5360     0.9090 H     1 <1>   0.0800 
 34 H       -0.4100     6.5520     0.7220 H     1 <1>   0.0800 
 35 H        0.5240     6.0750    -0.6890 H     1 <1>   0.0800 
 36 H       -7.5080     0.4090     1.3710 H     1 <1>   0.0800 
 37 H       -7.4880     0.0960    -0.3600 H     1 <1>   0.0800 
 38 H       -6.6070     1.4780     0.3080 H     1 <1>   0.0800 
 39 H       -1.8010    -3.6430    -0.6500 H     1 <1>   0.1500 
 40 H       -0.7990    -6.3940    -1.2070 H     1 <1>   0.0800 
 41 H       -1.0920    -7.4170     0.1810 H     1 <1>   0.0800 
 42 H       -0.1800    -5.9370     0.3680 H     1 <1>   0.0800 
@<TRIPOS>BOND
  1   1   2  2   
  2   2   3  am  
  3   2   4  1   
  4   3   5  1   
  5   3   6  1   
  6   4   7  1   
  7   4   8  2   
  8   5   9  1   
  9   5  23  1   
 10   5  24  1   
 11   6  10  1   
 12   6  25  1   
 13   6  26  1   
 14   7  11  2   
 15   8  12  1   
 16   8  27  1   
 17   9  10  1   
 18   9  13  1   
 19   9  28  1   
 20  10  14  1   
 21  10  29  1   
 22  11  12  1   
 23  11  30  1   
 24  12  15  1   
 25  13  16  1   
 26  14  17  1   
 27  14  31  1   
 28  14  32  1   
 29  15  33  1   
 30  15  34  1   
 31  15  35  1   
 32  16  36  1   
 33  16  37  1   
 34  16  38  1   
 35  17  18  1   
 36  17  19  2   
 37  18  20  1   
 38  19  21  1   
 39  19  39  1   
 40  20  21  2   
 41  21  22  1   
 42  22  40  1   
 43  22  41  1   
 44  22  42  1   
@<TRIPOS>SUBSTRUCTURE
  1 ****   6 GROUP 4 **** **** 0

# MOE 2024.06 (io_trps.svl 2023.06)
