@<TRIPOS>MOLECULE
NONAME
52 55 1 0 0 
SMALL
USER_CHARGES


@<TRIPOS>ATOM
  1 O        0.6150     0.1840    -0.2290 O.3   1 <1>  -0.5600 
  2 C        1.9370    -0.2820    -0.2690 C.3   1 <1>   0.3440 
  3 C        0.4970     1.5630    -0.4310 C.3   1 <1>   0.2950 
  4 C        1.9550    -1.7920    -0.0490 C.ar  1 <1>  -0.1440 
  5 C        2.7810     0.4320     0.8080 C.3   1 <1>   0.1100 
  6 C       -0.9930     1.9110    -0.3650 C.3   1 <1>  -0.1950 
  7 C        1.3090     2.3350     0.6310 C.3   1 <1>   0.1100 
  8 C        2.8810    -2.5750    -0.7240 C.ar  1 <1>  -0.1500 
  9 C        1.0700    -2.4020     0.8290 C.ar  1 <1>  -0.1500 
 10 N        2.7270     1.9030     0.6630 N.3   1 <1>  -0.8100 
 11 C       -1.8930     1.6980    -1.5410 C.3   1 <1>  -0.2000 
 12 C       -1.5450     3.0920    -1.1000 C.3   1 <1>  -0.2000 
 13 C        2.9230    -3.9440    -0.5230 C.ar  1 <1>  -0.1500 
 14 C        1.1100    -3.7710     1.0310 C.ar  1 <1>  -0.1500 
 15 C        3.4550     2.5720     1.7590 C.3   1 <1>   0.2900 
 16 C        2.0380    -4.5430     0.3550 C.ar  1 <1>  -0.1500 
 17 C        3.5180     4.0820     1.5600 C.2   1 <1>   0.0070 
 18 N        3.0240     4.9270     2.4100 N.2   1 <1>  -0.5650 
 19 N        4.0960     4.6720     0.4820 N.pl3 1 <1>   0.0480 
 20 C        3.2870     6.1270     1.8650 C.2   1 <1>   0.0770 
 21 C        3.9400     5.9920     0.6920 C.2   1 <1>  -0.3020 
 22 C        4.7780     4.0540    -0.6740 C.3   1 <1>   0.0960 
 23 C        6.2450     3.8090    -0.3350 C.3   1 <1>   0.1200 
 24 O        6.8540     3.2260    -1.4420 O.3   1 <1>  -0.5600 
 25 C        8.2120     2.9750    -1.2730 C.3   1 <1>   0.0400 
 26 H        2.3350    -0.0590    -1.2440 H     1 <1>   0.0800 
 27 H        0.8780     1.7910    -1.4120 H     1 <1>   0.0800 
 28 H        3.8010     0.1000     0.7240 H     1 <1>   0.0800 
 29 H        2.4140     0.1410     1.7780 H     1 <1>   0.0800 
 30 H       -1.4060     1.7090     0.6080 H     1 <1>   0.1000 
 31 H        0.8550     2.1830     1.5950 H     1 <1>   0.0800 
 32 H        1.2560     3.3870     0.4060 H     1 <1>   0.0800 
 33 H        3.5750    -2.1230    -1.4120 H     1 <1>   0.1500 
 34 H        0.3420    -1.8080     1.3540 H     1 <1>   0.1500 
 35 H       -1.4650     1.3100    -2.4500 H     1 <1>   0.1000 
 36 H       -2.8850     1.3210    -1.3610 H     1 <1>   0.1000 
 37 H       -2.3050     3.6880    -0.6240 H     1 <1>   0.1000 
 38 H       -0.8930     3.6790    -1.7240 H     1 <1>   0.1000 
 39 H        3.6440    -4.5430    -1.0520 H     1 <1>   0.1500 
 40 H        0.4180    -4.2330     1.7120 H     1 <1>   0.1500 
 41 H        2.9730     2.3630     2.6990 H     1 <1>   0.0800 
 42 H        4.4590     2.1900     1.8080 H     1 <1>   0.0800 
 43 H        2.0700    -5.6070     0.5120 H     1 <1>   0.1500 
 44 H        2.9880     7.0400     2.3540 H     1 <1>   0.1500 
 45 H        4.2910     6.7480     0.0130 H     1 <1>   0.1500 
 46 H        4.2970     3.1270    -0.9210 H     1 <1>   0.0800 
 47 H        4.7060     4.7200    -1.5140 H     1 <1>   0.0800 
 48 H        6.3330     3.1340     0.4990 H     1 <1>   0.0800 
 49 H        6.7410     4.7400    -0.1190 H     1 <1>   0.0800 
 50 H        8.5840     2.5250    -2.1760 H     1 <1>   0.0800 
 51 H        8.3500     2.2970    -0.4480 H     1 <1>   0.0800 
 52 H        8.7270     3.9030    -1.0920 H     1 <1>   0.0800 
@<TRIPOS>BOND
  1   1   2  1   
  2   1   3  1   
  3   2   4  1   
  4   2   5  1   
  5   2  26  1   
  6   3   6  1   
  7   3   7  1   
  8   3  27  1   
  9   4   8  ar  
 10   4   9  ar  
 11   5  10  1   
 12   5  28  1   
 13   5  29  1   
 14   6  11  1   
 15   6  12  1   
 16   6  30  1   
 17   7  10  1   
 18   7  31  1   
 19   7  32  1   
 20   8  13  ar  
 21   8  33  1   
 22   9  14  ar  
 23   9  34  1   
 24  10  15  1   
 25  11  12  1   
 26  11  35  1   
 27  11  36  1   
 28  12  37  1   
 29  12  38  1   
 30  13  16  ar  
 31  13  39  1   
 32  14  16  ar  
 33  14  40  1   
 34  15  17  1   
 35  15  41  1   
 36  15  42  1   
 37  16  43  1   
 38  17  18  2   
 39  17  19  1   
 40  18  20  1   
 41  19  21  1   
 42  19  22  1   
 43  20  21  2   
 44  20  44  1   
 45  21  45  1   
 46  22  23  1   
 47  22  46  1   
 48  22  47  1   
 49  23  24  1   
 50  23  48  1   
 51  23  49  1   
 52  24  25  1   
 53  25  50  1   
 54  25  51  1   
 55  25  52  1   
@<TRIPOS>SUBSTRUCTURE
  1 ****  10 GROUP 4 **** **** 0

# MOE 2024.06 (io_trps.svl 2023.06)
