@<TRIPOS>MOLECULE
NONAME
46 48 1 0 0 
SMALL
USER_CHARGES


@<TRIPOS>ATOM
  1 O        1.7960    -0.8750     2.8670 O.2   1 <1>  -0.5700 
  2 C        2.0850    -1.3640     1.8000 C.2   1 <1>   0.5690 
  3 N        2.5950    -0.6030     0.7670 N.am  1 <1>  -0.4770 
  4 C        1.8850    -2.8810     1.6170 C.3   1 <1>   0.1710 
  5 C        2.0790     0.6560     0.3600 C.ar  1 <1>   0.1170 
  6 C        3.7780    -1.0940     0.0090 C.3   1 <1>   0.1400 
  7 N        0.5900    -3.2780     0.9910 N.3   1 <1>  -0.8100 
  8 C        2.7800     1.4470    -0.5640 C.ar  1 <1>   0.0830 
  9 C        0.8500     1.1310     0.8140 C.ar  1 <1>  -0.1500 
 10 C        4.7010     0.0760    -0.3470 C.3   1 <1>   0.1200 
 11 C        0.2900    -4.7200     1.1700 C.3   1 <1>   0.2900 
 12 C        0.3840    -2.7780    -0.3800 C.3   1 <1>   0.1100 
 13 O        3.9850     1.0610    -1.0620 O.3   1 <1>  -0.3630 
 14 C        2.2630     2.6490    -1.0130 C.ar  1 <1>  -0.1500 
 15 C        0.3360     2.3360     0.3670 C.ar  1 <1>  -0.1500 
 16 C       -1.1970    -5.0560     1.0620 C.2   1 <1>   0.0060 
 17 C       -0.9660    -2.0630    -0.4840 C.3   1 <1>   0.1200 
 18 C        1.0400     3.0970    -0.5480 C.ar  1 <1>  -0.1500 
 19 N       -1.9830    -5.0510     2.0940 N.2   1 <1>  -0.5650 
 20 N       -1.8290    -5.4140    -0.0890 N.pl3 1 <1>   0.0480 
 21 O       -1.1170    -1.5850    -1.7790 O.3   1 <1>  -0.6800 
 22 C       -3.1810    -5.4010     1.6000 C.2   1 <1>   0.0770 
 23 C       -3.1060    -5.6270     0.2720 C.2   1 <1>  -0.3020 
 24 C       -1.3180    -5.5660    -1.4640 C.3   1 <1>   0.0160 
 25 H        1.9310    -3.3100     2.6020 H     1 <1>   0.0800 
 26 H        2.6950    -3.2960     1.0480 H     1 <1>   0.0800 
 27 H        3.4510    -1.5780    -0.8940 H     1 <1>   0.0800 
 28 H        4.3290    -1.8000     0.6030 H     1 <1>   0.0800 
 29 H        0.2780     0.5610     1.5240 H     1 <1>   0.1500 
 30 H        5.5180    -0.2520    -0.9650 H     1 <1>   0.0800 
 31 H        5.0930     0.5310     0.5460 H     1 <1>   0.0800 
 32 H        0.5940    -5.0140     2.1600 H     1 <1>   0.0800 
 33 H        0.8590    -5.3060     0.4720 H     1 <1>   0.0800 
 34 H        0.4280    -3.5870    -1.0840 H     1 <1>   0.0800 
 35 H        1.1480    -2.0770    -0.6480 H     1 <1>   0.0800 
 36 H        2.8220     3.2300    -1.7240 H     1 <1>   0.1500 
 37 H       -0.6150     2.6810     0.7360 H     1 <1>   0.1500 
 38 H       -1.0130    -1.2320     0.1970 H     1 <1>   0.0800 
 39 H       -1.7790    -2.7360    -0.2790 H     1 <1>   0.0800 
 40 H        0.6400     4.0340    -0.8960 H     1 <1>   0.1500 
 41 H       -0.6010    -0.7620    -1.8940 H     1 <1>   0.4000 
 42 H       -4.0470    -5.4720     2.2360 H     1 <1>   0.1500 
 43 H       -3.8780    -5.9190    -0.4150 H     1 <1>   0.1500 
 44 H       -0.2740    -5.8130    -1.4430 H     1 <1>   0.0800 
 45 H       -1.4660    -4.6450    -1.9990 H     1 <1>   0.0800 
 46 H       -1.8570    -6.3530    -1.9580 H     1 <1>   0.0800 
@<TRIPOS>BOND
  1   1   2  2   
  2   2   3  am  
  3   2   4  1   
  4   3   5  1   
  5   3   6  1   
  6   4   7  1   
  7   4  25  1   
  8   4  26  1   
  9   5   8  ar  
 10   5   9  ar  
 11   6  10  1   
 12   6  27  1   
 13   6  28  1   
 14   7  11  1   
 15   7  12  1   
 16   8  13  1   
 17   8  14  ar  
 18   9  15  ar  
 19   9  29  1   
 20  10  13  1   
 21  10  30  1   
 22  10  31  1   
 23  11  16  1   
 24  11  32  1   
 25  11  33  1   
 26  12  17  1   
 27  12  34  1   
 28  12  35  1   
 29  14  18  ar  
 30  14  36  1   
 31  15  18  ar  
 32  15  37  1   
 33  16  19  2   
 34  16  20  1   
 35  17  21  1   
 36  17  38  1   
 37  17  39  1   
 38  18  40  1   
 39  19  22  1   
 40  20  23  1   
 41  20  24  1   
 42  21  41  1   
 43  22  23  2   
 44  22  42  1   
 45  23  43  1   
 46  24  44  1   
 47  24  45  1   
 48  24  46  1   
@<TRIPOS>SUBSTRUCTURE
  1 ****  12 GROUP 4 **** **** 0

# MOE 2024.06 (io_trps.svl 2023.06)
