@<TRIPOS>MOLECULE
NONAME
58 61 1 0 0 
SMALL
USER_CHARGES


@<TRIPOS>ATOM
  1 O        0.2520     1.3440     0.2420 O.2   1 <1>  -0.5700 
  2 C       -0.4870     2.1870     0.7130 C.2   1 <1>   0.5440 
  3 N       -1.4790     1.7950     1.5850 N.am  1 <1>  -0.6600 
  4 C       -0.2960     3.5730     0.3290 C.ar  1 <1>   0.0860 
  5 C       -1.4870     0.4360     2.2090 C.3   1 <1>   0.1400 
  6 C       -2.7680     2.5280     1.7690 C.3   1 <1>   0.1400 
  7 C       -0.0240     3.9390    -0.9750 C.ar  1 <1>  -0.1500 
  8 C       -0.3470     4.6260     1.2320 C.ar  1 <1>  -0.1500 
  9 C       -2.7530    -0.3380     1.8130 C.3   1 <1>   0.1200 
 10 C       -3.9640     1.6280     1.4090 C.3   1 <1>   0.1200 
 11 C        0.1650     5.2680    -1.3280 C.ar  1 <1>   0.4100 
 12 C       -0.1410     5.9190     0.7990 C.ar  1 <1>   0.1600 
 13 O       -3.8990     0.4140     2.1020 O.3   1 <1>  -0.5600 
 14 N        0.1190     6.2630    -0.4530 N.ar  1 <1>  -0.6200 
 15 N        0.4200     5.5680    -2.6520 N.pl3 1 <1>  -0.8690 
 16 C        0.2980     6.8660    -3.3810 C.3   1 <1>   0.2890 
 17 C        1.4500     7.8340    -3.0110 C.3   1 <1>   0.3430 
 18 C       -1.0970     7.4980    -3.1730 C.3   1 <1>  -0.1600 
 19 N        1.1320     8.5680    -1.7530 N.4   1 <1>  -0.9590 
 20 C       -1.0200     9.0260    -2.9790 C.3   1 <1>  -0.1600 
 21 C       -0.0710     9.4500    -1.8430 C.3   1 <1>   0.3430 
 22 C        2.3070     9.2130    -1.1230 C.3   1 <1>   0.4860 
 23 C        1.9560     9.5850     0.3040 C.ar  1 <1>  -0.1440 
 24 C        1.5430    10.8720     0.6120 C.ar  1 <1>  -0.1500 
 25 C        2.0470     8.6380     1.3150 C.ar  1 <1>  -0.1500 
 26 C        1.2130    11.1990     1.9150 C.ar  1 <1>   0.0820 
 27 C        1.7210     8.9720     2.6200 C.ar  1 <1>  -0.1500 
 28 O        0.8100    12.4480     2.1840 O.3   1 <1>  -0.5330 
 29 C        1.3000    10.2550     2.9240 C.ar  1 <1>  -0.1500 
 30 H       -1.4580     0.5390     3.2800 H     1 <1>   0.0800 
 31 H       -0.6190    -0.1280     1.9130 H     1 <1>   0.0800 
 32 H       -2.7990     3.4060     1.1500 H     1 <1>   0.0800 
 33 H       -2.8570     2.8360     2.7970 H     1 <1>   0.0800 
 34 H        0.0450     3.1740    -1.7250 H     1 <1>   0.1500 
 35 H       -0.5410     4.4260     2.2710 H     1 <1>   0.1500 
 36 H       -2.8150    -1.2580     2.3660 H     1 <1>   0.0800 
 37 H       -2.7420    -0.5660     0.7610 H     1 <1>   0.0800 
 38 H       -3.9770     1.4200     0.3530 H     1 <1>   0.0800 
 39 H       -4.8870     2.1090     1.6790 H     1 <1>   0.0800 
 40 H       -0.1910     6.7150     1.5260 H     1 <1>   0.1500 
 41 H        0.3320     4.7580    -3.2750 H     1 <1>   0.4000 
 42 H        0.4100     6.6500    -4.4300 H     1 <1>   0.0800 
 43 H        1.5860     8.5440    -3.8090 H     1 <1>   0.0800 
 44 H        2.3560     7.2620    -2.8990 H     1 <1>   0.0800 
 45 H       -1.5820     7.0730    -2.3130 H     1 <1>   0.0800 
 46 H       -1.7140     7.2780    -4.0270 H     1 <1>   0.0800 
 47 H        0.8460     7.8010    -1.1070 H     1 <1>   0.4500 
 48 H       -2.0020     9.4130    -2.7710 H     1 <1>   0.0800 
 49 H       -0.6920     9.4880    -3.8940 H     1 <1>   0.0800 
 50 H        0.2290    10.4730    -2.0020 H     1 <1>   0.0800 
 51 H       -0.5990     9.4070    -0.9030 H     1 <1>   0.0800 
 52 H        2.5920    10.0930    -1.6750 H     1 <1>   0.0800 
 53 H        3.1400     8.5290    -1.1120 H     1 <1>   0.0800 
 54 H        1.4720    11.6390    -0.1390 H     1 <1>   0.1500 
 55 H        2.3740     7.6340     1.0980 H     1 <1>   0.1500 
 56 H        1.7990     8.2350     3.4020 H     1 <1>   0.1500 
 57 H        0.6380    12.6070     3.1310 H     1 <1>   0.4500 
 58 H        1.0480    10.5120     3.9370 H     1 <1>   0.1500 
@<TRIPOS>BOND
  1   1   2  2   
  2   2   3  am  
  3   2   4  1   
  4   3   5  1   
  5   3   6  1   
  6   4   7  ar  
  7   4   8  ar  
  8   5   9  1   
  9   5  30  1   
 10   5  31  1   
 11   6  10  1   
 12   6  32  1   
 13   6  33  1   
 14   7  11  ar  
 15   7  34  1   
 16   8  12  ar  
 17   8  35  1   
 18   9  13  1   
 19   9  36  1   
 20   9  37  1   
 21  10  13  1   
 22  10  38  1   
 23  10  39  1   
 24  11  14  ar  
 25  11  15  1   
 26  12  14  ar  
 27  12  40  1   
 28  15  16  1   
 29  15  41  1   
 30  16  17  1   
 31  16  18  1   
 32  16  42  1   
 33  17  19  1   
 34  17  43  1   
 35  17  44  1   
 36  18  20  1   
 37  18  45  1   
 38  18  46  1   
 39  19  21  1   
 40  19  22  1   
 41  19  47  1   
 42  20  21  1   
 43  20  48  1   
 44  20  49  1   
 45  21  50  1   
 46  21  51  1   
 47  22  23  1   
 48  22  52  1   
 49  22  53  1   
 50  23  24  ar  
 51  23  25  ar  
 52  24  26  ar  
 53  24  54  1   
 54  25  27  ar  
 55  25  55  1   
 56  26  28  1   
 57  26  29  ar  
 58  27  29  ar  
 59  27  56  1   
 60  28  57  1   
 61  29  58  1   
@<TRIPOS>SUBSTRUCTURE
  1 ****  14 GROUP 4 **** **** 0

# MOE 2024.06 (io_trps.svl 2023.06)
