@<TRIPOS>MOLECULE
NONAME
40 41 1 0 0 
SMALL
USER_CHARGES


@<TRIPOS>ATOM
  1 S       -0.6370    -0.8670    -0.6370 S.o2  1 <1>   1.3330 
  2 O       -1.4850    -0.4980    -1.7450 O.2   1 <1>  -0.6500 
  3 O       -0.5650    -0.0550     0.5510 O.2   1 <1>  -0.6500 
  4 N       -1.1070    -2.3740    -0.0830 N.am  1 <1>  -0.9140 
  5 C        1.0060    -1.1780    -1.2440 C.3   1 <1>  -0.1350 
  6 C       -2.5190    -2.6660    -0.2230 C.3   1 <1>   0.2760 
  7 C       -3.3520    -1.8190     0.7490 C.3   1 <1>  -0.1600 
  8 C       -2.7120    -4.1560     0.0600 C.3   1 <1>  -0.1600 
  9 C       -4.8270    -2.2220     0.6990 C.3   1 <1>   0.1400 
 10 C       -4.1920    -4.5350     0.0090 C.3   1 <1>   0.1400 
 11 N       -4.9520    -3.6830     0.9650 N.am  1 <1>  -0.6600 
 12 C       -5.7250    -4.1530     2.0040 C.2   1 <1>   0.5690 
 13 O       -6.3180    -3.4000     2.7420 O.2   1 <1>  -0.5700 
 14 C       -5.8550    -5.6410     2.3010 C.3   1 <1>   0.1310 
 15 S       -6.9940    -6.4530     1.0740 S.3   1 <1>  -0.2860 
 16 C       -6.0350    -7.8100     0.3880 C.2   1 <1>   0.2420 
 17 N       -4.8060    -8.0580     0.6790 N.2   1 <1>  -0.3380 
 18 N       -6.5510    -8.6580    -0.4990 N.pl3 1 <1>   0.0480 
 19 N       -4.4670    -9.1260    -0.0510 N.2   1 <1>  -0.3380 
 20 C       -5.5100    -9.4630    -0.7350 C.2   1 <1>   0.0360 
 21 C       -7.9110    -8.6960    -1.0670 C.3   1 <1>   0.0160 
 22 H       -0.9190    -2.3380     0.9170 H     1 <1>   0.4200 
 23 H        1.4380    -0.2690    -1.6150 H     1 <1>   0.0800 
 24 H        0.9730    -1.8940    -2.0420 H     1 <1>   0.0800 
 25 H        1.6260    -1.5610    -0.4590 H     1 <1>   0.0800 
 26 H       -2.8360    -2.4720    -1.2360 H     1 <1>   0.0800 
 27 H       -3.2830    -0.7780     0.4900 H     1 <1>   0.0800 
 28 H       -2.9970    -1.9430     1.7570 H     1 <1>   0.0800 
 29 H       -2.3250    -4.4060     1.0320 H     1 <1>   0.0800 
 30 H       -2.1800    -4.7310    -0.6750 H     1 <1>   0.0800 
 31 H       -5.2360    -2.0050    -0.2730 H     1 <1>   0.0800 
 32 H       -5.3790    -1.6500     1.4250 H     1 <1>   0.0800 
 33 H       -4.2930    -5.5770     0.2420 H     1 <1>   0.0800 
 34 H       -4.5780    -4.3800    -0.9840 H     1 <1>   0.0800 
 35 H       -6.2940    -5.7850     3.2700 H     1 <1>   0.0800 
 36 H       -4.8980    -6.1230     2.2730 H     1 <1>   0.0800 
 37 H       -5.5510   -10.2920    -1.4190 H     1 <1>   0.1500 
 38 H       -8.1080    -7.7710    -1.5790 H     1 <1>   0.0800 
 39 H       -8.6240    -8.8230    -0.2730 H     1 <1>   0.0800 
 40 H       -7.9950    -9.5140    -1.7590 H     1 <1>   0.0800 
@<TRIPOS>BOND
  1   1   2  2   
  2   1   3  2   
  3   1   4  am  
  4   1   5  1   
  5   4   6  1   
  6   4  22  1   
  7   5  23  1   
  8   5  24  1   
  9   5  25  1   
 10   6   7  1   
 11   6   8  1   
 12   6  26  1   
 13   7   9  1   
 14   7  27  1   
 15   7  28  1   
 16   8  10  1   
 17   8  29  1   
 18   8  30  1   
 19   9  11  1   
 20   9  31  1   
 21   9  32  1   
 22  10  11  1   
 23  10  33  1   
 24  10  34  1   
 25  11  12  am  
 26  12  13  2   
 27  12  14  1   
 28  14  15  1   
 29  14  35  1   
 30  14  36  1   
 31  15  16  1   
 32  16  17  2   
 33  16  18  1   
 34  17  19  1   
 35  18  20  1   
 36  18  21  1   
 37  19  20  2   
 38  20  37  1   
 39  21  38  1   
 40  21  39  1   
 41  21  40  1   
@<TRIPOS>SUBSTRUCTURE
  1 ****  10 GROUP 4 **** **** 0

# MOE 2024.06 (io_trps.svl 2023.06)
