@<TRIPOS>MOLECULE
NONAME
41 44 1 0 0 
SMALL
USER_CHARGES


@<TRIPOS>ATOM
  1 S       -0.2250    -0.4890     0.8220 S.3   1 <1>  -0.0800 
  2 C       -1.4530     0.4410    -0.0400 C.ar  1 <1>   0.0400 
  3 C        0.4940     0.9740     1.4690 C.2   1 <1>  -0.1100 
  4 C       -1.2750     1.7980     0.1890 C.ar  1 <1>   0.0000 
  5 C       -2.4630    -0.0770    -0.8290 C.ar  1 <1>  -0.1500 
  6 C       -0.1420     2.0900     1.0430 C.2   1 <1>  -0.0860 
  7 C       -2.1850     2.6720    -0.4050 C.ar  1 <1>  -0.1500 
  8 C       -3.3460     0.8110    -1.4150 C.ar  1 <1>  -0.1500 
  9 C        0.2380     3.4400     1.3930 C.2   1 <1>   0.7160 
 10 C       -3.2060     2.1790    -1.2000 C.ar  1 <1>  -0.1500 
 11 O        0.3240     3.7410     2.5680 O.2   1 <1>  -0.5700 
 12 N        0.5560     4.3880     0.4390 N.am  1 <1>  -0.6600 
 13 C        0.7200     5.8300     0.8120 C.3   1 <1>   0.1400 
 14 C        0.8900     4.0430    -0.9770 C.3   1 <1>   0.1400 
 15 C        2.1730     6.3400     0.7350 C.3   1 <1>   0.2200 
 16 C        2.3710     4.2650    -1.3170 C.3   1 <1>  -0.0190 
 17 N        2.5310     6.6850    -0.6760 N.am  1 <1>  -0.6600 
 18 C        3.1930     5.3800     1.4030 C.3   1 <1>   0.1200 
 19 C        2.6350     5.7240    -1.6470 C.2   1 <1>   0.5690 
 20 C        3.3480     3.6790    -0.2760 C.3   1 <1>   0.1200 
 21 C        2.8830     8.1090    -0.9350 C.3   1 <1>   0.0600 
 22 O        3.9800     4.6550     0.4960 O.3   1 <1>  -0.5600 
 23 O        2.8900     5.9980    -2.7970 O.2   1 <1>  -0.5700 
 24 H        1.3430     0.8570     2.1210 H     1 <1>   0.1500 
 25 H       -2.5530    -1.1390    -0.9740 H     1 <1>   0.1500 
 26 H       -2.0970     3.7310    -0.2410 H     1 <1>   0.1500 
 27 H       -4.1470     0.4450    -2.0360 H     1 <1>   0.1500 
 28 H       -3.9040     2.8590    -1.6570 H     1 <1>   0.1500 
 29 H        0.1000     6.4350     0.1730 H     1 <1>   0.0800 
 30 H        0.3670     5.9820     1.8170 H     1 <1>   0.0800 
 31 H        0.6600     3.0100    -1.1690 H     1 <1>   0.0800 
 32 H        0.2770     4.6320    -1.6390 H     1 <1>   0.0800 
 33 H        2.1890     7.2500     1.3080 H     1 <1>   0.0800 
 34 H        2.5380     3.7170    -2.2260 H     1 <1>   0.0800 
 35 H        2.7100     4.6930     2.0750 H     1 <1>   0.0800 
 36 H        3.8760     5.9700     1.9880 H     1 <1>   0.0800 
 37 H        4.1340     3.1590    -0.7950 H     1 <1>   0.0800 
 38 H        2.8650     2.9760     0.3810 H     1 <1>   0.0800 
 39 H        2.0470     8.7420    -0.6960 H     1 <1>   0.0800 
 40 H        3.1400     8.2570    -1.9700 H     1 <1>   0.0800 
 41 H        3.7290     8.3870    -0.3310 H     1 <1>   0.0800 
@<TRIPOS>BOND
  1   1   2  1   
  2   1   3  1   
  3   2   4  ar  
  4   2   5  ar  
  5   3   6  2   
  6   3  24  1   
  7   4   6  1   
  8   4   7  ar  
  9   5   8  ar  
 10   5  25  1   
 11   6   9  1   
 12   7  10  ar  
 13   7  26  1   
 14   8  10  ar  
 15   8  27  1   
 16   9  11  2   
 17   9  12  am  
 18  10  28  1   
 19  12  13  1   
 20  12  14  1   
 21  13  15  1   
 22  13  29  1   
 23  13  30  1   
 24  14  16  1   
 25  14  31  1   
 26  14  32  1   
 27  15  17  1   
 28  15  18  1   
 29  15  33  1   
 30  16  19  1   
 31  16  20  1   
 32  16  34  1   
 33  17  19  am  
 34  17  21  1   
 35  18  22  1   
 36  18  35  1   
 37  18  36  1   
 38  19  23  2   
 39  20  22  1   
 40  20  37  1   
 41  20  38  1   
 42  21  39  1   
 43  21  40  1   
 44  21  41  1   
@<TRIPOS>SUBSTRUCTURE
  1 ****  12 GROUP 4 **** **** 0

# MOE 2024.06 (io_trps.svl 2023.06)
