@<TRIPOS>MOLECULE
NONAME
46 47 1 0 0 
SMALL
USER_CHARGES


@<TRIPOS>ATOM
  1 O        1.0810     1.9310    -1.6820 O.co2 1 <1>  -0.9000 
  2 C        0.1060     1.4980    -1.0630 C.2   1 <1>   0.9060 
  3 O       -0.4480     0.4200    -1.3490 O.co2 1 <1>  -0.9000 
  4 C       -0.4810     2.2330     0.1730 C.3   1 <1>   0.4600 
  5 N       -1.6780     1.4430     0.6880 N.4   1 <1>  -0.9590 
  6 C       -0.8710     3.7070    -0.0190 C.ar  1 <1>  -0.1430 
  7 C       -2.9690     1.9160     0.1070 C.3   1 <1>   0.3430 
  8 C       -1.6660     1.2450     2.1590 C.3   1 <1>   0.2630 
  9 C       -0.9910     4.5290     1.0930 C.ar  1 <1>  -0.1500 
 10 C       -1.1250     4.2370    -1.2780 C.ar  1 <1>  -0.1500 
 11 C       -4.0980     0.9090     0.3460 C.3   1 <1>   0.0000 
 12 C       -1.3840     5.8500     0.9650 C.ar  1 <1>  -0.1430 
 13 C       -1.5160     5.5560    -1.4300 C.ar  1 <1>  -0.1430 
 14 C       -3.9150    -0.4620    -0.3560 C.3   1 <1>   0.0000 
 15 C       -5.3320     1.1270    -0.5680 C.3   1 <1>   0.0000 
 16 C       -1.6650     6.3560    -0.3000 C.ar  1 <1>   0.0830 
 17 C       -1.4890     6.7320     2.2020 C.3   1 <1>  -0.0970 
 18 C       -1.7520     6.1000    -2.8320 C.3   1 <1>  -0.0970 
 19 C       -5.4340    -0.4170    -0.6640 C.3   1 <1>   0.0000 
 20 O       -2.0640     7.6410    -0.4300 O.3   1 <1>  -0.3630 
 21 C       -3.4540     7.8650    -0.4490 C.3   1 <1>   0.0400 
 22 H        0.3010     2.1980     0.9080 H     1 <1>   0.0800 
 23 H       -1.4840     0.5400     0.1850 H     1 <1>   0.4500 
 24 H       -2.8430     2.0450    -0.9560 H     1 <1>   0.0800 
 25 H       -3.2360     2.8710     0.5290 H     1 <1>   0.0800 
 26 H       -1.8480     2.1810     2.6600 H     1 <1>   0.0800 
 27 H       -0.7100     0.8590     2.4720 H     1 <1>   0.0800 
 28 H       -2.4310     0.5420     2.4450 H     1 <1>   0.0800 
 29 H       -0.7720     4.1410     2.0710 H     1 <1>   0.1500 
 30 H       -1.0060     3.6230    -2.1570 H     1 <1>   0.1500 
 31 H       -4.3880     0.8150     1.3790 H     1 <1>   0.0000 
 32 H       -3.6270    -1.2570     0.3090 H     1 <1>   0.0000 
 33 H       -3.3130    -0.4060    -1.2480 H     1 <1>   0.0000 
 34 H       -5.0860     1.5830    -1.5130 H     1 <1>   0.0000 
 35 H       -6.1660     1.5880    -0.0710 H     1 <1>   0.0000 
 36 H       -0.9930     6.2820     3.0420 H     1 <1>   0.0800 
 37 H       -2.5210     6.8920     2.4530 H     1 <1>   0.0800 
 38 H       -1.0270     7.6850     2.0120 H     1 <1>   0.0800 
 39 H       -1.2200     5.5150    -3.5600 H     1 <1>   0.0800 
 40 H       -1.4010     7.1140    -2.9010 H     1 <1>   0.0800 
 41 H       -2.8000     6.0750    -3.0660 H     1 <1>   0.0800 
 42 H       -6.0300    -0.8440     0.1250 H     1 <1>   0.0000 
 43 H       -5.6910    -0.7770    -1.6440 H     1 <1>   0.0000 
 44 H       -3.6230     8.9220    -0.5480 H     1 <1>   0.0800 
 45 H       -3.8780     7.5060     0.4720 H     1 <1>   0.0800 
 46 H       -3.8820     7.3430    -1.2860 H     1 <1>   0.0800 
@<TRIPOS>BOND
  1   1   2  ar  
  2   2   3  ar  
  3   2   4  1   
  4   4   5  1   
  5   4   6  1   
  6   4  22  1   
  7   5   7  1   
  8   5   8  1   
  9   5  23  1   
 10   6   9  ar  
 11   6  10  ar  
 12   7  11  1   
 13   7  24  1   
 14   7  25  1   
 15   8  26  1   
 16   8  27  1   
 17   8  28  1   
 18   9  12  ar  
 19   9  29  1   
 20  10  13  ar  
 21  10  30  1   
 22  11  14  1   
 23  11  15  1   
 24  11  31  1   
 25  12  16  ar  
 26  12  17  1   
 27  13  16  ar  
 28  13  18  1   
 29  14  19  1   
 30  14  32  1   
 31  14  33  1   
 32  15  19  1   
 33  15  34  1   
 34  15  35  1   
 35  16  20  1   
 36  17  36  1   
 37  17  37  1   
 38  17  38  1   
 39  18  39  1   
 40  18  40  1   
 41  18  41  1   
 42  19  42  1   
 43  19  43  1   
 44  20  21  1   
 45  21  44  1   
 46  21  45  1   
 47  21  46  1   
@<TRIPOS>SUBSTRUCTURE
  1 ****   6 GROUP 4 **** **** 0

# MOE 2024.06 (io_trps.svl 2023.06)
