@<TRIPOS>MOLECULE
NONAME
45 47 1 0 0 
SMALL
USER_CHARGES


@<TRIPOS>ATOM
  1 CL      -3.0010     0.2080     2.2170 Cl    1 <1>  -0.1770 
  2 C       -2.8430     1.0490     0.6830 C.ar  1 <1>   0.1770 
  3 C       -2.2040     2.2820     0.6390 C.ar  1 <1>   0.0830 
  4 C       -3.3710     0.4740    -0.4650 C.ar  1 <1>  -0.1440 
  5 O       -1.7100     2.8390     1.7600 O.3   1 <1>  -0.5320 
  6 C       -2.0770     2.9450    -0.5710 C.ar  1 <1>  -0.1500 
  7 C       -3.2370     1.1480    -1.6720 C.ar  1 <1>  -0.1500 
  8 C       -4.0820    -0.8640    -0.4010 C.3   1 <1>   0.4860 
  9 C       -2.5930     2.3740    -1.7220 C.ar  1 <1>  -0.1500 
 10 N       -5.2970    -0.7300     0.4460 N.4   1 <1>  -0.9590 
 11 C       -5.9020    -2.0710     0.7580 C.3   1 <1>   0.3430 
 12 C       -6.2960     0.2080    -0.1480 C.3   1 <1>   0.3430 
 13 C       -6.8970    -2.0370     1.9380 C.3   1 <1>   0.1400 
 14 C       -6.8910     1.1220     0.9290 C.3   1 <1>  -0.1600 
 15 N       -7.9160    -0.9560     1.7850 N.am  1 <1>  -0.6600 
 16 C       -7.4430     0.4010     2.1650 C.3   1 <1>   0.1400 
 17 C       -9.1950    -1.1580     1.2860 C.2   1 <1>   0.7160 
 18 O       -9.9990    -0.2530     1.4130 O.2   1 <1>  -0.5700 
 19 C       -9.6100    -2.3750     0.5880 C.2   1 <1>   0.1410 
 20 N       -8.7080    -3.1610    -0.1630 N.2   1 <1>  -0.5650 
 21 C      -10.8810    -2.8340     0.5690 C.2   1 <1>  -0.1100 
 22 C       -9.2810    -4.1570    -0.7090 C.2   1 <1>   0.1980 
 23 S      -10.9910    -4.2770    -0.3820 S.3   1 <1>  -0.0800 
 24 C       -8.6800    -5.2290    -1.5890 C.3   1 <1>  -0.0600 
 25 H       -1.2400     3.6810     1.6140 H     1 <1>   0.4500 
 26 H       -1.5810     3.8980    -0.6230 H     1 <1>   0.1500 
 27 H       -3.6250     0.7300    -2.5870 H     1 <1>   0.1500 
 28 H       -3.4140    -1.5940     0.0270 H     1 <1>   0.0800 
 29 H       -4.3540    -1.1880    -1.3920 H     1 <1>   0.0800 
 30 H       -2.4900     2.8900    -2.6630 H     1 <1>   0.1500 
 31 H       -4.9740    -0.3080     1.3290 H     1 <1>   0.4500 
 32 H       -5.1210    -2.7730     1.0030 H     1 <1>   0.0800 
 33 H       -6.4110    -2.4470    -0.1140 H     1 <1>   0.0800 
 34 H       -7.0880    -0.3550    -0.6160 H     1 <1>   0.0800 
 35 H       -5.8350     0.8230    -0.9030 H     1 <1>   0.0800 
 36 H       -6.3560    -1.8910     2.8570 H     1 <1>   0.0800 
 37 H       -7.3840    -2.9930     2.0210 H     1 <1>   0.0800 
 38 H       -7.7000     1.6690     0.4790 H     1 <1>   0.0800 
 39 H       -6.1620     1.8510     1.2360 H     1 <1>   0.0800 
 40 H       -8.2500     0.9750     2.5930 H     1 <1>   0.0800 
 41 H       -6.6790     0.3200     2.9180 H     1 <1>   0.0800 
 42 H      -11.7780    -2.4530     1.0230 H     1 <1>   0.1500 
 43 H       -7.6300    -5.0510    -1.7240 H     1 <1>   0.0800 
 44 H       -9.1620    -5.2220    -2.5500 H     1 <1>   0.0800 
 45 H       -8.8180    -6.1930    -1.1340 H     1 <1>   0.0800 
@<TRIPOS>BOND
  1   1   2  1   
  2   2   3  ar  
  3   2   4  ar  
  4   3   5  1   
  5   3   6  ar  
  6   4   7  ar  
  7   4   8  1   
  8   5  25  1   
  9   6   9  ar  
 10   6  26  1   
 11   7   9  ar  
 12   7  27  1   
 13   8  10  1   
 14   8  28  1   
 15   8  29  1   
 16   9  30  1   
 17  10  11  1   
 18  10  12  1   
 19  10  31  1   
 20  11  13  1   
 21  11  32  1   
 22  11  33  1   
 23  12  14  1   
 24  12  34  1   
 25  12  35  1   
 26  13  15  1   
 27  13  36  1   
 28  13  37  1   
 29  14  16  1   
 30  14  38  1   
 31  14  39  1   
 32  15  16  1   
 33  15  17  am  
 34  16  40  1   
 35  16  41  1   
 36  17  18  2   
 37  17  19  1   
 38  19  20  1   
 39  19  21  2   
 40  20  22  2   
 41  21  23  1   
 42  21  42  1   
 43  22  23  1   
 44  22  24  1   
 45  24  43  1   
 46  24  44  1   
 47  24  45  1   
@<TRIPOS>SUBSTRUCTURE
  1 ****  10 GROUP 4 **** **** 0

# MOE 2024.06 (io_trps.svl 2023.06)
