@<TRIPOS>MOLECULE
NONAME
56 58 1 0 0 
SMALL
USER_CHARGES


@<TRIPOS>ATOM
  1 O       -0.0270     0.4940    -0.7650 O.2   1 <1>  -0.5700 
  2 C        0.0050     1.6830    -0.5490 C.2   1 <1>   0.5690 
  3 N       -1.0860     2.3740    -0.0910 N.am  1 <1>  -0.6600 
  4 C        1.3180     2.4210    -0.8330 C.3   1 <1>   0.1810 
  5 C       -0.9990     3.8380     0.2150 C.3   1 <1>   0.3640 
  6 C       -2.3610     1.6910     0.2770 C.3   1 <1>   0.0600 
  7 O        1.4100     3.6890    -0.2190 O.3   1 <1>  -0.5600 
  8 C       -2.2560     4.5650    -0.2870 C.ar  1 <1>  -0.1430 
  9 C        0.2600     4.4890    -0.4050 C.3   1 <1>   0.2610 
 10 C       -3.1100     5.2660     0.5660 C.ar  1 <1>  -0.1430 
 11 C       -2.5490     4.5240    -1.6460 C.ar  1 <1>  -0.1500 
 12 C        0.4950     5.8870     0.1710 C.2   1 <1>   0.5690 
 13 C       -4.2080     5.9300     0.0390 C.ar  1 <1>  -0.1500 
 14 C       -2.9020     5.3280     2.0740 C.3   1 <1>  -0.0960 
 15 C       -3.6460     5.1870    -2.1610 C.ar  1 <1>  -0.1500 
 16 O        0.3430     6.1100     1.3530 O.2   1 <1>  -0.5700 
 17 N        0.9960     6.8770    -0.6300 N.am  1 <1>  -0.6600 
 18 C       -4.4760     5.8970    -1.3160 C.ar  1 <1>  -0.1500 
 19 C        0.6740     8.3060    -0.2930 C.3   1 <1>   0.1400 
 20 C        2.4110     6.7360    -1.0750 C.3   1 <1>   0.1400 
 21 C        1.6960     8.9400     0.7120 C.3   1 <1>   0.5030 
 22 C        3.3710     7.1730     0.0600 C.3   1 <1>   0.3430 
 23 N        2.6620     7.8900     1.1860 N.4   1 <1>  -0.9590 
 24 C        0.9300     9.4840     1.9230 C.3   1 <1>  -0.2400 
 25 C        2.4650    10.0880     0.0450 C.3   1 <1>  -0.2400 
 26 C        3.6140     8.2820     2.2720 C.3   1 <1>   0.2630 
 27 H        1.4260     2.5490    -1.8950 H     1 <1>   0.0800 
 28 H        2.1380     1.8250    -0.4750 H     1 <1>   0.0800 
 29 H       -0.9200     3.9300     1.2820 H     1 <1>   0.0800 
 30 H       -2.6390     1.9480     1.2840 H     1 <1>   0.0800 
 31 H       -2.2540     0.6220     0.2140 H     1 <1>   0.0800 
 32 H       -3.1470     1.9950    -0.3930 H     1 <1>   0.0800 
 33 H        0.1170     4.5970    -1.4640 H     1 <1>   0.0800 
 34 H       -1.9260     3.9620    -2.3210 H     1 <1>   0.1500 
 35 H       -4.8720     6.4800     0.6840 H     1 <1>   0.1500 
 36 H       -3.7410     5.7930     2.5600 H     1 <1>   0.0800 
 37 H       -2.0250     5.9000     2.3100 H     1 <1>   0.0800 
 38 H       -2.7990     4.3380     2.4800 H     1 <1>   0.0800 
 39 H       -3.8570     5.1480    -3.2150 H     1 <1>   0.1500 
 40 H       -5.3310     6.4170    -1.7110 H     1 <1>   0.1500 
 41 H        0.6410     8.8820    -1.2020 H     1 <1>   0.0800 
 42 H       -0.3200     8.3440     0.1220 H     1 <1>   0.0800 
 43 H        2.6220     5.7170    -1.3540 H     1 <1>   0.0800 
 44 H        2.5740     7.3490    -1.9450 H     1 <1>   0.0800 
 45 H        4.1390     7.8050    -0.3550 H     1 <1>   0.0800 
 46 H        3.8550     6.2930     0.4520 H     1 <1>   0.0800 
 47 H        2.0070     7.1760     1.5690 H     1 <1>   0.4500 
 48 H        0.1660    10.1670     1.5960 H     1 <1>   0.0800 
 49 H        1.5710    10.0260     2.5940 H     1 <1>   0.0800 
 50 H        0.4490     8.6840     2.4580 H     1 <1>   0.0800 
 51 H        1.7740    10.8520    -0.2680 H     1 <1>   0.0800 
 52 H        2.9940     9.7550    -0.8280 H     1 <1>   0.0800 
 53 H        3.1580    10.5440     0.7270 H     1 <1>   0.0800 
 54 H        4.2810     9.0540     1.9260 H     1 <1>   0.0800 
 55 H        4.1990     7.4300     2.5780 H     1 <1>   0.0800 
 56 H        3.0760     8.6460     3.1320 H     1 <1>   0.0800 
@<TRIPOS>BOND
  1   1   2  2   
  2   2   3  am  
  3   2   4  1   
  4   3   5  1   
  5   3   6  1   
  6   4   7  1   
  7   4  27  1   
  8   4  28  1   
  9   5   8  1   
 10   5   9  1   
 11   5  29  1   
 12   6  30  1   
 13   6  31  1   
 14   6  32  1   
 15   7   9  1   
 16   8  10  ar  
 17   8  11  ar  
 18   9  12  1   
 19   9  33  1   
 20  10  13  ar  
 21  10  14  1   
 22  11  15  ar  
 23  11  34  1   
 24  12  16  2   
 25  12  17  am  
 26  13  18  ar  
 27  13  35  1   
 28  14  36  1   
 29  14  37  1   
 30  14  38  1   
 31  15  18  ar  
 32  15  39  1   
 33  17  19  1   
 34  17  20  1   
 35  18  40  1   
 36  19  21  1   
 37  19  41  1   
 38  19  42  1   
 39  20  22  1   
 40  20  43  1   
 41  20  44  1   
 42  21  23  1   
 43  21  24  1   
 44  21  25  1   
 45  22  23  1   
 46  22  45  1   
 47  22  46  1   
 48  23  26  1   
 49  23  47  1   
 50  24  48  1   
 51  24  49  1   
 52  24  50  1   
 53  25  51  1   
 54  25  52  1   
 55  25  53  1   
 56  26  54  1   
 57  26  55  1   
 58  26  56  1   
@<TRIPOS>SUBSTRUCTURE
  1 ****  12 GROUP 4 **** **** 0

# MOE 2024.06 (io_trps.svl 2023.06)
