@<TRIPOS>MOLECULE
NONAME
42 43 1 0 0 
SMALL
USER_CHARGES


@<TRIPOS>ATOM
  1 S        0.8320     1.3230    -0.4570 S.o2  1 <1>   1.3330 
  2 O       -0.1460     1.9410    -1.3200 O.2   1 <1>  -0.6500 
  3 O        2.0910     2.0010    -0.2420 O.2   1 <1>  -0.6500 
  4 N        1.1200    -0.2660    -0.9620 N.am  1 <1>  -0.8490 
  5 C        0.0870     1.1310     1.1660 C.3   1 <1>  -0.0550 
  6 C        2.2840    -0.3730    -1.8490 C.3   1 <1>   0.1160 
  7 C       -0.0430    -0.9000    -1.5950 C.3   1 <1>   0.1160 
  8 C       -0.2210     2.4420     1.9380 C.3   1 <1>  -0.0800 
  9 C       -1.1860     3.3750     1.1950 C.3   1 <1>   0.2000 
 10 C        1.0170     3.3140     2.1810 C.3   1 <1>   0.3430 
 11 O       -1.9700     4.0280     2.1380 O.3   1 <1>  -0.6800 
 12 C       -0.3080     4.4040     0.4630 C.3   1 <1>   0.3430 
 13 N        1.0620     4.2740     1.0510 N.4   1 <1>  -0.9590 
 14 C        1.7500     5.5760     1.3070 C.3   1 <1>   0.4860 
 15 C        1.9580     6.3270    -0.0060 C.ar  1 <1>   0.1670 
 16 N        2.3670     5.5970    -1.0370 N.ar  1 <1>  -0.6200 
 17 C        1.7080     7.6900    -0.0710 C.ar  1 <1>  -0.1500 
 18 C        2.5400     6.2530    -2.1750 C.ar  1 <1>   0.1600 
 19 C        1.8900     8.3570    -1.2640 C.ar  1 <1>  -0.1500 
 20 C        2.3170     7.6090    -2.3380 C.ar  1 <1>  -0.1500 
 21 H       -0.8280     0.5800     1.0590 H     1 <1>   0.0800 
 22 H        0.7430     0.5290     1.7670 H     1 <1>   0.0800 
 23 H        2.4520    -1.4000    -2.1240 H     1 <1>   0.0800 
 24 H        3.1670    -0.0140    -1.3460 H     1 <1>   0.0800 
 25 H        2.1330     0.2120    -2.7410 H     1 <1>   0.0800 
 26 H        0.1730    -1.9310    -1.8180 H     1 <1>   0.0800 
 27 H       -0.2990    -0.3910    -2.5110 H     1 <1>   0.0800 
 28 H       -0.8920    -0.8690    -0.9340 H     1 <1>   0.0800 
 29 H       -0.6420     2.1480     2.8850 H     1 <1>   0.0800 
 30 H       -1.8510     2.8620     0.5200 H     1 <1>   0.0800 
 31 H        1.9190     2.7230     2.2290 H     1 <1>   0.0800 
 32 H        0.8960     3.8510     3.1080 H     1 <1>   0.0800 
 33 H       -1.4500     4.4810     2.8280 H     1 <1>   0.4000 
 34 H       -0.7100     5.3950     0.5900 H     1 <1>   0.0800 
 35 H       -0.2680     4.1760    -0.5900 H     1 <1>   0.0800 
 36 H        1.6480     3.8460     0.2950 H     1 <1>   0.4500 
 37 H        1.1730     6.1790     1.9870 H     1 <1>   0.0800 
 38 H        2.7170     5.3910     1.7440 H     1 <1>   0.0800 
 39 H        1.3770     8.2380     0.7930 H     1 <1>   0.1500 
 40 H        2.8760     5.6800    -3.0240 H     1 <1>   0.1500 
 41 H        1.7080     9.4160    -1.3560 H     1 <1>   0.1500 
 42 H        2.4800     8.0690    -3.2970 H     1 <1>   0.1500 
@<TRIPOS>BOND
  1   1   2  2   
  2   1   3  2   
  3   1   4  am  
  4   1   5  1   
  5   4   6  1   
  6   4   7  1   
  7   5   8  1   
  8   5  21  1   
  9   5  22  1   
 10   6  23  1   
 11   6  24  1   
 12   6  25  1   
 13   7  26  1   
 14   7  27  1   
 15   7  28  1   
 16   8   9  1   
 17   8  10  1   
 18   8  29  1   
 19   9  11  1   
 20   9  12  1   
 21   9  30  1   
 22  10  13  1   
 23  10  31  1   
 24  10  32  1   
 25  11  33  1   
 26  12  13  1   
 27  12  34  1   
 28  12  35  1   
 29  13  14  1   
 30  13  36  1   
 31  14  15  1   
 32  14  37  1   
 33  14  38  1   
 34  15  16  ar  
 35  15  17  ar  
 36  16  18  ar  
 37  17  19  ar  
 38  17  39  1   
 39  18  20  ar  
 40  18  40  1   
 41  19  20  ar  
 42  19  41  1   
 43  20  42  1   
@<TRIPOS>SUBSTRUCTURE
  1 ****  13 GROUP 4 **** **** 0

# MOE 2024.06 (io_trps.svl 2023.06)
