@<TRIPOS>MOLECULE
NONAME
54 56 1 0 0 
SMALL
USER_CHARGES


@<TRIPOS>ATOM
  1 O       -0.4940     0.6100     1.6480 O.2   1 <1>  -0.5700 
  2 C       -1.3480     1.3670     1.2520 C.2   1 <1>   0.5690 
  3 N       -2.6440     0.9510     1.0400 N.am  1 <1>  -0.6600 
  4 C       -0.9090     2.7980     0.9980 C.3   1 <1>  -0.0990 
  5 C       -3.7040     1.8170     0.4360 C.3   1 <1>   0.2200 
  6 C       -3.0220    -0.4430     1.4340 C.3   1 <1>   0.0600 
  7 C       -0.4120     2.9790    -0.4410 C.3   1 <1>  -0.0160 
  8 C       -4.6920     2.3300     1.4800 C.3   1 <1>  -0.1600 
  9 C       -4.5760     1.1270    -0.6160 C.3   1 <1>  -0.1600 
 10 C       -0.1130     4.4420    -0.7180 C.ar  1 <1>  -0.1440 
 11 C       -5.9410     2.7170     0.6760 C.3   1 <1>  -0.0800 
 12 C       -5.8570     1.9740    -0.6630 C.3   1 <1>  -0.0800 
 13 C        1.0720     5.0070    -0.2710 C.ar  1 <1>  -0.1500 
 14 C       -1.0200     5.2270    -1.4130 C.ar  1 <1>  -0.1500 
 15 C       -7.2800     2.2990     1.3010 C.3   1 <1>  -0.1600 
 16 C       -7.1670     1.1800    -0.7870 C.3   1 <1>  -0.1600 
 17 C        1.3460     6.3420    -0.5130 C.ar  1 <1>  -0.1500 
 18 C       -0.7470     6.5620    -1.6570 C.ar  1 <1>  -0.1500 
 19 C       -8.1730     1.8930     0.1240 C.3   1 <1>   0.4230 
 20 C        0.4360     7.1200    -1.2060 C.ar  1 <1>  -0.1500 
 21 N       -8.7460     3.1010    -0.5560 N.4   1 <1>  -0.9590 
 22 C       -9.6290     3.9080     0.3470 C.3   1 <1>   0.2630 
 23 C       -9.5270     2.7540    -1.7880 C.3   1 <1>   0.2630 
 24 H       -1.7050     3.4840     1.2160 H     1 <1>   0.0800 
 25 H       -0.1060     3.0290     1.6750 H     1 <1>   0.0800 
 26 H       -3.2580     2.6680    -0.0460 H     1 <1>   0.0800 
 27 H       -4.0240    -0.4740     1.8200 H     1 <1>   0.0800 
 28 H       -2.3600    -0.8130     2.2000 H     1 <1>   0.0800 
 29 H       -2.9470    -1.0920     0.5800 H     1 <1>   0.0800 
 30 H       -1.1500     2.6190    -1.1350 H     1 <1>   0.0800 
 31 H        0.4800     2.3920    -0.5860 H     1 <1>   0.0800 
 32 H       -4.9160     1.5510     2.1850 H     1 <1>   0.0800 
 33 H       -4.2880     3.1750     2.0110 H     1 <1>   0.0800 
 34 H       -4.0830     1.1040    -1.5720 H     1 <1>   0.0800 
 35 H       -4.8130     0.1240    -0.3210 H     1 <1>   0.0800 
 36 H       -5.9320     3.7780     0.4870 H     1 <1>   0.0800 
 37 H       -5.7800     2.6980    -1.4580 H     1 <1>   0.0800 
 38 H        1.7850     4.4080     0.2690 H     1 <1>   0.1500 
 39 H       -1.9410     4.8050    -1.7700 H     1 <1>   0.1500 
 40 H       -7.6880     3.0580     1.9420 H     1 <1>   0.0800 
 41 H       -7.1330     1.4190     1.9040 H     1 <1>   0.0800 
 42 H       -7.0270     0.1910    -0.3860 H     1 <1>   0.0800 
 43 H       -7.4790     1.0650    -1.8070 H     1 <1>   0.0800 
 44 H        2.2670     6.7730    -0.1630 H     1 <1>   0.1500 
 45 H       -1.4540     7.1670    -2.1970 H     1 <1>   0.1500 
 46 H       -8.9620     1.2280     0.4380 H     1 <1>   0.0800 
 47 H        0.6490     8.1580    -1.3950 H     1 <1>   0.1500 
 48 H       -7.9420     3.6830    -0.8320 H     1 <1>   0.4500 
 49 H      -10.4320     3.2980     0.7300 H     1 <1>   0.0800 
 50 H      -10.0560     4.7380    -0.1930 H     1 <1>   0.0800 
 51 H       -9.0690     4.3030     1.1780 H     1 <1>   0.0800 
 52 H      -10.3240     2.0690    -1.5450 H     1 <1>   0.0800 
 53 H       -8.8930     2.2970    -2.5290 H     1 <1>   0.0800 
 54 H       -9.9570     3.6430    -2.2190 H     1 <1>   0.0800 
@<TRIPOS>BOND
  1   1   2  2   
  2   2   3  am  
  3   2   4  1   
  4   3   5  1   
  5   3   6  1   
  6   4   7  1   
  7   4  24  1   
  8   4  25  1   
  9   5   8  1   
 10   5   9  1   
 11   5  26  1   
 12   6  27  1   
 13   6  28  1   
 14   6  29  1   
 15   7  10  1   
 16   7  30  1   
 17   7  31  1   
 18   8  11  1   
 19   8  32  1   
 20   8  33  1   
 21   9  12  1   
 22   9  34  1   
 23   9  35  1   
 24  10  13  ar  
 25  10  14  ar  
 26  11  12  1   
 27  11  15  1   
 28  11  36  1   
 29  12  16  1   
 30  12  37  1   
 31  13  17  ar  
 32  13  38  1   
 33  14  18  ar  
 34  14  39  1   
 35  15  19  1   
 36  15  40  1   
 37  15  41  1   
 38  16  19  1   
 39  16  42  1   
 40  16  43  1   
 41  17  20  ar  
 42  17  44  1   
 43  18  20  ar  
 44  18  45  1   
 45  19  21  1   
 46  19  46  1   
 47  20  47  1   
 48  21  22  1   
 49  21  23  1   
 50  21  48  1   
 51  22  49  1   
 52  22  50  1   
 53  22  51  1   
 54  23  52  1   
 55  23  53  1   
 56  23  54  1   
@<TRIPOS>SUBSTRUCTURE
  1 ****   5 GROUP 4 **** **** 0

# MOE 2024.06 (io_trps.svl 2023.06)
