@<TRIPOS>MOLECULE
NONAME
62 64 1 0 0 
SMALL
USER_CHARGES


@<TRIPOS>ATOM
  1 S       -1.8480     0.8400    -1.0750 S.o2  1 <1>   1.3330 
  2 O       -3.2250     0.4100    -1.1280 O.2   1 <1>  -0.6500 
  3 O       -1.2570     1.4720    -2.2280 O.2   1 <1>  -0.6500 
  4 N       -1.7010     1.9170     0.2730 N.am  1 <1>  -0.6930 
  5 C       -0.8250    -0.5320    -0.5860 C.3   1 <1>  -0.1350 
  6 C       -0.5610     2.6930     0.4730 C.ar  1 <1>   0.1990 
  7 C       -2.7260     1.8230     1.3620 C.3   1 <1>   0.2570 
  8 C       -0.2200     3.6940    -0.4290 C.ar  1 <1>  -0.1500 
  9 C        0.2590     2.4920     1.5780 C.ar  1 <1>  -0.1500 
 10 C       -2.8280     0.4470     2.0520 C.2   1 <1>   0.5690 
 11 C        0.9060     4.4780    -0.2420 C.ar  1 <1>  -0.1440 
 12 C        1.3830     3.2720     1.7770 C.ar  1 <1>  -0.1500 
 13 O       -1.8230     0.0450     2.5970 O.2   1 <1>  -0.5700 
 14 N       -3.9870    -0.3040     2.0930 N.am  1 <1>  -0.6600 
 15 C        1.7060     4.2650     0.8680 C.ar  1 <1>  -0.1500 
 16 C        1.2620     5.5630    -1.2420 C.3   1 <1>  -0.0970 
 17 C       -5.1730    -0.0580     1.2140 C.3   1 <1>   0.2200 
 18 C       -4.0220    -1.5200     2.9660 C.3   1 <1>   0.0600 
 19 C       -6.4120     0.4020     1.9750 C.3   1 <1>  -0.1600 
 20 C       -5.6440    -1.2830     0.4320 C.3   1 <1>  -0.1600 
 21 C       -7.5560     0.1610     0.9790 C.3   1 <1>  -0.0800 
 22 C       -7.0620    -0.9040    -0.0090 C.3   1 <1>  -0.0800 
 23 C       -8.8560    -0.3970     1.5740 C.3   1 <1>  -0.1600 
 24 C       -8.0950    -2.0390     0.0430 C.3   1 <1>  -0.1600 
 25 C       -9.3910    -1.3760     0.5220 C.3   1 <1>   0.4230 
 26 N      -10.0460    -0.6450    -0.6110 N.4   1 <1>  -0.9590 
 27 C      -11.2120     0.1890    -0.1740 C.3   1 <1>   0.2630 
 28 C      -10.5060    -1.5680    -1.6990 C.3   1 <1>   0.2630 
 29 H       -1.2120    -0.9970     0.2980 H     1 <1>   0.0800 
 30 H        0.1740    -0.1940    -0.3890 H     1 <1>   0.0800 
 31 H       -0.7920    -1.2620    -1.3700 H     1 <1>   0.0800 
 32 H       -2.4730     2.5340     2.1270 H     1 <1>   0.0800 
 33 H       -3.6710     2.1340     0.9670 H     1 <1>   0.0800 
 34 H       -0.8490     3.8520    -1.2860 H     1 <1>   0.1500 
 35 H        0.0220     1.7190     2.2860 H     1 <1>   0.1500 
 36 H        2.0090     3.1070     2.6370 H     1 <1>   0.1500 
 37 H        2.5820     4.8690     1.0280 H     1 <1>   0.1500 
 38 H        2.3260     5.5950    -1.3940 H     1 <1>   0.0800 
 39 H        0.9320     6.5180    -0.8760 H     1 <1>   0.0800 
 40 H        0.7910     5.3730    -2.1900 H     1 <1>   0.0800 
 41 H       -4.9520     0.6980     0.4870 H     1 <1>   0.0800 
 42 H       -5.0160    -1.7080     3.3270 H     1 <1>   0.0800 
 43 H       -3.3770    -1.3900     3.8180 H     1 <1>   0.0800 
 44 H       -3.6800    -2.3740     2.4070 H     1 <1>   0.0800 
 45 H       -6.5460    -0.1930     2.8600 H     1 <1>   0.0800 
 46 H       -6.3390     1.4390     2.2500 H     1 <1>   0.0800 
 47 H       -5.0060    -1.4720    -0.4140 H     1 <1>   0.0800 
 48 H       -5.6710    -2.1530     1.0590 H     1 <1>   0.0800 
 49 H       -7.7540     1.0710     0.4360 H     1 <1>   0.0800 
 50 H       -7.0230    -0.4750    -0.9970 H     1 <1>   0.0800 
 51 H       -9.5410     0.3750     1.8670 H     1 <1>   0.0800 
 52 H       -8.6270    -0.9700     2.4560 H     1 <1>   0.0800 
 53 H       -7.8070    -2.7560     0.7930 H     1 <1>   0.0800 
 54 H       -8.1710    -2.5650    -0.8890 H     1 <1>   0.0800 
 55 H      -10.0700    -2.0940     0.9560 H     1 <1>   0.0800 
 56 H       -9.3240    -0.0200    -0.9970 H     1 <1>   0.4500 
 57 H      -11.9460    -0.4230     0.3240 H     1 <1>   0.0800 
 58 H      -11.6760     0.6560    -1.0280 H     1 <1>   0.0800 
 59 H      -10.8950     0.9680     0.4990 H     1 <1>   0.0800 
 60 H      -11.2000    -2.2930    -1.3080 H     1 <1>   0.0800 
 61 H       -9.6720    -2.0900    -2.1380 H     1 <1>   0.0800 
 62 H      -10.9960    -1.0080    -2.4790 H     1 <1>   0.0800 
@<TRIPOS>BOND
  1   1   2  2   
  2   1   3  2   
  3   1   4  am  
  4   1   5  1   
  5   4   6  1   
  6   4   7  1   
  7   5  29  1   
  8   5  30  1   
  9   5  31  1   
 10   6   8  ar  
 11   6   9  ar  
 12   7  10  1   
 13   7  32  1   
 14   7  33  1   
 15   8  11  ar  
 16   8  34  1   
 17   9  12  ar  
 18   9  35  1   
 19  10  13  2   
 20  10  14  am  
 21  11  15  ar  
 22  11  16  1   
 23  12  15  ar  
 24  12  36  1   
 25  14  17  1   
 26  14  18  1   
 27  15  37  1   
 28  16  38  1   
 29  16  39  1   
 30  16  40  1   
 31  17  19  1   
 32  17  20  1   
 33  17  41  1   
 34  18  42  1   
 35  18  43  1   
 36  18  44  1   
 37  19  21  1   
 38  19  45  1   
 39  19  46  1   
 40  20  22  1   
 41  20  47  1   
 42  20  48  1   
 43  21  22  1   
 44  21  23  1   
 45  21  49  1   
 46  22  24  1   
 47  22  50  1   
 48  23  25  1   
 49  23  51  1   
 50  23  52  1   
 51  24  25  1   
 52  24  53  1   
 53  24  54  1   
 54  25  26  1   
 55  25  55  1   
 56  26  27  1   
 57  26  28  1   
 58  26  56  1   
 59  27  57  1   
 60  27  58  1   
 61  27  59  1   
 62  28  60  1   
 63  28  61  1   
 64  28  62  1   
@<TRIPOS>SUBSTRUCTURE
  1 ****  17 GROUP 4 **** **** 0

# MOE 2024.06 (io_trps.svl 2023.06)
