@<TRIPOS>MOLECULE
NONAME
53 55 1 0 0 
SMALL
USER_CHARGES


@<TRIPOS>ATOM
  1 O       -0.0450    -0.5830     1.2140 O.2   1 <1>  -0.5700 
  2 C       -0.6010     0.2950     0.5870 C.2   1 <1>   0.5690 
  3 N       -1.6570    -0.0400    -0.2350 N.am  1 <1>  -0.6600 
  4 C       -0.1170     1.7680     0.7920 C.3   1 <1>   0.3410 
  5 C       -2.4390     0.8580    -1.1280 C.3   1 <1>   0.1400 
  6 C       -2.1830    -1.4240    -0.3140 C.3   1 <1>   0.1400 
  7 O       -0.1250     2.4470    -0.4690 O.3   1 <1>  -0.3630 
  8 C        1.3240     1.8230     1.3400 C.3   1 <1>  -0.2400 
  9 C       -1.0590     2.4790     1.7830 C.3   1 <1>  -0.2400 
 10 C       -3.4710    -0.0420    -1.8080 C.3   1 <1>   0.2000 
 11 C       -3.5730    -1.2870    -0.9310 C.3   1 <1>  -0.0800 
 12 C        0.0840     3.7790    -0.5810 C.ar  1 <1>   0.0820 
 13 O       -4.7070     0.5770    -1.9000 O.3   1 <1>  -0.6800 
 14 C       -4.0330    -2.5340    -1.6990 C.3   1 <1>   0.0210 
 15 C        1.3650     4.2650    -0.7900 C.ar  1 <1>  -0.1500 
 16 C       -0.9900     4.6550    -0.5420 C.ar  1 <1>  -0.1500 
 17 C       -4.0290    -3.7550    -0.8010 C.2   1 <1>   0.1080 
 18 C        1.5740     5.6270    -0.9220 C.ar  1 <1>  -0.1500 
 19 C       -0.7770     6.0160    -0.6750 C.ar  1 <1>  -0.1500 
 20 N       -4.7840    -3.8580     0.2480 N.2   1 <1>  -0.7070 
 21 C       -3.2250    -4.8760    -0.9820 C.2   1 <1>  -0.1500 
 22 C        0.5060     6.5090    -0.8600 C.ar  1 <1>  -0.1440 
 23 N       -4.4800    -5.0610     0.7700 N.pl3 1 <1>   0.3000 
 24 C       -3.5370    -5.6970     0.0430 C.2   1 <1>  -0.3320 
 25 C        0.7370     8.0020    -1.0060 C.3   1 <1>  -0.0970 
 26 C       -2.9830    -7.0690     0.3780 C.3   1 <1>  -0.0600 
 27 H       -2.9200     1.6220    -0.5440 H     1 <1>   0.0800 
 28 H       -1.7970     1.3020    -1.8680 H     1 <1>   0.0800 
 29 H       -1.5350    -2.0080    -0.9450 H     1 <1>   0.0800 
 30 H       -2.2320    -1.8790     0.6620 H     1 <1>   0.0800 
 31 H        1.3840     1.2840     2.2680 H     1 <1>   0.0800 
 32 H        1.6310     2.8340     1.5310 H     1 <1>   0.0800 
 33 H        1.9980     1.3620     0.6420 H     1 <1>   0.0800 
 34 H       -1.0870     1.9260     2.7050 H     1 <1>   0.0800 
 35 H       -2.0570     2.5230     1.3930 H     1 <1>   0.0800 
 36 H       -0.7120     3.4720     2.0050 H     1 <1>   0.0800 
 37 H       -3.1380    -0.2850    -2.8030 H     1 <1>   0.0800 
 38 H       -4.2570    -1.1030    -0.1200 H     1 <1>   0.0800 
 39 H       -5.1080     0.6590    -1.0130 H     1 <1>   0.4000 
 40 H       -3.3910    -2.7090    -2.5430 H     1 <1>   0.0800 
 41 H       -5.0330    -2.3810    -2.0650 H     1 <1>   0.0800 
 42 H        2.1900     3.5800    -0.8510 H     1 <1>   0.1500 
 43 H       -1.9850     4.2730    -0.4110 H     1 <1>   0.1500 
 44 H        2.5720     5.9970    -1.0780 H     1 <1>   0.1500 
 45 H       -1.6150     6.6900    -0.6380 H     1 <1>   0.1500 
 46 H       -2.5150    -5.0280    -1.7750 H     1 <1>   0.1500 
 47 H       -4.9320    -5.4180     1.6200 H     1 <1>   0.2700 
 48 H        1.7100     8.2700    -0.6360 H     1 <1>   0.0800 
 49 H        0.0000     8.5530    -0.4500 H     1 <1>   0.0800 
 50 H        0.6710     8.2800    -2.0430 H     1 <1>   0.0800 
 51 H       -2.2440    -7.3570    -0.3490 H     1 <1>   0.0800 
 52 H       -3.7710    -7.8000     0.3730 H     1 <1>   0.0800 
 53 H       -2.5200    -7.0560     1.3490 H     1 <1>   0.0800 
@<TRIPOS>BOND
  1   1   2  2   
  2   2   3  am  
  3   2   4  1   
  4   3   5  1   
  5   3   6  1   
  6   4   7  1   
  7   4   8  1   
  8   4   9  1   
  9   5  10  1   
 10   5  27  1   
 11   5  28  1   
 12   6  11  1   
 13   6  29  1   
 14   6  30  1   
 15   7  12  1   
 16   8  31  1   
 17   8  32  1   
 18   8  33  1   
 19   9  34  1   
 20   9  35  1   
 21   9  36  1   
 22  10  11  1   
 23  10  13  1   
 24  10  37  1   
 25  11  14  1   
 26  11  38  1   
 27  12  15  ar  
 28  12  16  ar  
 29  13  39  1   
 30  14  17  1   
 31  14  40  1   
 32  14  41  1   
 33  15  18  ar  
 34  15  42  1   
 35  16  19  ar  
 36  16  43  1   
 37  17  20  2   
 38  17  21  1   
 39  18  22  ar  
 40  18  44  1   
 41  19  22  ar  
 42  19  45  1   
 43  20  23  1   
 44  21  24  2   
 45  21  46  1   
 46  22  25  1   
 47  23  24  1   
 48  23  47  1   
 49  24  26  1   
 50  25  48  1   
 51  25  49  1   
 52  25  50  1   
 53  26  51  1   
 54  26  52  1   
 55  26  53  1   
@<TRIPOS>SUBSTRUCTURE
  1 ****   3 GROUP 4 **** **** 0

# MOE 2024.06 (io_trps.svl 2023.06)
