@<TRIPOS>MOLECULE
NONAME
46 48 1 0 0 
SMALL
USER_CHARGES


@<TRIPOS>ATOM
  1 S        0.4770    -0.1660     0.2730 S.3   1 <1>  -0.4600 
  2 C       -0.8730    -0.9250    -0.6750 C.3   1 <1>   0.2140 
  3 C        0.6590     1.4650    -0.4930 C.3   1 <1>   0.0700 
  4 C       -1.1700    -2.2920    -0.0820 C.ar  1 <1>  -0.1440 
  5 C        1.8450     2.1620     0.1700 C.3   1 <1>  -0.0990 
  6 C       -0.3160    -3.3570    -0.3220 C.ar  1 <1>  -0.1500 
  7 C       -2.2990    -2.4890     0.7000 C.ar  1 <1>  -0.1500 
  8 C        2.0140     3.5590    -0.3800 C.2   1 <1>   0.5690 
  9 C       -0.5890    -4.6070     0.2070 C.ar  1 <1>  -0.1500 
 10 C       -2.5740    -3.7380     1.2290 C.ar  1 <1>  -0.1500 
 11 O        2.1250     3.7150    -1.5710 O.2   1 <1>  -0.5700 
 12 N        2.0450     4.5990     0.4780 N.am  1 <1>  -0.7300 
 13 C       -1.7190    -4.7980     0.9820 C.ar  1 <1>  -0.1500 
 14 C        2.1930     6.0060     0.0840 C.3   1 <1>   0.4950 
 15 C        3.5920     6.4860     0.4810 C.2   1 <1>   0.0070 
 16 C        1.0610     6.7980     0.7540 C.3   1 <1>  -0.1950 
 17 N        3.8860     7.0950     1.5920 N.2   1 <1>  -0.5650 
 18 N        4.6700     6.2860    -0.3210 N.pl3 1 <1>   0.0480 
 19 C       -0.3430     6.7600     0.2330 C.3   1 <1>  -0.2000 
 20 C        0.4750     8.0130     0.1020 C.3   1 <1>  -0.2000 
 21 C        5.2100     7.3090     1.5070 C.2   1 <1>   0.0770 
 22 C        5.7040     6.8220     0.3500 C.2   1 <1>  -0.3020 
 23 C        4.7500     5.6030    -1.6270 C.3   1 <1>   0.0160 
 24 H       -0.5460    -1.0060    -1.6960 H     1 <1>   0.0800 
 25 H       -1.7220    -0.2690    -0.6090 H     1 <1>   0.0800 
 26 H       -0.2580     2.0040    -0.3340 H     1 <1>   0.0800 
 27 H        0.8280     1.3180    -1.5460 H     1 <1>   0.0800 
 28 H        2.7430     1.6060    -0.0230 H     1 <1>   0.0800 
 29 H        1.6880     2.2030     1.2320 H     1 <1>   0.0800 
 30 H        0.5680    -3.2130    -0.9180 H     1 <1>   0.1500 
 31 H       -2.9680    -1.6710     0.9020 H     1 <1>   0.1500 
 32 H        0.0790    -5.4280     0.0170 H     1 <1>   0.1500 
 33 H       -3.4510    -3.8850     1.8350 H     1 <1>   0.1500 
 34 H        2.0610     4.4670     1.4890 H     1 <1>   0.3700 
 35 H       -1.9320    -5.7690     1.3930 H     1 <1>   0.1500 
 36 H        2.0780     6.0960    -0.9820 H     1 <1>   0.0800 
 37 H        1.1940     6.8570     1.8210 H     1 <1>   0.1000 
 38 H       -1.1550     6.7430     0.9400 H     1 <1>   0.1000 
 39 H       -0.5550     6.1850    -0.6520 H     1 <1>   0.1000 
 40 H        0.8230     8.3050    -0.8740 H     1 <1>   0.1000 
 41 H        0.2410     8.8600     0.7240 H     1 <1>   0.1000 
 42 H        5.7470     7.8100     2.2960 H     1 <1>   0.1500 
 43 H        6.7130     6.8280    -0.0190 H     1 <1>   0.1500 
 44 H        3.9580     5.9440    -2.2670 H     1 <1>   0.0800 
 45 H        4.6600     4.5430    -1.4790 H     1 <1>   0.0800 
 46 H        5.6960     5.8190    -2.0890 H     1 <1>   0.0800 
@<TRIPOS>BOND
  1   1   2  1   
  2   1   3  1   
  3   2   4  1   
  4   2  24  1   
  5   2  25  1   
  6   3   5  1   
  7   3  26  1   
  8   3  27  1   
  9   4   6  ar  
 10   4   7  ar  
 11   5   8  1   
 12   5  28  1   
 13   5  29  1   
 14   6   9  ar  
 15   6  30  1   
 16   7  10  ar  
 17   7  31  1   
 18   8  11  2   
 19   8  12  am  
 20   9  13  ar  
 21   9  32  1   
 22  10  13  ar  
 23  10  33  1   
 24  12  14  1   
 25  12  34  1   
 26  13  35  1   
 27  14  15  1   
 28  14  16  1   
 29  14  36  1   
 30  15  17  2   
 31  15  18  1   
 32  16  19  1   
 33  16  20  1   
 34  16  37  1   
 35  17  21  1   
 36  18  22  1   
 37  18  23  1   
 38  19  20  1   
 39  19  38  1   
 40  19  39  1   
 41  20  40  1   
 42  20  41  1   
 43  21  22  2   
 44  21  42  1   
 45  22  43  1   
 46  23  44  1   
 47  23  45  1   
 48  23  46  1   
@<TRIPOS>SUBSTRUCTURE
  1 ****   5 GROUP 4 **** **** 0

# MOE 2024.06 (io_trps.svl 2023.06)
