@<TRIPOS>MOLECULE
NONAME
49 51 1 0 0 
SMALL
USER_CHARGES


@<TRIPOS>ATOM
  1 F       -1.3060    -0.4630    -0.7900 F     1 <1>  -0.1900 
  2 C       -2.1300     0.4450    -0.3320 C.ar  1 <1>   0.1900 
  3 C       -3.2190     0.0340     0.4130 C.ar  1 <1>  -0.1440 
  4 C       -1.8820     1.7690    -0.6290 C.ar  1 <1>  -0.1500 
  5 C       -4.0870     1.0070     0.8800 C.ar  1 <1>  -0.1500 
  6 C       -3.4580    -1.4330     0.7050 C.3   1 <1>   0.4870 
  7 C       -2.7630     2.7450    -0.1680 C.ar  1 <1>   0.0820 
  8 C       -3.8740     2.3500     0.6020 C.ar  1 <1>   0.0820 
  9 N       -3.8760    -2.1170    -0.5500 N.4   1 <1>  -0.9590 
 10 O       -2.5720     4.0610    -0.4700 O.3   1 <1>  -0.3620 
 11 O       -4.8210     3.1780     1.1280 O.3   1 <1>  -0.3620 
 12 C       -5.2060    -1.6060    -1.0190 C.3   1 <1>   0.3430 
 13 C       -4.0340    -3.5880    -0.3230 C.3   1 <1>   0.3430 
 14 C       -1.4930     4.5120    -1.2600 C.3   1 <1>   0.0400 
 15 C       -4.5440     4.5220     1.4550 C.3   1 <1>   0.0400 
 16 C       -6.2370    -2.6080    -0.4950 C.3   1 <1>   0.2000 
 17 C       -5.4930    -3.9350    -0.6450 C.3   1 <1>  -0.0800 
 18 O       -6.4600    -2.3430     0.8540 O.3   1 <1>  -0.6800 
 19 C       -6.0280    -5.1170     0.1860 C.3   1 <1>  -0.0170 
 20 C       -5.1190    -6.3240     0.0260 C.ar  1 <1>  -0.1440 
 21 C       -4.2810    -6.7480     1.0400 C.ar  1 <1>  -0.1500 
 22 C       -5.0790    -7.0560    -1.1440 C.ar  1 <1>  -0.1500 
 23 C       -3.4550    -7.8400     0.8330 C.ar  1 <1>   0.1600 
 24 C       -4.2140    -8.1330    -1.2490 C.ar  1 <1>   0.1600 
 25 N       -3.3950    -8.5330    -0.2910 N.ar  1 <1>  -0.6200 
 26 H       -1.0140     2.0060    -1.2140 H     1 <1>   0.1500 
 27 H       -4.9480     0.7440     1.4710 H     1 <1>   0.1500 
 28 H       -4.2250    -1.5370     1.4570 H     1 <1>   0.0800 
 29 H       -2.5480    -1.8720     1.0810 H     1 <1>   0.0800 
 30 H       -3.1490    -1.9220    -1.2540 H     1 <1>   0.4500 
 31 H       -5.4170    -0.6090    -0.6660 H     1 <1>   0.0800 
 32 H       -5.2310    -1.6080    -2.0960 H     1 <1>   0.0800 
 33 H       -3.3630    -4.1580    -0.9460 H     1 <1>   0.0800 
 34 H       -3.8330    -3.8250     0.7090 H     1 <1>   0.0800 
 35 H       -1.5730     5.5810    -1.3550 H     1 <1>   0.0800 
 36 H       -1.5550     4.0570    -2.2330 H     1 <1>   0.0800 
 37 H       -0.5690     4.2600    -0.7710 H     1 <1>   0.0800 
 38 H       -5.3120     4.8700     2.1220 H     1 <1>   0.0800 
 39 H       -4.5550     5.1090     0.5540 H     1 <1>   0.0800 
 40 H       -3.5840     4.5780     1.9370 H     1 <1>   0.0800 
 41 H       -7.1720    -2.5600    -1.0270 H     1 <1>   0.0800 
 42 H       -5.5280    -4.2170    -1.6830 H     1 <1>   0.0800 
 43 H       -7.3090    -2.7320     1.1560 H     1 <1>   0.4000 
 44 H       -7.0220    -5.3750    -0.1390 H     1 <1>   0.0800 
 45 H       -6.0850    -4.8570     1.2290 H     1 <1>   0.0800 
 46 H       -4.2610    -6.2510     1.9920 H     1 <1>   0.1500 
 47 H       -5.7110    -6.8090    -1.9770 H     1 <1>   0.1500 
 48 H       -2.8090    -8.1620     1.6330 H     1 <1>   0.1500 
 49 H       -4.1940    -8.6950    -2.1680 H     1 <1>   0.1500 
@<TRIPOS>BOND
  1   1   2  1   
  2   2   3  ar  
  3   2   4  ar  
  4   3   5  ar  
  5   3   6  1   
  6   4   7  ar  
  7   4  26  1   
  8   5   8  ar  
  9   5  27  1   
 10   6   9  1   
 11   6  28  1   
 12   6  29  1   
 13   7   8  ar  
 14   7  10  1   
 15   8  11  1   
 16   9  12  1   
 17   9  13  1   
 18   9  30  1   
 19  10  14  1   
 20  11  15  1   
 21  12  16  1   
 22  12  31  1   
 23  12  32  1   
 24  13  17  1   
 25  13  33  1   
 26  13  34  1   
 27  14  35  1   
 28  14  36  1   
 29  14  37  1   
 30  15  38  1   
 31  15  39  1   
 32  15  40  1   
 33  16  17  1   
 34  16  18  1   
 35  16  41  1   
 36  17  19  1   
 37  17  42  1   
 38  18  43  1   
 39  19  20  1   
 40  19  44  1   
 41  19  45  1   
 42  20  21  ar  
 43  20  22  ar  
 44  21  23  ar  
 45  21  46  1   
 46  22  24  ar  
 47  22  47  1   
 48  23  25  ar  
 49  23  48  1   
 50  24  25  ar  
 51  24  49  1   
@<TRIPOS>SUBSTRUCTURE
  1 ****   9 GROUP 4 **** **** 0

# MOE 2024.06 (io_trps.svl 2023.06)
