@<TRIPOS>MOLECULE
NONAME
54 56 1 0 0 
SMALL
USER_CHARGES


@<TRIPOS>ATOM
  1 O       -0.6240     0.4000     0.9590 O.2   1 <1>  -0.5700 
  2 C       -1.4710     1.1360     0.4870 C.2   1 <1>   0.5440 
  3 N       -2.5530     0.5780    -0.1700 N.am  1 <1>  -0.6600 
  4 C       -1.3230     2.5690     0.6480 C.ar  1 <1>   0.0860 
  5 C       -3.8070     1.3520    -0.4160 C.3   1 <1>   0.2200 
  6 C       -2.5490    -0.8830    -0.4910 C.3   1 <1>   0.0600 
  7 C       -1.3230     3.4270    -0.4510 C.ar  1 <1>  -0.1500 
  8 C       -1.1790     3.1390     1.9120 C.ar  1 <1>  -0.1500 
  9 C       -5.0730     0.6940     0.1290 C.3   1 <1>  -0.1600 
 10 C       -4.1050     1.5670    -1.8970 C.3   1 <1>  -0.1600 
 11 C       -1.2180     4.7970    -0.3020 C.ar  1 <1>   0.0830 
 12 C       -1.0820     4.5100     2.0780 C.ar  1 <1>  -0.1500 
 13 C       -6.2110     1.3860    -0.6330 C.3   1 <1>  -0.0800 
 14 C       -5.5940     1.9330    -1.9340 C.3   1 <1>  -0.0800 
 15 O       -1.2050     5.5460    -1.4320 O.3   1 <1>  -0.3630 
 16 C       -1.1240     5.3520     0.9800 C.ar  1 <1>   0.0830 
 17 C       -6.7950     2.5950     0.1120 C.3   1 <1>  -0.1600 
 18 C       -5.8440     3.4490    -1.9300 C.3   1 <1>  -0.1600 
 19 C       -0.0030     6.2200    -1.7440 C.3   1 <1>   0.1200 
 20 O       -1.0700     6.6830     1.2150 O.3   1 <1>  -0.3620 
 21 C       -7.0020     3.6480    -0.9650 C.3   1 <1>   0.2000 
 22 C        0.9690     5.2380    -2.3990 C.3   1 <1>  -0.2400 
 23 C       -2.1460     7.4770     0.7690 C.3   1 <1>   0.1200 
 24 O       -6.9470     4.9080    -0.4120 O.3   1 <1>  -0.6800 
 25 C       -1.9970     8.8640     1.3850 C.3   1 <1>  -0.2400 
 26 H       -3.7380     2.3200     0.0490 H     1 <1>   0.0800 
 27 H       -3.1230    -1.0830    -1.3760 H     1 <1>   0.0800 
 28 H       -2.9640    -1.4330     0.3360 H     1 <1>   0.0800 
 29 H       -1.5410    -1.2230    -0.6570 H     1 <1>   0.0800 
 30 H       -1.3950     3.0140    -1.4400 H     1 <1>   0.1500 
 31 H       -1.1450     2.4900     2.7700 H     1 <1>   0.1500 
 32 H       -5.0950    -0.3520    -0.1160 H     1 <1>   0.0800 
 33 H       -5.1570     0.8110     1.1940 H     1 <1>   0.0800 
 34 H       -3.4850     2.3320    -2.3270 H     1 <1>   0.0800 
 35 H       -3.9610     0.6520    -2.4410 H     1 <1>   0.0800 
 36 H       -0.9780     4.9340     3.0600 H     1 <1>   0.1500 
 37 H       -6.9980     0.6860    -0.8610 H     1 <1>   0.0800 
 38 H       -6.0730     1.4880    -2.7900 H     1 <1>   0.0800 
 39 H       -6.0940     2.9560     0.8430 H     1 <1>   0.0800 
 40 H       -7.7230     2.3470     0.5960 H     1 <1>   0.0800 
 41 H       -6.0910     3.8080    -2.9130 H     1 <1>   0.0800 
 42 H       -4.9740     3.9700    -1.5660 H     1 <1>   0.0800 
 43 H       -0.2470     7.0150    -2.4260 H     1 <1>   0.0800 
 44 H        0.4160     6.6430    -0.8470 H     1 <1>   0.0800 
 45 H       -7.9500     3.5190    -1.4610 H     1 <1>   0.0800 
 46 H        0.5230     4.8040    -3.2760 H     1 <1>   0.0800 
 47 H        1.2390     4.4600    -1.7080 H     1 <1>   0.0800 
 48 H        1.8640     5.7570    -2.6900 H     1 <1>   0.0800 
 49 H       -2.1190     7.5350    -0.3040 H     1 <1>   0.0800 
 50 H       -3.0650     7.0130     1.0850 H     1 <1>   0.0800 
 51 H       -6.0850     5.0400     0.0220 H     1 <1>   0.4000 
 52 H       -1.0700     9.3100     1.0720 H     1 <1>   0.0800 
 53 H       -2.0190     8.7960     2.4580 H     1 <1>   0.0800 
 54 H       -2.8070     9.4940     1.0650 H     1 <1>   0.0800 
@<TRIPOS>BOND
  1   1   2  2   
  2   2   3  am  
  3   2   4  1   
  4   3   5  1   
  5   3   6  1   
  6   4   7  ar  
  7   4   8  ar  
  8   5   9  1   
  9   5  10  1   
 10   5  26  1   
 11   6  27  1   
 12   6  28  1   
 13   6  29  1   
 14   7  11  ar  
 15   7  30  1   
 16   8  12  ar  
 17   8  31  1   
 18   9  13  1   
 19   9  32  1   
 20   9  33  1   
 21  10  14  1   
 22  10  34  1   
 23  10  35  1   
 24  11  15  1   
 25  11  16  ar  
 26  12  16  ar  
 27  12  36  1   
 28  13  14  1   
 29  13  17  1   
 30  13  37  1   
 31  14  18  1   
 32  14  38  1   
 33  15  19  1   
 34  16  20  1   
 35  17  21  1   
 36  17  39  1   
 37  17  40  1   
 38  18  21  1   
 39  18  41  1   
 40  18  42  1   
 41  19  22  1   
 42  19  43  1   
 43  19  44  1   
 44  20  23  1   
 45  21  24  1   
 46  21  45  1   
 47  22  46  1   
 48  22  47  1   
 49  22  48  1   
 50  23  25  1   
 51  23  49  1   
 52  23  50  1   
 53  24  51  1   
 54  25  52  1   
 55  25  53  1   
 56  25  54  1   
@<TRIPOS>SUBSTRUCTURE
  1 ****   7 GROUP 4 **** **** 0

# MOE 2024.06 (io_trps.svl 2023.06)
