@<TRIPOS>MOLECULE
NONAME
44 45 1 0 0 
SMALL
USER_CHARGES


@<TRIPOS>ATOM
  1 O        1.1130     2.6820     1.1210 O.co2 1 <1>  -0.9000 
  2 C       -0.0980     2.8700     1.2430 C.2   1 <1>   0.9060 
  3 O       -0.5710     3.4820     2.2070 O.co2 1 <1>  -0.9000 
  4 C       -0.9570     2.5840     0.0370 C.3   1 <1>  -0.1860 
  5 C       -2.4710     2.8760     0.1300 C.3   1 <1>   0.2000 
  6 C       -0.3410     3.4250    -1.0740 C.3   1 <1>   0.3430 
  7 O       -2.8970     2.7270     1.4260 O.3   1 <1>  -0.6800 
  8 C       -2.8510     4.2900    -0.3330 C.3   1 <1>  -0.1600 
  9 N       -0.4890     4.9090    -0.8260 N.4   1 <1>  -0.9590 
 10 C       -1.7190     5.2680    -0.0370 C.3   1 <1>   0.3430 
 11 C        0.7200     5.3900    -0.0850 C.3   1 <1>   0.3430 
 12 C        0.9050     6.8900    -0.2690 C.3   1 <1>  -0.1600 
 13 C        2.1200     7.3570     0.5260 C.3   1 <1>   0.1200 
 14 O        2.2710     8.7090     0.2710 O.3   1 <1>  -0.5600 
 15 C        3.3420     9.3030     0.9350 C.3   1 <1>   0.2630 
 16 C        3.4110    10.7680     0.5360 C.ar  1 <1>  -0.1440 
 17 C        4.4260    11.2290    -0.2880 C.ar  1 <1>  -0.1500 
 18 C        2.4550    11.6600     0.9990 C.ar  1 <1>  -0.1500 
 19 C        4.4890    12.5670    -0.6390 C.ar  1 <1>  -0.1500 
 20 C        2.5170    12.9980     0.6490 C.ar  1 <1>  -0.1500 
 21 C        3.5350    13.4520    -0.1700 C.ar  1 <1>  -0.1500 
 22 H       -0.8220     1.5470    -0.2000 H     1 <1>   0.0800 
 23 H       -3.0220     2.1610    -0.4580 H     1 <1>   0.0800 
 24 H       -0.8280     3.1700    -2.0000 H     1 <1>   0.0800 
 25 H        0.7040     3.1710    -1.1700 H     1 <1>   0.0800 
 26 H       -2.1470     3.0260     2.0250 H     1 <1>   0.4000 
 27 H       -3.0470     4.2900    -1.3890 H     1 <1>   0.0800 
 28 H       -3.7520     4.6060     0.1620 H     1 <1>   0.0800 
 29 H       -0.5120     5.3870    -1.7320 H     1 <1>   0.4500 
 30 H       -1.5000     5.2170     1.0200 H     1 <1>   0.0800 
 31 H       -2.0260     6.2750    -0.2660 H     1 <1>   0.0800 
 32 H        0.6230     5.1610     0.9660 H     1 <1>   0.0800 
 33 H        1.5970     4.8740    -0.4440 H     1 <1>   0.0800 
 34 H        0.0420     7.4210     0.0900 H     1 <1>   0.0800 
 35 H        1.0650     7.1120    -1.3090 H     1 <1>   0.0800 
 36 H        3.0120     6.8420     0.2090 H     1 <1>   0.0800 
 37 H        1.9660     7.2140     1.5840 H     1 <1>   0.0800 
 38 H        3.1850     9.2140     1.9960 H     1 <1>   0.0800 
 39 H        4.2490     8.7930     0.6590 H     1 <1>   0.0800 
 40 H        5.1720    10.5500    -0.6620 H     1 <1>   0.1500 
 41 H        1.6580    11.3100     1.6310 H     1 <1>   0.1500 
 42 H        5.2800    12.9190    -1.2790 H     1 <1>   0.1500 
 43 H        1.7720    13.6840     1.0130 H     1 <1>   0.1500 
 44 H        3.5830    14.4920    -0.4430 H     1 <1>   0.1500 
@<TRIPOS>BOND
  1   1   2  ar  
  2   2   3  ar  
  3   2   4  1   
  4   4   5  1   
  5   4   6  1   
  6   4  22  1   
  7   5   7  1   
  8   5   8  1   
  9   5  23  1   
 10   6   9  1   
 11   6  24  1   
 12   6  25  1   
 13   7  26  1   
 14   8  10  1   
 15   8  27  1   
 16   8  28  1   
 17   9  10  1   
 18   9  11  1   
 19   9  29  1   
 20  10  30  1   
 21  10  31  1   
 22  11  12  1   
 23  11  32  1   
 24  11  33  1   
 25  12  13  1   
 26  12  34  1   
 27  12  35  1   
 28  13  14  1   
 29  13  36  1   
 30  13  37  1   
 31  14  15  1   
 32  15  16  1   
 33  15  38  1   
 34  15  39  1   
 35  16  17  ar  
 36  16  18  ar  
 37  17  19  ar  
 38  17  40  1   
 39  18  20  ar  
 40  18  41  1   
 41  19  21  ar  
 42  19  42  1   
 43  20  21  ar  
 44  20  43  1   
 45  21  44  1   
@<TRIPOS>SUBSTRUCTURE
  1 ****  12 GROUP 4 **** **** 0

# MOE 2024.06 (io_trps.svl 2023.06)
