@<TRIPOS>MOLECULE
NONAME
50 53 1 0 0 
SMALL
USER_CHARGES


@<TRIPOS>ATOM
  1 O       -2.2370    -1.5140    -2.9330 O.2   1 <1>  -0.5700 
  2 C       -2.4740    -1.5580    -1.7480 C.2   1 <1>   0.5690 
  3 N       -2.3080    -0.4760    -0.9350 N.am  1 <1>  -0.6600 
  4 C       -2.9560    -2.8720    -1.1760 C.3   1 <1>  -0.0190 
  5 C       -2.7020    -0.5040     0.5020 C.3   1 <1>   0.2200 
  6 C       -1.7920     0.8260    -1.4490 C.3   1 <1>   0.0600 
  7 C       -1.9530    -3.4090    -0.1380 C.3   1 <1>   0.1200 
  8 C       -4.4390    -2.7940    -0.7620 C.3   1 <1>   0.1400 
  9 C       -1.8250    -1.4960     1.3130 C.3   1 <1>   0.1200 
 10 C       -4.2320    -0.6810     0.6420 C.3   1 <1>   0.1400 
 11 O       -2.1140    -2.8610     1.1350 O.3   1 <1>  -0.5600 
 12 N       -4.7040    -2.1000     0.5430 N.am  1 <1>  -0.6600 
 13 C       -5.1650    -2.7360     1.6770 C.2   1 <1>   0.5690 
 14 O       -5.4660    -2.1140     2.6710 O.2   1 <1>  -0.5700 
 15 C       -5.2860    -4.2530     1.7500 C.3   1 <1>   0.0820 
 16 C       -6.4590    -4.8150     0.9550 C.2   1 <1>  -0.1810 
 17 C       -6.6620    -6.1800     0.6260 C.ar  1 <1>   0.0000 
 18 C       -7.4920    -4.1370     0.4190 C.2   1 <1>  -0.0100 
 19 C       -6.0130    -7.4010     0.8550 C.ar  1 <1>  -0.1440 
 20 C       -7.8360    -6.1780    -0.1130 C.ar  1 <1>   0.1400 
 21 O       -8.3220    -4.9420    -0.2270 O.3   1 <1>  -0.2800 
 22 C       -6.5620    -8.5550     0.3270 C.ar  1 <1>  -0.1500 
 23 C       -4.7310    -7.4780     1.6690 C.3   1 <1>  -0.0970 
 24 C       -8.3880    -7.3350    -0.6410 C.ar  1 <1>  -0.1500 
 25 C       -7.7430    -8.5340    -0.4200 C.ar  1 <1>  -0.1440 
 26 C       -8.3000    -9.8330    -0.9730 C.3   1 <1>  -0.0970 
 27 H       -2.9200    -3.5640    -1.9970 H     1 <1>   0.0800 
 28 H       -2.4840     0.4710     0.9000 H     1 <1>   0.0800 
 29 H       -0.9220     1.1210    -0.8890 H     1 <1>   0.0800 
 30 H       -2.5510     1.5820    -1.3550 H     1 <1>   0.0800 
 31 H       -1.5160     0.7470    -2.4870 H     1 <1>   0.0800 
 32 H       -0.9400    -3.2350    -0.4600 H     1 <1>   0.0800 
 33 H       -2.0930    -4.4700    -0.0320 H     1 <1>   0.0800 
 34 H       -4.8260    -3.7940    -0.7350 H     1 <1>   0.0800 
 35 H       -4.9860    -2.2790    -1.5340 H     1 <1>   0.0800 
 36 H       -1.9710    -1.2980     2.3600 H     1 <1>   0.0800 
 37 H       -0.7850    -1.3380     1.0880 H     1 <1>   0.0800 
 38 H       -4.7300    -0.0910    -0.1070 H     1 <1>   0.0800 
 39 H       -4.5170    -0.2740     1.5960 H     1 <1>   0.0800 
 40 H       -4.3660    -4.6710     1.3940 H     1 <1>   0.0800 
 41 H       -5.3970    -4.5390     2.7790 H     1 <1>   0.0800 
 42 H       -7.7220    -3.0850     0.4410 H     1 <1>   0.1500 
 43 H       -6.0780    -9.5020     0.4900 H     1 <1>   0.1500 
 44 H       -4.4450    -8.5000     1.8370 H     1 <1>   0.0800 
 45 H       -4.8740    -7.0090     2.6250 H     1 <1>   0.0800 
 46 H       -3.9330    -6.9860     1.1450 H     1 <1>   0.0800 
 47 H       -9.3000    -7.2690    -1.2060 H     1 <1>   0.1500 
 48 H       -7.5820   -10.2890    -1.6310 H     1 <1>   0.0800 
 49 H       -9.2060    -9.6590    -1.5250 H     1 <1>   0.0800 
 50 H       -8.5150   -10.5120    -0.1680 H     1 <1>   0.0800 
@<TRIPOS>BOND
  1   1   2  2   
  2   2   3  am  
  3   2   4  1   
  4   3   5  1   
  5   3   6  1   
  6   4   7  1   
  7   4   8  1   
  8   4  27  1   
  9   5   9  1   
 10   5  10  1   
 11   5  28  1   
 12   6  29  1   
 13   6  30  1   
 14   6  31  1   
 15   7  11  1   
 16   7  32  1   
 17   7  33  1   
 18   8  12  1   
 19   8  34  1   
 20   8  35  1   
 21   9  11  1   
 22   9  36  1   
 23   9  37  1   
 24  10  12  1   
 25  10  38  1   
 26  10  39  1   
 27  12  13  am  
 28  13  14  2   
 29  13  15  1   
 30  15  16  1   
 31  15  40  1   
 32  15  41  1   
 33  16  17  1   
 34  16  18  2   
 35  17  19  ar  
 36  17  20  ar  
 37  18  21  1   
 38  18  42  1   
 39  19  22  ar  
 40  19  23  1   
 41  20  21  1   
 42  20  24  ar  
 43  22  25  ar  
 44  22  43  1   
 45  23  44  1   
 46  23  45  1   
 47  23  46  1   
 48  24  25  ar  
 49  24  47  1   
 50  25  26  1   
 51  26  48  1   
 52  26  49  1   
 53  26  50  1   
@<TRIPOS>SUBSTRUCTURE
  1 ****   8 GROUP 4 **** **** 0

# MOE 2024.06 (io_trps.svl 2023.06)
