@<TRIPOS>MOLECULE
NONAME
52 54 1 0 0 
SMALL
USER_CHARGES


@<TRIPOS>ATOM
  1 O        2.4600     2.0510     1.8580 O.co2 1 <1>  -0.9000 
  2 C        2.1450     0.8710     1.6460 C.2   1 <1>   0.9060 
  3 O        1.6580     0.1740     2.5350 O.co2 1 <1>  -0.9000 
  4 C        2.6540     0.1750     0.3690 C.3   1 <1>  -0.1060 
  5 C        3.7100    -0.8150     0.9110 C.3   1 <1>   0.2000 
  6 C        3.3760     1.1700    -0.6000 C.3   1 <1>  -0.1600 
  7 C        1.5010    -0.5670    -0.3610 C.3   1 <1>  -0.1600 
  8 O        4.3400    -1.4690    -0.1500 O.3   1 <1>  -0.6800 
  9 C        4.7790    -0.0550     1.7390 C.3   1 <1>   0.3430 
 10 C        4.8340     1.4850    -0.2160 C.3   1 <1>   0.3430 
 11 C        0.3740     0.3660    -0.8360 C.3   1 <1>  -0.1600 
 12 N        4.9970     1.3560     1.2550 N.4   1 <1>  -0.9590 
 13 C       -0.7390    -0.4270    -1.5260 C.3   1 <1>  -0.2400 
 14 C        6.1850     2.0050     1.8500 C.3   1 <1>   0.4860 
 15 C        6.3770     3.3990     1.2730 C.ar  1 <1>  -0.1440 
 16 C        7.3470     3.5870     0.2490 C.ar  1 <1>   0.0000 
 17 C        5.6110     4.4500     1.7280 C.ar  1 <1>  -0.1440 
 18 C        7.5190     4.8850    -0.2830 C.ar  1 <1>   0.0000 
 19 C        8.1530     2.5540    -0.2940 C.ar  1 <1>  -0.1500 
 20 C        5.7980     5.7250     1.1840 C.ar  1 <1>  -0.1500 
 21 C        4.5250     4.3430     2.7970 C.3   1 <1>  -0.0970 
 22 C        6.7270     5.9370     0.2090 C.ar  1 <1>  -0.1500 
 23 C        8.4700     5.1020    -1.2990 C.ar  1 <1>  -0.1500 
 24 C        9.0680     2.7910    -1.2820 C.ar  1 <1>  -0.1500 
 25 C        9.2310     4.0810    -1.7920 C.ar  1 <1>  -0.1500 
 26 H        3.2490    -1.5680     1.5300 H     1 <1>   0.0800 
 27 H        2.8240     2.0930    -0.6480 H     1 <1>   0.0800 
 28 H        3.3900     0.7700    -1.5980 H     1 <1>   0.0800 
 29 H        1.8860    -1.1020    -1.2100 H     1 <1>   0.0800 
 30 H        1.0760    -1.2900     0.3170 H     1 <1>   0.0800 
 31 H        3.6680    -1.9580    -0.6670 H     1 <1>   0.4000 
 32 H        5.6970    -0.6150     1.7120 H     1 <1>   0.0800 
 33 H        4.4340    -0.0110     2.7600 H     1 <1>   0.0800 
 34 H        5.0770     2.4830    -0.5440 H     1 <1>   0.0800 
 35 H        5.4950     0.7900    -0.7080 H     1 <1>   0.0800 
 36 H       -0.0440     0.8900     0.0090 H     1 <1>   0.0800 
 37 H        0.7580     1.0990    -1.5230 H     1 <1>   0.0800 
 38 H        4.1610     1.8890     1.6130 H     1 <1>   0.4500 
 39 H       -1.1620    -1.1450    -0.8450 H     1 <1>   0.0800 
 40 H       -0.3570    -0.9450    -2.3880 H     1 <1>   0.0800 
 41 H       -1.5200     0.2410    -1.8440 H     1 <1>   0.0800 
 42 H        6.0510     2.0810     2.9160 H     1 <1>   0.0800 
 43 H        7.0580     1.4030     1.6800 H     1 <1>   0.0800 
 44 H        8.0600     1.5470     0.0610 H     1 <1>   0.1500 
 45 H        5.1950     6.5420     1.5420 H     1 <1>   0.1500 
 46 H        4.6700     5.1000     3.5460 H     1 <1>   0.0800 
 47 H        4.4990     3.3920     3.2930 H     1 <1>   0.0800 
 48 H        3.5600     4.4970     2.3440 H     1 <1>   0.0800 
 49 H        6.8650     6.9210    -0.2020 H     1 <1>   0.1500 
 50 H        8.5890     6.0980    -1.6870 H     1 <1>   0.1500 
 51 H        9.6740     1.9960    -1.6820 H     1 <1>   0.1500 
 52 H        9.9560     4.2530    -2.5680 H     1 <1>   0.1500 
@<TRIPOS>BOND
  1   1   2  ar  
  2   2   3  ar  
  3   2   4  1   
  4   4   5  1   
  5   4   6  1   
  6   4   7  1   
  7   5   8  1   
  8   5   9  1   
  9   5  26  1   
 10   6  10  1   
 11   6  27  1   
 12   6  28  1   
 13   7  11  1   
 14   7  29  1   
 15   7  30  1   
 16   8  31  1   
 17   9  12  1   
 18   9  32  1   
 19   9  33  1   
 20  10  12  1   
 21  10  34  1   
 22  10  35  1   
 23  11  13  1   
 24  11  36  1   
 25  11  37  1   
 26  12  14  1   
 27  12  38  1   
 28  13  39  1   
 29  13  40  1   
 30  13  41  1   
 31  14  15  1   
 32  14  42  1   
 33  14  43  1   
 34  15  16  ar  
 35  15  17  ar  
 36  16  18  ar  
 37  16  19  ar  
 38  17  20  ar  
 39  17  21  1   
 40  18  22  ar  
 41  18  23  ar  
 42  19  24  ar  
 43  19  44  1   
 44  20  22  ar  
 45  20  45  1   
 46  21  46  1   
 47  21  47  1   
 48  21  48  1   
 49  22  49  1   
 50  23  25  ar  
 51  23  50  1   
 52  24  25  ar  
 53  24  51  1   
 54  25  52  1   
@<TRIPOS>SUBSTRUCTURE
  1 ****  10 GROUP 4 **** **** 0

# MOE 2024.06 (io_trps.svl 2023.06)
