@<TRIPOS>MOLECULE
NONAME
44 46 1 0 0 
SMALL
USER_CHARGES


@<TRIPOS>ATOM
  1 O       -0.5590    -0.8400    -0.6000 O.co2 1 <1>  -0.9000 
  2 C        0.0710    -1.7310    -1.1990 C.2   1 <1>   0.9790 
  3 O       -0.3060    -2.0510    -2.3420 O.co2 1 <1>  -0.9000 
  4 C        1.2110    -2.3580    -0.5890 C.ar  1 <1>  -0.1790 
  5 C        1.1410    -3.5950     0.0730 C.ar  1 <1>   0.4100 
  6 C        2.4390    -1.7230    -0.6670 C.ar  1 <1>  -0.1500 
  7 N        2.2140    -4.1870     0.6000 N.ar  1 <1>  -0.6200 
  8 N       -0.0280    -4.3230     0.2620 N.pl3 1 <1>  -0.8380 
  9 C        3.5430    -2.3300    -0.1120 C.ar  1 <1>  -0.1430 
 10 C        3.3690    -3.5610     0.5080 C.ar  1 <1>   0.1670 
 11 C       -1.4210    -3.8140     0.1440 C.3   1 <1>   0.2090 
 12 C       -0.0360    -5.8050     0.2670 C.3   1 <1>   0.2090 
 13 C        4.8940    -1.6350    -0.2070 C.3   1 <1>  -0.0960 
 14 C        4.5410    -4.2920     1.1360 C.3   1 <1>  -0.0970 
 15 C       -2.2640    -4.9620     0.6880 C.3   1 <1>   0.2000 
 16 C       -1.5150    -6.2010     0.1850 C.3   1 <1>  -0.0800 
 17 O       -2.1910    -4.9220     2.0740 O.3   1 <1>  -0.6800 
 18 C       -1.8520    -7.5110     0.9210 C.3   1 <1>  -0.0170 
 19 C       -1.1190    -8.6930     0.3050 C.ar  1 <1>  -0.1430 
 20 C       -1.5920    -9.3350    -0.8210 C.ar  1 <1>  -0.1500 
 21 C        0.0580    -9.1810     0.8360 C.ar  1 <1>  -0.1500 
 22 C       -0.8870   -10.4060    -1.3460 C.ar  1 <1>   0.1600 
 23 C        0.6850   -10.2590     0.2330 C.ar  1 <1>   0.1600 
 24 N        0.2400   -10.8850    -0.8450 N.ar  1 <1>  -0.6200 
 25 H        2.5020    -0.7700    -1.1630 H     1 <1>   0.1500 
 26 H       -1.5650    -2.9000     0.6970 H     1 <1>   0.0800 
 27 H       -1.6590    -3.6510    -0.8930 H     1 <1>   0.0800 
 28 H        0.5260    -6.1890    -0.5680 H     1 <1>   0.0800 
 29 H        0.4080    -6.1480     1.1850 H     1 <1>   0.0800 
 30 H        4.8330    -0.7740    -0.8490 H     1 <1>   0.0800 
 31 H        5.6290    -2.3060    -0.6130 H     1 <1>   0.0800 
 32 H        5.2070    -1.3110     0.7680 H     1 <1>   0.0800 
 33 H        5.1530    -3.6140     1.6980 H     1 <1>   0.0800 
 34 H        5.1270    -4.7570     0.3660 H     1 <1>   0.0800 
 35 H        4.1840    -5.0550     1.8050 H     1 <1>   0.0800 
 36 H       -3.2950    -4.9180     0.3860 H     1 <1>   0.0800 
 37 H       -1.7520    -6.3220    -0.8570 H     1 <1>   0.0800 
 38 H       -1.2760    -4.6250     2.2840 H     1 <1>   0.4000 
 39 H       -2.9120    -7.6830     0.8720 H     1 <1>   0.0800 
 40 H       -1.5880    -7.4290     1.9610 H     1 <1>   0.0800 
 41 H       -2.5010    -9.0110    -1.2950 H     1 <1>   0.1500 
 42 H        0.4930    -8.7330     1.7100 H     1 <1>   0.1500 
 43 H       -1.2720   -10.8940    -2.2250 H     1 <1>   0.1500 
 44 H        1.6030   -10.6250     0.6610 H     1 <1>   0.1500 
@<TRIPOS>BOND
  1   1   2  ar  
  2   2   3  ar  
  3   2   4  1   
  4   4   5  ar  
  5   4   6  ar  
  6   5   7  ar  
  7   5   8  1   
  8   6   9  ar  
  9   6  25  1   
 10   7  10  ar  
 11   8  11  1   
 12   8  12  1   
 13   9  10  ar  
 14   9  13  1   
 15  10  14  1   
 16  11  15  1   
 17  11  26  1   
 18  11  27  1   
 19  12  16  1   
 20  12  28  1   
 21  12  29  1   
 22  13  30  1   
 23  13  31  1   
 24  13  32  1   
 25  14  33  1   
 26  14  34  1   
 27  14  35  1   
 28  15  16  1   
 29  15  17  1   
 30  15  36  1   
 31  16  18  1   
 32  16  37  1   
 33  17  38  1   
 34  18  19  1   
 35  18  39  1   
 36  18  40  1   
 37  19  20  ar  
 38  19  21  ar  
 39  20  22  ar  
 40  20  41  1   
 41  21  23  ar  
 42  21  42  1   
 43  22  24  ar  
 44  22  43  1   
 45  23  24  ar  
 46  23  44  1   
@<TRIPOS>SUBSTRUCTURE
  1 ****  12 GROUP 4 **** **** 0

# MOE 2024.06 (io_trps.svl 2023.06)
