@<TRIPOS>MOLECULE
NONAME
47 48 1 0 0 
SMALL
USER_CHARGES


@<TRIPOS>ATOM
  1 F       -2.3340    -0.8220    -1.0210 F     1 <1>  -0.1900 
  2 C       -1.9090    -1.9730    -0.5770 C.ar  1 <1>   0.1900 
  3 C       -2.1510    -3.1040    -1.3330 C.ar  1 <1>  -0.1500 
  4 C       -1.2450    -2.0190     0.6330 C.ar  1 <1>  -0.1500 
  5 C       -1.7280    -4.3360    -0.8540 C.ar  1 <1>  -0.1440 
  6 C       -0.8120    -3.2480     1.1000 C.ar  1 <1>  -0.1500 
  7 C       -1.0520    -4.3960     0.3600 C.ar  1 <1>  -0.1500 
  8 C       -2.0070    -5.6120    -1.6480 C.3   1 <1>   0.0450 
  9 C       -2.5790    -6.7490    -0.8030 C.2   1 <1>   0.5690 
 10 O       -1.9280    -7.7650    -0.7680 O.2   1 <1>  -0.5700 
 11 N       -3.7620    -6.6320    -0.1060 N.am  1 <1>  -0.6600 
 12 C       -4.1870    -7.7680     0.7890 C.3   1 <1>   0.3210 
 13 C       -4.5450    -5.3570    -0.0020 C.3   1 <1>   0.1400 
 14 C       -5.2410    -8.6680     0.1390 C.2   1 <1>   0.0460 
 15 C       -6.0650    -5.5700    -0.0890 C.3   1 <1>   0.3430 
 16 N       -6.5630    -8.3860     0.2170 N.2   1 <1>  -0.5650 
 17 C       -5.0410    -9.8220    -0.5420 C.2   1 <1>  -0.3320 
 18 N       -6.8480    -4.2960    -0.2390 N.4   1 <1>  -0.9590 
 19 C       -7.1280    -9.3670    -0.4100 C.2   1 <1>   0.0360 
 20 N       -6.2570   -10.2710    -0.9000 N.pl3 1 <1>   0.0330 
 21 C       -3.7660   -10.5720    -0.8920 C.3   1 <1>  -0.0600 
 22 C       -6.6840    -3.3810     0.9350 C.3   1 <1>   0.2630 
 23 C       -8.2890    -4.6450    -0.4300 C.3   1 <1>   0.2630 
 24 H       -2.6570    -3.0080    -2.2770 H     1 <1>   0.1500 
 25 H       -1.0680    -1.1150     1.1900 H     1 <1>   0.1500 
 26 H       -0.2830    -3.3130     2.0370 H     1 <1>   0.1500 
 27 H       -0.7030    -5.3440     0.7370 H     1 <1>   0.1500 
 28 H       -1.0820    -5.9440    -2.0860 H     1 <1>   0.0800 
 29 H       -2.6860    -5.4170    -2.4550 H     1 <1>   0.0800 
 30 H       -4.5770    -7.3800     1.7120 H     1 <1>   0.0800 
 31 H       -3.3350    -8.3720     1.0480 H     1 <1>   0.0800 
 32 H       -4.2730    -4.7020    -0.8050 H     1 <1>   0.0800 
 33 H       -4.2940    -4.8820     0.9300 H     1 <1>   0.0800 
 34 H       -6.3940    -6.0860     0.7970 H     1 <1>   0.0800 
 35 H       -6.2630    -6.2080    -0.9350 H     1 <1>   0.0800 
 36 H       -6.5210    -3.8140    -1.0900 H     1 <1>   0.4500 
 37 H       -8.1910    -9.4780    -0.5400 H     1 <1>   0.1500 
 38 H       -6.4760   -11.1250    -1.4210 H     1 <1>   0.2700 
 39 H       -2.9120   -10.1250    -0.4170 H     1 <1>   0.0800 
 40 H       -3.6060   -10.5550    -1.9550 H     1 <1>   0.0800 
 41 H       -3.8320   -11.5950    -0.5650 H     1 <1>   0.0800 
 42 H       -6.9990    -3.8730     1.8400 H     1 <1>   0.0800 
 43 H       -7.2800    -2.4920     0.8010 H     1 <1>   0.0800 
 44 H       -5.6530    -3.0850     1.0430 H     1 <1>   0.0800 
 45 H       -8.6650    -5.1690     0.4350 H     1 <1>   0.0800 
 46 H       -8.4090    -5.2810    -1.2920 H     1 <1>   0.0800 
 47 H       -8.8760    -3.7530    -0.5760 H     1 <1>   0.0800 
@<TRIPOS>BOND
  1   1   2  1   
  2   2   3  ar  
  3   2   4  ar  
  4   3   5  ar  
  5   3  24  1   
  6   4   6  ar  
  7   4  25  1   
  8   5   7  ar  
  9   5   8  1   
 10   6   7  ar  
 11   6  26  1   
 12   7  27  1   
 13   8   9  1   
 14   8  28  1   
 15   8  29  1   
 16   9  10  2   
 17   9  11  am  
 18  11  12  1   
 19  11  13  1   
 20  12  14  1   
 21  12  30  1   
 22  12  31  1   
 23  13  15  1   
 24  13  32  1   
 25  13  33  1   
 26  14  16  1   
 27  14  17  2   
 28  15  18  1   
 29  15  34  1   
 30  15  35  1   
 31  16  19  2   
 32  17  20  1   
 33  17  21  1   
 34  18  22  1   
 35  18  23  1   
 36  18  36  1   
 37  19  20  1   
 38  19  37  1   
 39  20  38  1   
 40  21  39  1   
 41  21  40  1   
 42  21  41  1   
 43  22  42  1   
 44  22  43  1   
 45  22  44  1   
 46  23  45  1   
 47  23  46  1   
 48  23  47  1   
@<TRIPOS>SUBSTRUCTURE
  1 ****  13 GROUP 4 **** **** 0

# MOE 2024.06 (io_trps.svl 2023.06)
