@<TRIPOS>MOLECULE
NONAME
37 38 1 0 0 
SMALL
USER_CHARGES


@<TRIPOS>ATOM
  1 BR      -3.2080    -2.0020     3.4780 Br    1 <1>  -0.0810 
  2 C       -4.1880    -1.7250     1.8480 C.2   1 <1>   0.7180 
  3 N       -3.7500    -1.9890     0.6770 N.2   1 <1>  -0.2690 
  4 N       -5.4320    -1.2270     1.8780 N.pl3 1 <1>  -0.7050 
  5 N       -4.8110    -1.6050    -0.1150 N.pl3 1 <1>  -0.4650 
  6 C       -5.8100    -1.1340     0.6360 C.cat 1 <1>   1.0680 
  7 C       -4.8020    -1.7510    -1.5690 C.3   1 <1>   0.6280 
  8 N       -7.0120    -0.6800     0.2690 N.pl3 1 <1>  -0.7190 
  9 O       -4.7160    -0.4740    -2.0980 O.3   1 <1>  -0.5670 
 10 C       -7.3220     0.2970    -0.8210 C.3   1 <1>   0.1570 
 11 C       -4.5200    -0.4400    -3.4760 C.3   1 <1>   0.0290 
 12 C       -8.6280     1.0810    -0.5410 C.3   1 <1>   0.1300 
 13 N       -8.8030     1.3090     0.9220 N.am  1 <1>  -0.4770 
 14 C       -7.7760     2.0500     1.5240 C.2   1 <1>   0.6100 
 15 C       -9.4470     0.3240     1.6700 C.2   1 <1>  -0.0410 
 16 O       -7.3840     3.0840     0.9570 O.2   1 <1>  -0.5760 
 17 C       -7.1370     1.5060     2.6330 C.2   1 <1>  -0.1460 
 18 C       -8.8400    -0.1820     2.7710 C.2   1 <1>  -0.1600 
 19 C      -10.8110    -0.1630     1.2140 C.3   1 <1>  -0.1130 
 20 C       -7.5720     0.3100     3.1820 C.2   1 <1>  -0.1600 
 21 O       -6.8670    -0.3590     3.9480 O.3   1 <1>  -0.8540 
 22 H       -5.9680    -0.9060     2.7210 H     1 <1>   0.4420 
 23 H       -5.7100    -2.2160    -1.9150 H     1 <1>   0.0690 
 24 H       -3.9430    -2.3210    -1.8820 H     1 <1>   0.0690 
 25 H       -7.6010    -0.4640     1.0990 H     1 <1>   0.4420 
 26 H       -7.4070    -0.2130    -1.7640 H     1 <1>   0.0690 
 27 H       -6.5130     1.0050    -0.8970 H     1 <1>   0.0690 
 28 H       -4.4780     0.5910    -3.7830 H     1 <1>   0.0690 
 29 H       -5.3410    -0.9300    -3.9710 H     1 <1>   0.0690 
 30 H       -3.5870    -0.9220    -3.7170 H     1 <1>   0.0690 
 31 H       -9.4650     0.5360    -0.9340 H     1 <1>   0.0690 
 32 H       -8.5990     2.0290    -1.0500 H     1 <1>   0.0690 
 33 H       -6.2730     1.9950     3.0370 H     1 <1>   0.1400 
 34 H       -9.2700    -0.9580     3.3790 H     1 <1>   0.1400 
 35 H      -11.4450     0.6790     1.0000 H     1 <1>   0.0690 
 36 H      -11.2750    -0.7460     1.9890 H     1 <1>   0.0690 
 37 H      -10.7250    -0.7770     0.3370 H     1 <1>   0.0690 
@<TRIPOS>BOND
  1   1   2  1   
  2   2   3  2   
  3   2   4  1   
  4   3   5  1   
  5   4   6  ar  
  6   4  22  1   
  7   5   6  ar  
  8   5   7  1   
  9   6   8  ar  
 10   7   9  1   
 11   7  23  1   
 12   7  24  1   
 13   8  10  1   
 14   8  25  1   
 15   9  11  1   
 16  10  12  1   
 17  10  26  1   
 18  10  27  1   
 19  11  28  1   
 20  11  29  1   
 21  11  30  1   
 22  12  13  1   
 23  12  31  1   
 24  12  32  1   
 25  13  14  am  
 26  13  15  1   
 27  14  16  2   
 28  14  17  1   
 29  15  18  2   
 30  15  19  1   
 31  17  20  2   
 32  17  33  1   
 33  18  20  1   
 34  18  34  1   
 35  19  35  1   
 36  19  36  1   
 37  19  37  1   
 38  20  21  1   
@<TRIPOS>SUBSTRUCTURE
  1 ****   8 GROUP 4 **** **** 0

# MOE 2024.06 (io_trps.svl 2023.06)
