@<TRIPOS>MOLECULE
NONAME
48 50 1 0 0 
SMALL
USER_CHARGES


@<TRIPOS>ATOM
  1 S        0.3040     0.3240     1.7810 S.o2  1 <1>   1.3330 
  2 O        0.8420    -0.6990     2.6440 O.2   1 <1>  -0.6500 
  3 O       -0.1830     1.5660     2.3320 O.2   1 <1>  -0.6500 
  4 N        1.5620     0.7700     0.7300 N.am  1 <1>  -0.8490 
  5 C       -0.9760    -0.3520     0.7320 C.3   1 <1>  -0.0550 
  6 C        2.5680     1.5570     1.4920 C.3   1 <1>   0.1960 
  7 C        2.2070    -0.3780     0.0700 C.3   1 <1>   0.1960 
  8 C       -0.9800    -1.8770     0.7540 C.3   1 <1>   0.1200 
  9 C        3.6430     2.3040     0.6510 C.3   1 <1>   0.4230 
 10 C        3.1240     0.0550    -1.0960 C.3   1 <1>  -0.0800 
 11 O       -1.7140    -2.3210    -0.3610 O.3   1 <1>  -0.3630 
 12 N        3.2330     2.6230    -0.7760 N.4   1 <1>  -0.9590 
 13 C        5.0190     1.6060     0.7160 C.3   1 <1>   0.1200 
 14 C        4.6190    -0.1600    -0.8180 C.3   1 <1>   0.1200 
 15 C        2.7920     1.4590    -1.6250 C.3   1 <1>   0.3430 
 16 C       -1.8300    -3.6430    -0.6430 C.ar  1 <1>   0.0820 
 17 C        2.1370     3.6430    -0.7610 C.3   1 <1>   0.2630 
 18 O        4.9440     0.2380     0.4710 O.3   1 <1>  -0.5600 
 19 C       -1.3270    -4.6550     0.1780 C.ar  1 <1>  -0.1500 
 20 C       -2.4890    -3.9690    -1.8220 C.ar  1 <1>  -0.1500 
 21 C       -1.4800    -5.9820    -0.1890 C.ar  1 <1>  -0.1500 
 22 C       -2.6470    -5.2930    -2.1960 C.ar  1 <1>  -0.1500 
 23 C       -2.1360    -6.2750    -1.3690 C.ar  1 <1>   0.1900 
 24 F       -2.2790    -7.5270    -1.7160 F     1 <1>  -0.1900 
 25 H       -1.9320    -0.0140     1.0830 H     1 <1>   0.0800 
 26 H       -0.8410     0.0010    -0.2710 H     1 <1>   0.0800 
 27 H        2.0590     2.3190     2.0570 H     1 <1>   0.0800 
 28 H        3.0500     0.9220     2.2180 H     1 <1>   0.0800 
 29 H        2.7470    -0.9740     0.7900 H     1 <1>   0.0800 
 30 H        1.4440    -1.0080    -0.3510 H     1 <1>   0.0800 
 31 H       -1.4490    -2.2440     1.6520 H     1 <1>   0.0800 
 32 H        0.0160    -2.2760     0.6770 H     1 <1>   0.0800 
 33 H        3.7980     3.2470     1.1480 H     1 <1>   0.0800 
 34 H        2.8970    -0.6120    -1.9080 H     1 <1>   0.0800 
 35 H        4.0520     3.0420    -1.2350 H     1 <1>   0.4500 
 36 H        5.4120     1.7100     1.7120 H     1 <1>   0.0800 
 37 H        5.7240     2.0500     0.0350 H     1 <1>   0.0800 
 38 H        5.2490     0.3560    -1.5240 H     1 <1>   0.0800 
 39 H        4.8450    -1.2120    -0.8760 H     1 <1>   0.0800 
 40 H        1.7220     1.5040    -1.7450 H     1 <1>   0.0800 
 41 H        3.2230     1.5660    -2.6070 H     1 <1>   0.0800 
 42 H        1.2590     3.2350    -0.2840 H     1 <1>   0.0800 
 43 H        1.8790     3.9340    -1.7660 H     1 <1>   0.0800 
 44 H        2.4450     4.5220    -0.2180 H     1 <1>   0.0800 
 45 H       -0.8200    -4.4350     1.0980 H     1 <1>   0.1500 
 46 H       -2.8760    -3.1810    -2.4430 H     1 <1>   0.1500 
 47 H       -1.1010    -6.7790     0.4260 H     1 <1>   0.1500 
 48 H       -3.1530    -5.5610    -3.1050 H     1 <1>   0.1500 
@<TRIPOS>BOND
  1   1   2  2   
  2   1   3  2   
  3   1   4  am  
  4   1   5  1   
  5   4   6  1   
  6   4   7  1   
  7   5   8  1   
  8   5  25  1   
  9   5  26  1   
 10   6   9  1   
 11   6  27  1   
 12   6  28  1   
 13   7  10  1   
 14   7  29  1   
 15   7  30  1   
 16   8  11  1   
 17   8  31  1   
 18   8  32  1   
 19   9  12  1   
 20   9  13  1   
 21   9  33  1   
 22  10  14  1   
 23  10  15  1   
 24  10  34  1   
 25  11  16  1   
 26  12  15  1   
 27  12  17  1   
 28  12  35  1   
 29  13  18  1   
 30  13  36  1   
 31  13  37  1   
 32  14  18  1   
 33  14  38  1   
 34  14  39  1   
 35  15  40  1   
 36  15  41  1   
 37  16  19  ar  
 38  16  20  ar  
 39  17  42  1   
 40  17  43  1   
 41  17  44  1   
 42  19  21  ar  
 43  19  45  1   
 44  20  22  ar  
 45  20  46  1   
 46  21  23  ar  
 47  21  47  1   
 48  22  23  ar  
 49  22  48  1   
 50  23  24  1   
@<TRIPOS>SUBSTRUCTURE
  1 ****   7 GROUP 4 **** **** 0

# MOE 2024.06 (io_trps.svl 2023.06)
