@<TRIPOS>MOLECULE
NONAME
53 54 1 0 0 
SMALL
USER_CHARGES


@<TRIPOS>ATOM
  1 S       -0.1170    -2.0330     0.4560 S.o2  1 <1>   1.3330 
  2 O       -0.5240    -3.3620     0.8630 O.2   1 <1>  -0.6500 
  3 O        1.1180    -1.4710     0.9400 O.2   1 <1>  -0.6500 
  4 N       -1.3800    -0.9920     0.9020 N.am  1 <1>  -0.8490 
  5 C       -0.1220    -2.0060    -1.3450 C.3   1 <1>  -0.0550 
  6 C       -1.1120     0.4130     0.5540 C.3   1 <1>   0.1160 
  7 C       -1.6120    -1.0510     2.3530 C.3   1 <1>   0.1160 
  8 C       -1.4780    -2.2550    -2.0520 C.3   1 <1>  -0.1600 
  9 C       -1.9500    -3.7190    -2.0880 C.3   1 <1>   0.3430 
 10 N       -2.5320    -4.1800    -0.8010 N.4   1 <1>  -0.9590 
 11 C       -2.5530    -5.6880    -0.7640 C.3   1 <1>   0.3430 
 12 C       -3.8660    -3.5590    -0.5160 C.3   1 <1>   0.3430 
 13 C       -3.1140    -6.2960     0.5330 C.3   1 <1>   0.2090 
 14 C       -4.1520    -3.5590     0.9870 C.3   1 <1>  -0.1600 
 15 N       -4.5660    -5.9820     0.6470 N.pl3 1 <1>  -0.8380 
 16 C       -4.9160    -4.7970     1.4620 C.3   1 <1>   0.2090 
 17 C       -5.4260    -7.0720     0.7820 C.ar  1 <1>   0.1000 
 18 C       -6.3800    -7.3630    -0.1950 C.ar  1 <1>  -0.1440 
 19 C       -5.3420    -7.8880     1.9060 C.ar  1 <1>  -0.1500 
 20 C       -7.2160    -8.4570    -0.0350 C.ar  1 <1>  -0.1500 
 21 C       -6.5180    -6.4930    -1.4350 C.3   1 <1>  -0.0970 
 22 C       -6.1780    -8.9760     2.0590 C.ar  1 <1>  -0.1500 
 23 C       -7.1180    -9.2630     1.0850 C.ar  1 <1>  -0.1500 
 24 H        0.5970    -2.7180    -1.7030 H     1 <1>   0.0800 
 25 H        0.2320    -1.0420    -1.6550 H     1 <1>   0.0800 
 26 H       -0.9900     0.5250    -0.5080 H     1 <1>   0.0800 
 27 H       -0.2170     0.7630     1.0440 H     1 <1>   0.0800 
 28 H       -1.9380     1.0350     0.8600 H     1 <1>   0.0800 
 29 H       -1.8200    -2.0610     2.6630 H     1 <1>   0.0800 
 30 H       -2.4530    -0.4340     2.6230 H     1 <1>   0.0800 
 31 H       -0.7400    -0.7080     2.8890 H     1 <1>   0.0800 
 32 H       -1.3450    -1.9580    -3.0780 H     1 <1>   0.0800 
 33 H       -2.2370    -1.6090    -1.6490 H     1 <1>   0.0800 
 34 H       -1.1110    -4.3440    -2.3500 H     1 <1>   0.0800 
 35 H       -2.6920    -3.8310    -2.8640 H     1 <1>   0.0800 
 36 H       -1.8970    -3.8920    -0.0310 H     1 <1>   0.4500 
 37 H       -1.5480    -6.0530    -0.8920 H     1 <1>   0.0800 
 38 H       -3.1460    -6.0620    -1.5810 H     1 <1>   0.0800 
 39 H       -4.6470    -4.0860    -1.0410 H     1 <1>   0.0800 
 40 H       -3.8630    -2.5370    -0.8520 H     1 <1>   0.0800 
 41 H       -2.5720    -5.9290     1.3880 H     1 <1>   0.0800 
 42 H       -2.9840    -7.3640     0.4930 H     1 <1>   0.0800 
 43 H       -4.7550    -2.7000     1.2210 H     1 <1>   0.0800 
 44 H       -3.2390    -3.4590     1.5430 H     1 <1>   0.0800 
 45 H       -5.9750    -4.6240     1.3640 H     1 <1>   0.0800 
 46 H       -4.7090    -4.9900     2.5020 H     1 <1>   0.0800 
 47 H       -4.6170    -7.6650     2.6660 H     1 <1>   0.1500 
 48 H       -7.9540    -8.6900    -0.7820 H     1 <1>   0.1500 
 49 H       -5.5880    -6.4770    -1.9730 H     1 <1>   0.0800 
 50 H       -6.7740    -5.4910    -1.1450 H     1 <1>   0.0800 
 51 H       -7.2850    -6.8680    -2.0870 H     1 <1>   0.0800 
 52 H       -6.1020    -9.6000     2.9330 H     1 <1>   0.1500 
 53 H       -7.7720   -10.1100     1.1990 H     1 <1>   0.1500 
@<TRIPOS>BOND
  1   1   2  2   
  2   1   3  2   
  3   1   4  am  
  4   1   5  1   
  5   4   6  1   
  6   4   7  1   
  7   5   8  1   
  8   5  24  1   
  9   5  25  1   
 10   6  26  1   
 11   6  27  1   
 12   6  28  1   
 13   7  29  1   
 14   7  30  1   
 15   7  31  1   
 16   8   9  1   
 17   8  32  1   
 18   8  33  1   
 19   9  10  1   
 20   9  34  1   
 21   9  35  1   
 22  10  11  1   
 23  10  12  1   
 24  10  36  1   
 25  11  13  1   
 26  11  37  1   
 27  11  38  1   
 28  12  14  1   
 29  12  39  1   
 30  12  40  1   
 31  13  15  1   
 32  13  41  1   
 33  13  42  1   
 34  14  16  1   
 35  14  43  1   
 36  14  44  1   
 37  15  16  1   
 38  15  17  1   
 39  16  45  1   
 40  16  46  1   
 41  17  18  ar  
 42  17  19  ar  
 43  18  20  ar  
 44  18  21  1   
 45  19  22  ar  
 46  19  47  1   
 47  20  23  ar  
 48  20  48  1   
 49  21  49  1   
 50  21  50  1   
 51  21  51  1   
 52  22  23  ar  
 53  22  52  1   
 54  23  53  1   
@<TRIPOS>SUBSTRUCTURE
  1 ****  12 GROUP 4 **** **** 0

# MOE 2024.06 (io_trps.svl 2023.06)
