@<TRIPOS>MOLECULE
NONAME
46 49 1 0 0 
SMALL
USER_CHARGES


@<TRIPOS>ATOM
  1 S        1.5200    -1.1500     0.8850 S.o2  1 <1>   1.5000 
  2 O        2.2100    -2.0310    -0.0300 O.2   1 <1>  -0.6500 
  3 O        1.8090    -1.2050     2.2970 O.2   1 <1>  -0.6500 
  4 N       -0.1050    -1.5680     0.8050 N.am  1 <1>  -0.9140 
  5 C        1.5330     0.5680     0.2600 C.2   1 <1>   0.0780 
  6 C       -0.3480    -3.0050     0.7100 C.3   1 <1>   0.2760 
  7 O        2.4680     1.4330     0.6310 O.3   1 <1>  -0.2800 
  8 C        0.7000     1.1810    -0.6140 C.2   1 <1>  -0.1500 
  9 C       -1.8200    -3.2610     0.4060 C.3   1 <1>  -0.0800 
 10 C       -0.2520    -3.6540     2.0900 C.3   1 <1>   0.1200 
 11 C        2.2650     2.6000     0.0320 C.2   1 <1>   0.1410 
 12 C        1.1670     2.4880    -0.7610 C.2   1 <1>  -0.1500 
 13 C       -2.4770    -3.2260     1.7920 C.3   1 <1>   0.1200 
 14 C       -2.4740    -2.3210    -0.6250 C.3   1 <1>  -0.0160 
 15 O       -1.4380    -3.2910     2.7260 O.3   1 <1>  -0.5600 
 16 C        3.1450     3.7230     0.2740 C.2   1 <1>   0.2880 
 17 C       -3.9070    -2.7410    -0.9060 C.ar  1 <1>  -0.1440 
 18 N        4.1800     3.7290     1.0580 N.2   1 <1>  -0.4100 
 19 C        3.0080     4.9910    -0.3070 C.2   1 <1>  -0.1500 
 20 C       -4.2040    -3.7730    -1.7730 C.ar  1 <1>  -0.1500 
 21 C       -4.9840    -2.1170    -0.3090 C.ar  1 <1>  -0.1500 
 22 O        4.6940     4.9220     1.0000 O.3   1 <1>  -0.0190 
 23 C        4.0270     5.7060     0.1980 C.2   1 <1>  -0.0400 
 24 C       -5.5250    -4.1260    -1.9900 C.ar  1 <1>   0.1600 
 25 C       -6.2690    -2.5470    -0.5950 C.ar  1 <1>   0.1600 
 26 C        4.4860     7.1480     0.0050 C.3   1 <1>   1.2000 
 27 N       -6.5640    -3.5390    -1.4200 N.ar  1 <1>  -0.6200 
 28 F        4.4810     7.8430     1.1350 F     1 <1>  -0.3400 
 29 F        3.6990     7.8060    -0.8390 F     1 <1>  -0.3400 
 30 F        5.7140     7.2330    -0.4890 F     1 <1>  -0.3400 
 31 H       -0.4540    -1.3230     1.7350 H     1 <1>   0.4200 
 32 H        0.2900    -3.4740    -0.0210 H     1 <1>   0.0800 
 33 H       -0.1570     0.7600    -1.1120 H     1 <1>   0.1500 
 34 H       -1.9070    -4.2680     0.0390 H     1 <1>   0.0800 
 35 H        0.5890    -3.3290     2.6740 H     1 <1>   0.0800 
 36 H       -0.2360    -4.7270     2.0060 H     1 <1>   0.0800 
 37 H        0.7200     3.2380    -1.3890 H     1 <1>   0.1500 
 38 H       -3.1360    -4.0640     1.9420 H     1 <1>   0.0800 
 39 H       -3.0110    -2.3080     1.9630 H     1 <1>   0.0800 
 40 H       -1.9100    -2.3480    -1.5410 H     1 <1>   0.0800 
 41 H       -2.4650    -1.3050    -0.2690 H     1 <1>   0.0800 
 42 H        2.2430     5.2870    -1.0000 H     1 <1>   0.1500 
 43 H       -3.4220    -4.3070    -2.2810 H     1 <1>   0.1500 
 44 H       -4.8410    -1.3010     0.3750 H     1 <1>   0.1500 
 45 H       -5.7390    -4.9340    -2.6690 H     1 <1>   0.1500 
 46 H       -7.0990    -2.0500    -0.1220 H     1 <1>   0.1500 
@<TRIPOS>BOND
  1   1   2  2   
  2   1   3  2   
  3   1   4  am  
  4   1   5  1   
  5   4   6  1   
  6   4  31  1   
  7   5   7  1   
  8   5   8  2   
  9   6   9  1   
 10   6  10  1   
 11   6  32  1   
 12   7  11  1   
 13   8  12  1   
 14   8  33  1   
 15   9  13  1   
 16   9  14  1   
 17   9  34  1   
 18  10  15  1   
 19  10  35  1   
 20  10  36  1   
 21  11  12  2   
 22  11  16  1   
 23  12  37  1   
 24  13  15  1   
 25  13  38  1   
 26  13  39  1   
 27  14  17  1   
 28  14  40  1   
 29  14  41  1   
 30  16  18  2   
 31  16  19  1   
 32  17  20  ar  
 33  17  21  ar  
 34  18  22  1   
 35  19  23  2   
 36  19  42  1   
 37  20  24  ar  
 38  20  43  1   
 39  21  25  ar  
 40  21  44  1   
 41  22  23  1   
 42  23  26  1   
 43  24  27  ar  
 44  24  45  1   
 45  25  27  ar  
 46  25  46  1   
 47  26  28  1   
 48  26  29  1   
 49  26  30  1   
@<TRIPOS>SUBSTRUCTURE
  1 ****   8 GROUP 4 **** **** 0

# MOE 2024.06 (io_trps.svl 2023.06)
