@<TRIPOS>MOLECULE
NONAME
42 44 1 0 0 
SMALL
USER_CHARGES


@<TRIPOS>ATOM
  1 O       -1.1570     0.0530    -0.7660 O.2   1 <1>  -0.5700 
  2 C       -1.8530     0.7280    -0.0270 C.2   1 <1>   0.6900 
  3 N       -2.9260     0.1460     0.5920 N.am  1 <1>  -0.6600 
  4 N       -1.5810     2.0650     0.1520 N.am  1 <1>  -0.6600 
  5 C       -2.9480    -1.3350     0.7900 C.3   1 <1>   0.1400 
  6 C       -4.2900     0.6990     0.3540 C.3   1 <1>   0.1400 
  7 C       -0.6090     2.7720    -0.7240 C.3   1 <1>   0.0600 
  8 C       -1.9690     2.8090     1.3810 C.3   1 <1>   0.0600 
  9 C       -3.7310    -2.0260    -0.3410 C.3   1 <1>   0.3440 
 10 C       -5.0180    -0.0960    -0.7560 C.3   1 <1>   0.2950 
 11 O       -5.0130    -1.4610    -0.4500 O.3   1 <1>  -0.5600 
 12 C       -3.8480    -3.5250    -0.0750 C.ar  1 <1>  -0.1440 
 13 C       -6.4880     0.3040    -0.9750 C.3   1 <1>  -0.1950 
 14 C       -4.9120    -4.0570     0.6430 C.ar  1 <1>  -0.1500 
 15 C       -2.8630    -4.3790    -0.5480 C.ar  1 <1>  -0.1500 
 16 C       -7.0140     1.6920    -0.7630 C.3   1 <1>  -0.2000 
 17 C       -7.4550     0.5720     0.1370 C.3   1 <1>  -0.2000 
 18 C       -4.9880    -5.4180     0.8830 C.ar  1 <1>  -0.1500 
 19 C       -2.9370    -5.7410    -0.3100 C.ar  1 <1>  -0.1500 
 20 C       -4.0000    -6.2610     0.4070 C.ar  1 <1>  -0.1500 
 21 H       -1.9430    -1.7190     0.8140 H     1 <1>   0.0800 
 22 H       -3.4110    -1.5640     1.7330 H     1 <1>   0.0800 
 23 H       -4.8520     0.6500     1.2680 H     1 <1>   0.0800 
 24 H       -4.2200     1.7290     0.0560 H     1 <1>   0.0800 
 25 H       -0.9520     3.7730    -0.9190 H     1 <1>   0.0800 
 26 H       -0.5050     2.2560    -1.6630 H     1 <1>   0.0800 
 27 H        0.3510     2.8110    -0.2410 H     1 <1>   0.0800 
 28 H       -2.6680     3.5870     1.1280 H     1 <1>   0.0800 
 29 H       -1.0970     3.2500     1.8300 H     1 <1>   0.0800 
 30 H       -2.4220     2.1490     2.1000 H     1 <1>   0.0800 
 31 H       -3.2190    -1.8720    -1.2760 H     1 <1>   0.0800 
 32 H       -4.4870     0.0390    -1.6830 H     1 <1>   0.0800 
 33 H       -6.8850    -0.2200    -1.8280 H     1 <1>   0.1000 
 34 H       -5.6870    -3.4080     1.0140 H     1 <1>   0.1500 
 35 H       -2.0290    -3.9870    -1.1060 H     1 <1>   0.1500 
 36 H       -6.3920     2.4620    -0.3420 H     1 <1>   0.1000 
 37 H       -7.7200     2.0870    -1.4740 H     1 <1>   0.1000 
 38 H       -8.4550     0.1850     0.0410 H     1 <1>   0.1000 
 39 H       -7.1100     0.5490     1.1560 H     1 <1>   0.1000 
 40 H       -5.8180    -5.8190     1.4380 H     1 <1>   0.1500 
 41 H       -2.1680    -6.3940    -0.6820 H     1 <1>   0.1500 
 42 H       -4.0590    -7.3200     0.5920 H     1 <1>   0.1500 
@<TRIPOS>BOND
  1   1   2  2   
  2   2   3  am  
  3   2   4  am  
  4   3   5  1   
  5   3   6  1   
  6   4   7  1   
  7   4   8  1   
  8   5   9  1   
  9   5  21  1   
 10   5  22  1   
 11   6  10  1   
 12   6  23  1   
 13   6  24  1   
 14   7  25  1   
 15   7  26  1   
 16   7  27  1   
 17   8  28  1   
 18   8  29  1   
 19   8  30  1   
 20   9  11  1   
 21   9  12  1   
 22   9  31  1   
 23  10  11  1   
 24  10  13  1   
 25  10  32  1   
 26  12  14  ar  
 27  12  15  ar  
 28  13  16  1   
 29  13  17  1   
 30  13  33  1   
 31  14  18  ar  
 32  14  34  1   
 33  15  19  ar  
 34  15  35  1   
 35  16  17  1   
 36  16  36  1   
 37  16  37  1   
 38  17  38  1   
 39  17  39  1   
 40  18  20  ar  
 41  18  40  1   
 42  19  20  ar  
 43  19  41  1   
 44  20  42  1   
@<TRIPOS>SUBSTRUCTURE
  1 ****   9 GROUP 4 **** **** 0

# MOE 2024.06 (io_trps.svl 2023.06)
