@<TRIPOS>MOLECULE
NONAME
47 48 1 0 0 
SMALL
USER_CHARGES


@<TRIPOS>ATOM
  1 O       -1.9090     0.3610     2.7110 O.2   1 <1>  -0.5700 
  2 C       -1.4840     1.1820     1.9360 C.2   1 <1>   0.5690 
  3 N       -1.0950     0.8970     0.6620 N.am  1 <1>  -0.5470 
  4 C       -1.3420     2.6140     2.3960 C.3   1 <1>  -0.0990 
  5 C       -1.0430    -0.3270    -0.0160 C.ar  1 <1>   0.1170 
  6 C        0.1140     3.0770     2.2780 C.3   1 <1>   0.2090 
  7 C        0.0560    -0.6480    -0.8140 C.ar  1 <1>  -0.1440 
  8 C       -2.0980    -1.2280     0.0760 C.ar  1 <1>  -0.1500 
  9 N        0.1960     4.3650     1.5460 N.pl3 1 <1>  -0.8690 
 10 C        0.0650    -1.8410    -1.5170 C.ar  1 <1>  -0.1500 
 11 C        1.2630     0.2780    -0.9070 C.3   1 <1>  -0.0970 
 12 C       -2.0840    -2.4230    -0.6220 C.ar  1 <1>  -0.1430 
 13 C        0.0810     4.5330     0.1840 C.ar  1 <1>   0.4100 
 14 C       -0.9980    -2.7230    -1.4250 C.ar  1 <1>  -0.1500 
 15 C       -3.2440    -3.3950    -0.5100 C.3   1 <1>  -0.0970 
 16 N       -0.4220     3.5300    -0.5090 N.ar  1 <1>  -0.6200 
 17 C        0.4610     5.7220    -0.4280 C.ar  1 <1>  -0.1430 
 18 C       -0.5770     3.7390    -1.8010 C.ar  1 <1>   0.4770 
 19 C        0.2690     5.7980    -1.7870 C.ar  1 <1>   0.1600 
 20 C        1.0550     6.8670     0.4000 C.3   1 <1>  -0.0170 
 21 N       -0.2520     4.8140    -2.4900 N.ar  1 <1>  -0.6200 
 22 C       -1.2040     2.6210    -2.6020 C.3   1 <1>  -0.0970 
 23 C        1.4750     8.1080    -0.3980 C.3   1 <1>  -0.2400 
 24 H       -0.7280     1.7060     0.1440 H     1 <1>   0.3700 
 25 H       -1.6590     2.6860     3.4190 H     1 <1>   0.0800 
 26 H       -1.9930     3.2260     1.8000 H     1 <1>   0.0800 
 27 H        0.7170     2.3490     1.7610 H     1 <1>   0.0800 
 28 H        0.5320     3.1990     3.2620 H     1 <1>   0.0800 
 29 H       -2.9340    -0.9810     0.7040 H     1 <1>   0.1500 
 30 H        0.5770     5.1450     2.0840 H     1 <1>   0.4000 
 31 H        0.9040    -2.0990    -2.1390 H     1 <1>   0.1500 
 32 H        1.6390     0.4890     0.0780 H     1 <1>   0.0800 
 33 H        0.9940     1.2030    -1.3800 H     1 <1>   0.0800 
 34 H        2.0540    -0.1750    -1.4770 H     1 <1>   0.0800 
 35 H       -0.9740    -3.6450    -1.9780 H     1 <1>   0.1500 
 36 H       -3.8150    -3.2020     0.3810 H     1 <1>   0.0800 
 37 H       -2.8800    -4.4050    -0.4660 H     1 <1>   0.0800 
 38 H       -3.8890    -3.2920    -1.3640 H     1 <1>   0.0800 
 39 H        0.5390     6.6810    -2.3370 H     1 <1>   0.1500 
 40 H        1.9190     6.4970     0.9240 H     1 <1>   0.0800 
 41 H        0.3290     7.1680     1.1360 H     1 <1>   0.0800 
 42 H       -1.6950     1.9160    -1.9580 H     1 <1>   0.0800 
 43 H       -0.4450     2.1150    -3.1670 H     1 <1>   0.0800 
 44 H       -1.9300     3.0280    -3.2810 H     1 <1>   0.0800 
 45 H        2.2260     7.8530    -1.1260 H     1 <1>   0.0800 
 46 H        1.8880     8.8460     0.2670 H     1 <1>   0.0800 
 47 H        0.6270     8.5420    -0.8980 H     1 <1>   0.0800 
@<TRIPOS>BOND
  1   1   2  2   
  2   2   3  am  
  3   2   4  1   
  4   3   5  1   
  5   3  24  1   
  6   4   6  1   
  7   4  25  1   
  8   4  26  1   
  9   5   7  ar  
 10   5   8  ar  
 11   6   9  1   
 12   6  27  1   
 13   6  28  1   
 14   7  10  ar  
 15   7  11  1   
 16   8  12  ar  
 17   8  29  1   
 18   9  13  1   
 19   9  30  1   
 20  10  14  ar  
 21  10  31  1   
 22  11  32  1   
 23  11  33  1   
 24  11  34  1   
 25  12  14  ar  
 26  12  15  1   
 27  13  16  ar  
 28  13  17  ar  
 29  14  35  1   
 30  15  36  1   
 31  15  37  1   
 32  15  38  1   
 33  16  18  ar  
 34  17  19  ar  
 35  17  20  1   
 36  18  21  ar  
 37  18  22  1   
 38  19  21  ar  
 39  19  39  1   
 40  20  23  1   
 41  20  40  1   
 42  20  41  1   
 43  22  42  1   
 44  22  43  1   
 45  22  44  1   
 46  23  45  1   
 47  23  46  1   
 48  23  47  1   
@<TRIPOS>SUBSTRUCTURE
  1 ****   3 GROUP 4 **** **** 0

# MOE 2024.06 (io_trps.svl 2023.06)
