@<TRIPOS>MOLECULE
NONAME
55 58 1 0 0 
SMALL
USER_CHARGES


@<TRIPOS>ATOM
  1 O       -1.7270     0.2580    -2.9570 O.2   1 <1>  -0.5700 
  2 C       -1.0960     0.5650    -1.9730 C.2   1 <1>   0.5690 
  3 N       -0.9340    -0.2820    -0.9290 N.am  1 <1>  -0.7300 
  4 C       -0.4740     1.9460    -1.8660 C.3   1 <1>   0.0820 
  5 C       -1.6130    -1.5770    -0.7200 C.3   1 <1>   0.2200 
  6 C       -0.4920     2.4400    -0.4190 C.2   1 <1>  -0.1810 
  7 C       -2.7180    -1.4420     0.3200 C.3   1 <1>  -0.0800 
  8 C       -0.6590    -2.5080     0.0170 C.3   1 <1>   0.1200 
  9 C       -1.5860     3.0750     0.2330 C.ar  1 <1>   0.0000 
 10 C        0.5130     2.3000     0.4830 C.2   1 <1>  -0.3320 
 11 C       -1.9380    -1.4930     1.6370 C.3   1 <1>   0.1200 
 12 C       -3.6330    -0.2120     0.1760 C.3   1 <1>  -0.0160 
 13 O       -0.7190    -2.1220     1.3590 O.3   1 <1>  -0.5600 
 14 C       -2.8880     3.4770    -0.1280 C.ar  1 <1>  -0.1440 
 15 C       -1.1630     3.2940     1.5450 C.ar  1 <1>  -0.1520 
 16 N        0.1170     2.8270     1.6750 N.pl3 1 <1>   0.0330 
 17 C        1.8890     1.6690     0.3420 C.3   1 <1>  -0.0600 
 18 C       -4.6350    -0.1250     1.3150 C.ar  1 <1>  -0.1440 
 19 C       -3.6920     4.0720     0.8200 C.ar  1 <1>  -0.1500 
 20 C       -3.4370     3.2770    -1.5320 C.3   1 <1>  -0.0970 
 21 C       -1.9820     3.8970     2.5040 C.ar  1 <1>  -0.1440 
 22 C       -4.4890     0.8030     2.3260 C.ar  1 <1>  -0.1500 
 23 C       -5.7330    -0.9550     1.4010 C.ar  1 <1>  -0.1500 
 24 C       -3.2450     4.2830     2.1270 C.ar  1 <1>  -0.1500 
 25 C       -1.4790     4.1150     3.9200 C.3   1 <1>  -0.0970 
 26 C       -5.4200     0.8530     3.3480 C.ar  1 <1>   0.1600 
 27 C       -6.6060    -0.8230     2.4690 C.ar  1 <1>   0.1600 
 28 N       -6.4760     0.0590     3.4470 N.ar  1 <1>  -0.6200 
 29 H       -0.4810     0.0940    -0.0870 H     1 <1>   0.3700 
 30 H        0.5350     1.8860    -2.2230 H     1 <1>   0.0800 
 31 H       -0.9900     2.6320    -2.5070 H     1 <1>   0.0800 
 32 H       -1.9570    -1.9840    -1.6570 H     1 <1>   0.0800 
 33 H       -3.3300    -2.3240     0.2740 H     1 <1>   0.0800 
 34 H        0.3530    -2.4330    -0.3400 H     1 <1>   0.0800 
 35 H       -0.9980    -3.5270    -0.0470 H     1 <1>   0.0800 
 36 H       -2.4620    -2.0500     2.3940 H     1 <1>   0.0800 
 37 H       -1.7180    -0.5030     1.9990 H     1 <1>   0.0800 
 38 H       -4.1560    -0.2580    -0.7640 H     1 <1>   0.0800 
 39 H       -3.0480     0.6870     0.1740 H     1 <1>   0.0800 
 40 H        0.6690     2.8720     2.5360 H     1 <1>   0.2700 
 41 H        2.0290     1.2470    -0.6360 H     1 <1>   0.0800 
 42 H        2.0100     0.8830     1.0660 H     1 <1>   0.0800 
 43 H        2.6520     2.4100     0.5030 H     1 <1>   0.0800 
 44 H       -4.6890     4.3880     0.5700 H     1 <1>   0.1500 
 45 H       -4.4720     3.5600    -1.5830 H     1 <1>   0.0800 
 46 H       -3.3640     2.2450    -1.8210 H     1 <1>   0.0800 
 47 H       -2.8900     3.8840    -2.2290 H     1 <1>   0.0800 
 48 H       -3.6610     1.4890     2.3240 H     1 <1>   0.1500 
 49 H       -5.9180    -1.7000     0.6500 H     1 <1>   0.1500 
 50 H       -3.9100     4.7540     2.8280 H     1 <1>   0.1500 
 51 H       -2.2330     4.5880     4.5240 H     1 <1>   0.0800 
 52 H       -0.6090     4.7460     3.9060 H     1 <1>   0.0800 
 53 H       -1.2250     3.1720     4.3690 H     1 <1>   0.0800 
 54 H       -5.2890     1.5860     4.1260 H     1 <1>   0.1500 
 55 H       -7.4570    -1.4800     2.5220 H     1 <1>   0.1500 
@<TRIPOS>BOND
  1   1   2  2   
  2   2   3  am  
  3   2   4  1   
  4   3   5  1   
  5   3  29  1   
  6   4   6  1   
  7   4  30  1   
  8   4  31  1   
  9   5   7  1   
 10   5   8  1   
 11   5  32  1   
 12   6   9  1   
 13   6  10  2   
 14   7  11  1   
 15   7  12  1   
 16   7  33  1   
 17   8  13  1   
 18   8  34  1   
 19   8  35  1   
 20   9  14  ar  
 21   9  15  ar  
 22  10  16  1   
 23  10  17  1   
 24  11  13  1   
 25  11  36  1   
 26  11  37  1   
 27  12  18  1   
 28  12  38  1   
 29  12  39  1   
 30  14  19  ar  
 31  14  20  1   
 32  15  16  1   
 33  15  21  ar  
 34  16  40  1   
 35  17  41  1   
 36  17  42  1   
 37  17  43  1   
 38  18  22  ar  
 39  18  23  ar  
 40  19  24  ar  
 41  19  44  1   
 42  20  45  1   
 43  20  46  1   
 44  20  47  1   
 45  21  24  ar  
 46  21  25  1   
 47  22  26  ar  
 48  22  48  1   
 49  23  27  ar  
 50  23  49  1   
 51  24  50  1   
 52  25  51  1   
 53  25  52  1   
 54  25  53  1   
 55  26  28  ar  
 56  26  54  1   
 57  27  28  ar  
 58  27  55  1   
@<TRIPOS>SUBSTRUCTURE
  1 ****  12 GROUP 4 **** **** 0

# MOE 2024.06 (io_trps.svl 2023.06)
