@<TRIPOS>MOLECULE
NONAME
41 43 1 0 0 
SMALL
USER_CHARGES


@<TRIPOS>ATOM
  1 CL      -1.3610     0.3420    -2.9900 Cl    1 <1>  -0.1400 
  2 C       -2.2220     1.0430    -1.6360 C.2   1 <1>   0.1540 
  3 C       -1.6790     2.2090    -1.0090 C.2   1 <1>   0.6160 
  4 C       -3.3810     0.4780    -1.2060 C.2   1 <1>  -0.1500 
  5 O       -0.6540     2.7830    -1.3420 O.2   1 <1>  -0.5700 
  6 N       -2.3790     2.7190     0.0520 N.am  1 <1>  -0.5390 
  7 C       -4.0950     1.0450    -0.1050 C.2   1 <1>   0.0140 
  8 C       -3.5490     2.1540     0.4970 C.2   1 <1>  -0.0410 
  9 C       -5.3290     0.4380     0.3380 C.2   1 <1>   0.6160 
 10 O       -5.4090    -0.7760     0.3830 O.2   1 <1>  -0.5700 
 11 N       -6.4260     1.1910     0.7050 N.am  1 <1>  -0.6600 
 12 C       -6.7330     2.5340     0.1390 C.3   1 <1>   0.1400 
 13 C       -7.5400     0.6070     1.5060 C.3   1 <1>   0.1400 
 14 C       -7.9790     2.4350    -0.7450 C.3   1 <1>  -0.1600 
 15 C       -8.7950     0.5030     0.6370 C.3   1 <1>  -0.1600 
 16 C       -9.1730     1.8540     0.0240 C.3   1 <1>   0.4180 
 17 O       -9.4860     2.7030     1.1030 O.3   1 <1>  -0.5600 
 18 C      -10.3820     1.6810    -0.8900 C.2   1 <1>  -0.2880 
 19 C      -10.2720     3.8300     0.8320 C.3   1 <1>   0.1200 
 20 C      -11.5220     2.3650    -0.7650 C.2   1 <1>  -0.2760 
 21 C      -11.6590     3.4140     0.3230 C.3   1 <1>  -0.0220 
 22 C      -12.7450     2.1710    -1.6430 C.3   1 <1>  -0.1020 
 23 H       -3.7830    -0.4040    -1.6750 H     1 <1>   0.1500 
 24 H       -1.9480     3.5390     0.4860 H     1 <1>   0.3700 
 25 H       -4.0310     2.6100     1.3480 H     1 <1>   0.1500 
 26 H       -5.9130     2.9020    -0.4520 H     1 <1>   0.0800 
 27 H       -6.9090     3.2260     0.9460 H     1 <1>   0.0800 
 28 H       -7.7350     1.2430     2.3530 H     1 <1>   0.0800 
 29 H       -7.2710    -0.3670     1.8770 H     1 <1>   0.0800 
 30 H       -7.7560     1.7970    -1.5800 H     1 <1>   0.0800 
 31 H       -8.2290     3.4000    -1.1420 H     1 <1>   0.0800 
 32 H       -9.6170     0.1400     1.2260 H     1 <1>   0.0800 
 33 H       -8.6110    -0.2120    -0.1430 H     1 <1>   0.0800 
 34 H      -10.2270     0.9350    -1.6490 H     1 <1>   0.1500 
 35 H       -9.7690     4.4340     0.1000 H     1 <1>   0.0800 
 36 H      -10.3630     4.3940     1.7430 H     1 <1>   0.0800 
 37 H      -12.1570     4.2860    -0.0610 H     1 <1>   0.0800 
 38 H      -12.2430     3.0230     1.1360 H     1 <1>   0.0800 
 39 H      -12.9810     3.0830    -2.1610 H     1 <1>   0.0800 
 40 H      -13.5880     1.8810    -1.0420 H     1 <1>   0.0800 
 41 H      -12.5660     1.4010    -2.3720 H     1 <1>   0.0800 
@<TRIPOS>BOND
  1   1   2  1   
  2   2   3  1   
  3   2   4  2   
  4   3   5  2   
  5   3   6  am  
  6   4   7  1   
  7   4  23  1   
  8   6   8  1   
  9   6  24  1   
 10   7   8  2   
 11   7   9  1   
 12   8  25  1   
 13   9  10  2   
 14   9  11  am  
 15  11  12  1   
 16  11  13  1   
 17  12  14  1   
 18  12  26  1   
 19  12  27  1   
 20  13  15  1   
 21  13  28  1   
 22  13  29  1   
 23  14  16  1   
 24  14  30  1   
 25  14  31  1   
 26  15  16  1   
 27  15  32  1   
 28  15  33  1   
 29  16  17  1   
 30  16  18  1   
 31  17  19  1   
 32  18  20  2   
 33  18  34  1   
 34  19  21  1   
 35  19  35  1   
 36  19  36  1   
 37  20  21  1   
 38  20  22  1   
 39  21  37  1   
 40  21  38  1   
 41  22  39  1   
 42  22  40  1   
 43  22  41  1   
@<TRIPOS>SUBSTRUCTURE
  1 ****  12 GROUP 4 **** **** 0

# MOE 2024.06 (io_trps.svl 2023.06)
