@<TRIPOS>MOLECULE
NONAME
53 56 1 0 0 
SMALL
USER_CHARGES


@<TRIPOS>ATOM
  1 O       -0.5860     4.3680     1.2540 O.2   1 <1>  -0.5700 
  2 C       -0.7480     3.2450     0.8280 C.2   1 <1>   0.5690 
  3 N       -2.0290     2.8260     0.5210 N.am  1 <1>  -0.6600 
  4 C        0.5340     2.3640     0.6540 C.3   1 <1>   0.0610 
  5 C       -3.2030     3.6760     0.9000 C.3   1 <1>   0.1400 
  6 C       -2.4100     1.6380    -0.3060 C.3   1 <1>   0.1400 
  7 C        1.6740     2.8910     1.5590 C.3   1 <1>  -0.2400 
  8 C        1.0520     2.4380    -0.7960 C.3   1 <1>  -0.2400 
  9 C        0.3340     0.8850     1.0560 C.3   1 <1>  -0.2400 
 10 C       -3.8620     4.2980    -0.3510 C.3   1 <1>   0.1430 
 11 C       -3.7180     1.8590    -1.0880 C.3   1 <1>  -0.1600 
 12 C       -5.2650     4.7300     0.0420 C.ar  1 <1>   0.1670 
 13 C       -3.8530     3.3170    -1.5530 C.3   1 <1>  -0.1600 
 14 C       -3.2040     5.6510    -0.7270 C.3   1 <1>  -0.1600 
 15 N       -6.2900     3.9290     0.2140 N.ar  1 <1>  -0.6200 
 16 C       -5.3420     6.0770     0.2200 C.ar  1 <1>  -0.1440 
 17 C       -4.0170     6.7520    -0.0260 C.3   1 <1>  -0.0170 
 18 C       -7.4400     4.5180     0.5670 C.ar  1 <1>   0.6200 
 19 C       -6.5530     6.6040     0.5850 C.ar  1 <1>   0.1600 
 20 N       -7.6050     5.8350     0.7580 N.ar  1 <1>  -0.6200 
 21 C       -8.6010     3.6580     0.7590 C.ar  1 <1>   0.0000 
 22 C       -8.4680     2.3240     1.1570 C.ar  1 <1>  -0.1500 
 23 C       -9.9020     4.1260     0.5520 C.ar  1 <1>  -0.1500 
 24 C       -9.5680     1.5050     1.3390 C.ar  1 <1>  -0.1500 
 25 C      -11.0060     3.3130     0.7310 C.ar  1 <1>  -0.1500 
 26 C      -10.8420     1.9980     1.1260 C.ar  1 <1>  -0.1500 
 27 H       -2.9240     4.4490     1.5950 H     1 <1>   0.0800 
 28 H       -3.9190     3.0500     1.4050 H     1 <1>   0.0800 
 29 H       -2.5180     0.7780     0.3330 H     1 <1>   0.0800 
 30 H       -1.6320     1.4380    -1.0170 H     1 <1>   0.0800 
 31 H        1.9230     3.9060     1.3020 H     1 <1>   0.0800 
 32 H        2.5640     2.2960     1.4580 H     1 <1>   0.0800 
 33 H        1.3660     2.8760     2.5900 H     1 <1>   0.0800 
 34 H        1.2500     3.4620    -1.0610 H     1 <1>   0.0800 
 35 H        0.3360     2.0480    -1.4920 H     1 <1>   0.0800 
 36 H        1.9640     1.8770    -0.9020 H     1 <1>   0.0800 
 37 H       -0.1690     0.8270     2.0060 H     1 <1>   0.0800 
 38 H        1.2810     0.3840     1.1460 H     1 <1>   0.0800 
 39 H       -0.2350     0.3420     0.3290 H     1 <1>   0.0800 
 40 H       -4.5570     1.6040    -0.4630 H     1 <1>   0.0800 
 41 H       -3.7410     1.1970    -1.9360 H     1 <1>   0.0800 
 42 H       -3.0120     3.5350    -2.1890 H     1 <1>   0.0800 
 43 H       -4.7480     3.4410    -2.1380 H     1 <1>   0.0800 
 44 H       -3.2850     5.8070    -1.7890 H     1 <1>   0.0800 
 45 H       -2.1620     5.6870    -0.4580 H     1 <1>   0.0800 
 46 H       -4.1170     7.6260    -0.6460 H     1 <1>   0.0800 
 47 H       -3.5620     7.0170     0.9130 H     1 <1>   0.0800 
 48 H       -6.6630     7.6640     0.7370 H     1 <1>   0.1500 
 49 H       -7.4850     1.9230     1.3290 H     1 <1>   0.1500 
 50 H      -10.0510     5.1460     0.2440 H     1 <1>   0.1500 
 51 H       -9.4320     0.4820     1.6460 H     1 <1>   0.1500 
 52 H      -11.9950     3.7040     0.5640 H     1 <1>   0.1500 
 53 H      -11.6990     1.3630     1.2660 H     1 <1>   0.1500 
@<TRIPOS>BOND
  1   1   2  2   
  2   2   3  am  
  3   2   4  1   
  4   3   5  1   
  5   3   6  1   
  6   4   7  1   
  7   4   8  1   
  8   4   9  1   
  9   5  10  1   
 10   5  27  1   
 11   5  28  1   
 12   6  11  1   
 13   6  29  1   
 14   6  30  1   
 15   7  31  1   
 16   7  32  1   
 17   7  33  1   
 18   8  34  1   
 19   8  35  1   
 20   8  36  1   
 21   9  37  1   
 22   9  38  1   
 23   9  39  1   
 24  10  12  1   
 25  10  13  1   
 26  10  14  1   
 27  11  13  1   
 28  11  40  1   
 29  11  41  1   
 30  12  15  ar  
 31  12  16  ar  
 32  13  42  1   
 33  13  43  1   
 34  14  17  1   
 35  14  44  1   
 36  14  45  1   
 37  15  18  ar  
 38  16  17  1   
 39  16  19  ar  
 40  17  46  1   
 41  17  47  1   
 42  18  20  ar  
 43  18  21  1   
 44  19  20  ar  
 45  19  48  1   
 46  21  22  ar  
 47  21  23  ar  
 48  22  24  ar  
 49  22  49  1   
 50  23  25  ar  
 51  23  50  1   
 52  24  26  ar  
 53  24  51  1   
 54  25  26  ar  
 55  25  52  1   
 56  26  53  1   
@<TRIPOS>SUBSTRUCTURE
  1 ****  10 GROUP 4 **** **** 0

# MOE 2024.06 (io_trps.svl 2023.06)
