@<TRIPOS>MOLECULE
NONAME
52 55 1 0 0 
SMALL
USER_CHARGES


@<TRIPOS>ATOM
  1 O       -0.0870     0.2030    -1.7830 O.2   1 <1>  -0.5700 
  2 C       -0.9810     0.9180    -1.4000 C.2   1 <1>   0.5690 
  3 N       -2.2120     0.4200    -1.0700 N.am  1 <1>  -0.6600 
  4 C       -0.6990     2.3980    -1.2620 C.3   1 <1>  -0.0990 
  5 C       -3.3500     1.1860    -0.4960 C.3   1 <1>   0.1400 
  6 C       -2.5160    -1.0270    -1.0860 C.3   1 <1>   0.1400 
  7 C       -0.1750     2.7130     0.1420 C.3   1 <1>   0.0210 
  8 C       -4.3790     0.1260    -0.0940 C.3   1 <1>   0.2000 
  9 C       -3.6160    -1.1990    -0.0380 C.3   1 <1>  -0.0800 
 10 C       -0.2980     4.1940     0.4240 C.2   1 <1>   0.1080 
 11 O       -4.9410     0.4010     1.1430 O.3   1 <1>  -0.6800 
 12 C       -4.5250    -2.4130    -0.2830 C.3   1 <1>   0.0200 
 13 N       -1.4140     4.7240     0.8250 N.2   1 <1>  -0.7070 
 14 C        0.7130     5.1400     0.2870 C.2   1 <1>  -0.1810 
 15 C       -3.7900    -3.7400    -0.1940 C.2   1 <1>  -0.0400 
 16 N       -1.1380     6.0380     0.9580 N.pl3 1 <1>   0.3000 
 17 C        0.1420     6.3080     0.6320 C.2   1 <1>  -0.3320 
 18 C        2.1580     5.0030    -0.1520 C.3   1 <1>   0.0210 
 19 O       -4.4110    -4.8270    -0.5690 O.3   1 <1>  -0.0190 
 20 C       -2.5600    -4.0950     0.2120 C.2   1 <1>  -0.1500 
 21 C        0.8360     7.6560     0.6480 C.3   1 <1>   0.0200 
 22 C        2.9470     6.2730     0.2210 C.3   1 <1>  -0.1600 
 23 N       -3.6640    -5.8850    -0.4410 N.2   1 <1>  -0.4100 
 24 C       -2.5420    -5.4740     0.0280 C.2   1 <1>   0.1080 
 25 C        2.1680     7.5610    -0.1200 C.3   1 <1>  -0.1600 
 26 C       -1.3670    -6.3750     0.3330 C.3   1 <1>  -0.0590 
 27 H        0.0330     2.6910    -1.9920 H     1 <1>   0.0800 
 28 H       -1.5920     2.9600    -1.4590 H     1 <1>   0.0800 
 29 H       -3.0200     1.7510     0.3580 H     1 <1>   0.0800 
 30 H       -3.7620     1.8470    -1.2380 H     1 <1>   0.0800 
 31 H       -2.8690    -1.2980    -2.0670 H     1 <1>   0.0800 
 32 H       -1.6410    -1.6080    -0.8500 H     1 <1>   0.0800 
 33 H        0.8470     2.3950     0.2330 H     1 <1>   0.0800 
 34 H       -0.7510     2.1860     0.8800 H     1 <1>   0.0800 
 35 H       -5.1700     0.0930    -0.8240 H     1 <1>   0.0800 
 36 H       -3.1380    -1.2940     0.9210 H     1 <1>   0.0800 
 37 H       -4.2450     0.4980     1.8220 H     1 <1>   0.4000 
 38 H       -4.9750    -2.3350    -1.2570 H     1 <1>   0.0800 
 39 H       -5.3190    -2.4170     0.4440 H     1 <1>   0.0800 
 40 H       -1.8400     6.7180     1.2710 H     1 <1>   0.2700 
 41 H        2.6090     4.1460     0.3150 H     1 <1>   0.0800 
 42 H        2.1800     4.8620    -1.2180 H     1 <1>   0.0800 
 43 H       -1.7520    -3.5000     0.5960 H     1 <1>   0.1500 
 44 H        0.2110     8.4060     0.1970 H     1 <1>   0.0800 
 45 H        1.0270     7.9370     1.6700 H     1 <1>   0.0800 
 46 H        3.1460     6.2590     1.2790 H     1 <1>   0.0800 
 47 H        3.8920     6.2700    -0.2930 H     1 <1>   0.0800 
 48 H        1.9590     7.5670    -1.1760 H     1 <1>   0.0800 
 49 H        2.7710     8.4240     0.1020 H     1 <1>   0.0800 
 50 H       -1.1070    -6.2970     1.3730 H     1 <1>   0.0800 
 51 H       -0.5230    -6.0890    -0.2670 H     1 <1>   0.0800 
 52 H       -1.6210    -7.3960     0.1140 H     1 <1>   0.0800 
@<TRIPOS>BOND
  1   1   2  2   
  2   2   3  am  
  3   2   4  1   
  4   3   5  1   
  5   3   6  1   
  6   4   7  1   
  7   4  27  1   
  8   4  28  1   
  9   5   8  1   
 10   5  29  1   
 11   5  30  1   
 12   6   9  1   
 13   6  31  1   
 14   6  32  1   
 15   7  10  1   
 16   7  33  1   
 17   7  34  1   
 18   8   9  1   
 19   8  11  1   
 20   8  35  1   
 21   9  12  1   
 22   9  36  1   
 23  10  13  2   
 24  10  14  1   
 25  11  37  1   
 26  12  15  1   
 27  12  38  1   
 28  12  39  1   
 29  13  16  1   
 30  14  17  2   
 31  14  18  1   
 32  15  19  1   
 33  15  20  2   
 34  16  17  1   
 35  16  40  1   
 36  17  21  1   
 37  18  22  1   
 38  18  41  1   
 39  18  42  1   
 40  19  23  1   
 41  20  24  1   
 42  20  43  1   
 43  21  25  1   
 44  21  44  1   
 45  21  45  1   
 46  22  25  1   
 47  22  46  1   
 48  22  47  1   
 49  23  24  2   
 50  24  26  1   
 51  25  48  1   
 52  25  49  1   
 53  26  50  1   
 54  26  51  1   
 55  26  52  1   
@<TRIPOS>SUBSTRUCTURE
  1 ****   3 GROUP 4 **** **** 0

# MOE 2024.06 (io_trps.svl 2023.06)
