@<TRIPOS>MOLECULE
NONAME
37 39 1 0 0 
SMALL
USER_CHARGES


@<TRIPOS>ATOM
  1 S        0.4450     0.9130     0.4880 S.3   1 <1>  -0.0800 
  2 C        1.3510    -0.5480     0.1010 C.ar  1 <1>   0.2970 
  3 C       -0.9340    -0.0290     1.0700 C.2   1 <1>  -0.1400 
  4 N        2.5630    -0.5360    -0.4100 N.ar  1 <1>  -0.5670 
  5 C        0.6130    -1.6630     0.4090 C.ar  1 <1>   0.0000 
  6 C       -0.6800    -1.3460     0.9630 C.2   1 <1>  -0.1500 
  7 C       -2.1400     0.7430     1.5910 C.3   1 <1>   0.0200 
  8 C        3.0350    -1.7500    -0.6170 C.ar  1 <1>   0.4700 
  9 C        1.2370    -2.8780     0.1330 C.ar  1 <1>   0.4100 
 10 C       -3.0390     1.3220     0.4940 C.3   1 <1>   1.0200 
 11 N        2.4540    -2.9210    -0.3790 N.ar  1 <1>  -0.6200 
 12 N        0.6100    -4.0730     0.3850 N.pl3 1 <1>  -0.8690 
 13 F       -2.4310     2.2290    -0.2570 F     1 <1>  -0.3400 
 14 F       -4.1090     1.9160     1.0060 F     1 <1>  -0.3400 
 15 F       -3.4900     0.3880    -0.3330 F     1 <1>  -0.3400 
 16 C        1.1330    -5.3840    -0.0110 C.3   1 <1>   0.2890 
 17 C       -0.0310    -6.3190    -0.3220 C.3   1 <1>  -0.1600 
 18 C        1.9870    -5.9350     1.1280 C.3   1 <1>  -0.1600 
 19 C        0.4880    -7.7170    -0.6460 C.3   1 <1>   0.3430 
 20 C        2.4880    -7.3330     0.7880 C.3   1 <1>   0.3430 
 21 N        1.3280    -8.2180     0.4790 N.4   1 <1>  -0.9060 
 22 H       -1.3540    -2.1330     1.2510 H     1 <1>   0.1500 
 23 H       -1.8060     1.5450     2.2220 H     1 <1>   0.0800 
 24 H       -2.7400     0.0830     2.1880 H     1 <1>   0.0800 
 25 H        4.0270    -1.7970    -1.0350 H     1 <1>   0.1500 
 26 H       -0.3370    -4.0460     0.7670 H     1 <1>   0.4000 
 27 H        1.7410    -5.2740    -0.8960 H     1 <1>   0.0800 
 28 H       -0.5690    -5.9400    -1.1740 H     1 <1>   0.0800 
 29 H       -0.7090    -6.3700     0.5110 H     1 <1>   0.0800 
 30 H        1.4250    -5.9580     2.0440 H     1 <1>   0.0800 
 31 H        2.8350    -5.2880     1.2740 H     1 <1>   0.0800 
 32 H        1.0760    -7.6800    -1.5500 H     1 <1>   0.0800 
 33 H       -0.3440    -8.3830    -0.8140 H     1 <1>   0.0800 
 34 H        3.0480    -7.7290     1.6210 H     1 <1>   0.0800 
 35 H        3.1450    -7.2800    -0.0660 H     1 <1>   0.0800 
 36 H        1.6680    -9.1650     0.2630 H     1 <1>   0.4500 
 37 H        0.7440    -8.3030     1.3220 H     1 <1>   0.4500 
@<TRIPOS>BOND
  1   1   2  1   
  2   1   3  1   
  3   2   4  ar  
  4   2   5  ar  
  5   3   6  2   
  6   3   7  1   
  7   4   8  ar  
  8   5   6  1   
  9   5   9  ar  
 10   6  22  1   
 11   7  10  1   
 12   7  23  1   
 13   7  24  1   
 14   8  11  ar  
 15   8  25  1   
 16   9  11  ar  
 17   9  12  1   
 18  10  13  1   
 19  10  14  1   
 20  10  15  1   
 21  12  16  1   
 22  12  26  1   
 23  16  17  1   
 24  16  18  1   
 25  16  27  1   
 26  17  19  1   
 27  17  28  1   
 28  17  29  1   
 29  18  20  1   
 30  18  30  1   
 31  18  31  1   
 32  19  21  1   
 33  19  32  1   
 34  19  33  1   
 35  20  21  1   
 36  20  34  1   
 37  20  35  1   
 38  21  36  1   
 39  21  37  1   
@<TRIPOS>SUBSTRUCTURE
  1 ****   5 GROUP 4 **** **** 0

# MOE 2024.06 (io_trps.svl 2023.06)
