@<TRIPOS>MOLECULE
NONAME
51 52 1 0 0 
SMALL
USER_CHARGES


@<TRIPOS>ATOM
  1 S        0.2950    -0.2960     0.0510 S.3   1 <1>  -0.0800 
  2 C       -1.2770    -0.9360    -0.3070 C.2   1 <1>   0.4420 
  3 C       -0.3940     1.2820    -0.1150 C.2   1 <1>   0.1980 
  4 N       -2.1410    -0.0100    -0.5050 N.2   1 <1>  -0.3380 
  5 N       -1.4100    -2.3110    -0.3220 N.am  1 <1>  -0.4940 
  6 N       -1.6320     1.2520    -0.3950 N.2   1 <1>  -0.3380 
  7 C        0.4940     2.4920     0.0770 C.3   1 <1>   0.0200 
  8 C       -2.5190    -3.0460    -0.6660 C.2   1 <1>   0.5690 
  9 C       -0.3460     3.7620    -0.1140 C.3   1 <1>   0.3430 
 10 O       -3.5210    -2.5460    -1.1140 O.2   1 <1>  -0.5700 
 11 C       -2.5450    -4.5920    -0.5010 C.3   1 <1>   0.4840 
 12 N        0.4320     5.0250     0.1200 N.4   1 <1>  -0.9590 
 13 N       -3.9600    -5.1230    -0.4870 N.4   1 <1>  -0.9590 
 14 C       -1.7790    -5.0890     0.7370 C.3   1 <1>  -0.2400 
 15 C       -0.5100     6.1860     0.1880 C.3   1 <1>   0.2630 
 16 C        1.4660     5.2680    -0.9380 C.3   1 <1>   0.2630 
 17 C       -4.7310    -4.7590     0.7400 C.3   1 <1>   0.3430 
 18 C       -4.0670    -6.5680    -0.8350 C.3   1 <1>   0.3430 
 19 C       -6.2060    -5.1070     0.5410 C.3   1 <1>  -0.1600 
 20 C       -5.5350    -6.9370    -1.0510 C.3   1 <1>  -0.1600 
 21 C       -6.3970    -6.5850     0.1700 C.3   1 <1>  -0.0800 
 22 C       -7.8730    -6.8840    -0.1080 C.3   1 <1>  -0.2400 
 23 H       -0.5700    -2.8090    -0.0350 H     1 <1>   0.3700 
 24 H        1.2880     2.4500    -0.6450 H     1 <1>   0.0800 
 25 H        0.9040     2.4650     1.0700 H     1 <1>   0.0800 
 26 H       -1.1750     3.7210     0.5760 H     1 <1>   0.0800 
 27 H       -0.7590     3.7660    -1.1110 H     1 <1>   0.0800 
 28 H       -2.0550    -4.9910    -1.3730 H     1 <1>   0.0800 
 29 H        0.9050     4.9550     1.0360 H     1 <1>   0.4500 
 30 H       -4.4280    -4.5840    -1.2370 H     1 <1>   0.4500 
 31 H       -2.1320    -4.6080     1.6320 H     1 <1>   0.0800 
 32 H       -0.7320    -4.8660     0.6340 H     1 <1>   0.0800 
 33 H       -1.8680    -6.1540     0.8450 H     1 <1>   0.0800 
 34 H       -1.0350     6.2980    -0.7480 H     1 <1>   0.0800 
 35 H        0.0300     7.0970     0.3910 H     1 <1>   0.0800 
 36 H       -1.2350     6.0360     0.9720 H     1 <1>   0.0800 
 37 H        1.0000     5.3310    -1.9090 H     1 <1>   0.0800 
 38 H        2.1880     4.4680    -0.9540 H     1 <1>   0.0800 
 39 H        1.9870     6.1920    -0.7460 H     1 <1>   0.0800 
 40 H       -4.6420    -3.7010     0.9340 H     1 <1>   0.0800 
 41 H       -4.3470    -5.2980     1.5910 H     1 <1>   0.0800 
 42 H       -3.6630    -7.1680    -0.0360 H     1 <1>   0.0800 
 43 H       -3.5110    -6.7770    -1.7350 H     1 <1>   0.0800 
 44 H       -6.6170    -4.4730    -0.2260 H     1 <1>   0.0800 
 45 H       -6.7380    -4.8940     1.4520 H     1 <1>   0.0800 
 46 H       -5.6030    -7.9940    -1.2440 H     1 <1>   0.0800 
 47 H       -5.9030    -6.4270    -1.9250 H     1 <1>   0.0800 
 48 H       -6.0820    -7.1940     1.0030 H     1 <1>   0.0800 
 49 H       -8.2380    -6.2970    -0.9340 H     1 <1>   0.0800 
 50 H       -8.4710    -6.6590     0.7580 H     1 <1>   0.0800 
 51 H       -8.0080    -7.9250    -0.3440 H     1 <1>   0.0800 
@<TRIPOS>BOND
  1   1   2  1   
  2   1   3  1   
  3   2   4  2   
  4   2   5  1   
  5   3   6  2   
  6   3   7  1   
  7   4   6  1   
  8   5   8  am  
  9   5  23  1   
 10   7   9  1   
 11   7  24  1   
 12   7  25  1   
 13   8  10  2   
 14   8  11  1   
 15   9  12  1   
 16   9  26  1   
 17   9  27  1   
 18  11  13  1   
 19  11  14  1   
 20  11  28  1   
 21  12  15  1   
 22  12  16  1   
 23  12  29  1   
 24  13  17  1   
 25  13  18  1   
 26  13  30  1   
 27  14  31  1   
 28  14  32  1   
 29  14  33  1   
 30  15  34  1   
 31  15  35  1   
 32  15  36  1   
 33  16  37  1   
 34  16  38  1   
 35  16  39  1   
 36  17  19  1   
 37  17  40  1   
 38  17  41  1   
 39  18  20  1   
 40  18  42  1   
 41  18  43  1   
 42  19  21  1   
 43  19  44  1   
 44  19  45  1   
 45  20  21  1   
 46  20  46  1   
 47  20  47  1   
 48  21  22  1   
 49  21  48  1   
 50  22  49  1   
 51  22  50  1   
 52  22  51  1   
@<TRIPOS>SUBSTRUCTURE
  1 ****   5 GROUP 4 **** **** 0

# MOE 2024.06 (io_trps.svl 2023.06)
