@<TRIPOS>MOLECULE
NONAME
55 59 1 0 0 
SMALL
USER_CHARGES


@<TRIPOS>ATOM
  1 O       -3.5850    -0.3160     2.0020 O.2   1 <1>  -0.5700 
  2 C       -2.7870     0.2820     1.3290 C.2   1 <1>   0.5950 
  3 C       -3.1120     1.2400     0.3160 C.2   1 <1>  -0.0860 
  4 C       -1.2990     0.0240     1.5500 C.3   1 <1>  -0.0990 
  5 C       -4.3400     1.8330    -0.0700 C.2   1 <1>  -0.0860 
  6 C       -2.1840     1.8040    -0.4920 C.2   1 <1>  -0.0400 
  7 C       -0.4580     0.1660     0.2570 C.3   1 <1>  -0.1600 
  8 C       -4.0050     2.7080    -1.0570 C.2   1 <1>  -0.0400 
  9 C       -5.6360     1.5550     0.4940 C.2   1 <1>   0.7160 
 10 O       -2.7170     2.6750    -1.3040 O.3   1 <1>  -0.2800 
 11 C       -0.7010     1.5010    -0.4780 C.3   1 <1>   0.0200 
 12 C       -4.8700     3.6590    -1.8560 C.3   1 <1>  -0.0600 
 13 O       -6.1850     2.4040     1.1720 O.2   1 <1>  -0.5700 
 14 N       -6.2850     0.3650     0.2510 N.am  1 <1>  -0.6600 
 15 C       -7.4590    -0.0730     1.0620 C.3   1 <1>   0.1400 
 16 C       -5.8270    -0.6610    -0.7330 C.3   1 <1>   0.1400 
 17 C       -7.1950    -1.4470     1.7030 C.3   1 <1>   0.1900 
 18 C       -5.6440    -2.0350    -0.0650 C.3   1 <1>   0.1100 
 19 N       -6.8590    -2.4570     0.6650 N.3   1 <1>  -0.8100 
 20 C       -8.4220    -1.8970     2.5220 C.3   1 <1>   0.1200 
 21 C       -6.6700    -3.7770     1.3110 C.3   1 <1>   0.3330 
 22 O       -8.2070    -3.1560     3.0960 O.3   1 <1>  -0.5600 
 23 C       -6.4120    -4.8660     0.2710 C.ar  1 <1>  -0.1440 
 24 C       -7.9080    -4.1510     2.1530 C.3   1 <1>   0.1200 
 25 C       -7.2240    -4.9890    -0.8490 C.ar  1 <1>  -0.1500 
 26 C       -5.3550    -5.7490     0.4370 C.ar  1 <1>  -0.1500 
 27 C       -6.9850    -5.9790    -1.7860 C.ar  1 <1>  -0.1500 
 28 C       -5.1130    -6.7390    -0.5000 C.ar  1 <1>  -0.1500 
 29 C       -5.9280    -6.8540    -1.6120 C.ar  1 <1>  -0.1500 
 30 H       -0.9490     0.7240     2.2860 H     1 <1>   0.0800 
 31 H       -1.1740    -0.9660     1.9520 H     1 <1>   0.0800 
 32 H        0.5890     0.0650     0.4860 H     1 <1>   0.0800 
 33 H       -0.7250    -0.6380    -0.4080 H     1 <1>   0.0800 
 34 H       -0.3330     1.4380    -1.4870 H     1 <1>   0.0800 
 35 H       -0.1890     2.3050     0.0210 H     1 <1>   0.0800 
 36 H       -5.8960     3.5860    -1.5440 H     1 <1>   0.0800 
 37 H       -4.8030     3.4220    -2.9020 H     1 <1>   0.0800 
 38 H       -4.5330     4.6670    -1.7040 H     1 <1>   0.0800 
 39 H       -7.6660     0.6420     1.8390 H     1 <1>   0.0800 
 40 H       -8.3240    -0.1330     0.4250 H     1 <1>   0.0800 
 41 H       -6.5660    -0.7520    -1.5080 H     1 <1>   0.0800 
 42 H       -4.9020    -0.3670    -1.1960 H     1 <1>   0.0800 
 43 H       -6.3660    -1.3380     2.3830 H     1 <1>   0.0800 
 44 H       -4.8070    -1.9970     0.6090 H     1 <1>   0.0800 
 45 H       -5.4140    -2.7530    -0.8340 H     1 <1>   0.0800 
 46 H       -9.2960    -1.9510     1.8960 H     1 <1>   0.0800 
 47 H       -8.6090    -1.2040     3.3230 H     1 <1>   0.0800 
 48 H       -5.8250    -3.7220     1.9760 H     1 <1>   0.0800 
 49 H       -7.7250    -5.0650     2.6870 H     1 <1>   0.0800 
 50 H       -8.7640    -4.2900     1.5170 H     1 <1>   0.0800 
 51 H       -8.0420    -4.3030    -0.9900 H     1 <1>   0.1500 
 52 H       -4.7130    -5.6700     1.2970 H     1 <1>   0.1500 
 53 H       -7.6200    -6.0660    -2.6500 H     1 <1>   0.1500 
 54 H       -4.2910    -7.4200    -0.3630 H     1 <1>   0.1500 
 55 H       -5.7410    -7.6240    -2.3400 H     1 <1>   0.1500 
@<TRIPOS>BOND
  1   1   2  2   
  2   2   3  1   
  3   2   4  1   
  4   3   5  1   
  5   3   6  2   
  6   4   7  1   
  7   4  30  1   
  8   4  31  1   
  9   5   8  2   
 10   5   9  1   
 11   6  10  1   
 12   6  11  1   
 13   7  11  1   
 14   7  32  1   
 15   7  33  1   
 16   8  10  1   
 17   8  12  1   
 18   9  13  2   
 19   9  14  am  
 20  11  34  1   
 21  11  35  1   
 22  12  36  1   
 23  12  37  1   
 24  12  38  1   
 25  14  15  1   
 26  14  16  1   
 27  15  17  1   
 28  15  39  1   
 29  15  40  1   
 30  16  18  1   
 31  16  41  1   
 32  16  42  1   
 33  17  19  1   
 34  17  20  1   
 35  17  43  1   
 36  18  19  1   
 37  18  44  1   
 38  18  45  1   
 39  19  21  1   
 40  20  22  1   
 41  20  46  1   
 42  20  47  1   
 43  21  23  1   
 44  21  24  1   
 45  21  48  1   
 46  22  24  1   
 47  23  25  ar  
 48  23  26  ar  
 49  24  49  1   
 50  24  50  1   
 51  25  27  ar  
 52  25  51  1   
 53  26  28  ar  
 54  26  52  1   
 55  27  29  ar  
 56  27  53  1   
 57  28  29  ar  
 58  28  54  1   
 59  29  55  1   
@<TRIPOS>SUBSTRUCTURE
  1 ****  18 GROUP 4 **** **** 0

# MOE 2024.06 (io_trps.svl 2023.06)
