@<TRIPOS>MOLECULE
NONAME
59 63 1 0 0 
SMALL
USER_CHARGES


@<TRIPOS>ATOM
  1 F        1.1160    -2.0480     1.7240 F     1 <1>  -0.1900 
  2 C        0.9950    -1.6120     0.4910 C.ar  1 <1>   0.1900 
  3 C        0.1300    -2.2700    -0.3910 C.ar  1 <1>   0.1000 
  4 C        1.7410    -0.5090     0.1260 C.ar  1 <1>  -0.1500 
  5 N       -0.6420    -3.3920    -0.0570 N.pl3 1 <1>  -0.8380 
  6 C        0.0440    -1.7630    -1.6820 C.ar  1 <1>  -0.1500 
  7 C        1.6330    -0.0280    -1.1690 C.ar  1 <1>  -0.1500 
  8 C       -1.7240    -3.1350     0.9180 C.3   1 <1>   0.2090 
  9 C        0.1320    -4.6240     0.2060 C.3   1 <1>   0.2090 
 10 C        0.7850    -0.6570    -2.0670 C.ar  1 <1>  -0.1500 
 11 C       -2.7300    -4.2760     0.8010 C.3   1 <1>  -0.1600 
 12 C       -0.8230    -5.8030     0.0610 C.3   1 <1>  -0.1600 
 13 C       -2.0220    -5.6210     0.9990 C.3   1 <1>   0.4230 
 14 N       -3.0030    -6.7290     0.8590 N.4   1 <1>  -0.9060 
 15 C       -3.5880    -6.9640    -0.4950 C.3   1 <1>   0.4230 
 16 C       -4.9970    -7.5450    -0.3750 C.3   1 <1>  -0.0800 
 17 C       -2.8800    -8.1650    -1.1130 C.3   1 <1>   0.1200 
 18 C       -4.7420    -9.0490    -0.1760 C.3   1 <1>   0.1200 
 19 C       -5.9370    -6.9210     0.6780 C.3   1 <1>  -0.0170 
 20 O       -3.3670    -9.2230    -0.3580 O.3   1 <1>  -0.5600 
 21 C       -7.3340    -7.5190     0.5650 C.ar  1 <1>  -0.1430 
 22 C       -8.2440    -7.1340    -0.4490 C.ar  1 <1>   0.0000 
 23 C       -7.7460    -8.4710     1.4530 C.ar  1 <1>  -0.1500 
 24 C       -9.5010    -7.7870    -0.4860 C.ar  1 <1>   0.3100 
 25 C       -7.9880    -6.1420    -1.4260 C.ar  1 <1>  -0.1500 
 26 C       -9.0170    -9.0440     1.3350 C.ar  1 <1>   0.1600 
 27 N       -9.8680    -8.7350     0.4110 N.ar  1 <1>  -0.6200 
 28 C      -10.4180    -7.4450    -1.4920 C.ar  1 <1>  -0.1500 
 29 C       -8.9060    -5.8290    -2.3920 C.ar  1 <1>  -0.1500 
 30 C      -10.1360    -6.4900    -2.4290 C.ar  1 <1>  -0.1500 
 31 H        2.3920    -0.0380     0.8390 H     1 <1>   0.1500 
 32 H       -0.6100    -2.2440    -2.3850 H     1 <1>   0.1500 
 33 H        2.2050     0.8310    -1.4760 H     1 <1>   0.1500 
 34 H       -1.3150    -3.0800     1.9140 H     1 <1>   0.0800 
 35 H       -2.1980    -2.1930     0.6920 H     1 <1>   0.0800 
 36 H        0.9370    -4.7050    -0.5060 H     1 <1>   0.0800 
 37 H        0.5560    -4.5880     1.1970 H     1 <1>   0.0800 
 38 H        0.7010    -0.2820    -3.0730 H     1 <1>   0.1500 
 39 H       -3.1800    -4.2100    -0.1730 H     1 <1>   0.0800 
 40 H       -3.4900    -4.1380     1.5480 H     1 <1>   0.0800 
 41 H       -0.2920    -6.7060     0.3010 H     1 <1>   0.0800 
 42 H       -1.1300    -5.8350    -0.9690 H     1 <1>   0.0800 
 43 H       -1.6390    -5.6320     2.0080 H     1 <1>   0.0800 
 44 H       -3.7600    -6.5780     1.5280 H     1 <1>   0.4500 
 45 H       -2.5720    -7.6280     1.1220 H     1 <1>   0.4500 
 46 H       -3.5480    -6.0830    -1.1150 H     1 <1>   0.0800 
 47 H       -5.4660    -7.4400    -1.3390 H     1 <1>   0.0800 
 48 H       -1.8070    -8.1330    -1.0430 H     1 <1>   0.0800 
 49 H       -3.1730    -8.3140    -2.1400 H     1 <1>   0.0800 
 50 H       -5.2680    -9.6410    -0.9070 H     1 <1>   0.0800 
 51 H       -4.9950    -9.3920     0.8130 H     1 <1>   0.0800 
 52 H       -5.9950    -5.8530     0.5520 H     1 <1>   0.0800 
 53 H       -5.5670    -7.1070     1.6710 H     1 <1>   0.0800 
 54 H       -7.1220    -8.8120     2.2590 H     1 <1>   0.1500 
 55 H       -7.0580    -5.6110    -1.4180 H     1 <1>   0.1500 
 56 H       -9.3050    -9.7910     2.0560 H     1 <1>   0.1500 
 57 H      -11.3600    -7.9630    -1.4990 H     1 <1>   0.1500 
 58 H       -8.7010    -5.0740    -3.1310 H     1 <1>   0.1500 
 59 H      -10.8500    -6.2370    -3.1950 H     1 <1>   0.1500 
@<TRIPOS>BOND
  1   1   2  1   
  2   2   3  ar  
  3   2   4  ar  
  4   3   5  1   
  5   3   6  ar  
  6   4   7  ar  
  7   4  31  1   
  8   5   8  1   
  9   5   9  1   
 10   6  10  ar  
 11   6  32  1   
 12   7  10  ar  
 13   7  33  1   
 14   8  11  1   
 15   8  34  1   
 16   8  35  1   
 17   9  12  1   
 18   9  36  1   
 19   9  37  1   
 20  10  38  1   
 21  11  13  1   
 22  11  39  1   
 23  11  40  1   
 24  12  13  1   
 25  12  41  1   
 26  12  42  1   
 27  13  14  1   
 28  13  43  1   
 29  14  15  1   
 30  14  44  1   
 31  14  45  1   
 32  15  16  1   
 33  15  17  1   
 34  15  46  1   
 35  16  18  1   
 36  16  19  1   
 37  16  47  1   
 38  17  20  1   
 39  17  48  1   
 40  17  49  1   
 41  18  20  1   
 42  18  50  1   
 43  18  51  1   
 44  19  21  1   
 45  19  52  1   
 46  19  53  1   
 47  21  22  ar  
 48  21  23  ar  
 49  22  24  ar  
 50  22  25  ar  
 51  23  26  ar  
 52  23  54  1   
 53  24  27  ar  
 54  24  28  ar  
 55  25  29  ar  
 56  25  55  1   
 57  26  27  ar  
 58  26  56  1   
 59  28  30  ar  
 60  28  57  1   
 61  29  30  ar  
 62  29  58  1   
 63  30  59  1   
@<TRIPOS>SUBSTRUCTURE
  1 ****  15 GROUP 4 **** **** 0

# MOE 2024.06 (io_trps.svl 2023.06)
