@<TRIPOS>MOLECULE
NONAME
56 59 1 0 0 
SMALL
USER_CHARGES


@<TRIPOS>ATOM
  1 O       -1.5000     0.3840    -1.9140 O.2   1 <1>  -0.5700 
  2 C       -1.6890     0.5010    -0.7160 C.2   1 <1>   0.7160 
  3 N       -1.9090    -0.6310     0.0390 N.am  1 <1>  -0.6600 
  4 C       -1.6470     1.7910    -0.1100 C.2   1 <1>  -0.0860 
  5 C       -2.3590    -1.8940    -0.6010 C.3   1 <1>   0.3210 
  6 C       -1.8870    -0.6360     1.5300 C.3   1 <1>   0.0600 
  7 C       -2.7620     2.5770     0.1760 C.2   1 <1>   0.3720 
  8 C       -0.6070     2.5240     0.3660 C.2   1 <1>   0.0870 
  9 C       -3.8460    -2.0760    -0.3590 C.2   1 <1>  -0.1810 
 10 N       -2.4240     3.6600     0.7840 N.2   1 <1>  -0.4100 
 11 N       -4.0760     2.2230    -0.1430 N.pl3 1 <1>  -0.8210 
 12 O       -1.1200     3.6120     0.8860 O.3   1 <1>  -0.0190 
 13 C        0.8130     2.2870     0.4030 C.ar  1 <1>   0.0530 
 14 C       -4.4910    -2.7900     0.5770 C.2   1 <1>  -0.0400 
 15 C       -4.8840    -1.4990    -1.0920 C.2   1 <1>   0.1080 
 16 C       -4.8040     1.4950     0.9260 C.3   1 <1>   0.2090 
 17 C       -4.9480     3.3100    -0.6650 C.3   1 <1>   0.2090 
 18 C        1.4620     1.5450    -0.5850 C.ar  1 <1>  -0.1500 
 19 C        1.5960     2.7940     1.4410 C.ar  1 <1>  -0.1500 
 20 O       -5.7730    -2.6220     0.3990 O.3   1 <1>  -0.0190 
 21 C       -4.0140    -3.6760     1.7090 C.3   1 <1>  -0.0600 
 22 N       -6.0250    -1.8400    -0.6090 N.2   1 <1>  -0.4100 
 23 C       -4.7260    -0.5960    -2.2980 C.3   1 <1>  -0.0590 
 24 C       -6.2580     1.9130     0.7860 C.3   1 <1>  -0.1600 
 25 C       -6.1790     3.3270     0.2310 C.3   1 <1>  -0.1600 
 26 C        2.8230     1.3050    -0.5350 C.ar  1 <1>  -0.1500 
 27 C        2.9560     2.5590     1.4970 C.ar  1 <1>  -0.1500 
 28 C        3.5830     1.8110     0.5150 C.ar  1 <1>   0.0830 
 29 O        4.9170     1.6230     0.6420 O.3   1 <1>  -0.3620 
 30 C        5.6560     0.8990    -0.3160 C.3   1 <1>   0.0400 
 31 H       -1.8140    -2.7190    -0.1780 H     1 <1>   0.0800 
 32 H       -2.1640    -1.8860    -1.6600 H     1 <1>   0.0800 
 33 H       -1.3960     0.2410     1.9140 H     1 <1>   0.0800 
 34 H       -1.3540    -1.5010     1.8830 H     1 <1>   0.0800 
 35 H       -2.8940    -0.6630     1.9090 H     1 <1>   0.0800 
 36 H       -4.4250     1.7890     1.8900 H     1 <1>   0.0800 
 37 H       -4.6960     0.4310     0.8060 H     1 <1>   0.0800 
 38 H       -5.2300     3.0640    -1.6750 H     1 <1>   0.0800 
 39 H       -4.4520     4.2670    -0.6650 H     1 <1>   0.0800 
 40 H        0.8980     1.1540    -1.4130 H     1 <1>   0.1500 
 41 H        1.1310     3.3790     2.2150 H     1 <1>   0.1500 
 42 H       -2.9420    -3.7220     1.7310 H     1 <1>   0.0800 
 43 H       -4.4030    -4.6700     1.5770 H     1 <1>   0.0800 
 44 H       -4.3680    -3.2880     2.6470 H     1 <1>   0.0800 
 45 H       -4.0990    -1.0650    -3.0330 H     1 <1>   0.0800 
 46 H       -4.2830     0.3360    -2.0070 H     1 <1>   0.0800 
 47 H       -5.6870    -0.3970    -2.7370 H     1 <1>   0.0800 
 48 H       -6.7820     1.8640     1.7240 H     1 <1>   0.0800 
 49 H       -6.7390     1.2600     0.0780 H     1 <1>   0.0800 
 50 H       -7.0650     3.6080    -0.3110 H     1 <1>   0.0800 
 51 H       -6.0160     4.0280     1.0310 H     1 <1>   0.0800 
 52 H        3.2740     0.7270    -1.3190 H     1 <1>   0.1500 
 53 H        3.5460     2.9550     2.3050 H     1 <1>   0.1500 
 54 H        6.6850     0.8890    -0.0060 H     1 <1>   0.0800 
 55 H        5.5660     1.3900    -1.2690 H     1 <1>   0.0800 
 56 H        5.2790    -0.1070    -0.3620 H     1 <1>   0.0800 
@<TRIPOS>BOND
  1   1   2  2   
  2   2   3  am  
  3   2   4  1   
  4   3   5  1   
  5   3   6  1   
  6   4   7  1   
  7   4   8  2   
  8   5   9  1   
  9   5  31  1   
 10   5  32  1   
 11   6  33  1   
 12   6  34  1   
 13   6  35  1   
 14   7  10  2   
 15   7  11  1   
 16   8  12  1   
 17   8  13  1   
 18   9  14  2   
 19   9  15  1   
 20  10  12  1   
 21  11  16  1   
 22  11  17  1   
 23  13  18  ar  
 24  13  19  ar  
 25  14  20  1   
 26  14  21  1   
 27  15  22  2   
 28  15  23  1   
 29  16  24  1   
 30  16  36  1   
 31  16  37  1   
 32  17  25  1   
 33  17  38  1   
 34  17  39  1   
 35  18  26  ar  
 36  18  40  1   
 37  19  27  ar  
 38  19  41  1   
 39  20  22  1   
 40  21  42  1   
 41  21  43  1   
 42  21  44  1   
 43  23  45  1   
 44  23  46  1   
 45  23  47  1   
 46  24  25  1   
 47  24  48  1   
 48  24  49  1   
 49  25  50  1   
 50  25  51  1   
 51  26  28  ar  
 52  26  52  1   
 53  27  28  ar  
 54  27  53  1   
 55  28  29  1   
 56  29  30  1   
 57  30  54  1   
 58  30  55  1   
 59  30  56  1   
@<TRIPOS>SUBSTRUCTURE
  1 ****   2 GROUP 4 **** **** 0

# MOE 2024.06 (io_trps.svl 2023.06)
