@<TRIPOS>MOLECULE
NONAME
24 24 1 0 0 
SMALL
USER_CHARGES


@<TRIPOS>ATOM
  1 BR      -0.4100     0.4090    -2.4070 Br    1 <1>  -0.1110 
  2 C       -1.8120     1.1090    -1.2930 C.ar  1 <1>   0.1110 
  3 C       -2.8220     0.2620    -0.8850 C.ar  1 <1>  -0.1500 
  4 C       -1.7660     2.4410    -0.9360 C.ar  1 <1>  -0.1500 
  5 C       -3.8390     0.7630    -0.0790 C.ar  1 <1>  -0.1430 
  6 C       -2.7780     2.9570    -0.1350 C.ar  1 <1>  -0.1430 
  7 C       -3.7990     2.1090     0.2850 C.ar  1 <1>  -0.1500 
  8 C       -4.9910    -0.1330     0.4130 C.3   1 <1>   1.1640 
  9 C       -2.8020     4.4180     0.2910 C.3   1 <1>   0.5660 
 10 F       -6.1730     0.4030     0.1400 F     1 <1>  -0.3400 
 11 F       -4.9520    -0.3020     1.7270 F     1 <1>  -0.3400 
 12 F       -4.9920    -1.3440    -0.1280 F     1 <1>  -0.3400 
 13 N       -3.0340     5.2200    -0.9080 N.4   1 <1>  -0.8530 
 14 C       -1.5000     4.8690     0.9400 C.3   1 <1>  -0.2400 
 15 H       -2.7990    -0.7700    -1.1970 H     1 <1>   0.1500 
 16 H       -0.9400     3.0330    -1.2890 H     1 <1>   0.1500 
 17 H       -4.5890     2.4900     0.9160 H     1 <1>   0.1500 
 18 H       -3.6120     4.5660     0.9890 H     1 <1>   0.0800 
 19 H       -2.2630     5.0790    -1.5650 H     1 <1>   0.4500 
 20 H       -3.1060     6.2160    -0.6800 H     1 <1>   0.4500 
 21 H       -3.8960     4.9080    -1.3650 H     1 <1>   0.4500 
 22 H       -0.6650     4.7920     0.2670 H     1 <1>   0.0800 
 23 H       -1.2960     4.2430     1.7920 H     1 <1>   0.0800 
 24 H       -1.5820     5.8820     1.2930 H     1 <1>   0.0800 
@<TRIPOS>BOND
  1   1   2  1   
  2   2   3  ar  
  3   2   4  ar  
  4   3   5  ar  
  5   3  15  1   
  6   4   6  ar  
  7   4  16  1   
  8   5   7  ar  
  9   5   8  1   
 10   6   7  ar  
 11   6   9  1   
 12   7  17  1   
 13   8  10  1   
 14   8  11  1   
 15   8  12  1   
 16   9  13  1   
 17   9  14  1   
 18   9  18  1   
 19  13  19  1   
 20  13  20  1   
 21  13  21  1   
 22  14  22  1   
 23  14  23  1   
 24  14  24  1   
@<TRIPOS>SUBSTRUCTURE
  1 ****   7 GROUP 4 **** **** 0

# MOE 2024.06 (io_trps.svl 2023.06)
