@<TRIPOS>MOLECULE
NONAME
46 48 1 0 0 
SMALL
USER_CHARGES


@<TRIPOS>ATOM
  1 CL       0.3740    -0.1940    -1.8470 Cl    1 <1>  -0.1770 
  2 C        1.5210    -1.2260    -1.0260 C.ar  1 <1>   0.1770 
  3 C        1.1430    -2.0360     0.0340 C.ar  1 <1>  -0.0090 
  4 C        2.8210    -1.2040    -1.4950 C.ar  1 <1>  -0.1500 
  5 S       -0.5620    -2.0870     0.6320 S.o2  1 <1>   1.4470 
  6 C        2.1230    -2.8440     0.5980 C.ar  1 <1>  -0.1500 
  7 C        3.7720    -2.0180    -0.9130 C.ar  1 <1>  -0.1500 
  8 O       -0.6580    -2.9610     1.7840 O.2   1 <1>  -0.6500 
  9 O       -1.0990    -0.7490     0.7630 O.2   1 <1>  -0.6500 
 10 N       -1.3820    -2.8560    -0.6410 N.am  1 <1>  -0.8490 
 11 C        3.4440    -2.8670     0.1440 C.ar  1 <1>  -0.1790 
 12 C       -2.8350    -2.7400    -0.5490 C.3   1 <1>   0.1960 
 13 C       -1.1110    -4.2910    -0.7230 C.3   1 <1>   0.1960 
 14 C        4.4370    -3.7500     0.7440 C.2   1 <1>   0.9790 
 15 C       -3.2920    -3.9200     0.3110 C.3   1 <1>  -0.0800 
 16 C       -2.2830    -5.0240    -0.0530 C.3   1 <1>  -0.0800 
 17 O        5.6310    -3.6790     0.4070 O.co2 1 <1>  -0.9000 
 18 O        4.0950    -4.5950     1.5880 O.co2 1 <1>  -0.9000 
 19 C       -4.7910    -4.3200     0.2180 C.3   1 <1>   0.2800 
 20 C       -2.8840    -6.0950    -0.9800 C.3   1 <1>  -0.1600 
 21 O       -5.2530    -4.1320    -1.0710 O.3   1 <1>  -0.6800 
 22 C       -4.9430    -5.8180     0.5440 C.3   1 <1>  -0.1600 
 23 C       -5.7050    -3.4980     1.1550 C.3   1 <1>  -0.1600 
 24 C       -4.1320    -6.7570    -0.3730 C.3   1 <1>  -0.1600 
 25 C       -5.7240    -1.9760     0.9310 C.3   1 <1>  -0.2400 
 26 H        3.0850    -0.5590    -2.3130 H     1 <1>   0.1500 
 27 H        1.8650    -3.4940     1.4220 H     1 <1>   0.1500 
 28 H        4.7890    -2.0120    -1.2720 H     1 <1>   0.1500 
 29 H       -3.1360    -1.7890    -0.1500 H     1 <1>   0.0800 
 30 H       -3.2380    -2.8290    -1.5440 H     1 <1>   0.0800 
 31 H       -1.0530    -4.5620    -1.7640 H     1 <1>   0.0800 
 32 H       -0.1730    -4.5510    -0.2590 H     1 <1>   0.0800 
 33 H       -3.1030    -3.6590     1.3360 H     1 <1>   0.0800 
 34 H       -1.9330    -5.5000     0.8470 H     1 <1>   0.0800 
 35 H       -3.1650    -5.6260    -1.9080 H     1 <1>   0.0800 
 36 H       -2.1490    -6.8470    -1.2060 H     1 <1>   0.0800 
 37 H       -6.1790    -4.4280    -1.1260 H     1 <1>   0.4000 
 38 H       -4.5960    -5.9650     1.5530 H     1 <1>   0.0800 
 39 H       -5.9790    -6.1060     0.5290 H     1 <1>   0.0800 
 40 H       -6.7130    -3.8650     1.0620 H     1 <1>   0.0800 
 41 H       -5.4060    -3.6790     2.1730 H     1 <1>   0.0800 
 42 H       -3.8390    -7.6230     0.1940 H     1 <1>   0.0800 
 43 H       -4.7590    -7.0970    -1.1800 H     1 <1>   0.0800 
 44 H       -5.8990    -1.7410    -0.1040 H     1 <1>   0.0800 
 45 H       -4.7940    -1.5340     1.2410 H     1 <1>   0.0800 
 46 H       -6.5090    -1.5320     1.5170 H     1 <1>   0.0800 
@<TRIPOS>BOND
  1   1   2  1   
  2   2   3  ar  
  3   2   4  ar  
  4   3   5  1   
  5   3   6  ar  
  6   4   7  ar  
  7   4  26  1   
  8   5   8  2   
  9   5   9  2   
 10   5  10  am  
 11   6  11  ar  
 12   6  27  1   
 13   7  11  ar  
 14   7  28  1   
 15  10  12  1   
 16  10  13  1   
 17  11  14  1   
 18  12  15  1   
 19  12  29  1   
 20  12  30  1   
 21  13  16  1   
 22  13  31  1   
 23  13  32  1   
 24  14  17  ar  
 25  14  18  ar  
 26  15  16  1   
 27  15  19  1   
 28  15  33  1   
 29  16  20  1   
 30  16  34  1   
 31  19  21  1   
 32  19  22  1   
 33  19  23  1   
 34  20  24  1   
 35  20  35  1   
 36  20  36  1   
 37  21  37  1   
 38  22  24  1   
 39  22  38  1   
 40  22  39  1   
 41  23  25  1   
 42  23  40  1   
 43  23  41  1   
 44  24  42  1   
 45  24  43  1   
 46  25  44  1   
 47  25  45  1   
 48  25  46  1   
@<TRIPOS>SUBSTRUCTURE
  1 ****  10 GROUP 4 **** **** 0

# MOE 2024.06 (io_trps.svl 2023.06)
