@<TRIPOS>MOLECULE
NONAME
43 45 1 0 0 
SMALL
USER_CHARGES


@<TRIPOS>ATOM
  1 O       -1.4310     0.6410     2.4360 O.2   1 <1>  -0.5700 
  2 C       -2.3180     1.1620     1.7950 C.2   1 <1>   0.5690 
  3 N       -3.5170     0.5110     1.6050 N.am  1 <1>  -0.6600 
  4 C       -2.0590     2.5730     1.2360 C.3   1 <1>   0.1250 
  5 C       -3.7080    -0.8680     2.1620 C.3   1 <1>   0.3210 
  6 C       -4.7220     1.0680     0.9030 C.3   1 <1>   0.1400 
  7 C       -1.0990     2.6130     0.0640 C.ar  1 <1>  -0.1440 
  8 C       -1.4100     3.5570     2.2360 C.3   1 <1>  -0.1600 
  9 C       -3.8250    -1.8940     1.0420 C.2   1 <1>   0.0460 
 10 C       -4.5830     1.1870    -0.6300 C.3   1 <1>   0.1200 
 11 C       -0.2610     3.6990     0.1510 C.ar  1 <1>  -0.1440 
 12 C       -0.9990     1.7330    -1.0000 C.ar  1 <1>  -0.1500 
 13 C       -0.5320     4.5020     1.3990 C.3   1 <1>  -0.0170 
 14 N       -5.0240    -2.2110     0.5080 N.2   1 <1>  -0.5650 
 15 C       -2.8310    -2.5770     0.4270 C.2   1 <1>  -0.3320 
 16 O       -4.1090     0.0170    -1.1990 O.3   1 <1>  -0.6800 
 17 C        0.6880     3.9430    -0.8240 C.ar  1 <1>  -0.1500 
 18 C       -0.0520     1.9700    -1.9830 C.ar  1 <1>  -0.1500 
 19 C       -4.7370    -3.0800    -0.4060 C.2   1 <1>   0.0360 
 20 N       -3.4190    -3.3450    -0.5070 N.pl3 1 <1>   0.0330 
 21 C       -1.3270    -2.5350     0.6410 C.3   1 <1>  -0.0600 
 22 C        0.7880     3.0710    -1.8960 C.ar  1 <1>  -0.1500 
 23 H       -2.9750     3.0180     0.9070 H     1 <1>   0.0800 
 24 H       -4.5990    -0.8950     2.7610 H     1 <1>   0.0800 
 25 H       -2.8880    -1.1450     2.7980 H     1 <1>   0.0800 
 26 H       -4.9510     2.0360     1.3090 H     1 <1>   0.0800 
 27 H       -5.5740     0.4430     1.1100 H     1 <1>   0.0800 
 28 H       -0.7680     3.0160     2.9100 H     1 <1>   0.0800 
 29 H       -2.1450     4.0890     2.8120 H     1 <1>   0.0800 
 30 H       -3.9120     1.9810    -0.9040 H     1 <1>   0.0800 
 31 H       -5.5460     1.3930    -1.0640 H     1 <1>   0.0800 
 32 H       -1.6460     0.8750    -1.0660 H     1 <1>   0.1500 
 33 H        0.3790     4.7530     1.9140 H     1 <1>   0.0800 
 34 H       -1.0690     5.3970     1.1410 H     1 <1>   0.0800 
 35 H       -4.3020    -0.7510    -0.6000 H     1 <1>   0.4000 
 36 H        1.3400     4.7940    -0.7500 H     1 <1>   0.1500 
 37 H        0.0310     1.2930    -2.8150 H     1 <1>   0.1500 
 38 H       -5.4650    -3.5550    -1.0410 H     1 <1>   0.1500 
 39 H       -2.9640    -3.9830    -1.1660 H     1 <1>   0.2700 
 40 H       -1.0730    -1.8450     1.4260 H     1 <1>   0.0800 
 41 H       -0.8350    -2.2100    -0.2580 H     1 <1>   0.0800 
 42 H       -0.9600    -3.5090     0.9120 H     1 <1>   0.0800 
 43 H        1.5210     3.2470    -2.6640 H     1 <1>   0.1500 
@<TRIPOS>BOND
  1   1   2  2   
  2   2   3  am  
  3   2   4  1   
  4   3   5  1   
  5   3   6  1   
  6   4   7  1   
  7   4   8  1   
  8   4  23  1   
  9   5   9  1   
 10   5  24  1   
 11   5  25  1   
 12   6  10  1   
 13   6  26  1   
 14   6  27  1   
 15   7  11  ar  
 16   7  12  ar  
 17   8  13  1   
 18   8  28  1   
 19   8  29  1   
 20   9  14  1   
 21   9  15  2   
 22  10  16  1   
 23  10  30  1   
 24  10  31  1   
 25  11  13  1   
 26  11  17  ar  
 27  12  18  ar  
 28  12  32  1   
 29  13  33  1   
 30  13  34  1   
 31  14  19  2   
 32  15  20  1   
 33  15  21  1   
 34  16  35  1   
 35  17  22  ar  
 36  17  36  1   
 37  18  22  ar  
 38  18  37  1   
 39  19  20  1   
 40  19  38  1   
 41  20  39  1   
 42  21  40  1   
 43  21  41  1   
 44  21  42  1   
 45  22  43  1   
@<TRIPOS>SUBSTRUCTURE
  1 ****   2 GROUP 4 **** **** 0

# MOE 2024.06 (io_trps.svl 2023.06)
