@<TRIPOS>MOLECULE
NONAME
47 50 1 0 0 
SMALL
USER_CHARGES


@<TRIPOS>ATOM
  1 CL      -0.6190    -1.0560     0.2090 Cl    1 <1>  -0.1230 
  2 C       -1.5070    -2.5230    -0.1650 C.2   1 <1>   0.1230 
  3 C       -0.9630    -3.7910    -0.2960 C.2   1 <1>   0.1390 
  4 C       -2.8290    -2.6500    -0.3800 C.2   1 <1>  -0.3020 
  5 N       -1.8850    -4.6690    -0.5760 N.2   1 <1>  -0.7070 
  6 N       -3.0360    -3.9600    -0.6280 N.pl3 1 <1>   0.3140 
  7 C       -4.3200    -4.6090    -0.9310 C.3   1 <1>   0.0960 
  8 C       -4.2970    -6.0320    -0.3620 C.3   1 <1>   0.3430 
  9 N       -5.4980    -6.8610    -0.7420 N.4   1 <1>  -0.9590 
 10 C       -6.7880    -6.3050    -0.2240 C.3   1 <1>   0.3430 
 11 C       -5.3870    -8.1960    -0.0840 C.3   1 <1>   0.3430 
 12 C       -6.8840    -6.7670     1.2330 C.3   1 <1>   0.2000 
 13 C       -6.1360    -8.1070     1.2580 C.3   1 <1>  -0.0800 
 14 O       -6.1940    -5.8560     2.0230 O.3   1 <1>  -0.6800 
 15 C       -7.0820    -9.3020     1.4840 C.3   1 <1>  -0.0160 
 16 C       -6.3400   -10.6170     1.2690 C.ar  1 <1>  -0.1430 
 17 C       -6.3970   -11.3630     0.0630 C.ar  1 <1>   0.0000 
 18 C       -5.5550   -11.1030     2.2740 C.ar  1 <1>  -0.1500 
 19 C       -5.5940   -12.5280    -0.0220 C.ar  1 <1>   0.3100 
 20 C       -7.1930   -11.0320    -1.0610 C.ar  1 <1>  -0.1500 
 21 C       -4.8170   -12.2780     2.0910 C.ar  1 <1>   0.1600 
 22 N       -4.8130   -12.9650     0.9950 N.ar  1 <1>  -0.6200 
 23 C       -5.5940   -13.2730    -1.2110 C.ar  1 <1>  -0.1500 
 24 C       -7.1730   -11.7840    -2.2040 C.ar  1 <1>  -0.1500 
 25 C       -6.3610   -12.9160    -2.2850 C.ar  1 <1>  -0.1500 
 26 H        0.0830    -4.0190    -0.1820 H     1 <1>   0.1500 
 27 H       -3.5960    -1.8990    -0.3690 H     1 <1>   0.1500 
 28 H       -5.1060    -4.0310    -0.4820 H     1 <1>   0.0800 
 29 H       -4.4360    -4.6300    -1.9980 H     1 <1>   0.0800 
 30 H       -4.2230    -5.9680     0.7110 H     1 <1>   0.0800 
 31 H       -3.4080    -6.5250    -0.7220 H     1 <1>   0.0800 
 32 H       -5.5210    -6.9780    -1.7650 H     1 <1>   0.4500 
 33 H       -6.8380    -5.2320    -0.2960 H     1 <1>   0.0800 
 34 H       -7.6070    -6.7330    -0.7780 H     1 <1>   0.0800 
 35 H       -5.8540    -8.9400    -0.7080 H     1 <1>   0.0800 
 36 H       -4.3570    -8.4800     0.0660 H     1 <1>   0.0800 
 37 H       -7.9030    -6.8180     1.5790 H     1 <1>   0.0800 
 38 H       -5.4050    -8.1140     2.0490 H     1 <1>   0.0800 
 39 H       -6.3440    -6.0240     2.9790 H     1 <1>   0.4000 
 40 H       -7.9500    -9.2370     0.8560 H     1 <1>   0.0800 
 41 H       -7.4430    -9.2720     2.4990 H     1 <1>   0.0800 
 42 H       -5.4730   -10.6060     3.2240 H     1 <1>   0.1500 
 43 H       -7.8430   -10.1810    -1.0330 H     1 <1>   0.1500 
 44 H       -4.2120   -12.6280     2.9100 H     1 <1>   0.1500 
 45 H       -4.9670   -14.1460    -1.2480 H     1 <1>   0.1500 
 46 H       -7.7840   -11.5250    -3.0530 H     1 <1>   0.1500 
 47 H       -6.3520   -13.5010    -3.1900 H     1 <1>   0.1500 
@<TRIPOS>BOND
  1   1   2  1   
  2   2   3  1   
  3   2   4  2   
  4   3   5  2   
  5   3  26  1   
  6   4   6  1   
  7   4  27  1   
  8   5   6  1   
  9   6   7  1   
 10   7   8  1   
 11   7  28  1   
 12   7  29  1   
 13   8   9  1   
 14   8  30  1   
 15   8  31  1   
 16   9  10  1   
 17   9  11  1   
 18   9  32  1   
 19  10  12  1   
 20  10  33  1   
 21  10  34  1   
 22  11  13  1   
 23  11  35  1   
 24  11  36  1   
 25  12  13  1   
 26  12  14  1   
 27  12  37  1   
 28  13  15  1   
 29  13  38  1   
 30  14  39  1   
 31  15  16  1   
 32  15  40  1   
 33  15  41  1   
 34  16  17  ar  
 35  16  18  ar  
 36  17  19  ar  
 37  17  20  ar  
 38  18  21  ar  
 39  18  42  1   
 40  19  22  ar  
 41  19  23  ar  
 42  20  24  ar  
 43  20  43  1   
 44  21  22  ar  
 45  21  44  1   
 46  23  25  ar  
 47  23  45  1   
 48  24  25  ar  
 49  24  46  1   
 50  25  47  1   
@<TRIPOS>SUBSTRUCTURE
  1 ****  11 GROUP 4 **** **** 0

# MOE 2024.06 (io_trps.svl 2023.06)
