@<TRIPOS>MOLECULE
NONAME
35 36 1 0 0 
SMALL
USER_CHARGES


@<TRIPOS>ATOM
  1 S       -0.5810    -0.4660    -0.2890 S.3   1 <1>  -0.0800 
  2 C       -1.3070    -1.0100     1.1860 C.2   1 <1>   0.4420 
  3 C       -0.2870     1.0490     0.4990 C.2   1 <1>   0.1980 
  4 N       -1.2860    -0.1080     2.0990 N.2   1 <1>  -0.3380 
  5 N       -1.7960    -2.2970     1.1940 N.am  1 <1>  -0.4940 
  6 N       -0.7040     1.0630     1.7010 N.2   1 <1>  -0.3380 
  7 C        0.3980     2.1710    -0.2790 C.3   1 <1>   0.3800 
  8 C       -2.4730    -2.9780     2.1650 C.2   1 <1>   0.5690 
  9 O       -0.3050     2.4780    -1.4490 O.3   1 <1>  -0.5600 
 10 C        1.8210     1.8050    -0.6970 C.3   1 <1>  -0.2400 
 11 O       -2.7730    -2.5050     3.2330 O.2   1 <1>  -0.5700 
 12 C       -2.8610    -4.4280     1.8780 C.3   1 <1>   0.2010 
 13 C       -1.5490     3.0770    -1.2490 C.3   1 <1>   0.0400 
 14 N       -3.6450    -4.6010     0.6120 N.am  1 <1>  -0.6600 
 15 C       -3.1520    -4.4890    -0.6380 C.2   1 <1>   0.5690 
 16 C       -5.0840    -4.9060     0.6390 C.3   1 <1>   0.1400 
 17 O       -2.0180    -4.1690    -0.9050 O.2   1 <1>  -0.5700 
 18 C       -4.2140    -4.7670    -1.6620 C.3   1 <1>  -0.0990 
 19 C       -5.5110    -4.8070    -0.8340 C.3   1 <1>  -0.1600 
 20 H       -1.6730    -2.8210     0.3190 H     1 <1>   0.3700 
 21 H        0.4300     3.0560     0.3340 H     1 <1>   0.0800 
 22 H        1.8110     0.9600    -1.3620 H     1 <1>   0.0800 
 23 H        2.4020     1.5550     0.1720 H     1 <1>   0.0800 
 24 H        2.2820     2.6410    -1.1910 H     1 <1>   0.0800 
 25 H       -3.4340    -4.8020     2.7070 H     1 <1>   0.0800 
 26 H       -1.9600    -5.0100     1.8100 H     1 <1>   0.0800 
 27 H       -1.9720     3.2970    -2.2140 H     1 <1>   0.0800 
 28 H       -1.4220     3.9910    -0.6940 H     1 <1>   0.0800 
 29 H       -2.1980     2.4010    -0.7200 H     1 <1>   0.0800 
 30 H       -5.6140    -4.1940     1.2510 H     1 <1>   0.0800 
 31 H       -5.2350    -5.9030     1.0180 H     1 <1>   0.0800 
 32 H       -4.0160    -5.7170    -2.1220 H     1 <1>   0.0800 
 33 H       -4.2370    -3.9930    -2.4070 H     1 <1>   0.0800 
 34 H       -6.0600    -3.8920    -0.9750 H     1 <1>   0.0800 
 35 H       -6.1420    -5.6320    -1.1140 H     1 <1>   0.0800 
@<TRIPOS>BOND
  1   1   2  1   
  2   1   3  1   
  3   2   4  2   
  4   2   5  1   
  5   3   6  2   
  6   3   7  1   
  7   4   6  1   
  8   5   8  am  
  9   5  20  1   
 10   7   9  1   
 11   7  10  1   
 12   7  21  1   
 13   8  11  2   
 14   8  12  1   
 15   9  13  1   
 16  10  22  1   
 17  10  23  1   
 18  10  24  1   
 19  12  14  1   
 20  12  25  1   
 21  12  26  1   
 22  13  27  1   
 23  13  28  1   
 24  13  29  1   
 25  14  15  am  
 26  14  16  1   
 27  15  17  2   
 28  15  18  1   
 29  16  19  1   
 30  16  30  1   
 31  16  31  1   
 32  18  19  1   
 33  18  32  1   
 34  18  33  1   
 35  19  34  1   
 36  19  35  1   
@<TRIPOS>SUBSTRUCTURE
  1 ****   5 GROUP 4 **** **** 0

# MOE 2024.06 (io_trps.svl 2023.06)
