@<TRIPOS>MOLECULE
NONAME
49 52 1 0 0 
SMALL
USER_CHARGES


@<TRIPOS>ATOM
  1 S        2.1000    -0.4540    -1.1520 S.3   1 <1>  -0.0800 
  2 C        0.9570    -1.4790    -0.3220 C.2   1 <1>   0.1980 
  3 C        2.0260     0.6620     0.1820 C.2   1 <1>  -0.1400 
  4 N        0.5720    -1.0370     0.8100 N.2   1 <1>  -0.5650 
  5 C        0.5420    -2.7690    -1.0120 C.3   1 <1>   0.5230 
  6 C        1.1740     0.1770     1.1030 C.2   1 <1>   0.0460 
  7 C        2.8860     1.9080     0.0740 C.3   1 <1>  -0.0600 
  8 N       -0.6070    -3.3760    -0.2680 N.4   1 <1>  -0.9590 
  9 C        0.8000     0.8090     2.4280 C.3   1 <1>  -0.0590 
 10 C       -1.8960    -2.6530    -0.4660 C.3   1 <1>   0.3430 
 11 C       -0.8840    -4.8030    -0.5510 C.3   1 <1>   0.3430 
 12 C       -2.9950    -3.6670    -0.1170 C.3   1 <1>   0.2000 
 13 C       -2.3020    -5.0340    -0.0280 C.3   1 <1>  -0.0800 
 14 O       -3.5710    -3.3660     1.1080 O.3   1 <1>  -0.6800 
 15 C       -3.0500    -6.1460    -0.7880 C.3   1 <1>  -0.0160 
 16 C       -2.1660    -7.3790    -0.9420 C.ar  1 <1>  -0.1440 
 17 C       -1.8410    -8.2210     0.1490 C.ar  1 <1>   0.0000 
 18 C       -1.6340    -7.6900    -2.1600 C.ar  1 <1>  -0.1500 
 19 C       -0.9240    -9.2740    -0.0860 C.ar  1 <1>   0.3100 
 20 C       -2.3720    -8.0860     1.4530 C.ar  1 <1>  -0.1500 
 21 C       -0.7610    -8.7770    -2.2910 C.ar  1 <1>   0.1600 
 22 N       -0.3920    -9.5300    -1.3060 N.ar  1 <1>  -0.6200 
 23 C       -0.5440   -10.0980     0.9850 C.ar  1 <1>  -0.1500 
 24 C       -1.9850    -8.9100     2.4750 C.ar  1 <1>  -0.1500 
 25 C       -1.0550    -9.9250     2.2420 C.ar  1 <1>  -0.1500 
 26 H        1.3830    -3.4420    -1.0080 H     1 <1>   0.0800 
 27 H        0.2660    -2.5640    -2.0320 H     1 <1>   0.0800 
 28 H        2.7710     2.5300     0.9420 H     1 <1>   0.0800 
 29 H        2.6020     2.4750    -0.7950 H     1 <1>   0.0800 
 30 H        3.9210     1.6320    -0.0160 H     1 <1>   0.0800 
 31 H       -0.3600    -3.2500     0.7290 H     1 <1>   0.4500 
 32 H        1.3130     1.7410     2.5700 H     1 <1>   0.0800 
 33 H        1.0610     0.1460     3.2320 H     1 <1>   0.0800 
 34 H       -0.2590     0.9910     2.4570 H     1 <1>   0.0800 
 35 H       -1.9600    -1.7710     0.1530 H     1 <1>   0.0800 
 36 H       -1.9980    -2.3690    -1.5000 H     1 <1>   0.0800 
 37 H       -0.8600    -4.9790    -1.6140 H     1 <1>   0.0800 
 38 H       -0.1750    -5.4580    -0.0660 H     1 <1>   0.0800 
 39 H       -3.7770    -3.6390    -0.8580 H     1 <1>   0.0800 
 40 H       -2.2050    -5.3240     1.0030 H     1 <1>   0.0800 
 41 H       -2.9450    -3.4340     1.8560 H     1 <1>   0.4000 
 42 H       -3.3340    -5.7920    -1.7640 H     1 <1>   0.0800 
 43 H       -3.9610    -6.4040    -0.2730 H     1 <1>   0.0800 
 44 H       -1.8590    -7.1230    -3.0460 H     1 <1>   0.1500 
 45 H       -3.1070    -7.3300     1.6550 H     1 <1>   0.1500 
 46 H       -0.3650    -8.9950    -3.2690 H     1 <1>   0.1500 
 47 H        0.1640   -10.8810     0.7810 H     1 <1>   0.1500 
 48 H       -2.3940    -8.7960     3.4650 H     1 <1>   0.1500 
 49 H       -0.7560   -10.5660     3.0540 H     1 <1>   0.1500 
@<TRIPOS>BOND
  1   1   2  1   
  2   1   3  1   
  3   2   4  2   
  4   2   5  1   
  5   3   6  2   
  6   3   7  1   
  7   4   6  1   
  8   5   8  1   
  9   5  26  1   
 10   5  27  1   
 11   6   9  1   
 12   7  28  1   
 13   7  29  1   
 14   7  30  1   
 15   8  10  1   
 16   8  11  1   
 17   8  31  1   
 18   9  32  1   
 19   9  33  1   
 20   9  34  1   
 21  10  12  1   
 22  10  35  1   
 23  10  36  1   
 24  11  13  1   
 25  11  37  1   
 26  11  38  1   
 27  12  13  1   
 28  12  14  1   
 29  12  39  1   
 30  13  15  1   
 31  13  40  1   
 32  14  41  1   
 33  15  16  1   
 34  15  42  1   
 35  15  43  1   
 36  16  17  ar  
 37  16  18  ar  
 38  17  19  ar  
 39  17  20  ar  
 40  18  21  ar  
 41  18  44  1   
 42  19  22  ar  
 43  19  23  ar  
 44  20  24  ar  
 45  20  45  1   
 46  21  22  ar  
 47  21  46  1   
 48  23  25  ar  
 49  23  47  1   
 50  24  25  ar  
 51  24  48  1   
 52  25  49  1   
@<TRIPOS>SUBSTRUCTURE
  1 ****  11 GROUP 4 **** **** 0

# MOE 2024.06 (io_trps.svl 2023.06)
