@<TRIPOS>MOLECULE
NONAME
34 34 1 0 0 
SMALL
USER_CHARGES


@<TRIPOS>ATOM
  1 S       -0.0670     0.3730     1.0600 S.o2  1 <1>   1.0900 
  2 O        1.0960     0.1050     1.8720 O.2   1 <1>  -0.6500 
  3 O       -1.3880     0.2930     1.6350 O.2   1 <1>  -0.6500 
  4 C        0.1250     2.0080     0.3530 C.3   1 <1>  -0.0550 
  5 C       -0.0240    -0.7200    -0.3490 C.3   1 <1>  -0.1350 
  6 C        1.5380     2.2810    -0.1890 C.3   1 <1>  -0.0990 
  7 C        1.6100     3.6640    -0.7940 C.2   1 <1>   0.5690 
  8 O        1.0050     3.8530    -1.8200 O.2   1 <1>  -0.5700 
  9 N        2.3330     4.6200    -0.1500 N.am  1 <1>  -0.4930 
 10 C        2.5180     5.9790    -0.5100 C.2   1 <1>   0.0630 
 11 C        2.0100     6.6850    -1.6020 C.2   1 <1>   0.1390 
 12 C        3.2500     6.8860     0.1660 C.2   1 <1>  -0.3020 
 13 N        2.3920     7.9280    -1.6060 N.2   1 <1>  -0.7070 
 14 N        3.1630     8.0560    -0.5100 N.pl3 1 <1>   0.3140 
 15 C        3.8040     9.3530    -0.1550 C.3   1 <1>   0.1760 
 16 C        5.3330     9.2230    -0.1560 C.3   1 <1>  -0.2400 
 17 C        3.2950     9.8590     1.2020 C.3   1 <1>  -0.2400 
 18 H       -0.0910     2.7370     1.1110 H     1 <1>   0.0800 
 19 H       -0.5930     2.1480    -0.4350 H     1 <1>   0.0800 
 20 H       -0.1660    -1.7330    -0.0250 H     1 <1>   0.0800 
 21 H        0.9200    -0.6580    -0.8530 H     1 <1>   0.0800 
 22 H       -0.8070    -0.4750    -1.0400 H     1 <1>   0.0800 
 23 H        1.7850     1.5700    -0.9560 H     1 <1>   0.0800 
 24 H        2.2600     2.1840     0.6020 H     1 <1>   0.0800 
 25 H        2.8100     4.3460     0.7070 H     1 <1>   0.3700 
 26 H        1.3740     6.2570    -2.3580 H     1 <1>   0.1500 
 27 H        3.8180     6.7760     1.0700 H     1 <1>   0.1500 
 28 H        3.5200    10.0620    -0.9130 H     1 <1>   0.0800 
 29 H        5.6610     8.5340     0.6020 H     1 <1>   0.0800 
 30 H        5.7830    10.1810     0.0340 H     1 <1>   0.0800 
 31 H        5.6700     8.8780    -1.1180 H     1 <1>   0.0800 
 32 H        3.5740     9.1850     1.9920 H     1 <1>   0.0800 
 33 H        2.2230     9.9530     1.1780 H     1 <1>   0.0800 
 34 H        3.7130    10.8260     1.4140 H     1 <1>   0.0800 
@<TRIPOS>BOND
  1   1   2  2   
  2   1   3  2   
  3   1   4  1   
  4   1   5  1   
  5   4   6  1   
  6   4  18  1   
  7   4  19  1   
  8   5  20  1   
  9   5  21  1   
 10   5  22  1   
 11   6   7  1   
 12   6  23  1   
 13   6  24  1   
 14   7   8  2   
 15   7   9  am  
 16   9  10  1   
 17   9  25  1   
 18  10  11  1   
 19  10  12  2   
 20  11  13  2   
 21  11  26  1   
 22  12  14  1   
 23  12  27  1   
 24  13  14  1   
 25  14  15  1   
 26  15  16  1   
 27  15  17  1   
 28  15  28  1   
 29  16  29  1   
 30  16  30  1   
 31  16  31  1   
 32  17  32  1   
 33  17  33  1   
 34  17  34  1   
@<TRIPOS>SUBSTRUCTURE
  1 ****   9 GROUP 4 **** **** 0

# MOE 2024.06 (io_trps.svl 2023.06)
