@<TRIPOS>MOLECULE
NONAME
49 52 1 0 0 
SMALL
USER_CHARGES


@<TRIPOS>ATOM
  1 F       -0.0240    -1.4970    -2.5180 F     1 <1>  -0.1900 
  2 C       -0.7010    -2.4040    -1.8600 C.ar  1 <1>   0.1900 
  3 C       -0.3590    -2.7880    -0.5590 C.ar  1 <1>   0.0820 
  4 C       -1.7790    -2.9630    -2.5190 C.ar  1 <1>  -0.1500 
  5 O        0.6750    -2.3110     0.1930 O.3   1 <1>  -0.3630 
  6 C       -1.1410    -3.7560     0.0510 C.ar  1 <1>  -0.1500 
  7 C       -2.5390    -3.9250    -1.8800 C.ar  1 <1>  -0.1500 
  8 C        1.5990    -1.3600    -0.2860 C.3   1 <1>   0.0400 
  9 C       -2.2380    -4.3470    -0.5830 C.ar  1 <1>   0.0530 
 10 C       -3.0260    -5.3520     0.0910 C.2   1 <1>   0.0870 
 11 O       -3.0600    -5.4020     1.4030 O.3   1 <1>  -0.0190 
 12 C       -3.8340    -6.3470    -0.3520 C.2   1 <1>  -0.2330 
 13 N       -3.8390    -6.3510     1.8560 N.2   1 <1>  -0.4100 
 14 C       -4.3040    -6.9470     0.8160 C.2   1 <1>   0.3720 
 15 C       -4.2210    -6.7170    -1.6660 C.2   1 <1>   1.0330 
 16 N       -5.2050    -8.0160     0.9150 N.pl3 1 <1>  -0.8210 
 17 O       -5.2040    -6.1750    -2.2070 O.co2 1 <1>  -0.9000 
 18 O       -3.7190    -7.6980    -2.2360 O.co2 1 <1>  -0.9000 
 19 C       -5.3040    -9.1670    -0.0080 C.3   1 <1>   0.2890 
 20 C       -6.3060    -8.0420     1.8760 C.3   1 <1>   0.2890 
 21 C       -6.2740    -8.9240    -1.2030 C.3   1 <1>   0.3430 
 22 C       -5.8400   -10.2550     0.9180 C.3   1 <1>  -0.1600 
 23 C       -7.4210    -7.1310     1.3430 C.3   1 <1>  -0.1600 
 24 C       -6.7120    -9.5230     1.9450 C.3   1 <1>  -0.1600 
 25 N       -7.5920    -8.2080    -0.9460 N.4   1 <1>  -0.9590 
 26 C       -7.4250    -6.9330    -0.1800 C.3   1 <1>   0.3430 
 27 C       -8.1200    -7.8410    -2.2900 C.3   1 <1>   0.2630 
 28 H       -2.0210    -2.6510    -3.5190 H     1 <1>   0.1500 
 29 H       -0.8860    -4.0620     1.0490 H     1 <1>   0.1500 
 30 H       -3.3810    -4.3480    -2.4010 H     1 <1>   0.1500 
 31 H        2.3220    -1.1760     0.4880 H     1 <1>   0.0800 
 32 H        1.0750    -0.4490    -0.5180 H     1 <1>   0.0800 
 33 H        2.0900    -1.7560    -1.1570 H     1 <1>   0.0800 
 34 H       -4.3290    -9.4350    -0.3830 H     1 <1>   0.0800 
 35 H       -5.9640    -7.7040     2.8420 H     1 <1>   0.0800 
 36 H       -6.4840    -9.8840    -1.6400 H     1 <1>   0.0800 
 37 H       -5.7450    -8.3850    -1.9630 H     1 <1>   0.0800 
 38 H       -6.3730   -11.0260     0.3910 H     1 <1>   0.0800 
 39 H       -5.0010   -10.7040     1.4210 H     1 <1>   0.0800 
 40 H       -8.3840    -7.4550     1.6880 H     1 <1>   0.0800 
 41 H       -7.2570    -6.1610     1.7760 H     1 <1>   0.0800 
 42 H       -6.5270    -9.9070     2.9330 H     1 <1>   0.0800 
 43 H       -7.7550    -9.6550     1.7260 H     1 <1>   0.0800 
 44 H       -8.2280    -8.8260    -0.4370 H     1 <1>   0.4500 
 45 H       -6.5090    -6.4500    -0.4760 H     1 <1>   0.0800 
 46 H       -8.2280    -6.2590    -0.4270 H     1 <1>   0.0800 
 47 H       -7.4160    -7.1890    -2.7890 H     1 <1>   0.0800 
 48 H       -9.0610    -7.3260    -2.1980 H     1 <1>   0.0800 
 49 H       -8.2590    -8.7220    -2.8950 H     1 <1>   0.0800 
@<TRIPOS>BOND
  1   1   2  1   
  2   2   3  ar  
  3   2   4  ar  
  4   3   5  1   
  5   3   6  ar  
  6   4   7  ar  
  7   4  28  1   
  8   5   8  1   
  9   6   9  ar  
 10   6  29  1   
 11   7   9  ar  
 12   7  30  1   
 13   8  31  1   
 14   8  32  1   
 15   8  33  1   
 16   9  10  1   
 17  10  11  1   
 18  10  12  2   
 19  11  13  1   
 20  12  14  1   
 21  12  15  1   
 22  13  14  2   
 23  14  16  1   
 24  15  17  ar  
 25  15  18  ar  
 26  16  19  1   
 27  16  20  1   
 28  19  21  1   
 29  19  22  1   
 30  19  34  1   
 31  20  23  1   
 32  20  24  1   
 33  20  35  1   
 34  21  25  1   
 35  21  36  1   
 36  21  37  1   
 37  22  24  1   
 38  22  38  1   
 39  22  39  1   
 40  23  26  1   
 41  23  40  1   
 42  23  41  1   
 43  24  42  1   
 44  24  43  1   
 45  25  26  1   
 46  25  27  1   
 47  25  44  1   
 48  26  45  1   
 49  26  46  1   
 50  27  47  1   
 51  27  48  1   
 52  27  49  1   
@<TRIPOS>SUBSTRUCTURE
  1 ****  12 GROUP 4 **** **** 0

# MOE 2024.06 (io_trps.svl 2023.06)
