@<TRIPOS>MOLECULE
NONAME
44 47 1 0 0 
SMALL
USER_CHARGES


@<TRIPOS>ATOM
  1 S        0.9680    -0.0420    -1.4100 S.o2  1 <1>   1.4470 
  2 O        0.6060     0.5340    -2.6830 O.2   1 <1>  -0.6500 
  3 O        2.0530    -0.9990    -1.3460 O.2   1 <1>  -0.6500 
  4 N        1.5180     1.2420    -0.4460 N.am  1 <1>  -0.8490 
  5 C       -0.5100    -0.6370    -0.5450 C.ar  1 <1>  -0.0090 
  6 C        1.9180     0.8760     0.9430 C.3   1 <1>   0.2760 
  7 C        2.3120     2.2330    -1.2010 C.3   1 <1>   0.1960 
  8 C       -0.4930    -1.8440     0.1500 C.ar  1 <1>  -0.1500 
  9 C       -1.6870     0.1220    -0.5360 C.ar  1 <1>  -0.1500 
 10 C        1.8700     2.0910     1.8850 C.3   1 <1>   0.1200 
 11 C        3.2880     0.1520     1.0790 C.3   1 <1>   0.3430 
 12 C        3.5660     2.7860    -0.5050 C.3   1 <1>  -0.0800 
 13 C       -1.6270    -2.2390     0.8320 C.ar  1 <1>   0.0820 
 14 C       -2.8240    -0.2870     0.1450 C.ar  1 <1>  -0.1500 
 15 O        3.0730     2.7950     1.8510 O.3   1 <1>  -0.5600 
 16 N        4.2090     0.3370    -0.0920 N.4   1 <1>  -0.9590 
 17 C        3.2470     3.6160     0.7470 C.3   1 <1>   0.1200 
 18 C        4.6800     1.7490    -0.2660 C.3   1 <1>   0.3430 
 19 O       -1.8120    -3.3500     1.5740 O.3   1 <1>  -0.2320 
 20 C       -2.7780    -1.4840     0.8370 C.ar  1 <1>   0.1170 
 21 C        5.3580    -0.6090    -0.0180 C.3   1 <1>   0.2630 
 22 C       -3.0620    -3.2970     2.0390 C.2   1 <1>   0.7800 
 23 N       -3.6830    -2.1730     1.6060 N.am  1 <1>  -0.5470 
 24 O       -3.5470    -4.1470     2.7550 O.2   1 <1>  -0.5700 
 25 H        1.1710     0.2050     1.3290 H     1 <1>   0.0800 
 26 H        2.6310     1.8070    -2.1390 H     1 <1>   0.0800 
 27 H        1.6600     3.0550    -1.4510 H     1 <1>   0.0800 
 28 H        0.3800    -2.4740     0.1630 H     1 <1>   0.1500 
 29 H       -1.7080     1.0540    -1.0800 H     1 <1>   0.1500 
 30 H        1.7450     1.7500     2.8980 H     1 <1>   0.0800 
 31 H        1.0490     2.7470     1.6480 H     1 <1>   0.0800 
 32 H        3.0860    -0.9000     1.1920 H     1 <1>   0.0800 
 33 H        3.7730     0.4830     1.9830 H     1 <1>   0.0800 
 34 H        3.9800     3.4970    -1.1970 H     1 <1>   0.0800 
 35 H       -3.7230     0.3050     0.1410 H     1 <1>   0.1500 
 36 H        3.6340     0.0640    -0.9140 H     1 <1>   0.4500 
 37 H        2.3700     4.2280     0.6120 H     1 <1>   0.0800 
 38 H        4.0750     4.2660     0.9730 H     1 <1>   0.0800 
 39 H        5.2490     2.0470     0.6010 H     1 <1>   0.0800 
 40 H        5.3460     1.7790    -1.1130 H     1 <1>   0.0800 
 41 H        5.9610    -0.4010     0.8510 H     1 <1>   0.0800 
 42 H        5.9740    -0.5190    -0.8980 H     1 <1>   0.0800 
 43 H        5.0000    -1.6250     0.0430 H     1 <1>   0.0800 
 44 H       -4.6520    -1.9510     1.8310 H     1 <1>   0.3700 
@<TRIPOS>BOND
  1   1   2  2   
  2   1   3  2   
  3   1   4  am  
  4   1   5  1   
  5   4   6  1   
  6   4   7  1   
  7   5   8  ar  
  8   5   9  ar  
  9   6  10  1   
 10   6  11  1   
 11   6  25  1   
 12   7  12  1   
 13   7  26  1   
 14   7  27  1   
 15   8  13  ar  
 16   8  28  1   
 17   9  14  ar  
 18   9  29  1   
 19  10  15  1   
 20  10  30  1   
 21  10  31  1   
 22  11  16  1   
 23  11  32  1   
 24  11  33  1   
 25  12  17  1   
 26  12  18  1   
 27  12  34  1   
 28  13  19  1   
 29  13  20  ar  
 30  14  20  ar  
 31  14  35  1   
 32  15  17  1   
 33  16  18  1   
 34  16  21  1   
 35  16  36  1   
 36  17  37  1   
 37  17  38  1   
 38  18  39  1   
 39  18  40  1   
 40  19  22  1   
 41  20  23  1   
 42  21  41  1   
 43  21  42  1   
 44  21  43  1   
 45  22  23  am  
 46  22  24  2   
 47  23  44  1   
@<TRIPOS>SUBSTRUCTURE
  1 ****   5 GROUP 4 **** **** 0

# MOE 2024.06 (io_trps.svl 2023.06)
