@<TRIPOS>MOLECULE
NONAME
52 55 1 0 0 
SMALL
USER_CHARGES


@<TRIPOS>ATOM
  1 CL      -0.6150    -0.1980    -0.6650 Cl    1 <1>  -0.1770 
  2 C       -2.2650    -0.7120    -0.9220 C.ar  1 <1>   0.1770 
  3 C       -3.0670    -0.9880     0.1590 C.ar  1 <1>  -0.1500 
  4 C       -2.7260    -0.8280    -2.2380 C.ar  1 <1>  -0.1500 
  5 C       -4.3760    -1.3950    -0.0820 C.ar  1 <1>   0.2270 
  6 C       -4.0220    -1.2300    -2.4790 C.ar  1 <1>  -0.1500 
  7 N       -5.3560    -1.7230     0.8050 N.2   1 <1>  -0.5650 
  8 C       -4.8400    -1.5120    -1.3810 C.ar  1 <1>  -0.1520 
  9 C       -6.3680    -2.0250     0.0690 C.2   1 <1>   0.0060 
 10 N       -6.1280    -1.9200    -1.2630 N.pl3 1 <1>   0.0330 
 11 C       -7.7110    -2.4630     0.6220 C.3   1 <1>   0.0200 
 12 C       -7.9310    -3.9640     0.4010 C.3   1 <1>  -0.1600 
 13 C       -9.2650    -4.4200     0.9840 C.3   1 <1>   0.2090 
 14 N       -9.4490    -5.8540     0.6790 N.pl3 1 <1>  -0.8690 
 15 C      -10.6530    -6.4910     0.8740 C.ar  1 <1>   0.4100 
 16 N      -11.7140    -5.7370     1.1270 N.ar  1 <1>  -0.6200 
 17 C      -10.7030    -7.8750     0.8000 C.ar  1 <1>  -0.1500 
 18 C      -12.8490    -6.3850     1.3220 C.ar  1 <1>   0.1600 
 19 C      -11.8900    -8.5560     0.9860 C.ar  1 <1>   0.0860 
 20 C      -12.9890    -7.7560     1.2670 C.ar  1 <1>  -0.1500 
 21 C      -11.9720   -10.0000     0.9040 C.2   1 <1>   0.5440 
 22 O      -11.2420   -10.6670     1.6120 O.2   1 <1>  -0.5700 
 23 N      -12.8470   -10.6330     0.0440 N.am  1 <1>  -0.6600 
 24 C      -13.0640   -12.1070     0.0960 C.3   1 <1>   0.1400 
 25 C      -13.4970    -9.9630    -1.1190 C.3   1 <1>   0.1400 
 26 C      -12.5570   -12.7510    -1.1980 C.3   1 <1>  -0.1600 
 27 C      -12.9980   -10.5930    -2.4240 C.3   1 <1>  -0.1600 
 28 C      -13.2010   -12.1150    -2.4370 C.3   1 <1>  -0.1600 
 29 H       -2.7150    -0.9000     1.1690 H     1 <1>   0.1500 
 30 H       -2.0550    -0.5990    -3.0460 H     1 <1>   0.1500 
 31 H       -4.4000    -1.3270    -3.4820 H     1 <1>   0.1500 
 32 H       -6.7810    -2.1120    -2.0270 H     1 <1>   0.2700 
 33 H       -8.4940    -1.8950     0.1520 H     1 <1>   0.0800 
 34 H       -7.7330    -2.2480     1.6770 H     1 <1>   0.0800 
 35 H       -7.1300    -4.5060     0.8730 H     1 <1>   0.0800 
 36 H       -7.9190    -4.1770    -0.6530 H     1 <1>   0.0800 
 37 H      -10.0700    -3.8540     0.5450 H     1 <1>   0.0800 
 38 H       -9.2840    -4.2750     2.0510 H     1 <1>   0.0800 
 39 H       -8.6230    -6.4230     0.8740 H     1 <1>   0.4000 
 40 H       -9.8060    -8.4270     0.5930 H     1 <1>   0.1500 
 41 H      -13.7160    -5.7840     1.5390 H     1 <1>   0.1500 
 42 H      -13.9460    -8.2120     1.4420 H     1 <1>   0.1500 
 43 H      -14.1160   -12.3000     0.2130 H     1 <1>   0.0800 
 44 H      -12.5530   -12.5400     0.9400 H     1 <1>   0.0800 
 45 H      -13.2770    -8.9110    -1.1340 H     1 <1>   0.0800 
 46 H      -14.5630   -10.0840    -1.0390 H     1 <1>   0.0800 
 47 H      -12.7710   -13.8050    -1.1770 H     1 <1>   0.0800 
 48 H      -11.4870   -12.6360    -1.2420 H     1 <1>   0.0800 
 49 H      -11.9520   -10.3680    -2.5380 H     1 <1>   0.0800 
 50 H      -13.5200   -10.1520    -3.2540 H     1 <1>   0.0800 
 51 H      -14.2550   -12.3350    -2.4440 H     1 <1>   0.0800 
 52 H      -12.7670   -12.5330    -3.3280 H     1 <1>   0.0800 
@<TRIPOS>BOND
  1   1   2  1   
  2   2   3  ar  
  3   2   4  ar  
  4   3   5  ar  
  5   3  29  1   
  6   4   6  ar  
  7   4  30  1   
  8   5   7  1   
  9   5   8  ar  
 10   6   8  ar  
 11   6  31  1   
 12   7   9  2   
 13   8  10  1   
 14   9  10  1   
 15   9  11  1   
 16  10  32  1   
 17  11  12  1   
 18  11  33  1   
 19  11  34  1   
 20  12  13  1   
 21  12  35  1   
 22  12  36  1   
 23  13  14  1   
 24  13  37  1   
 25  13  38  1   
 26  14  15  1   
 27  14  39  1   
 28  15  16  ar  
 29  15  17  ar  
 30  16  18  ar  
 31  17  19  ar  
 32  17  40  1   
 33  18  20  ar  
 34  18  41  1   
 35  19  20  ar  
 36  19  21  1   
 37  20  42  1   
 38  21  22  2   
 39  21  23  am  
 40  23  24  1   
 41  23  25  1   
 42  24  26  1   
 43  24  43  1   
 44  24  44  1   
 45  25  27  1   
 46  25  45  1   
 47  25  46  1   
 48  26  28  1   
 49  26  47  1   
 50  26  48  1   
 51  27  28  1   
 52  27  49  1   
 53  27  50  1   
 54  28  51  1   
 55  28  52  1   
@<TRIPOS>SUBSTRUCTURE
  1 ****  14 GROUP 4 **** **** 0

# MOE 2024.06 (io_trps.svl 2023.06)
