@<TRIPOS>MOLECULE
NONAME
47 49 1 0 0 
SMALL
USER_CHARGES


@<TRIPOS>ATOM
  1 O       -1.1800     2.5600     3.9210 O.2   1 <1>  -0.5700 
  2 C       -0.9100     2.9830     2.8200 C.2   1 <1>   0.5690 
  3 N       -1.5120     2.5030     1.6860 N.am  1 <1>  -0.6600 
  4 C        0.1180     4.1220     2.7210 C.3   1 <1>   0.1710 
  5 C       -1.0990     2.9730     0.3290 C.3   1 <1>   0.1400 
  6 C       -2.4890     1.3830     1.7340 C.3   1 <1>   0.2840 
  7 N        0.6870     4.3560     1.3640 N.3   1 <1>  -0.8100 
  8 C       -0.3930     4.3400     0.3610 C.3   1 <1>   0.1100 
  9 C       -2.0110     0.2160     0.8790 C.ar  1 <1>  -0.1430 
 10 C        1.4580     5.6220     1.3250 C.3   1 <1>   0.2540 
 11 C       -0.8690    -0.4810     1.2420 C.ar  1 <1>  -0.1500 
 12 C       -2.7020    -0.1600    -0.2630 C.ar  1 <1>  -0.1500 
 13 C        2.1150     5.9020    -0.0320 C.ar  1 <1>   0.1670 
 14 C       -0.4240    -1.5420     0.4740 C.ar  1 <1>  -0.1500 
 15 C       -2.2590    -1.2210    -1.0350 C.ar  1 <1>  -0.1500 
 16 N        1.6220     6.9450    -0.6910 N.ar  1 <1>  -0.6200 
 17 C        3.1560     5.1020    -0.5080 C.ar  1 <1>  -0.1430 
 18 C       -1.1120    -1.9200    -0.6670 C.ar  1 <1>   0.0820 
 19 C        2.1780     7.2070    -1.8610 C.ar  1 <1>   0.1600 
 20 C        3.7170     5.3980    -1.7340 C.ar  1 <1>  -0.1500 
 21 C        3.6890     3.9070     0.2740 C.3   1 <1>  -0.0970 
 22 O       -0.6100    -2.9690    -1.3660 O.3   1 <1>  -0.3630 
 23 C        3.2110     6.4790    -2.4200 C.ar  1 <1>  -0.1500 
 24 C       -1.2400    -3.4400    -2.5360 C.3   1 <1>   0.0400 
 25 H        0.9210     3.9030     3.4020 H     1 <1>   0.0800 
 26 H       -0.3700     5.0170     3.0640 H     1 <1>   0.0800 
 27 H       -1.9640     3.0410    -0.3070 H     1 <1>   0.0800 
 28 H       -0.4280     2.2490    -0.1000 H     1 <1>   0.0800 
 29 H       -3.4410     1.7370     1.3800 H     1 <1>   0.0800 
 30 H       -2.6230     1.0420     2.7460 H     1 <1>   0.0800 
 31 H       -1.1100     5.1130     0.5780 H     1 <1>   0.0800 
 32 H        0.0120     4.5310    -0.6180 H     1 <1>   0.0800 
 33 H        2.2290     5.5890     2.0730 H     1 <1>   0.0800 
 34 H        0.8070     6.4440     1.5680 H     1 <1>   0.0800 
 35 H       -0.3240    -0.1930     2.1260 H     1 <1>   0.1500 
 36 H       -3.5900     0.3710    -0.5580 H     1 <1>   0.1500 
 37 H        0.4610    -2.0830     0.7540 H     1 <1>   0.1500 
 38 H       -2.8160    -1.4880    -1.9120 H     1 <1>   0.1500 
 39 H        1.7900     8.0510    -2.4050 H     1 <1>   0.1500 
 40 H        4.5200     4.8110    -2.1460 H     1 <1>   0.1500 
 41 H        3.9900     4.2090     1.2600 H     1 <1>   0.0800 
 42 H        4.5380     3.4690    -0.2180 H     1 <1>   0.0800 
 43 H        2.9240     3.1550     0.3600 H     1 <1>   0.0800 
 44 H        3.6110     6.7550    -3.3780 H     1 <1>   0.1500 
 45 H       -0.6690    -4.2710    -2.9110 H     1 <1>   0.0800 
 46 H       -1.2570    -2.6500    -3.2650 H     1 <1>   0.0800 
 47 H       -2.2360    -3.7620    -2.2910 H     1 <1>   0.0800 
@<TRIPOS>BOND
  1   1   2  2   
  2   2   3  am  
  3   2   4  1   
  4   3   5  1   
  5   3   6  1   
  6   4   7  1   
  7   4  25  1   
  8   4  26  1   
  9   5   8  1   
 10   5  27  1   
 11   5  28  1   
 12   6   9  1   
 13   6  29  1   
 14   6  30  1   
 15   7   8  1   
 16   7  10  1   
 17   8  31  1   
 18   8  32  1   
 19   9  11  ar  
 20   9  12  ar  
 21  10  13  1   
 22  10  33  1   
 23  10  34  1   
 24  11  14  ar  
 25  11  35  1   
 26  12  15  ar  
 27  12  36  1   
 28  13  16  ar  
 29  13  17  ar  
 30  14  18  ar  
 31  14  37  1   
 32  15  18  ar  
 33  15  38  1   
 34  16  19  ar  
 35  17  20  ar  
 36  17  21  1   
 37  18  22  1   
 38  19  23  ar  
 39  19  39  1   
 40  20  23  ar  
 41  20  40  1   
 42  21  41  1   
 43  21  42  1   
 44  21  43  1   
 45  22  24  1   
 46  23  44  1   
 47  24  45  1   
 48  24  46  1   
 49  24  47  1   
@<TRIPOS>SUBSTRUCTURE
  1 ****   5 GROUP 4 **** **** 0

# MOE 2024.06 (io_trps.svl 2023.06)
