@<TRIPOS>MOLECULE
NONAME
44 45 1 0 0 
SMALL
USER_CHARGES


@<TRIPOS>ATOM
  1 O        0.0410     0.8060    -0.6190 O.co2 1 <1>  -0.9000 
  2 C       -0.6920     1.3330     0.2200 C.2   1 <1>   0.9060 
  3 O       -1.3140     0.7180     1.0850 O.co2 1 <1>  -0.9000 
  4 C       -0.8520     2.8180     0.1850 C.3   1 <1>  -0.1860 
  5 C       -2.3280     3.1580    -0.0280 C.3   1 <1>   0.2000 
  6 C       -0.0020     3.3830    -0.9350 C.3   1 <1>   0.3430 
  7 O       -2.8670     3.3350     1.2230 O.3   1 <1>  -0.6800 
  8 C       -2.5360     4.4500    -0.8230 C.3   1 <1>  -0.1600 
  9 N       -0.0790     4.8890    -0.9450 N.4   1 <1>  -0.9590 
 10 C       -1.4150     5.4290    -0.5000 C.3   1 <1>   0.3430 
 11 C        1.0270     5.4380    -0.1160 C.3   1 <1>   0.3430 
 12 C        1.1970     6.9330    -0.3720 C.3   1 <1>  -0.1600 
 13 C        2.3810     7.4900     0.4140 C.3   1 <1>   0.1200 
 14 O        2.4370     8.8410     0.1240 O.3   1 <1>  -0.5600 
 15 C        3.4750     9.5340     0.7460 C.3   1 <1>   0.2630 
 16 C        3.4140    10.9880     0.3110 C.ar  1 <1>  -0.1440 
 17 C        4.3560    11.5020    -0.5690 C.ar  1 <1>  -0.1500 
 18 C        2.4140    11.8190     0.7940 C.ar  1 <1>  -0.1500 
 19 C        4.3010    12.8300    -0.9550 C.ar  1 <1>  -0.1500 
 20 C        2.3580    13.1470     0.4090 C.ar  1 <1>  -0.1500 
 21 C        3.3030    13.6540    -0.4660 C.ar  1 <1>  -0.1500 
 22 H       -0.4890     3.1960     1.1210 H     1 <1>   0.0800 
 23 H       -2.8570     2.3430    -0.5000 H     1 <1>   0.0800 
 24 H       -0.3700     2.9840    -1.8680 H     1 <1>   0.0800 
 25 H        1.0160     3.0460    -0.8220 H     1 <1>   0.0800 
 26 H       -2.7440     2.4820     1.7090 H     1 <1>   0.4000 
 27 H       -2.5340     4.2370    -1.8760 H     1 <1>   0.0800 
 28 H       -3.4930     4.8770    -0.5780 H     1 <1>   0.0800 
 29 H        0.0770     5.1800    -1.9180 H     1 <1>   0.4500 
 30 H       -1.4080     5.5770     0.5680 H     1 <1>   0.0800 
 31 H       -1.6060     6.3800    -0.9710 H     1 <1>   0.0800 
 32 H        0.8210     5.2610     0.9280 H     1 <1>   0.0800 
 33 H        1.9460     4.9320    -0.3660 H     1 <1>   0.0800 
 34 H        0.3160     7.4670    -0.0650 H     1 <1>   0.0800 
 35 H        1.3740     7.1030    -1.4190 H     1 <1>   0.0800 
 36 H        3.3060     7.0310     0.1050 H     1 <1>   0.0800 
 37 H        2.2390     7.3700     1.4750 H     1 <1>   0.0800 
 38 H        3.3510     9.4620     1.8130 H     1 <1>   0.0800 
 39 H        4.4120     9.0910     0.4580 H     1 <1>   0.0800 
 40 H        5.1350    10.8720    -0.9600 H     1 <1>   0.1500 
 41 H        1.6720    11.4290     1.4690 H     1 <1>   0.1500 
 42 H        5.0340    13.2220    -1.6380 H     1 <1>   0.1500 
 43 H        1.5790    13.7850     0.7880 H     1 <1>   0.1500 
 44 H        3.2600    14.6860    -0.7660 H     1 <1>   0.1500 
@<TRIPOS>BOND
  1   1   2  ar  
  2   2   3  ar  
  3   2   4  1   
  4   4   5  1   
  5   4   6  1   
  6   4  22  1   
  7   5   7  1   
  8   5   8  1   
  9   5  23  1   
 10   6   9  1   
 11   6  24  1   
 12   6  25  1   
 13   7  26  1   
 14   8  10  1   
 15   8  27  1   
 16   8  28  1   
 17   9  10  1   
 18   9  11  1   
 19   9  29  1   
 20  10  30  1   
 21  10  31  1   
 22  11  12  1   
 23  11  32  1   
 24  11  33  1   
 25  12  13  1   
 26  12  34  1   
 27  12  35  1   
 28  13  14  1   
 29  13  36  1   
 30  13  37  1   
 31  14  15  1   
 32  15  16  1   
 33  15  38  1   
 34  15  39  1   
 35  16  17  ar  
 36  16  18  ar  
 37  17  19  ar  
 38  17  40  1   
 39  18  20  ar  
 40  18  41  1   
 41  19  21  ar  
 42  19  42  1   
 43  20  21  ar  
 44  20  43  1   
 45  21  44  1   
@<TRIPOS>SUBSTRUCTURE
  1 ****  12 GROUP 4 **** **** 0

# MOE 2024.06 (io_trps.svl 2023.06)
