@<TRIPOS>MOLECULE
NONAME
48 49 1 0 0 
SMALL
USER_CHARGES


@<TRIPOS>ATOM
  1 S        0.4360     0.5820    -1.0940 S.o2  1 <1>   1.3330 
  2 O        1.4190     0.0990    -2.0280 O.2   1 <1>  -0.6500 
  3 O       -0.4330     1.6860    -1.4260 O.2   1 <1>  -0.6500 
  4 N        1.3320     1.0130     0.2520 N.am  1 <1>  -0.9140 
  5 C       -0.5440    -0.7760    -0.4920 C.3   1 <1>  -0.1350 
  6 C        1.6960     2.4260     0.2440 C.3   1 <1>   0.1960 
  7 C        2.5260     2.7870     1.4780 C.3   1 <1>   0.1400 
  8 N        2.8040     4.2420     1.4720 N.am  1 <1>  -0.7300 
  9 C        3.8980     4.8480     0.9380 C.2   1 <1>   0.7160 
 10 O        4.8450     4.1550     0.6210 O.2   1 <1>  -0.5700 
 11 C        3.8950     6.2660     0.7370 C.2   1 <1>  -0.0860 
 12 C        2.7520     7.0730     0.6600 C.2   1 <1>   0.3720 
 13 C        4.9140     7.1520     0.5550 C.2   1 <1>   0.0870 
 14 N        3.0620     8.3030     0.4520 N.2   1 <1>  -0.4100 
 15 N        1.4240     6.6220     0.7650 N.pl3 1 <1>  -0.8210 
 16 O        4.3650     8.3300     0.3890 O.3   1 <1>  -0.0190 
 17 C        6.3510     7.0320     0.5290 C.ar  1 <1>   0.0530 
 18 C        0.8330     6.2770    -0.5580 C.3   1 <1>   0.1290 
 19 C        0.5300     7.5380     1.5310 C.3   1 <1>   0.1290 
 20 C        7.1120     7.8190    -0.3390 C.ar  1 <1>  -0.1500 
 21 C        7.0320     6.1490     1.3690 C.ar  1 <1>  -0.1500 
 22 C        8.4940     7.7450    -0.3920 C.ar  1 <1>   0.0830 
 23 C        8.4110     6.0490     1.3420 C.ar  1 <1>  -0.1500 
 24 O        9.0890     8.5780    -1.2950 O.3   1 <1>  -0.3630 
 25 C        9.1290     6.8420     0.4680 C.ar  1 <1>   0.1900 
 26 C       10.4820     8.6030    -1.5170 C.3   1 <1>   0.0400 
 27 F       10.4300     6.7040     0.4920 F     1 <1>  -0.1900 
 28 H        2.1990     0.4870     0.1260 H     1 <1>   0.4200 
 29 H       -1.1580    -1.1620    -1.2820 H     1 <1>   0.0800 
 30 H       -1.1780    -0.4460     0.3070 H     1 <1>   0.0800 
 31 H        0.0900    -1.5610    -0.1320 H     1 <1>   0.0800 
 32 H        0.7990     3.0240     0.2500 H     1 <1>   0.0800 
 33 H        2.2590     2.6510    -0.6480 H     1 <1>   0.0800 
 34 H        3.4540     2.2410     1.4690 H     1 <1>   0.0800 
 35 H        1.9810     2.5370     2.3710 H     1 <1>   0.0800 
 36 H        1.9890     4.8690     1.5670 H     1 <1>   0.3700 
 37 H        1.4910     5.6140    -1.0950 H     1 <1>   0.0800 
 38 H        0.6910     7.1690    -1.1440 H     1 <1>   0.0800 
 39 H       -0.1150     5.7860    -0.4240 H     1 <1>   0.0800 
 40 H        1.0080     7.8290     2.4520 H     1 <1>   0.0800 
 41 H       -0.3950     7.0410     1.7640 H     1 <1>   0.0800 
 42 H        0.3230     8.4250     0.9560 H     1 <1>   0.0800 
 43 H        6.6130     8.5100    -0.9950 H     1 <1>   0.1500 
 44 H        6.4760     5.5330     2.0540 H     1 <1>   0.1500 
 45 H        8.9260     5.3640     1.9900 H     1 <1>   0.1500 
 46 H       10.6840     9.3210    -2.2900 H     1 <1>   0.0800 
 47 H       10.8040     7.6260    -1.8340 H     1 <1>   0.0800 
 48 H       10.9760     8.8970    -0.6080 H     1 <1>   0.0800 
@<TRIPOS>BOND
  1   1   2  2   
  2   1   3  2   
  3   1   4  am  
  4   1   5  1   
  5   4   6  1   
  6   4  28  1   
  7   5  29  1   
  8   5  30  1   
  9   5  31  1   
 10   6   7  1   
 11   6  32  1   
 12   6  33  1   
 13   7   8  1   
 14   7  34  1   
 15   7  35  1   
 16   8   9  am  
 17   8  36  1   
 18   9  10  2   
 19   9  11  1   
 20  11  12  1   
 21  11  13  2   
 22  12  14  2   
 23  12  15  1   
 24  13  16  1   
 25  13  17  1   
 26  14  16  1   
 27  15  18  1   
 28  15  19  1   
 29  17  20  ar  
 30  17  21  ar  
 31  18  37  1   
 32  18  38  1   
 33  18  39  1   
 34  19  40  1   
 35  19  41  1   
 36  19  42  1   
 37  20  22  ar  
 38  20  43  1   
 39  21  23  ar  
 40  21  44  1   
 41  22  24  1   
 42  22  25  ar  
 43  23  25  ar  
 44  23  45  1   
 45  24  26  1   
 46  25  27  1   
 47  26  46  1   
 48  26  47  1   
 49  26  48  1   
@<TRIPOS>SUBSTRUCTURE
  1 ****   9 GROUP 4 **** **** 0

# MOE 2024.06 (io_trps.svl 2023.06)
