@<TRIPOS>MOLECULE
NONAME
49 53 1 0 0 
SMALL
USER_CHARGES


@<TRIPOS>ATOM
  1 N        0.0070     0.2090    -0.8300 N.ar  1 <1>  -0.1790 
  2 C       -0.5820     1.3900    -0.4930 C.ar  1 <1>   0.7710 
  3 C        1.3120     0.0910    -1.1080 C.ar  1 <1>   0.4610 
  4 N        0.0700     2.5200    -0.4330 N.ar  1 <1>  -0.5670 
  5 N       -1.9140     1.3350    -0.2210 N.pl3 1 <1>  -0.8380 
  6 N        1.8410    -1.1010    -1.4340 N.pl3 1 <1>  -0.9000 
  7 C        2.0480     1.2800    -1.0380 C.ar  1 <1>   0.0000 
  8 C        1.3960     2.4450    -0.7090 C.ar  1 <1>   0.1050 
  9 C       -2.8330     2.3900    -0.7980 C.3   1 <1>   0.2090 
 10 C       -2.4000     0.6530     1.0230 C.3   1 <1>   0.2090 
 11 C        3.3810     1.6770    -1.2270 C.2   1 <1>   0.1390 
 12 N        2.3290     3.4290    -0.7220 N.pl3 1 <1>   0.3140 
 13 C       -3.6680     3.1040     0.2840 C.3   1 <1>   0.1440 
 14 C       -3.9300     0.6630     1.0940 C.3   1 <1>  -0.1600 
 15 N        3.5530     2.9410    -1.0420 N.2   1 <1>  -0.7070 
 16 C        2.1320     4.8600    -0.4440 C.3   1 <1>   0.0160 
 17 C       -4.5570     4.1590    -0.3450 C.ar  1 <1>   0.1660 
 18 C       -4.5310     2.0830     1.0670 C.3   1 <1>  -0.1600 
 19 C       -2.7870     3.9570     1.2400 C.3   1 <1>  -0.1600 
 20 N       -5.3080     3.9790    -1.4090 N.ar  1 <1>  -0.6200 
 21 C       -4.4930     5.3430     0.3260 C.ar  1 <1>  -0.1430 
 22 C       -3.5510     5.2690     1.5000 C.3   1 <1>  -0.0170 
 23 C       -6.0060     5.0470    -1.7720 C.ar  1 <1>   0.4770 
 24 C       -5.2560     6.3850    -0.1400 C.ar  1 <1>   0.1600 
 25 N       -6.0230     6.2440    -1.2010 N.ar  1 <1>  -0.6200 
 26 C       -6.8860     4.8870    -2.9880 C.3   1 <1>  -0.0970 
 27 H       -0.6330    -0.5680    -0.9040 H     1 <1>   0.4570 
 28 H        2.8400    -1.2120    -1.6540 H     1 <1>   0.4000 
 29 H        1.3450    -1.9970    -1.5050 H     1 <1>   0.4000 
 30 H       -3.5090     1.9160    -1.4900 H     1 <1>   0.0800 
 31 H       -2.2740     3.1230    -1.3550 H     1 <1>   0.0800 
 32 H       -2.0010     1.1590     1.8870 H     1 <1>   0.0800 
 33 H       -2.0550    -0.3670     1.0460 H     1 <1>   0.0800 
 34 H        4.1810     1.0070    -1.4970 H     1 <1>   0.1500 
 35 H       -4.2540     0.1580     1.9870 H     1 <1>   0.0800 
 36 H       -4.3110     0.1020     0.2580 H     1 <1>   0.0800 
 37 H        1.0950     5.0530    -0.2400 H     1 <1>   0.0800 
 38 H        2.4460     5.4290    -1.2990 H     1 <1>   0.0800 
 39 H        2.7270     5.1350     0.4070 H     1 <1>   0.0800 
 40 H       -5.5060     2.0170     0.6120 H     1 <1>   0.0800 
 41 H       -4.6860     2.4350     2.0720 H     1 <1>   0.0800 
 42 H       -1.8650     4.2070     0.7450 H     1 <1>   0.0800 
 43 H       -2.5490     3.4500     2.1570 H     1 <1>   0.0800 
 44 H       -2.8880     6.1160     1.5370 H     1 <1>   0.0800 
 45 H       -4.1180     5.2070     2.4130 H     1 <1>   0.0800 
 46 H       -5.2410     7.3400     0.3560 H     1 <1>   0.1500 
 47 H       -7.0640     3.8470    -3.1890 H     1 <1>   0.0800 
 48 H       -6.4030     5.3330    -3.8360 H     1 <1>   0.0800 
 49 H       -7.8280     5.3760    -2.8210 H     1 <1>   0.0800 
@<TRIPOS>BOND
  1   1   2  ar  
  2   1   3  ar  
  3   1  27  1   
  4   2   4  ar  
  5   2   5  1   
  6   3   6  1   
  7   3   7  ar  
  8   4   8  ar  
  9   5   9  1   
 10   5  10  1   
 11   6  28  1   
 12   6  29  1   
 13   7   8  ar  
 14   7  11  1   
 15   8  12  1   
 16   9  13  1   
 17   9  30  1   
 18   9  31  1   
 19  10  14  1   
 20  10  32  1   
 21  10  33  1   
 22  11  15  2   
 23  11  34  1   
 24  12  15  1   
 25  12  16  1   
 26  13  17  1   
 27  13  18  1   
 28  13  19  1   
 29  14  18  1   
 30  14  35  1   
 31  14  36  1   
 32  16  37  1   
 33  16  38  1   
 34  16  39  1   
 35  17  20  ar  
 36  17  21  ar  
 37  18  40  1   
 38  18  41  1   
 39  19  22  1   
 40  19  42  1   
 41  19  43  1   
 42  20  23  ar  
 43  21  22  1   
 44  21  24  ar  
 45  22  44  1   
 46  22  45  1   
 47  23  25  ar  
 48  23  26  1   
 49  24  25  ar  
 50  24  46  1   
 51  26  47  1   
 52  26  48  1   
 53  26  49  1   
@<TRIPOS>SUBSTRUCTURE
  1 ****   9 GROUP 4 **** **** 0

# MOE 2024.06 (io_trps.svl 2023.06)
