@<TRIPOS>MOLECULE
NONAME
48 50 1 0 0 
SMALL
USER_CHARGES


@<TRIPOS>ATOM
  1 O       -2.4450     0.8420    -1.9080 O.2   1 <1>  -0.5700 
  2 C       -2.0740     0.8380    -0.7590 C.2   1 <1>   0.5690 
  3 N       -2.0140    -0.3140    -0.0450 N.am  1 <1>  -0.7300 
  4 C       -1.6730     2.1470    -0.0780 C.3   1 <1>  -0.0190 
  5 C       -2.3770    -1.6470    -0.5740 C.3   1 <1>   0.2200 
  6 C       -2.8690     3.1240    -0.0530 C.3   1 <1>  -0.1600 
  7 C       -0.4060     2.7170    -0.7480 C.3   1 <1>  -0.1600 
  8 C       -3.7690    -2.0120    -0.0890 C.3   1 <1>  -0.0800 
  9 C       -1.5230    -2.7170     0.0970 C.3   1 <1>   0.1200 
 10 C       -2.6820     4.2820     0.9390 C.3   1 <1>  -0.1600 
 11 C        0.1080     4.0450    -0.1710 C.3   1 <1>  -0.1600 
 12 C       -3.4870    -2.5980     1.2990 C.3   1 <1>   0.1200 
 13 C       -4.4440    -3.0290    -1.0280 C.3   1 <1>  -0.0170 
 14 O       -2.1490    -3.0070     1.3110 O.3   1 <1>  -0.5600 
 15 C       -1.9560     5.5100     0.3700 C.3   1 <1>  -0.1600 
 16 C       -0.7740     5.2360    -0.5720 C.3   1 <1>  -0.1600 
 17 C       -5.8520    -3.3670    -0.5630 C.ar  1 <1>  -0.1440 
 18 C       -6.9000    -2.4840    -0.7280 C.ar  1 <1>  -0.1500 
 19 C       -6.1580    -4.5680     0.0450 C.ar  1 <1>  -0.1500 
 20 C       -8.1660    -2.8320    -0.2860 C.ar  1 <1>   0.1600 
 21 C       -7.4580    -4.8180     0.4510 C.ar  1 <1>   0.1600 
 22 N       -8.4700    -3.9780     0.3010 N.ar  1 <1>  -0.6200 
 23 H       -1.7380    -0.3080     0.9390 H     1 <1>   0.3700 
 24 H       -1.4220     1.9120     0.9400 H     1 <1>   0.0800 
 25 H       -2.2820    -1.6610    -1.6470 H     1 <1>   0.0800 
 26 H       -3.0710     3.4960    -1.0430 H     1 <1>   0.0800 
 27 H       -3.7370     2.5680     0.2560 H     1 <1>   0.0800 
 28 H        0.3760     1.9840    -0.6510 H     1 <1>   0.0800 
 29 H       -0.5890     2.8360    -1.8030 H     1 <1>   0.0800 
 30 H       -4.3960    -1.1400    -0.0200 H     1 <1>   0.0800 
 31 H       -0.5140    -2.3920     0.2760 H     1 <1>   0.0800 
 32 H       -1.5160    -3.6190    -0.4890 H     1 <1>   0.0800 
 33 H       -3.6530     4.6060     1.2750 H     1 <1>   0.0800 
 34 H       -2.1580     3.9300     1.8110 H     1 <1>   0.0800 
 35 H        0.2140     3.9880     0.8980 H     1 <1>   0.0800 
 36 H        1.0900     4.2150    -0.5790 H     1 <1>   0.0800 
 37 H       -4.1120    -3.4400     1.5390 H     1 <1>   0.0800 
 38 H       -3.6010    -1.8440     2.0590 H     1 <1>   0.0800 
 39 H       -3.8580    -3.9290    -1.0890 H     1 <1>   0.0800 
 40 H       -4.5020    -2.6130    -2.0200 H     1 <1>   0.0800 
 41 H       -2.6680     6.1160    -0.1640 H     1 <1>   0.0800 
 42 H       -1.6060     6.1010     1.2000 H     1 <1>   0.0800 
 43 H       -0.1650     6.1230    -0.5990 H     1 <1>   0.0800 
 44 H       -1.1440     5.0870    -1.5720 H     1 <1>   0.0800 
 45 H       -6.7440    -1.5290    -1.1970 H     1 <1>   0.1500 
 46 H       -5.4000    -5.3120     0.2080 H     1 <1>   0.1500 
 47 H       -8.9710    -2.1310    -0.4240 H     1 <1>   0.1500 
 48 H       -7.6780    -5.7600     0.9240 H     1 <1>   0.1500 
@<TRIPOS>BOND
  1   1   2  2   
  2   2   3  am  
  3   2   4  1   
  4   3   5  1   
  5   3  23  1   
  6   4   6  1   
  7   4   7  1   
  8   4  24  1   
  9   5   8  1   
 10   5   9  1   
 11   5  25  1   
 12   6  10  1   
 13   6  26  1   
 14   6  27  1   
 15   7  11  1   
 16   7  28  1   
 17   7  29  1   
 18   8  12  1   
 19   8  13  1   
 20   8  30  1   
 21   9  14  1   
 22   9  31  1   
 23   9  32  1   
 24  10  15  1   
 25  10  33  1   
 26  10  34  1   
 27  11  16  1   
 28  11  35  1   
 29  11  36  1   
 30  12  14  1   
 31  12  37  1   
 32  12  38  1   
 33  13  17  1   
 34  13  39  1   
 35  13  40  1   
 36  15  16  1   
 37  15  41  1   
 38  15  42  1   
 39  16  43  1   
 40  16  44  1   
 41  17  18  ar  
 42  17  19  ar  
 43  18  20  ar  
 44  18  45  1   
 45  19  21  ar  
 46  19  46  1   
 47  20  22  ar  
 48  20  47  1   
 49  21  22  ar  
 50  21  48  1   
@<TRIPOS>SUBSTRUCTURE
  1 ****   3 GROUP 4 **** **** 0

# MOE 2024.06 (io_trps.svl 2023.06)
