@<TRIPOS>MOLECULE
NONAME
46 48 1 0 0 
SMALL
USER_CHARGES


@<TRIPOS>ATOM
  1 N        0.1340     0.2810    -0.4670 N.ar  1 <1>  -0.6200 
  2 C       -1.0880     0.6460    -0.1360 C.ar  1 <1>   0.4100 
  3 C        1.0400     1.2340    -0.4820 C.ar  1 <1>   0.4760 
  4 N       -2.0520    -0.3330    -0.1040 N.pl3 1 <1>  -0.8690 
  5 C       -1.3910     1.9670     0.1770 C.ar  1 <1>  -0.1430 
  6 N        0.8780     2.5110    -0.2040 N.ar  1 <1>  -0.6200 
  7 C        2.4410     0.8210    -0.8650 C.3   1 <1>  -0.0970 
  8 C       -1.8060    -1.7720    -0.3010 C.3   1 <1>   0.2890 
  9 C       -0.3490     2.8610     0.1240 C.ar  1 <1>   0.1600 
 10 C       -2.8230     2.3630     0.5530 C.3   1 <1>  -0.0170 
 11 C       -3.0180    -2.3870    -0.9970 C.3   1 <1>  -0.1600 
 12 C       -1.5580    -2.4250     1.0580 C.3   1 <1>  -0.1600 
 13 C       -3.0450     3.8590     0.8070 C.3   1 <1>  -0.2400 
 14 C       -2.8390    -3.8980    -1.1350 C.3   1 <1>   0.2090 
 15 C       -1.3970    -3.9350     0.9000 C.3   1 <1>   0.2090 
 16 N       -2.5910    -4.4800     0.2070 N.pl3 1 <1>  -0.8380 
 17 C       -2.8010    -5.8480     0.3310 C.ar  1 <1>   0.1000 
 18 C       -1.9610    -6.7730    -0.2790 C.ar  1 <1>  -0.1500 
 19 C       -3.8740    -6.3120     1.0790 C.ar  1 <1>  -0.1500 
 20 C       -2.1890    -8.1300    -0.1430 C.ar  1 <1>  -0.1500 
 21 C       -4.1070    -7.6680     1.2180 C.ar  1 <1>  -0.1500 
 22 C       -3.2640    -8.5800     0.6060 C.ar  1 <1>  -0.1500 
 23 H       -2.9300    -0.1200     0.3640 H     1 <1>   0.4000 
 24 H        2.4940    -0.2400    -1.0210 H     1 <1>   0.0800 
 25 H        3.1210     1.0950    -0.0800 H     1 <1>   0.0800 
 26 H        2.7250     1.3250    -1.7690 H     1 <1>   0.0800 
 27 H       -0.9400    -1.9160    -0.9260 H     1 <1>   0.0800 
 28 H       -0.5000     3.9000     0.3530 H     1 <1>   0.1500 
 29 H       -3.1050     1.8220     1.4400 H     1 <1>   0.0800 
 30 H       -3.4800     2.0550    -0.2420 H     1 <1>   0.0800 
 31 H       -3.1300    -1.9520    -1.9730 H     1 <1>   0.0800 
 32 H       -3.9100    -2.1990    -0.4270 H     1 <1>   0.0800 
 33 H       -2.3830    -2.2330     1.7190 H     1 <1>   0.0800 
 34 H       -0.6640    -2.0160     1.4920 H     1 <1>   0.0800 
 35 H       -2.4460     4.1960     1.6340 H     1 <1>   0.0800 
 36 H       -4.0790     4.0380     1.0450 H     1 <1>   0.0800 
 37 H       -2.7980     4.4310    -0.0700 H     1 <1>   0.0800 
 38 H       -2.0070    -4.1170    -1.7830 H     1 <1>   0.0800 
 39 H       -3.7270    -4.3360    -1.5570 H     1 <1>   0.0800 
 40 H       -1.3000    -4.3980     1.8670 H     1 <1>   0.0800 
 41 H       -0.5130    -4.1560     0.3250 H     1 <1>   0.0800 
 42 H       -1.1290    -6.4210    -0.8590 H     1 <1>   0.1500 
 43 H       -4.5210    -5.5940     1.5480 H     1 <1>   0.1500 
 44 H       -1.5320    -8.8370    -0.6190 H     1 <1>   0.1500 
 45 H       -4.9430    -8.0120     1.8010 H     1 <1>   0.1500 
 46 H       -3.4430    -9.6360     0.7130 H     1 <1>   0.1500 
@<TRIPOS>BOND
  1   1   2  ar  
  2   1   3  ar  
  3   2   4  1   
  4   2   5  ar  
  5   3   6  ar  
  6   3   7  1   
  7   4   8  1   
  8   4  23  1   
  9   5   9  ar  
 10   5  10  1   
 11   6   9  ar  
 12   7  24  1   
 13   7  25  1   
 14   7  26  1   
 15   8  11  1   
 16   8  12  1   
 17   8  27  1   
 18   9  28  1   
 19  10  13  1   
 20  10  29  1   
 21  10  30  1   
 22  11  14  1   
 23  11  31  1   
 24  11  32  1   
 25  12  15  1   
 26  12  33  1   
 27  12  34  1   
 28  13  35  1   
 29  13  36  1   
 30  13  37  1   
 31  14  16  1   
 32  14  38  1   
 33  14  39  1   
 34  15  16  1   
 35  15  40  1   
 36  15  41  1   
 37  16  17  1   
 38  17  18  ar  
 39  17  19  ar  
 40  18  20  ar  
 41  18  42  1   
 42  19  21  ar  
 43  19  43  1   
 44  20  22  ar  
 45  20  44  1   
 46  21  22  ar  
 47  21  45  1   
 48  22  46  1   
@<TRIPOS>SUBSTRUCTURE
  1 ****   8 GROUP 4 **** **** 0

# MOE 2024.06 (io_trps.svl 2023.06)
