@<TRIPOS>MOLECULE
NONAME
36 37 1 0 0 
SMALL
USER_CHARGES


@<TRIPOS>ATOM
  1 CL      -0.1970     0.0510    -0.5940 Cl    1 <1>  -0.1770 
  2 C        1.0890    -1.0490    -0.1380 C.ar  1 <1>   0.1770 
  3 C        0.8300    -2.0810     0.7590 C.ar  1 <1>  -0.0090 
  4 C        2.3430    -0.8490    -0.7080 C.ar  1 <1>  -0.1440 
  5 S       -0.8090    -2.3330     1.4840 S.o2  1 <1>   1.4470 
  6 C        1.8770    -2.9410     1.0750 C.ar  1 <1>  -0.1500 
  7 C        3.3580    -1.7310    -0.3590 C.ar  1 <1>   0.1770 
  8 C        2.5660     0.3060    -1.6850 C.3   1 <1>  -0.0970 
  9 O       -0.7520    -3.4760     2.3690 O.2   1 <1>  -0.6500 
 10 O       -1.2840    -1.0830     2.0390 O.2   1 <1>  -0.6500 
 11 N       -1.7860    -2.7170     0.1500 N.am  1 <1>  -0.8490 
 12 C        3.1330    -2.7710     0.5220 C.ar  1 <1>  -0.1500 
 13 CL       4.9700    -1.5760    -1.0170 Cl    1 <1>  -0.1770 
 14 C       -1.4090    -3.9250    -0.6110 C.3   1 <1>   0.1960 
 15 C       -3.2270    -2.6080     0.3870 C.3   1 <1>   0.1960 
 16 C       -1.9580    -5.2220    -0.0060 C.3   1 <1>  -0.1860 
 17 C       -3.7960    -3.8640     1.0520 C.3   1 <1>  -0.1600 
 18 C       -1.6410    -6.3900    -0.9150 C.2   1 <1>   0.9060 
 19 C       -3.4630    -5.0900     0.2090 C.3   1 <1>   0.2000 
 20 O       -0.8380    -6.2340    -1.8410 O.co2 1 <1>  -0.9000 
 21 O       -2.2040    -7.4720    -0.7050 O.co2 1 <1>  -0.9000 
 22 O       -3.9210    -6.2110     0.8610 O.3   1 <1>  -0.6800 
 23 H        1.7070    -3.7590     1.7580 H     1 <1>   0.1500 
 24 H        3.5820     0.3700    -2.0260 H     1 <1>   0.0800 
 25 H        2.3190     1.2400    -1.2110 H     1 <1>   0.0800 
 26 H        1.9340     0.1810    -2.5470 H     1 <1>   0.0800 
 27 H        3.9360    -3.4430     0.7690 H     1 <1>   0.1500 
 28 H       -1.7980    -3.8280    -1.6120 H     1 <1>   0.0800 
 29 H       -0.3380    -3.9960    -0.7010 H     1 <1>   0.0800 
 30 H       -3.4410    -1.7420     0.9920 H     1 <1>   0.0800 
 31 H       -3.7170    -2.4670    -0.5620 H     1 <1>   0.0800 
 32 H       -1.4730    -5.4140     0.9290 H     1 <1>   0.0800 
 33 H       -4.8620    -3.7700     1.1370 H     1 <1>   0.0800 
 34 H       -3.3830    -3.9720     2.0390 H     1 <1>   0.0800 
 35 H       -3.9640    -5.0420    -0.7440 H     1 <1>   0.0800 
 36 H       -3.4580    -6.9820     0.4190 H     1 <1>   0.4000 
@<TRIPOS>BOND
  1   1   2  1   
  2   2   3  ar  
  3   2   4  ar  
  4   3   5  1   
  5   3   6  ar  
  6   4   7  ar  
  7   4   8  1   
  8   5   9  2   
  9   5  10  2   
 10   5  11  am  
 11   6  12  ar  
 12   6  23  1   
 13   7  12  ar  
 14   7  13  1   
 15   8  24  1   
 16   8  25  1   
 17   8  26  1   
 18  11  14  1   
 19  11  15  1   
 20  12  27  1   
 21  14  16  1   
 22  14  28  1   
 23  14  29  1   
 24  15  17  1   
 25  15  30  1   
 26  15  31  1   
 27  16  18  1   
 28  16  19  1   
 29  16  32  1   
 30  17  19  1   
 31  17  33  1   
 32  17  34  1   
 33  18  20  ar  
 34  18  21  ar  
 35  19  22  1   
 36  19  35  1   
 37  22  36  1   
@<TRIPOS>SUBSTRUCTURE
  1 ****  14 GROUP 4 **** **** 0

# MOE 2024.06 (io_trps.svl 2023.06)
