@<TRIPOS>MOLECULE
NONAME
45 47 1 0 0 
SMALL
USER_CHARGES


@<TRIPOS>ATOM
  1 O        0.2950    -4.4410     1.3940 O.2   1 <1>  -0.5700 
  2 C        0.5620    -3.3650     0.9150 C.2   1 <1>   0.5690 
  3 N        0.6970    -3.1130    -0.4120 N.am  1 <1>  -0.6600 
  4 C        0.7440    -2.1210     1.7350 C.3   1 <1>  -0.0990 
  5 C        1.0540    -1.7010    -0.6720 C.3   1 <1>   0.1400 
  6 C        0.8900    -4.1190    -1.5010 C.3   1 <1>   0.1400 
  7 C        1.2570    -1.0870     0.7210 C.3   1 <1>  -0.1600 
  8 C        0.1490    -5.4630    -1.3050 C.3   1 <1>   0.3430 
  9 N       -1.3370    -5.4400    -1.5830 N.4   1 <1>  -0.9590 
 10 C       -2.1280    -4.5000    -0.7150 C.3   1 <1>   0.3430 
 11 C       -1.9050    -6.7890    -1.2970 C.3   1 <1>   0.3430 
 12 C       -2.7590    -5.3370     0.4090 C.3   1 <1>   0.2000 
 13 C       -2.2800    -6.7670     0.1830 C.3   1 <1>  -0.0800 
 14 O       -2.3550    -4.9030     1.6590 O.3   1 <1>  -0.6800 
 15 C       -3.3210    -7.8240     0.5860 C.3   1 <1>   0.0200 
 16 C       -2.8390    -9.2180     0.2310 C.2   1 <1>  -0.0400 
 17 O       -2.7360    -9.5720    -1.0220 O.3   1 <1>  -0.0190 
 18 C       -2.4550   -10.2580     0.9850 C.2   1 <1>  -0.1500 
 19 N       -2.2870   -10.7830    -1.1490 N.2   1 <1>  -0.4100 
 20 C       -2.1150   -11.2270     0.0450 C.2   1 <1>   0.1080 
 21 C       -1.6110   -12.6160     0.3730 C.3   1 <1>  -0.0590 
 22 H       -0.2040    -1.8250     2.1470 H     1 <1>   0.0800 
 23 H        1.4510    -2.2890     2.5270 H     1 <1>   0.0800 
 24 H        1.9570    -1.6340    -1.2550 H     1 <1>   0.0800 
 25 H        0.2470    -1.2110    -1.1910 H     1 <1>   0.0800 
 26 H        0.6000    -3.6890    -2.4440 H     1 <1>   0.0800 
 27 H        1.9440    -4.3310    -1.5560 H     1 <1>   0.0800 
 28 H        2.3080    -0.9130     0.8780 H     1 <1>   0.0800 
 29 H        0.7400    -0.1480     0.8120 H     1 <1>   0.0800 
 30 H        0.3340    -5.8240    -0.3080 H     1 <1>   0.0800 
 31 H        0.5990    -6.1750    -1.9760 H     1 <1>   0.0800 
 32 H       -1.4850    -5.2030    -2.5730 H     1 <1>   0.4500 
 33 H       -1.5230    -3.7120    -0.3080 H     1 <1>   0.0800 
 34 H       -2.9200    -4.0580    -1.2960 H     1 <1>   0.0800 
 35 H       -2.7950    -6.9430    -1.8870 H     1 <1>   0.0800 
 36 H       -1.2030    -7.5800    -1.5140 H     1 <1>   0.0800 
 37 H       -3.8330    -5.2570     0.3650 H     1 <1>   0.0800 
 38 H       -1.3790    -6.9430     0.7470 H     1 <1>   0.0800 
 39 H       -1.3640    -4.8570     1.7280 H     1 <1>   0.4000 
 40 H       -4.2600    -7.6450     0.0920 H     1 <1>   0.0800 
 41 H       -3.4890    -7.7680     1.6480 H     1 <1>   0.0800 
 42 H       -2.4040   -10.3590     2.0540 H     1 <1>   0.1500 
 43 H       -0.7220   -12.5510     0.9730 H     1 <1>   0.0800 
 44 H       -1.3820   -13.1480    -0.5330 H     1 <1>   0.0800 
 45 H       -2.3650   -13.1580     0.9130 H     1 <1>   0.0800 
@<TRIPOS>BOND
  1   1   2  2   
  2   2   3  am  
  3   2   4  1   
  4   3   5  1   
  5   3   6  1   
  6   4   7  1   
  7   4  22  1   
  8   4  23  1   
  9   5   7  1   
 10   5  24  1   
 11   5  25  1   
 12   6   8  1   
 13   6  26  1   
 14   6  27  1   
 15   7  28  1   
 16   7  29  1   
 17   8   9  1   
 18   8  30  1   
 19   8  31  1   
 20   9  10  1   
 21   9  11  1   
 22   9  32  1   
 23  10  12  1   
 24  10  33  1   
 25  10  34  1   
 26  11  13  1   
 27  11  35  1   
 28  11  36  1   
 29  12  13  1   
 30  12  14  1   
 31  12  37  1   
 32  13  15  1   
 33  13  38  1   
 34  14  39  1   
 35  15  16  1   
 36  15  40  1   
 37  15  41  1   
 38  16  17  1   
 39  16  18  2   
 40  17  19  1   
 41  18  20  1   
 42  18  42  1   
 43  19  20  2   
 44  20  21  1   
 45  21  43  1   
 46  21  44  1   
 47  21  45  1   
@<TRIPOS>SUBSTRUCTURE
  1 ****  13 GROUP 4 **** **** 0

# MOE 2024.06 (io_trps.svl 2023.06)
