@<TRIPOS>MOLECULE
NONAME
44 45 1 0 0 
SMALL
USER_CHARGES


@<TRIPOS>ATOM
  1 O       -0.6570    -0.2640    -0.0620 O.3   1 <1>  -0.5600 
  2 C       -0.2840     1.0660    -0.2730 C.3   1 <1>   0.1200 
  3 C       -1.7320    -0.6790    -0.8330 C.3   1 <1>   0.1200 
  4 C        0.9160     1.3920     0.6120 C.3   1 <1>   0.1200 
  5 C       -1.9700    -2.1590    -0.5150 C.3   1 <1>   0.3430 
  6 O        1.2750     2.7160     0.3760 O.3   1 <1>  -0.5600 
  7 N       -3.1260    -2.7410    -1.2760 N.4   1 <1>  -0.9590 
  8 C        2.3690     3.1440     1.1200 C.3   1 <1>   0.0400 
  9 C       -4.4530    -2.2220    -0.8060 C.3   1 <1>   0.3430 
 10 C       -3.1880    -4.2180    -1.0830 C.3   1 <1>   0.3430 
 11 C       -5.0370    -3.2790     0.1430 C.3   1 <1>   0.2000 
 12 C       -4.0440    -4.4410     0.1650 C.3   1 <1>  -0.0800 
 13 O       -5.1880    -2.7710     1.4240 O.3   1 <1>  -0.6800 
 14 C       -4.7370    -5.8170     0.2010 C.3   1 <1>  -0.0170 
 15 C       -3.7350    -6.9630     0.2270 C.ar  1 <1>   0.1670 
 16 N       -2.9860    -7.1140    -0.8550 N.ar  1 <1>  -0.6200 
 17 C       -3.6450    -7.7890     1.3480 C.ar  1 <1>   0.1600 
 18 C       -2.1610    -8.1450    -0.7480 C.ar  1 <1>   0.1600 
 19 N       -2.8100    -8.8070     1.4590 N.ar  1 <1>  -0.6200 
 20 C       -2.0750    -8.9630     0.3720 C.ar  1 <1>   0.1600 
 21 H       -0.0150     1.1950    -1.3080 H     1 <1>   0.0800 
 22 H       -1.1100     1.7070    -0.0170 H     1 <1>   0.0800 
 23 H       -2.5850    -0.0780    -0.5710 H     1 <1>   0.0800 
 24 H       -1.4770    -0.5480    -1.8710 H     1 <1>   0.0800 
 25 H        1.7490     0.7590     0.3620 H     1 <1>   0.0800 
 26 H        0.6550     1.2860     1.6510 H     1 <1>   0.0800 
 27 H       -2.1430    -2.2610     0.5430 H     1 <1>   0.0800 
 28 H       -1.0710    -2.7000    -0.7630 H     1 <1>   0.0800 
 29 H       -2.9940    -2.5420    -2.2790 H     1 <1>   0.4500 
 30 H        2.5650     4.1710     0.8670 H     1 <1>   0.0800 
 31 H        3.2260     2.5400     0.8730 H     1 <1>   0.0800 
 32 H        2.1390     3.0670     2.1690 H     1 <1>   0.0800 
 33 H       -4.3590    -1.2720    -0.3070 H     1 <1>   0.0800 
 34 H       -5.1150    -2.1120    -1.6500 H     1 <1>   0.0800 
 35 H       -3.6720    -4.6780    -1.9300 H     1 <1>   0.0800 
 36 H       -2.2070    -4.6560    -0.9720 H     1 <1>   0.0800 
 37 H       -6.0120    -3.5770    -0.2070 H     1 <1>   0.0800 
 38 H       -3.3930    -4.3610     1.0190 H     1 <1>   0.0800 
 39 H       -4.3480    -2.7260     1.9220 H     1 <1>   0.4000 
 40 H       -5.3690    -5.9390    -0.6620 H     1 <1>   0.0800 
 41 H       -5.3690    -5.8690     1.0710 H     1 <1>   0.0800 
 42 H       -4.2890    -7.6040     2.1900 H     1 <1>   0.1500 
 43 H       -1.5190    -8.3570    -1.5850 H     1 <1>   0.1500 
 44 H       -1.3720    -9.7780     0.3680 H     1 <1>   0.1500 
@<TRIPOS>BOND
  1   1   2  1   
  2   1   3  1   
  3   2   4  1   
  4   2  21  1   
  5   2  22  1   
  6   3   5  1   
  7   3  23  1   
  8   3  24  1   
  9   4   6  1   
 10   4  25  1   
 11   4  26  1   
 12   5   7  1   
 13   5  27  1   
 14   5  28  1   
 15   6   8  1   
 16   7   9  1   
 17   7  10  1   
 18   7  29  1   
 19   8  30  1   
 20   8  31  1   
 21   8  32  1   
 22   9  11  1   
 23   9  33  1   
 24   9  34  1   
 25  10  12  1   
 26  10  35  1   
 27  10  36  1   
 28  11  12  1   
 29  11  13  1   
 30  11  37  1   
 31  12  14  1   
 32  12  38  1   
 33  13  39  1   
 34  14  15  1   
 35  14  40  1   
 36  14  41  1   
 37  15  16  ar  
 38  15  17  ar  
 39  16  18  ar  
 40  17  19  ar  
 41  17  42  1   
 42  18  20  ar  
 43  18  43  1   
 44  19  20  ar  
 45  20  44  1   
@<TRIPOS>SUBSTRUCTURE
  1 ****   5 GROUP 4 **** **** 0

# MOE 2024.06 (io_trps.svl 2023.06)
