@<TRIPOS>MOLECULE
NONAME
32 33 1 0 0 
SMALL
USER_CHARGES


@<TRIPOS>ATOM
  1 CL      -0.5310    -0.3880     0.6200 Cl    1 <1>  -0.1770 
  2 C        1.0410    -1.1370     0.4020 C.ar  1 <1>   0.1770 
  3 C        1.2120    -2.5080     0.5480 C.ar  1 <1>   0.4100 
  4 C        2.1330    -0.3800     0.0770 C.ar  1 <1>   0.1600 
  5 N        2.3990    -3.0580     0.3690 N.ar  1 <1>  -0.6200 
  6 N        0.1740    -3.3430     0.8820 N.pl3 1 <1>  -0.8690 
  7 N        3.3280    -0.9190    -0.0990 N.ar  1 <1>  -0.6200 
  8 C        3.3840    -2.2320     0.0610 C.ar  1 <1>   0.4770 
  9 C        0.1700    -4.8050     0.5630 C.3   1 <1>   0.3530 
 10 C        4.7380    -2.8710    -0.1370 C.3   1 <1>  -0.0960 
 11 C       -1.2400    -5.3720     0.3180 C.ar  1 <1>   0.4770 
 12 N       -1.3410    -6.6930     0.3010 N.ar  1 <1>  -0.6200 
 13 N       -2.2290    -4.5020     0.1410 N.ar  1 <1>  -0.6200 
 14 C       -2.5500    -7.2070     0.0910 C.ar  1 <1>   0.1670 
 15 C       -3.4190    -5.0080    -0.0660 C.ar  1 <1>   0.1670 
 16 C       -3.6290    -6.3650    -0.0990 C.ar  1 <1>  -0.1500 
 17 C       -2.7430    -8.7500     0.0610 C.3   1 <1>   1.1640 
 18 C       -4.5530    -4.0250    -0.2660 C.3   1 <1>  -0.0970 
 19 F       -1.9890    -9.3470    -0.8570 F     1 <1>  -0.3400 
 20 F       -3.9950    -9.1130    -0.2110 F     1 <1>  -0.3400 
 21 F       -2.4460    -9.3280     1.2210 F     1 <1>  -0.3400 
 22 H        2.0310     0.6840    -0.0420 H     1 <1>   0.1500 
 23 H       -0.7790    -2.9610     0.8080 H     1 <1>   0.4000 
 24 H        0.6200    -5.3370     1.3810 H     1 <1>   0.0800 
 25 H        0.7600    -4.9830    -0.3170 H     1 <1>   0.0800 
 26 H        4.9040    -3.6140     0.6210 H     1 <1>   0.0800 
 27 H        5.5140    -2.1310    -0.0760 H     1 <1>   0.0800 
 28 H        4.7710    -3.3380    -1.1030 H     1 <1>   0.0800 
 29 H       -4.6190    -6.7470    -0.2700 H     1 <1>   0.1500 
 30 H       -4.3450    -3.4040    -1.1190 H     1 <1>   0.0800 
 31 H       -4.6430    -3.3980     0.6020 H     1 <1>   0.0800 
 32 H       -5.4860    -4.5340    -0.4260 H     1 <1>   0.0800 
@<TRIPOS>BOND
  1   1   2  1   
  2   2   3  ar  
  3   2   4  ar  
  4   3   5  ar  
  5   3   6  1   
  6   4   7  ar  
  7   4  22  1   
  8   5   8  ar  
  9   6   9  1   
 10   6  23  1   
 11   7   8  ar  
 12   8  10  1   
 13   9  11  1   
 14   9  24  1   
 15   9  25  1   
 16  10  26  1   
 17  10  27  1   
 18  10  28  1   
 19  11  12  ar  
 20  11  13  ar  
 21  12  14  ar  
 22  13  15  ar  
 23  14  16  ar  
 24  14  17  1   
 25  15  16  ar  
 26  15  18  1   
 27  16  29  1   
 28  17  19  1   
 29  17  20  1   
 30  17  21  1   
 31  18  30  1   
 32  18  31  1   
 33  18  32  1   
@<TRIPOS>SUBSTRUCTURE
  1 ****   9 GROUP 4 **** **** 0

# MOE 2024.06 (io_trps.svl 2023.06)
