@<TRIPOS>MOLECULE
NONAME
53 55 1 0 0 
SMALL
USER_CHARGES


@<TRIPOS>ATOM
  1 O        2.2190     1.4280     2.4740 O.co2 1 <1>  -0.9000 
  2 C        1.9670     0.6170     1.5760 C.2   1 <1>   0.9060 
  3 O        1.6960    -0.5650     1.8040 O.co2 1 <1>  -0.9000 
  4 C        2.1840     1.0410     0.1190 C.3   1 <1>  -0.1060 
  5 C        3.5360     0.3500    -0.2020 C.3   1 <1>   0.2000 
  6 C        2.3320     2.5930     0.0220 C.3   1 <1>  -0.1600 
  7 C        0.9630     0.5960    -0.7500 C.3   1 <1>  -0.1600 
  8 O        3.3520    -0.8840    -0.7970 O.3   1 <1>  -0.6800 
  9 C        4.4360     1.2230    -1.0770 C.3   1 <1>   0.3430 
 10 C        3.7050     3.0370     0.5280 C.3   1 <1>   0.3430 
 11 C        1.0730     0.8200    -2.2720 C.3   1 <1>  -0.1600 
 12 N        4.7880     2.5190    -0.3840 N.4   1 <1>  -0.9590 
 13 C       -0.1520     0.2450    -2.9890 C.3   1 <1>  -0.2400 
 14 C        5.2300     3.5410    -1.3640 C.3   1 <1>   0.4860 
 15 C        5.9790     4.6280    -0.6200 C.ar  1 <1>  -0.1440 
 16 C        7.2710     4.3730    -0.0960 C.ar  1 <1>   0.0000 
 17 C        5.3810     5.8500    -0.4530 C.ar  1 <1>  -0.1500 
 18 C        7.9080     5.3900     0.6560 C.ar  1 <1>   0.0000 
 19 C        7.9640     3.1510    -0.2840 C.ar  1 <1>  -0.1500 
 20 C        6.0230     6.8610     0.2610 C.ar  1 <1>  -0.1500 
 21 C        7.2610     6.6420     0.8160 C.ar  1 <1>   0.0820 
 22 C        9.1740     5.1160     1.2210 C.ar  1 <1>  -0.1500 
 23 C        9.1920     2.9250     0.2720 C.ar  1 <1>  -0.1500 
 24 O        7.9200     7.5900     1.5280 O.3   1 <1>  -0.3620 
 25 C        9.8020     3.9170     1.0400 C.ar  1 <1>  -0.1500 
 26 C        7.3970     8.8830     1.7430 C.3   1 <1>   0.0400 
 27 H        4.0800     0.1550     0.7090 H     1 <1>   0.0800 
 28 H        1.5710     3.0570     0.6260 H     1 <1>   0.0800 
 29 H        2.2040     2.9590    -0.9760 H     1 <1>   0.0800 
 30 H        0.7820    -0.4520    -0.5790 H     1 <1>   0.0800 
 31 H        0.0880     1.1080    -0.3870 H     1 <1>   0.0800 
 32 H        2.7450    -1.3940    -0.2050 H     1 <1>   0.4000 
 33 H        3.8990     1.4320    -1.9860 H     1 <1>   0.0800 
 34 H        5.3320     0.6760    -1.3180 H     1 <1>   0.0800 
 35 H        3.8470     2.6410     1.5220 H     1 <1>   0.0800 
 36 H        3.7470     4.1110     0.5990 H     1 <1>   0.0800 
 37 H        1.1350     1.8660    -2.5040 H     1 <1>   0.0800 
 38 H        1.9510     0.3320    -2.6570 H     1 <1>   0.0800 
 39 H        5.5900     2.3470     0.2380 H     1 <1>   0.4500 
 40 H       -1.0510     0.7200    -2.6370 H     1 <1>   0.0800 
 41 H       -0.2280    -0.8130    -2.8080 H     1 <1>   0.0800 
 42 H       -0.0700     0.4050    -4.0490 H     1 <1>   0.0800 
 43 H        5.8840     3.0990    -2.0980 H     1 <1>   0.0800 
 44 H        4.3760     3.9560    -1.8730 H     1 <1>   0.0800 
 45 H        4.4060     6.0630    -0.8580 H     1 <1>   0.1500 
 46 H        7.5380     2.3710    -0.8830 H     1 <1>   0.1500 
 47 H        5.5150     7.8030     0.3620 H     1 <1>   0.1500 
 48 H        9.6520     5.8810     1.8080 H     1 <1>   0.1500 
 49 H        9.7090     1.9910     0.1270 H     1 <1>   0.1500 
 50 H       10.7670     3.7280     1.4780 H     1 <1>   0.1500 
 51 H        8.1080     9.4380     2.3270 H     1 <1>   0.0800 
 52 H        6.4690     8.7990     2.2810 H     1 <1>   0.0800 
 53 H        7.2520     9.3630     0.7910 H     1 <1>   0.0800 
@<TRIPOS>BOND
  1   1   2  ar  
  2   2   3  ar  
  3   2   4  1   
  4   4   5  1   
  5   4   6  1   
  6   4   7  1   
  7   5   8  1   
  8   5   9  1   
  9   5  27  1   
 10   6  10  1   
 11   6  28  1   
 12   6  29  1   
 13   7  11  1   
 14   7  30  1   
 15   7  31  1   
 16   8  32  1   
 17   9  12  1   
 18   9  33  1   
 19   9  34  1   
 20  10  12  1   
 21  10  35  1   
 22  10  36  1   
 23  11  13  1   
 24  11  37  1   
 25  11  38  1   
 26  12  14  1   
 27  12  39  1   
 28  13  40  1   
 29  13  41  1   
 30  13  42  1   
 31  14  15  1   
 32  14  43  1   
 33  14  44  1   
 34  15  16  ar  
 35  15  17  ar  
 36  16  18  ar  
 37  16  19  ar  
 38  17  20  ar  
 39  17  45  1   
 40  18  21  ar  
 41  18  22  ar  
 42  19  23  ar  
 43  19  46  1   
 44  20  21  ar  
 45  20  47  1   
 46  21  24  1   
 47  22  25  ar  
 48  22  48  1   
 49  23  25  ar  
 50  23  49  1   
 51  24  26  1   
 52  25  50  1   
 53  26  51  1   
 54  26  52  1   
 55  26  53  1   
@<TRIPOS>SUBSTRUCTURE
  1 ****  12 GROUP 4 **** **** 0

# MOE 2024.06 (io_trps.svl 2023.06)
