@<TRIPOS>MOLECULE
NONAME
41 42 1 0 0 
SMALL
USER_CHARGES


@<TRIPOS>ATOM
  1 O        0.1940     0.7840     1.3360 O.2   1 <1>  -0.5700 
  2 C        0.0600     1.9560     1.0110 C.2   1 <1>   0.6160 
  3 N       -0.6650     2.3040    -0.1180 N.am  1 <1>  -0.4690 
  4 C        0.6370     3.0080     1.7710 C.2   1 <1>  -0.1360 
  5 C       -0.7980     3.6230    -0.4830 C.2   1 <1>  -0.0410 
  6 C       -1.3000     1.2320    -0.9290 C.3   1 <1>   0.0600 
  7 C        0.5000     4.3100     1.4050 C.2   1 <1>  -0.1500 
  8 C       -0.2330     4.6560     0.2250 C.2   1 <1>   0.0140 
  9 C       -0.3770     6.0290    -0.1990 C.2   1 <1>   0.6160 
 10 O       -1.3200     6.3550    -0.8970 O.2   1 <1>  -0.5700 
 11 N        0.5620     6.9600     0.1610 N.am  1 <1>  -0.4930 
 12 C        0.5940     8.3570    -0.0750 C.2   1 <1>   0.0630 
 13 C       -0.4280     9.3060     0.0320 C.2   1 <1>   0.1080 
 14 C        1.6870     9.0680    -0.4310 C.2   1 <1>  -0.3320 
 15 N       -0.0120    10.5050    -0.2320 N.2   1 <1>  -0.7070 
 16 C       -1.8660     9.0420     0.4200 C.3   1 <1>  -0.0590 
 17 N        1.2920    10.3640    -0.5240 N.pl3 1 <1>   0.3140 
 18 C        3.1060     8.5880    -0.7050 C.3   1 <1>  -0.0600 
 19 C        2.1130    11.5370    -0.8920 C.3   1 <1>   0.0960 
 20 C        2.7920    12.1440     0.3450 C.3   1 <1>  -0.1600 
 21 C        3.6560    13.3530    -0.0280 C.3   1 <1>  -0.2400 
 22 H        1.1780     2.7100     2.6490 H     1 <1>   0.1500 
 23 H       -1.3750     3.8370    -1.3690 H     1 <1>   0.1500 
 24 H       -1.9870     0.6780    -0.3130 H     1 <1>   0.0800 
 25 H       -0.5420     0.5620    -1.2950 H     1 <1>   0.0800 
 26 H       -1.8340     1.6520    -1.7630 H     1 <1>   0.0800 
 27 H        0.9290     5.0940     2.0050 H     1 <1>   0.1500 
 28 H        1.4350     6.5880     0.5220 H     1 <1>   0.3700 
 29 H       -1.9210     8.2330     1.1220 H     1 <1>   0.0800 
 30 H       -2.4310     8.7880    -0.4580 H     1 <1>   0.0800 
 31 H       -2.2910     9.9230     0.8650 H     1 <1>   0.0800 
 32 H        3.1740     7.5210    -0.6000 H     1 <1>   0.0800 
 33 H        3.7940     9.0440    -0.0160 H     1 <1>   0.0800 
 34 H        3.3940     8.8440    -1.7090 H     1 <1>   0.0800 
 35 H        1.4650    12.2640    -1.3470 H     1 <1>   0.0800 
 36 H        2.8450    11.2340    -1.6150 H     1 <1>   0.0800 
 37 H        3.4080    11.4010     0.8210 H     1 <1>   0.0800 
 38 H        2.0330    12.4530     1.0440 H     1 <1>   0.0800 
 39 H        4.4340    13.0670    -0.7150 H     1 <1>   0.0800 
 40 H        4.1140    13.7630     0.8550 H     1 <1>   0.0800 
 41 H        3.0530    14.1190    -0.4850 H     1 <1>   0.0800 
@<TRIPOS>BOND
  1   1   2  2   
  2   2   3  am  
  3   2   4  1   
  4   3   5  1   
  5   3   6  1   
  6   4   7  2   
  7   4  22  1   
  8   5   8  2   
  9   5  23  1   
 10   6  24  1   
 11   6  25  1   
 12   6  26  1   
 13   7   8  1   
 14   7  27  1   
 15   8   9  1   
 16   9  10  2   
 17   9  11  am  
 18  11  12  1   
 19  11  28  1   
 20  12  13  1   
 21  12  14  2   
 22  13  15  2   
 23  13  16  1   
 24  14  17  1   
 25  14  18  1   
 26  15  17  1   
 27  16  29  1   
 28  16  30  1   
 29  16  31  1   
 30  17  19  1   
 31  18  32  1   
 32  18  33  1   
 33  18  34  1   
 34  19  20  1   
 35  19  35  1   
 36  19  36  1   
 37  20  21  1   
 38  20  37  1   
 39  20  38  1   
 40  21  39  1   
 41  21  40  1   
 42  21  41  1   
@<TRIPOS>SUBSTRUCTURE
  1 ****  11 GROUP 4 **** **** 0

# MOE 2024.06 (io_trps.svl 2023.06)
