@<TRIPOS>MOLECULE
NONAME
46 47 1 0 0 
SMALL
USER_CHARGES


@<TRIPOS>ATOM
  1 CL       0.3660     0.2720    -0.0200 Cl    1 <1>  -0.1770 
  2 C        0.4120     2.0060     0.1730 C.ar  1 <1>   0.1770 
  3 C        1.5840     2.6120     0.5830 C.ar  1 <1>  -0.1500 
  4 C       -0.7250     2.7470    -0.0860 C.ar  1 <1>  -0.1500 
  5 C        1.6170     3.9880     0.7350 C.ar  1 <1>  -0.1500 
  6 C       -0.6860     4.1230     0.0680 C.ar  1 <1>  -0.1500 
  7 C        0.4840     4.7480     0.4780 C.ar  1 <1>  -0.1430 
  8 C        0.5290     6.2590     0.6420 C.3   1 <1>  -0.0160 
  9 C        1.0570     6.9090    -0.6370 C.3   1 <1>   0.1400 
 10 N        1.0580     8.3910    -0.5000 N.am  1 <1>  -0.7300 
 11 C        2.1670     9.1300    -0.2140 C.2   1 <1>   0.5690 
 12 O        3.2430     8.6160    -0.0170 O.2   1 <1>  -0.5700 
 13 C        2.1020    10.6670    -0.1380 C.3   1 <1>   0.4040 
 14 N        3.4540    11.3210    -0.3440 N.4   1 <1>  -0.9590 
 15 C        3.4780    12.7230     0.1820 C.3   1 <1>   0.3430 
 16 C        3.8920    11.2030    -1.7730 C.3   1 <1>   0.2630 
 17 C        4.9020    13.2730     0.3140 C.3   1 <1>   0.0200 
 18 C        4.8450    14.6520     0.9400 C.2   1 <1>  -0.1400 
 19 S        4.2670    14.7470     2.5830 S.3   1 <1>  -0.0800 
 20 C        5.1480    15.8930     0.5210 C.2   1 <1>   0.0460 
 21 C        4.4930    16.4790     2.5350 C.2   1 <1>   0.2280 
 22 N        4.9390    16.9160     1.4270 N.2   1 <1>  -0.5650 
 23 C        5.6950    16.3190    -0.8250 C.3   1 <1>  -0.0590 
 24 H        2.4550     2.0130     0.7790 H     1 <1>   0.1500 
 25 H       -1.6250     2.2510    -0.4030 H     1 <1>   0.1500 
 26 H        2.5300     4.4620     1.0540 H     1 <1>   0.1500 
 27 H       -1.5720     4.7000    -0.1330 H     1 <1>   0.1500 
 28 H        1.1740     6.5080     1.4660 H     1 <1>   0.0800 
 29 H       -0.4580     6.6250     0.8600 H     1 <1>   0.0800 
 30 H        0.4400     6.6250    -1.4720 H     1 <1>   0.0800 
 31 H        2.0570     6.5550    -0.8290 H     1 <1>   0.0800 
 32 H        0.1360     8.8190    -0.6280 H     1 <1>   0.3700 
 33 H        1.7270    10.9230     0.8380 H     1 <1>   0.0800 
 34 H        1.4040    11.0260    -0.8730 H     1 <1>   0.0800 
 35 H        4.1000    10.7300     0.2130 H     1 <1>   0.4500 
 36 H        3.0200    12.7440     1.1580 H     1 <1>   0.0800 
 37 H        2.9070    13.3700    -0.4640 H     1 <1>   0.0800 
 38 H        3.2370    11.7650    -2.4180 H     1 <1>   0.0800 
 39 H        3.8800    10.1690    -2.0810 H     1 <1>   0.0800 
 40 H        4.8970    11.5760    -1.8910 H     1 <1>   0.0800 
 41 H        5.3700    13.3410    -0.6500 H     1 <1>   0.0800 
 42 H        5.4930    12.6330     0.9440 H     1 <1>   0.0800 
 43 H        4.2440    17.0360     3.4220 H     1 <1>   0.1500 
 44 H        5.8340    15.4800    -1.4790 H     1 <1>   0.0800 
 45 H        6.6410    16.8110    -0.6860 H     1 <1>   0.0800 
 46 H        5.0160    17.0130    -1.2860 H     1 <1>   0.0800 
@<TRIPOS>BOND
  1   1   2  1   
  2   2   3  ar  
  3   2   4  ar  
  4   3   5  ar  
  5   3  24  1   
  6   4   6  ar  
  7   4  25  1   
  8   5   7  ar  
  9   5  26  1   
 10   6   7  ar  
 11   6  27  1   
 12   7   8  1   
 13   8   9  1   
 14   8  28  1   
 15   8  29  1   
 16   9  10  1   
 17   9  30  1   
 18   9  31  1   
 19  10  11  am  
 20  10  32  1   
 21  11  12  2   
 22  11  13  1   
 23  13  14  1   
 24  13  33  1   
 25  13  34  1   
 26  14  15  1   
 27  14  16  1   
 28  14  35  1   
 29  15  17  1   
 30  15  36  1   
 31  15  37  1   
 32  16  38  1   
 33  16  39  1   
 34  16  40  1   
 35  17  18  1   
 36  17  41  1   
 37  17  42  1   
 38  18  19  1   
 39  18  20  2   
 40  19  21  1   
 41  20  22  1   
 42  20  23  1   
 43  21  22  2   
 44  21  43  1   
 45  23  44  1   
 46  23  45  1   
 47  23  46  1   
@<TRIPOS>SUBSTRUCTURE
  1 ****  11 GROUP 4 **** **** 0

# MOE 2024.06 (io_trps.svl 2023.06)
