@<TRIPOS>MOLECULE
NONAME
40 42 1 0 0 
SMALL
USER_CHARGES


@<TRIPOS>ATOM
  1 O       -0.6080     0.7390    -0.9950 O.2   1 <1>  -0.5700 
  2 C       -0.5280     1.8890    -0.6280 C.2   1 <1>   0.5690 
  3 N       -1.4940     2.5100     0.1250 N.am  1 <1>  -0.5090 
  4 C        0.7250     2.6630    -1.0310 C.3   1 <1>   0.1810 
  5 C       -1.3090     3.9250     0.5970 C.3   1 <1>   0.3640 
  6 C       -2.4950     1.7110     0.8850 C.3   1 <1>   0.0490 
  7 O        1.0270     3.6970    -0.1300 O.3   1 <1>  -0.5600 
  8 C       -2.5090     4.7820     0.2020 C.ar  1 <1>  -0.1440 
  9 C       -0.0320     4.6150     0.0470 C.3   1 <1>   0.2610 
 10 C       -3.3990     0.7770     0.1420 C.3   1 <1>  -0.2000 
 11 C       -3.9630     1.9980     0.7910 C.3   1 <1>  -0.2000 
 12 C       -3.1000     5.6180     1.1410 C.ar  1 <1>   0.1600 
 13 C       -3.0230     4.7640    -1.0830 C.ar  1 <1>  -0.1500 
 14 C        0.3980     5.8020     0.9310 C.2   1 <1>   0.5690 
 15 N       -4.1360     6.4070     0.9070 N.ar  1 <1>  -0.6200 
 16 C       -4.1010     5.5820    -1.3420 C.ar  1 <1>  -0.1500 
 17 O       -0.0020     5.8440     2.0750 O.2   1 <1>  -0.5700 
 18 N        1.1910     6.8110     0.4250 N.am  1 <1>  -0.6600 
 19 C       -4.6120     6.3710    -0.3260 C.ar  1 <1>   0.1600 
 20 C        1.8710     6.7740    -0.9000 C.3   1 <1>   0.0600 
 21 C        1.4980     8.0310     1.2250 C.3   1 <1>   0.0600 
 22 H        0.5960     3.0820    -2.0120 H     1 <1>   0.0800 
 23 H        1.5640     1.9920    -1.0480 H     1 <1>   0.0800 
 24 H       -1.2470     3.8810     1.6710 H     1 <1>   0.0800 
 25 H       -2.1040     1.3720     1.8310 H     1 <1>   0.1000 
 26 H       -0.2610     5.0170    -0.9220 H     1 <1>   0.0800 
 27 H       -3.3290     0.7410    -0.9310 H     1 <1>   0.1000 
 28 H       -3.6110    -0.1840     0.5750 H     1 <1>   0.1000 
 29 H       -4.5710     1.8700     1.6690 H     1 <1>   0.1000 
 30 H       -4.3460     2.7620     0.1400 H     1 <1>   0.1000 
 31 H       -2.6970     5.6450     2.1410 H     1 <1>   0.1500 
 32 H       -2.6120     4.1310    -1.8510 H     1 <1>   0.1500 
 33 H       -4.5470     5.6080    -2.3190 H     1 <1>   0.1500 
 34 H       -5.4560     7.0050    -0.5390 H     1 <1>   0.1500 
 35 H        2.8760     7.1460    -0.8030 H     1 <1>   0.0800 
 36 H        1.3360     7.3930    -1.5990 H     1 <1>   0.0800 
 37 H        1.9260     5.7720    -1.2840 H     1 <1>   0.0800 
 38 H        1.3170     8.9120     0.6340 H     1 <1>   0.0800 
 39 H        2.5290     8.0140     1.5310 H     1 <1>   0.0800 
 40 H        0.8790     8.0810     2.1050 H     1 <1>   0.0800 
@<TRIPOS>BOND
  1   1   2  2   
  2   2   3  am  
  3   2   4  1   
  4   3   5  1   
  5   3   6  1   
  6   4   7  1   
  7   4  22  1   
  8   4  23  1   
  9   5   8  1   
 10   5   9  1   
 11   5  24  1   
 12   6  10  1   
 13   6  11  1   
 14   6  25  1   
 15   7   9  1   
 16   8  12  ar  
 17   8  13  ar  
 18   9  14  1   
 19   9  26  1   
 20  10  11  1   
 21  10  27  1   
 22  10  28  1   
 23  11  29  1   
 24  11  30  1   
 25  12  15  ar  
 26  12  31  1   
 27  13  16  ar  
 28  13  32  1   
 29  14  17  2   
 30  14  18  am  
 31  15  19  ar  
 32  16  19  ar  
 33  16  33  1   
 34  18  20  1   
 35  18  21  1   
 36  19  34  1   
 37  20  35  1   
 38  20  36  1   
 39  20  37  1   
 40  21  38  1   
 41  21  39  1   
 42  21  40  1   
@<TRIPOS>SUBSTRUCTURE
  1 ****   5 GROUP 4 **** **** 0

# MOE 2024.06 (io_trps.svl 2023.06)
