@<TRIPOS>MOLECULE
NONAME
47 50 1 0 0 
SMALL
USER_CHARGES


@<TRIPOS>ATOM
  1 O        0.5540     0.2620    -0.2530 O.3   1 <1>  -0.5600 
  2 C        1.7920    -0.3940    -0.2580 C.3   1 <1>   0.1200 
  3 C        0.5890     1.5150     0.3720 C.3   1 <1>   0.1200 
  4 C        2.8520     0.4280    -1.0110 C.3   1 <1>   0.2090 
  5 C        1.5730     2.4630    -0.3360 C.3   1 <1>   0.2090 
  6 N        2.9200     1.8250    -0.4770 N.pl3 1 <1>  -0.8380 
  7 C        4.1010     2.4910    -0.2330 C.ar  1 <1>   0.7200 
  8 N        4.0330     3.7750    -0.0120 N.ar  1 <1>  -0.6200 
  9 N        5.2040     1.7860    -0.2420 N.ar  1 <1>  -0.6200 
 10 C        5.1800     4.3560     0.2100 C.ar  1 <1>   0.7200 
 11 C        6.3060     2.4600    -0.0100 C.ar  1 <1>   0.6200 
 12 N        6.3410     3.7510     0.2220 N.ar  1 <1>  -0.6200 
 13 N        5.1690     5.7130     0.4520 N.pl3 1 <1>  -0.8380 
 14 C        7.5650     1.7310    -0.0090 C.ar  1 <1>   0.0000 
 15 C        3.9450     6.5620     0.3100 C.3   1 <1>   0.2090 
 16 C        6.3480     6.4700     0.9800 C.3   1 <1>   0.2090 
 17 C        7.6400     0.3890     0.3800 C.ar  1 <1>  -0.1500 
 18 C        8.7660     2.3350    -0.3990 C.ar  1 <1>  -0.1500 
 19 C        4.2760     7.8830    -0.4080 C.3   1 <1>   0.1200 
 20 C        6.5320     7.7940     0.2180 C.3   1 <1>   0.1200 
 21 C        8.8350    -0.3040     0.3830 C.ar  1 <1>  -0.1500 
 22 C        9.9620     1.6450    -0.3980 C.ar  1 <1>  -0.1500 
 23 O        5.3470     8.5410     0.2110 O.3   1 <1>  -0.5600 
 24 C       10.0150     0.3160    -0.0030 C.ar  1 <1>   0.1000 
 25 N       11.2110    -0.3720     0.0080 N.pl3 1 <1>  -0.9000 
 26 H        1.6560    -1.3480    -0.7360 H     1 <1>   0.0800 
 27 H        2.1010    -0.5580     0.7600 H     1 <1>   0.0800 
 28 H        0.8780     1.3790     1.4000 H     1 <1>   0.0800 
 29 H       -0.4040     1.9250     0.3430 H     1 <1>   0.0800 
 30 H        2.5940     0.4640    -2.0550 H     1 <1>   0.0800 
 31 H        3.8000    -0.0720    -0.9270 H     1 <1>   0.0800 
 32 H        1.6340     3.3750     0.2300 H     1 <1>   0.0800 
 33 H        1.1930     2.7040    -1.3140 H     1 <1>   0.0800 
 34 H        3.5500     6.7790     1.2870 H     1 <1>   0.0800 
 35 H        3.1820     6.0530    -0.2510 H     1 <1>   0.0800 
 36 H        7.2540     5.8960     0.8980 H     1 <1>   0.0800 
 37 H        6.1890     6.6830     2.0220 H     1 <1>   0.0800 
 38 H        6.7410    -0.1170     0.6870 H     1 <1>   0.1500 
 39 H        8.7560     3.3650    -0.7120 H     1 <1>   0.1500 
 40 H        3.4270     8.5410    -0.3810 H     1 <1>   0.0800 
 41 H        4.5350     7.6940    -1.4350 H     1 <1>   0.0800 
 42 H        6.8250     7.6010    -0.7990 H     1 <1>   0.0800 
 43 H        7.2930     8.3890     0.6910 H     1 <1>   0.0800 
 44 H        8.8570    -1.3340     0.6830 H     1 <1>   0.1500 
 45 H       10.8660     2.1360    -0.7080 H     1 <1>   0.1500 
 46 H       12.0780     0.1710     0.0110 H     1 <1>   0.4000 
 47 H       11.2700    -1.2260     0.5690 H     1 <1>   0.4000 
@<TRIPOS>BOND
  1   1   2  1   
  2   1   3  1   
  3   2   4  1   
  4   2  26  1   
  5   2  27  1   
  6   3   5  1   
  7   3  28  1   
  8   3  29  1   
  9   4   6  1   
 10   4  30  1   
 11   4  31  1   
 12   5   6  1   
 13   5  32  1   
 14   5  33  1   
 15   6   7  1   
 16   7   8  ar  
 17   7   9  ar  
 18   8  10  ar  
 19   9  11  ar  
 20  10  12  ar  
 21  10  13  1   
 22  11  12  ar  
 23  11  14  1   
 24  13  15  1   
 25  13  16  1   
 26  14  17  ar  
 27  14  18  ar  
 28  15  19  1   
 29  15  34  1   
 30  15  35  1   
 31  16  20  1   
 32  16  36  1   
 33  16  37  1   
 34  17  21  ar  
 35  17  38  1   
 36  18  22  ar  
 37  18  39  1   
 38  19  23  1   
 39  19  40  1   
 40  19  41  1   
 41  20  23  1   
 42  20  42  1   
 43  20  43  1   
 44  21  24  ar  
 45  21  44  1   
 46  22  24  ar  
 47  22  45  1   
 48  24  25  1   
 49  25  46  1   
 50  25  47  1   
@<TRIPOS>SUBSTRUCTURE
  1 ****  11 GROUP 4 **** **** 0

# MOE 2024.06 (io_trps.svl 2023.06)
