@<TRIPOS>MOLECULE
NONAME
44 47 1 0 0 
SMALL
USER_CHARGES


@<TRIPOS>ATOM
  1 CL      -2.1460     0.5420    -2.5640 Cl    1 <1>  -0.1400 
  2 C       -2.2490     2.0110    -1.6280 C.2   1 <1>   0.1400 
  3 C       -1.1650     2.8330    -1.5000 C.2   1 <1>   0.2290 
  4 C       -3.4780     2.3200    -1.0110 C.2   1 <1>  -0.1500 
  5 N       -1.2700     3.9960    -0.7530 N.pl3 1 <1>  -0.6290 
  6 C       -3.5660     3.4720    -0.2730 C.2   1 <1>  -0.1410 
  7 C       -2.4430     4.3120    -0.1490 C.cat 1 <1>   0.7910 
  8 C       -0.3690     4.9880    -0.4310 C.2   1 <1>   0.2000 
  9 N       -2.2790     5.4640     0.5090 N.pl3 1 <1>  -0.7000 
 10 C       -0.9780     5.9170     0.3480 C.2   1 <1>   0.2770 
 11 C       -0.4740     7.1400     0.9670 C.2   1 <1>   0.7030 
 12 O       -1.0930     7.5630     1.9230 O.2   1 <1>  -0.5700 
 13 N        0.6340     7.8610     0.5340 N.am  1 <1>  -0.6600 
 14 C        1.1160     9.0000     1.4290 C.3   1 <1>   0.2200 
 15 C        0.9920     7.8880    -0.9270 C.3   1 <1>   0.1400 
 16 C        0.4230    10.3290     1.0840 C.3   1 <1>   0.1200 
 17 C        2.6510     9.1880     1.5120 C.3   1 <1>   0.3430 
 18 C        1.6840     9.1680    -1.4320 C.3   1 <1>  -0.0800 
 19 O        1.0680    10.9670     0.0260 O.3   1 <1>  -0.5600 
 20 N        3.4400     8.6570     0.3450 N.4   1 <1>  -0.9590 
 21 C        0.8360    10.4320    -1.2330 C.3   1 <1>   0.1200 
 22 C        3.1290     9.3700    -0.9360 C.3   1 <1>   0.3430 
 23 C        4.9050     8.7520     0.6380 C.3   1 <1>   0.2630 
 24 H       -0.2230     2.5950    -1.9700 H     1 <1>   0.1500 
 25 H       -4.3110     1.6460    -1.1350 H     1 <1>   0.1500 
 26 H       -4.4780     3.7540     0.2200 H     1 <1>   0.1500 
 27 H        0.6540     4.9590    -0.7670 H     1 <1>   0.1500 
 28 H       -2.9750     5.9330     1.1000 H     1 <1>   0.4500 
 29 H        0.8140     8.7850     2.4400 H     1 <1>   0.0800 
 30 H        1.6290     7.0480    -1.1460 H     1 <1>   0.0800 
 31 H        0.0880     7.7620    -1.5020 H     1 <1>   0.0800 
 32 H        0.4890    10.9950     1.9280 H     1 <1>   0.0800 
 33 H       -0.6200    10.1910     0.8540 H     1 <1>   0.0800 
 34 H        2.9880     8.6950     2.4090 H     1 <1>   0.0800 
 35 H        2.8580    10.2390     1.6380 H     1 <1>   0.0800 
 36 H        1.7580     9.0550    -2.5000 H     1 <1>   0.0800 
 37 H        3.1850     7.6680     0.2420 H     1 <1>   0.4500 
 38 H       -0.2180    10.2480    -1.3620 H     1 <1>   0.0800 
 39 H        1.1320    11.1860    -1.9440 H     1 <1>   0.0800 
 40 H        3.3160    10.4260    -0.8190 H     1 <1>   0.0800 
 41 H        3.7990     9.0090    -1.7000 H     1 <1>   0.0800 
 42 H        5.1940     9.7830     0.7650 H     1 <1>   0.0800 
 43 H        5.4790     8.3320    -0.1720 H     1 <1>   0.0800 
 44 H        5.1440     8.2140     1.5420 H     1 <1>   0.0800 
@<TRIPOS>BOND
  1   1   2  1   
  2   2   3  2   
  3   2   4  1   
  4   3   5  1   
  5   3  24  1   
  6   4   6  2   
  7   4  25  1   
  8   5   7  ar  
  9   5   8  1   
 10   6   7  1   
 11   6  26  1   
 12   7   9  ar  
 13   8  10  2   
 14   8  27  1   
 15   9  10  1   
 16   9  28  1   
 17  10  11  1   
 18  11  12  2   
 19  11  13  am  
 20  13  14  1   
 21  13  15  1   
 22  14  16  1   
 23  14  17  1   
 24  14  29  1   
 25  15  18  1   
 26  15  30  1   
 27  15  31  1   
 28  16  19  1   
 29  16  32  1   
 30  16  33  1   
 31  17  20  1   
 32  17  34  1   
 33  17  35  1   
 34  18  21  1   
 35  18  22  1   
 36  18  36  1   
 37  19  21  1   
 38  20  22  1   
 39  20  23  1   
 40  20  37  1   
 41  21  38  1   
 42  21  39  1   
 43  22  40  1   
 44  22  41  1   
 45  23  42  1   
 46  23  43  1   
 47  23  44  1   
@<TRIPOS>SUBSTRUCTURE
  1 ****  10 GROUP 4 **** **** 0

# MOE 2024.06 (io_trps.svl 2023.06)
