@<TRIPOS>MOLECULE
NONAME
58 61 1 0 0 
SMALL
USER_CHARGES


@<TRIPOS>ATOM
  1 O       -2.1130     0.3620     2.9890 O.2   1 <1>  -0.5700 
  2 C       -1.5950     0.9390     2.0640 C.2   1 <1>   0.5690 
  3 N       -2.2080     1.3210     0.9220 N.am  1 <1>  -0.6600 
  4 C       -0.1420     1.3230     2.0420 C.3   1 <1>  -0.0990 
  5 C       -1.3000     1.9930    -0.0220 C.3   1 <1>   0.1400 
  6 C       -3.6290     1.0770     0.5960 C.3   1 <1>   0.1400 
  7 C       -0.0170     2.2140     0.7930 C.3   1 <1>  -0.1600 
  8 C       -3.7350     0.0050    -0.4890 C.3   1 <1>  -0.1600 
  9 C       -5.1950    -0.4400    -0.6930 C.3   1 <1>  -0.0990 
 10 C       -5.3700    -1.5300    -1.7470 C.2   1 <1>   0.5690 
 11 O       -4.4920    -1.6790    -2.5640 O.2   1 <1>  -0.5700 
 12 N       -6.4970    -2.3130    -1.7530 N.am  1 <1>  -0.6600 
 13 C       -7.6810    -2.1520    -0.8660 C.3   1 <1>   0.1400 
 14 C       -6.6050    -3.5050    -2.6380 C.3   1 <1>   0.1400 
 15 C       -7.7690    -3.3720     0.0520 C.3   1 <1>  -0.1600 
 16 C       -6.6930    -4.7590    -1.7640 C.3   1 <1>  -0.1600 
 17 C       -7.8500    -4.6810    -0.7550 C.3   1 <1>   0.4240 
 18 O       -9.0180    -4.6300    -1.5400 O.3   1 <1>  -0.5600 
 19 C       -7.8350    -5.9130     0.1760 C.ar  1 <1>  -0.1440 
 20 C      -10.2160    -5.0250    -0.9460 C.3   1 <1>   0.1200 
 21 C       -8.9180    -6.7830     0.2390 C.ar  1 <1>  -0.1440 
 22 C       -6.7300    -6.1730     0.9800 C.ar  1 <1>  -0.1500 
 23 C      -10.1380    -6.5130    -0.6190 C.3   1 <1>  -0.0170 
 24 C       -8.8930    -7.8880     1.0760 C.ar  1 <1>  -0.1500 
 25 C       -6.7040    -7.2730     1.8180 C.ar  1 <1>  -0.1500 
 26 C       -7.7810    -8.1390     1.8720 C.ar  1 <1>   0.0820 
 27 O       -7.6750    -9.1950     2.7170 O.3   1 <1>  -0.3620 
 28 C       -8.7080   -10.1480     2.8330 C.3   1 <1>   0.0400 
 29 H        0.4500     0.4320     1.9460 H     1 <1>   0.0800 
 30 H        0.1240     1.8490     2.9400 H     1 <1>   0.0800 
 31 H       -1.7200     2.9260    -0.3570 H     1 <1>   0.0800 
 32 H       -1.1140     1.3470    -0.8630 H     1 <1>   0.0800 
 33 H       -4.0860     1.9940     0.2690 H     1 <1>   0.0800 
 34 H       -4.1370     0.7450     1.4870 H     1 <1>   0.0800 
 35 H        0.8580     1.9770     0.2150 H     1 <1>   0.0800 
 36 H        0.0330     3.2470     1.0890 H     1 <1>   0.0800 
 37 H       -3.1510    -0.8520    -0.1990 H     1 <1>   0.0800 
 38 H       -3.3450     0.3890    -1.4150 H     1 <1>   0.0800 
 39 H       -5.7930     0.4040    -0.9840 H     1 <1>   0.0800 
 40 H       -5.5560    -0.8110     0.2480 H     1 <1>   0.0800 
 41 H       -8.5670    -2.0880    -1.4750 H     1 <1>   0.0800 
 42 H       -7.6210    -1.2510    -0.2830 H     1 <1>   0.0800 
 43 H       -5.7520    -3.5790    -3.2910 H     1 <1>   0.0800 
 44 H       -7.4860    -3.4160    -3.2500 H     1 <1>   0.0800 
 45 H       -8.6190    -3.2870     0.7020 H     1 <1>   0.0800 
 46 H       -6.8960    -3.3870     0.6770 H     1 <1>   0.0800 
 47 H       -5.7570    -4.8690    -1.2500 H     1 <1>   0.0800 
 48 H       -6.8240    -5.6270    -2.3830 H     1 <1>   0.0800 
 49 H      -11.0100    -4.8350    -1.6470 H     1 <1>   0.0800 
 50 H      -10.3820    -4.4410    -0.0580 H     1 <1>   0.0800 
 51 H       -5.8750    -5.5210     0.9630 H     1 <1>   0.1500 
 52 H      -10.0720    -7.0770    -1.5320 H     1 <1>   0.0800 
 53 H      -11.0320    -6.8080    -0.1000 H     1 <1>   0.0800 
 54 H       -9.7420    -8.5430     1.0980 H     1 <1>   0.1500 
 55 H       -5.8460    -7.4670     2.4350 H     1 <1>   0.1500 
 56 H       -8.3990   -10.8890     3.5480 H     1 <1>   0.0800 
 57 H       -8.8650   -10.6080     1.8730 H     1 <1>   0.0800 
 58 H       -9.6000    -9.6560     3.1770 H     1 <1>   0.0800 
@<TRIPOS>BOND
  1   1   2  2   
  2   2   3  am  
  3   2   4  1   
  4   3   5  1   
  5   3   6  1   
  6   4   7  1   
  7   4  29  1   
  8   4  30  1   
  9   5   7  1   
 10   5  31  1   
 11   5  32  1   
 12   6   8  1   
 13   6  33  1   
 14   6  34  1   
 15   7  35  1   
 16   7  36  1   
 17   8   9  1   
 18   8  37  1   
 19   8  38  1   
 20   9  10  1   
 21   9  39  1   
 22   9  40  1   
 23  10  11  2   
 24  10  12  am  
 25  12  13  1   
 26  12  14  1   
 27  13  15  1   
 28  13  41  1   
 29  13  42  1   
 30  14  16  1   
 31  14  43  1   
 32  14  44  1   
 33  15  17  1   
 34  15  45  1   
 35  15  46  1   
 36  16  17  1   
 37  16  47  1   
 38  16  48  1   
 39  17  18  1   
 40  17  19  1   
 41  18  20  1   
 42  19  21  ar  
 43  19  22  ar  
 44  20  23  1   
 45  20  49  1   
 46  20  50  1   
 47  21  23  1   
 48  21  24  ar  
 49  22  25  ar  
 50  22  51  1   
 51  23  52  1   
 52  23  53  1   
 53  24  26  ar  
 54  24  54  1   
 55  25  26  ar  
 56  25  55  1   
 57  26  27  1   
 58  27  28  1   
 59  28  56  1   
 60  28  57  1   
 61  28  58  1   
@<TRIPOS>SUBSTRUCTURE
  1 ****  15 GROUP 4 **** **** 0

# MOE 2024.06 (io_trps.svl 2023.06)
