@<TRIPOS>MOLECULE
NONAME
41 42 1 0 0 
SMALL
USER_CHARGES


@<TRIPOS>ATOM
  1 O        2.8130    -0.0990     1.9210 O.2   1 <1>  -0.5700 
  2 C        2.1090    -0.5630     1.0370 C.2   1 <1>   0.7160 
  3 N        1.7550     0.1910    -0.0480 N.am  1 <1>  -0.4930 
  4 C        1.6040    -1.9220     1.0970 C.2   1 <1>   0.2030 
  5 C        1.9960     1.5570    -0.3370 C.2   1 <1>   0.0630 
  6 N        0.7990    -2.4720     0.2020 N.2   1 <1>  -0.7070 
  7 C        1.8970    -2.8410     2.1110 C.2   1 <1>  -0.1500 
  8 C        1.0370     2.4920    -0.7290 C.2   1 <1>   0.1080 
  9 C        3.1590     2.2440    -0.3200 C.2   1 <1>  -0.3320 
 10 N        0.5840    -3.7240     0.6340 N.pl3 1 <1>   0.3140 
 11 C        1.2360    -3.9690     1.7860 C.2   1 <1>  -0.3020 
 12 N        1.5460     3.6650    -0.9370 N.2   1 <1>  -0.7070 
 13 C       -0.4400     2.2140    -0.9000 C.3   1 <1>  -0.0590 
 14 N        2.8580     3.5200    -0.6740 N.pl3 1 <1>   0.3140 
 15 C        4.5620     1.7530     0.0120 C.3   1 <1>  -0.0600 
 16 C       -0.2740    -4.6760    -0.1010 C.3   1 <1>   0.0960 
 17 C        3.7820     4.6680    -0.7760 C.3   1 <1>   0.0960 
 18 C        0.5670    -5.6350    -0.9530 C.3   1 <1>  -0.2400 
 19 C        3.9620     5.3510     0.5880 C.3   1 <1>  -0.1600 
 20 C        4.9250     6.5400     0.4960 C.3   1 <1>  -0.2400 
 21 H        1.1120    -0.3040    -0.6680 H     1 <1>   0.3700 
 22 H        2.5280    -2.6420     2.9600 H     1 <1>   0.1500 
 23 H        1.1940    -4.9130     2.2970 H     1 <1>   0.1500 
 24 H       -0.7850     1.5580    -0.1230 H     1 <1>   0.0800 
 25 H       -0.6130     1.7600    -1.8580 H     1 <1>   0.0800 
 26 H       -0.9900     3.1360    -0.8450 H     1 <1>   0.0800 
 27 H        4.5720     0.6840     0.1130 H     1 <1>   0.0800 
 28 H        4.8910     2.1820     0.9410 H     1 <1>   0.0800 
 29 H        5.2500     2.0210    -0.7680 H     1 <1>   0.0800 
 30 H       -0.9380    -4.1130    -0.7310 H     1 <1>   0.0800 
 31 H       -0.8610    -5.2260     0.6110 H     1 <1>   0.0800 
 32 H        3.3680     5.3640    -1.4820 H     1 <1>   0.0800 
 33 H        4.7250     4.3210    -1.1520 H     1 <1>   0.0800 
 34 H        1.1490    -5.0800    -1.6680 H     1 <1>   0.0800 
 35 H       -0.0780    -6.3100    -1.4870 H     1 <1>   0.0800 
 36 H        1.2260    -6.2130    -0.3290 H     1 <1>   0.0800 
 37 H        4.3430     4.6390     1.3000 H     1 <1>   0.0800 
 38 H        3.0020     5.6960     0.9350 H     1 <1>   0.0800 
 39 H        5.8970     6.2160     0.1670 H     1 <1>   0.0800 
 40 H        5.0290     7.0020     1.4620 H     1 <1>   0.0800 
 41 H        4.5500     7.2750    -0.1950 H     1 <1>   0.0800 
@<TRIPOS>BOND
  1   1   2  2   
  2   2   3  am  
  3   2   4  1   
  4   3   5  1   
  5   3  21  1   
  6   4   6  2   
  7   4   7  1   
  8   5   8  1   
  9   5   9  2   
 10   6  10  1   
 11   7  11  2   
 12   7  22  1   
 13   8  12  2   
 14   8  13  1   
 15   9  14  1   
 16   9  15  1   
 17  10  11  1   
 18  10  16  1   
 19  11  23  1   
 20  12  14  1   
 21  13  24  1   
 22  13  25  1   
 23  13  26  1   
 24  14  17  1   
 25  15  27  1   
 26  15  28  1   
 27  15  29  1   
 28  16  18  1   
 29  16  30  1   
 30  16  31  1   
 31  17  19  1   
 32  17  32  1   
 33  17  33  1   
 34  18  34  1   
 35  18  35  1   
 36  18  36  1   
 37  19  20  1   
 38  19  37  1   
 39  19  38  1   
 40  20  39  1   
 41  20  40  1   
 42  20  41  1   
@<TRIPOS>SUBSTRUCTURE
  1 ****   3 GROUP 4 **** **** 0

# MOE 2024.06 (io_trps.svl 2023.06)
