@<TRIPOS>MOLECULE
NONAME
46 47 1 0 0 
SMALL
USER_CHARGES


@<TRIPOS>ATOM
  1 S        0.9760     0.4300     0.9100 S.o2  1 <1>   1.0900 
  2 O       -0.2100    -0.2470     0.4420 O.2   1 <1>  -0.6500 
  3 O        1.7730    -0.0880     1.9970 O.2   1 <1>  -0.6500 
  4 C        0.5620     2.1240     1.2290 C.3   1 <1>  -0.0550 
  5 C        2.0090     0.7880    -0.4990 C.3   1 <1>  -0.0550 
  6 C        0.6700     2.8510    -0.1130 C.3   1 <1>   0.1900 
  7 C        1.9460     2.2990    -0.7750 C.3   1 <1>  -0.1600 
  8 N        0.7490     4.3190     0.0640 N.3   1 <1>  -0.8100 
  9 C        0.8060     5.0460    -1.2510 C.3   1 <1>   0.1710 
 10 C       -0.4020     4.8380     0.8380 C.3   1 <1>   0.0300 
 11 C        1.2080     6.5230    -1.1550 C.2   1 <1>   0.5690 
 12 O        0.8260     7.3000    -1.9960 O.2   1 <1>  -0.5700 
 13 N        1.9970     6.9160    -0.1200 N.am  1 <1>  -0.7300 
 14 C        2.3750     8.3160     0.1930 C.3   1 <1>   0.1400 
 15 C        3.3210     8.8740    -0.8740 C.3   1 <1>   0.0960 
 16 N        3.7750    10.2210    -0.4780 N.pl3 1 <1>   0.0480 
 17 C        4.8930    10.5880     0.2010 C.2   1 <1>   0.0070 
 18 C        3.1170    11.3710    -0.7090 C.2   1 <1>  -0.3020 
 19 N        4.9710    11.8660     0.4040 N.2   1 <1>  -0.5650 
 20 C        5.9380     9.5770     0.6660 C.3   1 <1>   0.0200 
 21 C        3.8590    12.3590    -0.1670 C.2   1 <1>   0.0770 
 22 C        7.0450    10.1960     1.5300 C.3   1 <1>  -0.2400 
 23 H        1.2750     2.5430     1.9120 H     1 <1>   0.0800 
 24 H       -0.4250     2.1980     1.6420 H     1 <1>   0.0800 
 25 H        1.6420     0.2480    -1.3510 H     1 <1>   0.0800 
 26 H        3.0230     0.4850    -0.3160 H     1 <1>   0.0800 
 27 H       -0.1880     2.5970    -0.7180 H     1 <1>   0.0800 
 28 H        1.9560     2.4710    -1.8360 H     1 <1>   0.0800 
 29 H        2.8060     2.7690    -0.3280 H     1 <1>   0.0800 
 30 H       -0.1500     4.9850    -1.7420 H     1 <1>   0.0800 
 31 H        1.5310     4.5920    -1.8980 H     1 <1>   0.0800 
 32 H       -0.3770     4.4710     1.8490 H     1 <1>   0.0800 
 33 H       -1.3310     4.5420     0.3790 H     1 <1>   0.0800 
 34 H       -0.3740     5.9130     0.8880 H     1 <1>   0.0800 
 35 H        2.1740     6.2020     0.5960 H     1 <1>   0.3700 
 36 H        2.8530     8.3440     1.1570 H     1 <1>   0.0800 
 37 H        1.4830     8.9200     0.2290 H     1 <1>   0.0800 
 38 H        2.8110     8.9480    -1.8170 H     1 <1>   0.0800 
 39 H        4.1750     8.2330    -0.9870 H     1 <1>   0.0800 
 40 H        2.1810    11.4250    -1.2350 H     1 <1>   0.1500 
 41 H        6.3870     9.1250    -0.2000 H     1 <1>   0.0800 
 42 H        5.4500     8.8070     1.2350 H     1 <1>   0.0800 
 43 H        3.6490    13.4160    -0.1580 H     1 <1>   0.1500 
 44 H        7.5670    10.9530     0.9720 H     1 <1>   0.0800 
 45 H        7.7470     9.4420     1.8360 H     1 <1>   0.0800 
 46 H        6.6170    10.6520     2.4050 H     1 <1>   0.0800 
@<TRIPOS>BOND
  1   1   2  2   
  2   1   3  2   
  3   1   4  1   
  4   1   5  1   
  5   4   6  1   
  6   4  23  1   
  7   4  24  1   
  8   5   7  1   
  9   5  25  1   
 10   5  26  1   
 11   6   7  1   
 12   6   8  1   
 13   6  27  1   
 14   7  28  1   
 15   7  29  1   
 16   8   9  1   
 17   8  10  1   
 18   9  11  1   
 19   9  30  1   
 20   9  31  1   
 21  10  32  1   
 22  10  33  1   
 23  10  34  1   
 24  11  12  2   
 25  11  13  am  
 26  13  14  1   
 27  13  35  1   
 28  14  15  1   
 29  14  36  1   
 30  14  37  1   
 31  15  16  1   
 32  15  38  1   
 33  15  39  1   
 34  16  17  1   
 35  16  18  1   
 36  17  19  2   
 37  17  20  1   
 38  18  21  2   
 39  18  40  1   
 40  19  21  1   
 41  20  22  1   
 42  20  41  1   
 43  20  42  1   
 44  21  43  1   
 45  22  44  1   
 46  22  45  1   
 47  22  46  1   
@<TRIPOS>SUBSTRUCTURE
  1 ****  13 GROUP 4 **** **** 0

# MOE 2024.06 (io_trps.svl 2023.06)
