@<TRIPOS>MOLECULE
NONAME
52 54 1 0 0 
SMALL
USER_CHARGES


@<TRIPOS>ATOM
  1 O       -0.9490     0.0020    -1.5310 O.2   1 <1>  -0.5700 
  2 C       -0.5330     1.0700    -1.1400 C.2   1 <1>   0.5690 
  3 N       -1.2910     1.8820    -0.3270 N.am  1 <1>  -0.6600 
  4 C        0.8480     1.4920    -1.6360 C.3   1 <1>   0.1810 
  5 C       -0.8760     3.2150     0.1890 C.3   1 <1>   0.1400 
  6 C       -2.6180     1.4540     0.1860 C.3   1 <1>   0.1400 
  7 O        1.7530     1.7030    -0.5610 O.3   1 <1>  -0.3620 
  8 C       -1.9100     4.2600    -0.2390 C.3   1 <1>  -0.1600 
  9 C       -3.6780     2.4720    -0.2420 C.3   1 <1>  -0.1600 
 10 C        2.9900     2.2130    -0.7780 C.ar  1 <1>   0.0830 
 11 C       -3.3360     3.9030     0.2160 C.3   1 <1>   0.2800 
 12 C        3.7190     2.5770     0.3410 C.ar  1 <1>  -0.1500 
 13 C        3.5440     2.3870    -2.0440 C.ar  1 <1>  -0.1500 
 14 O       -3.3120     3.8940     1.6230 O.3   1 <1>  -0.5600 
 15 C       -4.3330     4.9430    -0.3450 C.3   1 <1>  -0.1600 
 16 C        4.9870     3.1180     0.2170 C.ar  1 <1>   0.0830 
 17 C        4.8120     2.9260    -2.1750 C.ar  1 <1>  -0.1500 
 18 C       -4.2710     4.5990     2.3570 C.3   1 <1>   0.1200 
 19 C       -5.7180     4.9240     0.3300 C.3   1 <1>   0.2800 
 20 O        5.6280     3.4490     1.3660 O.3   1 <1>  -0.3630 
 21 C        5.5350     3.2930    -1.0520 C.ar  1 <1>  -0.1500 
 22 C       -5.6570     4.3710     1.7570 C.3   1 <1>  -0.1600 
 23 O       -6.1290     6.2340     0.4220 O.3   1 <1>  -0.6800 
 24 C       -6.7860     4.2190    -0.5060 C.3   1 <1>  -0.2400 
 25 C        6.9330     3.9840     1.3520 C.3   1 <1>   0.0400 
 26 H        0.7600     2.4050    -2.1940 H     1 <1>   0.0800 
 27 H        1.2520     0.7180    -2.2630 H     1 <1>   0.0800 
 28 H        0.0910     3.5000    -0.1810 H     1 <1>   0.0800 
 29 H       -0.8210     3.1730     1.2640 H     1 <1>   0.0800 
 30 H       -2.5780     1.3950     1.2600 H     1 <1>   0.0800 
 31 H       -2.8790     0.4800    -0.1910 H     1 <1>   0.0800 
 32 H       -1.8850     4.3420    -1.3100 H     1 <1>   0.0800 
 33 H       -1.6320     5.2150     0.1670 H     1 <1>   0.0800 
 34 H       -4.6240     2.1680     0.1590 H     1 <1>   0.0800 
 35 H       -3.7560     2.4440    -1.3130 H     1 <1>   0.0800 
 36 H        3.2960     2.4400     1.3190 H     1 <1>   0.1500 
 37 H        3.0110     2.1070    -2.9320 H     1 <1>   0.1500 
 38 H       -4.4410     4.7930    -1.4040 H     1 <1>   0.0800 
 39 H       -3.8880     5.9140    -0.2190 H     1 <1>   0.0800 
 40 H        5.2390     3.0600    -3.1530 H     1 <1>   0.1500 
 41 H       -4.0060     5.6420     2.3490 H     1 <1>   0.0800 
 42 H       -4.2330     4.2380     3.3710 H     1 <1>   0.0800 
 43 H        6.5150     3.7090    -1.1840 H     1 <1>   0.1500 
 44 H       -6.4140     4.8280     2.3700 H     1 <1>   0.0800 
 45 H       -5.8470     3.3130     1.7590 H     1 <1>   0.0800 
 46 H       -5.4910     6.7420     0.9530 H     1 <1>   0.4000 
 47 H       -6.5380     3.1850    -0.6490 H     1 <1>   0.0800 
 48 H       -6.8720     4.6830    -1.4720 H     1 <1>   0.0800 
 49 H       -7.7380     4.2720    -0.0090 H     1 <1>   0.0800 
 50 H        7.2340     4.1570     2.3690 H     1 <1>   0.0800 
 51 H        6.9230     4.9140     0.8110 H     1 <1>   0.0800 
 52 H        7.5960     3.2750     0.8900 H     1 <1>   0.0800 
@<TRIPOS>BOND
  1   1   2  2   
  2   2   3  am  
  3   2   4  1   
  4   3   5  1   
  5   3   6  1   
  6   4   7  1   
  7   4  26  1   
  8   4  27  1   
  9   5   8  1   
 10   5  28  1   
 11   5  29  1   
 12   6   9  1   
 13   6  30  1   
 14   6  31  1   
 15   7  10  1   
 16   8  11  1   
 17   8  32  1   
 18   8  33  1   
 19   9  11  1   
 20   9  34  1   
 21   9  35  1   
 22  10  12  ar  
 23  10  13  ar  
 24  11  14  1   
 25  11  15  1   
 26  12  16  ar  
 27  12  36  1   
 28  13  17  ar  
 29  13  37  1   
 30  14  18  1   
 31  15  19  1   
 32  15  38  1   
 33  15  39  1   
 34  16  20  1   
 35  16  21  ar  
 36  17  21  ar  
 37  17  40  1   
 38  18  22  1   
 39  18  41  1   
 40  18  42  1   
 41  19  22  1   
 42  19  23  1   
 43  19  24  1   
 44  20  25  1   
 45  21  43  1   
 46  22  44  1   
 47  22  45  1   
 48  23  46  1   
 49  24  47  1   
 50  24  48  1   
 51  24  49  1   
 52  25  50  1   
 53  25  51  1   
 54  25  52  1   
@<TRIPOS>SUBSTRUCTURE
  1 ****   5 GROUP 4 **** **** 0

# MOE 2024.06 (io_trps.svl 2023.06)
