@<TRIPOS>MOLECULE
NONAME
47 50 1 0 0 
SMALL
USER_CHARGES


@<TRIPOS>ATOM
  1 O        0.1420    -0.0080     2.2290 O.3   1 <1>  -0.6800 
  2 C        0.7340    -0.1330     0.9780 C.3   1 <1>   0.2000 
  3 C        1.5220    -1.4440     0.9660 C.3   1 <1>  -0.0800 
  4 C        1.8200     0.9520     0.8510 C.3   1 <1>   0.3430 
  5 C        2.7590    -1.0390     1.7710 C.3   1 <1>   0.3430 
  6 C        1.8250    -1.8900    -0.4930 C.3   1 <1>  -0.0170 
  7 N        3.1110     0.2890     1.2250 N.4   1 <1>  -0.9590 
  8 C        3.2480    -2.3790    -0.7320 C.ar  1 <1>   0.1670 
  9 C        3.9840     1.1120     2.0900 C.3   1 <1>   0.4860 
 10 N        4.1750    -1.4390    -0.8740 N.ar  1 <1>  -0.6200 
 11 C        3.5180    -3.7450    -0.7990 C.ar  1 <1>   0.1600 
 12 C        4.3760     2.3450     1.3050 C.ar  1 <1>  -0.1440 
 13 C        5.3710    -1.9580    -1.1160 C.ar  1 <1>   0.1600 
 14 N        4.7170    -4.2570    -1.0090 N.ar  1 <1>  -0.6200 
 15 C        5.2260     2.2410     0.2240 C.ar  1 <1>  -0.1500 
 16 C        3.8560     3.5970     1.6710 C.ar  1 <1>  -0.1500 
 17 C        5.6330    -3.3210    -1.1780 C.ar  1 <1>   0.1600 
 18 C        5.5570     3.3820    -0.5090 C.ar  1 <1>   0.0000 
 19 C        4.1770     4.7270     0.9570 C.ar  1 <1>  -0.1500 
 20 C        5.0320     4.6170    -0.1430 C.ar  1 <1>  -0.1520 
 21 C        6.3680     3.6110    -1.6380 C.2   1 <1>  -0.1500 
 22 N        5.5070     5.5660    -1.0170 N.pl3 1 <1>   0.0480 
 23 C        6.3170     4.9340    -1.9180 C.2   1 <1>  -0.3020 
 24 C        5.2070     7.0070    -0.9850 C.3   1 <1>   0.0160 
 25 H       -0.6970    -0.5150     2.2830 H     1 <1>   0.4000 
 26 H       -0.0300    -0.0510     0.2230 H     1 <1>   0.0800 
 27 H        0.9940    -2.2340     1.4720 H     1 <1>   0.0800 
 28 H        1.5930     1.7770     1.5050 H     1 <1>   0.0800 
 29 H        1.8820     1.3090    -0.1640 H     1 <1>   0.0800 
 30 H        3.5680    -1.7440     1.6650 H     1 <1>   0.0800 
 31 H        2.4910    -0.9470     2.8120 H     1 <1>   0.0800 
 32 H        1.6560    -1.0780    -1.1800 H     1 <1>   0.0800 
 33 H        1.1290    -2.6630    -0.7700 H     1 <1>   0.0800 
 34 H        3.6310     0.0990     0.3450 H     1 <1>   0.4500 
 35 H        3.4620     1.3920     2.9910 H     1 <1>   0.0800 
 36 H        4.8700     0.5600     2.3580 H     1 <1>   0.0800 
 37 H        2.7120    -4.4480    -0.6740 H     1 <1>   0.1500 
 38 H        6.1890    -1.2760    -1.2750 H     1 <1>   0.1500 
 39 H        5.6510     1.3030    -0.0850 H     1 <1>   0.1500 
 40 H        3.1990     3.6810     2.5200 H     1 <1>   0.1500 
 41 H        6.6400    -3.6490    -1.3760 H     1 <1>   0.1500 
 42 H        3.7840     5.6890     1.2340 H     1 <1>   0.1500 
 43 H        6.9170     2.8460    -2.1580 H     1 <1>   0.1500 
 44 H        6.8130     5.4680    -2.7100 H     1 <1>   0.1500 
 45 H        5.7000     7.4960    -1.8050 H     1 <1>   0.0800 
 46 H        5.5580     7.4200    -0.0580 H     1 <1>   0.0800 
 47 H        4.1460     7.1490    -1.0680 H     1 <1>   0.0800 
@<TRIPOS>BOND
  1   1   2  1   
  2   1  25  1   
  3   2   3  1   
  4   2   4  1   
  5   2  26  1   
  6   3   5  1   
  7   3   6  1   
  8   3  27  1   
  9   4   7  1   
 10   4  28  1   
 11   4  29  1   
 12   5   7  1   
 13   5  30  1   
 14   5  31  1   
 15   6   8  1   
 16   6  32  1   
 17   6  33  1   
 18   7   9  1   
 19   7  34  1   
 20   8  10  ar  
 21   8  11  ar  
 22   9  12  1   
 23   9  35  1   
 24   9  36  1   
 25  10  13  ar  
 26  11  14  ar  
 27  11  37  1   
 28  12  15  ar  
 29  12  16  ar  
 30  13  17  ar  
 31  13  38  1   
 32  14  17  ar  
 33  15  18  ar  
 34  15  39  1   
 35  16  19  ar  
 36  16  40  1   
 37  17  41  1   
 38  18  20  ar  
 39  18  21  1   
 40  19  20  ar  
 41  19  42  1   
 42  20  22  1   
 43  21  23  2   
 44  21  43  1   
 45  22  23  1   
 46  22  24  1   
 47  23  44  1   
 48  24  45  1   
 49  24  46  1   
 50  24  47  1   
@<TRIPOS>SUBSTRUCTURE
  1 ****   7 GROUP 4 **** **** 0

# MOE 2024.06 (io_trps.svl 2023.06)
