@<TRIPOS>MOLECULE
NONAME
51 54 1 0 0 
SMALL
USER_CHARGES


@<TRIPOS>ATOM
  1 O       -1.0230    -0.4220     0.4630 O.3   1 <1>  -0.6800 
  2 C       -2.1000    -1.2830     0.6040 C.3   1 <1>   0.2000 
  3 C       -1.7700    -2.6420    -0.0410 C.3   1 <1>   0.2090 
  4 C       -3.3100    -0.6300    -0.0720 C.3   1 <1>  -0.1600 
  5 N       -2.9700    -3.5440    -0.0130 N.pl3 1 <1>  -0.8380 
  6 C       -4.5040    -1.5990    -0.0950 C.3   1 <1>  -0.1600 
  7 C       -2.9730    -4.8210     0.4550 C.ar  1 <1>   0.4100 
  8 C       -4.1430    -2.9490    -0.7280 C.3   1 <1>   0.2090 
  9 N       -3.7990    -5.6810    -0.1100 N.ar  1 <1>  -0.6200 
 10 C       -2.1290    -5.2140     1.5110 C.ar  1 <1>  -0.1500 
 11 C       -3.7990    -6.9390     0.3040 C.ar  1 <1>   0.7710 
 12 C       -2.1530    -6.5000     1.9320 C.ar  1 <1>   0.2110 
 13 N       -2.9990    -7.3500     1.3040 N.ar  1 <1>  -0.1790 
 14 N       -4.6360    -7.8400    -0.2770 N.pl3 1 <1>  -0.8380 
 15 C       -4.5880    -9.3250    -0.1480 C.3   1 <1>   0.2090 
 16 C       -5.8230    -7.4010    -1.0740 C.3   1 <1>   0.2090 
 17 C       -5.8040    -9.7750     0.6570 C.3   1 <1>  -0.1600 
 18 C       -7.0870    -7.8070    -0.3120 C.3   1 <1>  -0.1600 
 19 C       -7.1220    -9.3130     0.0030 C.3   1 <1>   0.1000 
 20 C       -8.3130    -9.6250     0.9050 C.2   1 <1>   0.0060 
 21 N       -8.2850    -9.5320     2.1920 N.2   1 <1>  -0.3380 
 22 N       -9.5190   -10.0170     0.4730 N.pl3 1 <1>   0.0480 
 23 N       -9.4930    -9.8710     2.6400 N.2   1 <1>  -0.3380 
 24 C      -10.2060   -10.1530     1.6080 C.2   1 <1>   0.0360 
 25 C      -10.0090   -10.2480    -0.8990 C.3   1 <1>   0.0160 
 26 H       -0.2940    -0.6680     1.0630 H     1 <1>   0.4000 
 27 H       -2.2890    -1.4120     1.6560 H     1 <1>   0.0800 
 28 H       -0.9330    -3.0910     0.4590 H     1 <1>   0.0800 
 29 H       -1.4940    -2.4770    -1.0690 H     1 <1>   0.0800 
 30 H       -3.0520    -0.3660    -1.0830 H     1 <1>   0.0800 
 31 H       -3.5800     0.2650     0.4590 H     1 <1>   0.0800 
 32 H       -5.3120    -1.1560    -0.6490 H     1 <1>   0.0800 
 33 H       -4.8520    -1.7710     0.9080 H     1 <1>   0.0800 
 34 H       -5.0000    -3.5990    -0.6730 H     1 <1>   0.0800 
 35 H       -3.8930    -2.8140    -1.7670 H     1 <1>   0.0800 
 36 H       -1.4940    -4.4860     1.9780 H     1 <1>   0.1500 
 37 H       -1.5400    -6.8650     2.7400 H     1 <1>   0.1500 
 38 H       -3.1210    -8.3140     1.5870 H     1 <1>   0.4570 
 39 H       -3.6810    -9.6600     0.3250 H     1 <1>   0.0800 
 40 H       -4.6190    -9.7680    -1.1310 H     1 <1>   0.0800 
 41 H       -5.8020    -7.8740    -2.0420 H     1 <1>   0.0800 
 42 H       -5.8350    -6.3360    -1.2340 H     1 <1>   0.0800 
 43 H       -5.7280    -9.3720     1.6520 H     1 <1>   0.0800 
 44 H       -5.8090   -10.8470     0.7410 H     1 <1>   0.0800 
 45 H       -7.9530    -7.5400    -0.8910 H     1 <1>   0.0800 
 46 H       -7.1310    -7.2490     0.6070 H     1 <1>   0.0800 
 47 H       -7.2320    -9.8520    -0.9220 H     1 <1>   0.0800 
 48 H      -11.2350   -10.4620     1.6430 H     1 <1>   0.1500 
 49 H       -9.8370    -9.3690    -1.4930 H     1 <1>   0.0800 
 50 H      -11.0620   -10.4590    -0.8750 H     1 <1>   0.0800 
 51 H       -9.4880   -11.0850    -1.3270 H     1 <1>   0.0800 
@<TRIPOS>BOND
  1   1   2  1   
  2   1  26  1   
  3   2   3  1   
  4   2   4  1   
  5   2  27  1   
  6   3   5  1   
  7   3  28  1   
  8   3  29  1   
  9   4   6  1   
 10   4  30  1   
 11   4  31  1   
 12   5   7  1   
 13   5   8  1   
 14   6   8  1   
 15   6  32  1   
 16   6  33  1   
 17   7   9  ar  
 18   7  10  ar  
 19   8  34  1   
 20   8  35  1   
 21   9  11  ar  
 22  10  12  ar  
 23  10  36  1   
 24  11  13  ar  
 25  11  14  1   
 26  12  13  ar  
 27  12  37  1   
 28  13  38  1   
 29  14  15  1   
 30  14  16  1   
 31  15  17  1   
 32  15  39  1   
 33  15  40  1   
 34  16  18  1   
 35  16  41  1   
 36  16  42  1   
 37  17  19  1   
 38  17  43  1   
 39  17  44  1   
 40  18  19  1   
 41  18  45  1   
 42  18  46  1   
 43  19  20  1   
 44  19  47  1   
 45  20  21  2   
 46  20  22  1   
 47  21  23  1   
 48  22  24  1   
 49  22  25  1   
 50  23  24  2   
 51  24  48  1   
 52  25  49  1   
 53  25  50  1   
 54  25  51  1   
@<TRIPOS>SUBSTRUCTURE
  1 ****  11 GROUP 4 **** **** 0

# MOE 2024.06 (io_trps.svl 2023.06)
