@<TRIPOS>MOLECULE
NONAME
56 59 1 0 0 
SMALL
USER_CHARGES


@<TRIPOS>ATOM
  1 O       -0.6870     0.2090     0.5320 O.2   1 <1>  -0.5700 
  2 C       -1.7000     0.8520     0.7360 C.2   1 <1>   0.7150 
  3 N       -2.8700     0.1770     0.9940 N.am  1 <1>  -0.6600 
  4 C       -1.6770     2.2830     0.6710 C.2   1 <1>  -0.2370 
  5 C       -2.8930    -1.2960     1.2570 C.3   1 <1>   0.1400 
  6 C       -4.2090     0.7030     0.5850 C.3   1 <1>   0.1400 
  7 N       -1.0020     3.0040    -0.2620 N.pl3 1 <1>   0.3140 
  8 C       -2.2940     3.2060     1.4600 C.2   1 <1>  -0.1500 
  9 C       -3.5530    -2.0510     0.0880 C.3   1 <1>   0.3440 
 10 C       -4.8050    -0.1570    -0.5470 C.3   1 <1>   0.2950 
 11 N       -1.1880     4.3240    -0.1070 N.2   1 <1>  -0.7070 
 12 C       -0.1690     2.4980    -1.3780 C.3   1 <1>   0.0960 
 13 C       -1.9590     4.4390     0.9340 C.2   1 <1>   0.1080 
 14 O       -4.8190    -1.5070    -0.1840 O.3   1 <1>  -0.5600 
 15 C       -3.6870    -3.5350     0.4160 C.ar  1 <1>  -0.1430 
 16 C       -6.2460     0.2530    -0.8620 C.3   1 <1>  -0.1950 
 17 C       -1.0330     1.9090    -2.5020 C.3   1 <1>  -0.2400 
 18 C       -2.4340     5.7770     1.4950 C.3   1 <1>   0.1010 
 19 C       -2.6500    -4.4010     0.0980 C.ar  1 <1>  -0.1500 
 20 C       -4.8190    -4.0430     1.0400 C.ar  1 <1>  -0.1500 
 21 C       -6.8610    -0.0380    -2.1940 C.3   1 <1>  -0.2000 
 22 C       -6.5370     1.3780    -1.8070 C.3   1 <1>  -0.2000 
 23 C       -3.3120     6.5100     0.4750 C.3   1 <1>  -0.2400 
 24 C       -1.2420     6.6510     1.9030 C.3   1 <1>  -0.2400 
 25 C       -2.7410    -5.7490     0.3980 C.ar  1 <1>  -0.1500 
 26 C       -4.9120    -5.3910     1.3410 C.ar  1 <1>  -0.1500 
 27 C       -3.8720    -6.2450     1.0200 C.ar  1 <1>  -0.1500 
 28 H       -1.8970    -1.6740     1.4070 H     1 <1>   0.0800 
 29 H       -3.4510    -1.4880     2.1560 H     1 <1>   0.0800 
 30 H       -4.8700     0.6860     1.4330 H     1 <1>   0.0800 
 31 H       -4.1370     1.7180     0.2390 H     1 <1>   0.0800 
 32 H       -2.9150     3.0270     2.3190 H     1 <1>   0.1500 
 33 H       -2.9490    -1.9410    -0.7970 H     1 <1>   0.0800 
 34 H       -4.2030    -0.0560    -1.4340 H     1 <1>   0.0800 
 35 H        0.4080     3.3220    -1.7600 H     1 <1>   0.0800 
 36 H        0.5150     1.7620    -0.9980 H     1 <1>   0.0800 
 37 H       -6.8860     0.1620    -0.0010 H     1 <1>   0.1000 
 38 H       -1.7190     2.6530    -2.8670 H     1 <1>   0.0800 
 39 H       -1.5800     1.0540    -2.1500 H     1 <1>   0.0800 
 40 H       -0.4020     1.5970    -3.3150 H     1 <1>   0.0800 
 41 H       -3.0250     5.5830     2.3730 H     1 <1>   0.0800 
 42 H       -1.7620    -4.0300    -0.3850 H     1 <1>   0.1500 
 43 H       -5.6360    -3.3880     1.2910 H     1 <1>   0.1500 
 44 H       -6.2620    -0.5290    -2.9420 H     1 <1>   0.1000 
 45 H       -7.8900    -0.3520    -2.2230 H     1 <1>   0.1000 
 46 H       -7.3510     2.0470    -1.5840 H     1 <1>   0.1000 
 47 H       -5.7280     1.8710    -2.3180 H     1 <1>   0.1000 
 48 H       -2.7450     6.7200    -0.4150 H     1 <1>   0.0800 
 49 H       -3.6750     7.4340     0.8840 H     1 <1>   0.0800 
 50 H       -4.1510     5.8950     0.2040 H     1 <1>   0.0800 
 51 H       -0.6330     6.8700     1.0420 H     1 <1>   0.0800 
 52 H       -0.6360     6.1300     2.6220 H     1 <1>   0.0800 
 53 H       -1.5800     7.5750     2.3360 H     1 <1>   0.0800 
 54 H       -1.9310    -6.4120     0.1470 H     1 <1>   0.1500 
 55 H       -5.7950    -5.7740     1.8220 H     1 <1>   0.1500 
 56 H       -3.9440    -7.2930     1.2530 H     1 <1>   0.1500 
@<TRIPOS>BOND
  1   1   2  2   
  2   2   3  am  
  3   2   4  1   
  4   3   5  1   
  5   3   6  1   
  6   4   7  1   
  7   4   8  2   
  8   5   9  1   
  9   5  28  1   
 10   5  29  1   
 11   6  10  1   
 12   6  30  1   
 13   6  31  1   
 14   7  11  1   
 15   7  12  1   
 16   8  13  1   
 17   8  32  1   
 18   9  14  1   
 19   9  15  1   
 20   9  33  1   
 21  10  14  1   
 22  10  16  1   
 23  10  34  1   
 24  11  13  2   
 25  12  17  1   
 26  12  35  1   
 27  12  36  1   
 28  13  18  1   
 29  15  19  ar  
 30  15  20  ar  
 31  16  21  1   
 32  16  22  1   
 33  16  37  1   
 34  17  38  1   
 35  17  39  1   
 36  17  40  1   
 37  18  23  1   
 38  18  24  1   
 39  18  41  1   
 40  19  25  ar  
 41  19  42  1   
 42  20  26  ar  
 43  20  43  1   
 44  21  22  1   
 45  21  44  1   
 46  21  45  1   
 47  22  46  1   
 48  22  47  1   
 49  23  48  1   
 50  23  49  1   
 51  23  50  1   
 52  24  51  1   
 53  24  52  1   
 54  24  53  1   
 55  25  27  ar  
 56  25  54  1   
 57  26  27  ar  
 58  26  55  1   
 59  27  56  1   
@<TRIPOS>SUBSTRUCTURE
  1 ****   3 GROUP 4 **** **** 0

# MOE 2024.06 (io_trps.svl 2023.06)
