@<TRIPOS>MOLECULE
NONAME
48 50 1 0 0 
SMALL
USER_CHARGES


@<TRIPOS>ATOM
  1 O       -1.7660     0.1230    -2.1410 O.2   1 <1>  -0.5700 
  2 C       -1.6700     0.4420    -0.9720 C.2   1 <1>   0.5440 
  3 N       -1.7750    -0.5430    -0.0330 N.am  1 <1>  -0.7300 
  4 C       -1.4550     1.8280    -0.5860 C.ar  1 <1>   0.0860 
  5 C       -1.9530    -1.9870    -0.3160 C.3   1 <1>   0.2200 
  6 C       -1.7480     2.2990     0.6970 C.ar  1 <1>  -0.1500 
  7 C       -0.9420     2.7530    -1.4960 C.ar  1 <1>  -0.1500 
  8 C       -3.3870    -2.4280    -0.0580 C.3   1 <1>  -0.0800 
  9 C       -1.2210    -2.7870     0.7520 C.3   1 <1>   0.1200 
 10 C       -1.5290     3.6180     1.0510 C.ar  1 <1>  -0.1500 
 11 C       -0.7220     4.0720    -1.1470 C.ar  1 <1>  -0.1500 
 12 C       -3.4000    -2.6960     1.4520 C.3   1 <1>   0.1200 
 13 C       -4.4860    -1.4630    -0.5420 C.3   1 <1>  -0.0160 
 14 O       -2.0650    -2.7620     1.8630 O.3   1 <1>  -0.5600 
 15 C       -1.0110     4.5150     0.1320 C.ar  1 <1>  -0.1430 
 16 C       -5.8670    -2.0590    -0.3180 C.ar  1 <1>  -0.1430 
 17 C       -0.7680     5.9650     0.5200 C.3   1 <1>  -0.0170 
 18 C       -6.4110    -2.9750    -1.1950 C.ar  1 <1>  -0.1500 
 19 C       -6.6470    -1.7190     0.7700 C.ar  1 <1>  -0.1500 
 20 C       -2.0150     6.8130     0.2490 C.3   1 <1>  -0.1600 
 21 C       -7.6700    -3.4970    -0.9470 C.ar  1 <1>   0.1600 
 22 C       -7.8940    -2.3000     0.9260 C.ar  1 <1>   0.1600 
 23 C       -1.7950     8.2800     0.6330 C.3   1 <1>  -0.2400 
 24 N       -8.4240    -3.1830     0.0950 N.ar  1 <1>  -0.6200 
 25 H       -1.6670    -0.3290     0.9600 H     1 <1>   0.3700 
 26 H       -1.6150    -2.2270    -1.3110 H     1 <1>   0.0800 
 27 H       -2.1600     1.6320     1.4310 H     1 <1>   0.1500 
 28 H       -0.7130     2.4250    -2.4960 H     1 <1>   0.1500 
 29 H       -3.5320    -3.3720    -0.5520 H     1 <1>   0.0800 
 30 H       -0.2650    -2.3670     1.0080 H     1 <1>   0.0800 
 31 H       -1.1040    -3.8130     0.4480 H     1 <1>   0.0800 
 32 H       -1.7650     3.9490     2.0480 H     1 <1>   0.1500 
 33 H       -0.3250     4.7550    -1.8780 H     1 <1>   0.1500 
 34 H       -3.8860    -3.6280     1.6860 H     1 <1>   0.0800 
 35 H       -3.8690    -1.8940     1.9950 H     1 <1>   0.0800 
 36 H       -4.3480    -1.2640    -1.5910 H     1 <1>   0.0800 
 37 H       -4.4160    -0.5220    -0.0260 H     1 <1>   0.0800 
 38 H       -0.5100     6.0200     1.5640 H     1 <1>   0.0800 
 39 H        0.0640     6.3530    -0.0410 H     1 <1>   0.0800 
 40 H       -5.8690    -3.2860    -2.0690 H     1 <1>   0.1500 
 41 H       -6.2980    -1.0080     1.4960 H     1 <1>   0.1500 
 42 H       -2.2660     6.7520    -0.7970 H     1 <1>   0.0800 
 43 H       -2.8440     6.4170     0.8100 H     1 <1>   0.0800 
 44 H       -8.0780    -4.2100    -1.6420 H     1 <1>   0.1500 
 45 H       -8.4890    -2.0240     1.7800 H     1 <1>   0.1500 
 46 H       -0.9850     8.7020     0.0640 H     1 <1>   0.0800 
 47 H       -1.5660     8.3660     1.6810 H     1 <1>   0.0800 
 48 H       -2.6850     8.8500     0.4320 H     1 <1>   0.0800 
@<TRIPOS>BOND
  1   1   2  2   
  2   2   3  am  
  3   2   4  1   
  4   3   5  1   
  5   3  25  1   
  6   4   6  ar  
  7   4   7  ar  
  8   5   8  1   
  9   5   9  1   
 10   5  26  1   
 11   6  10  ar  
 12   6  27  1   
 13   7  11  ar  
 14   7  28  1   
 15   8  12  1   
 16   8  13  1   
 17   8  29  1   
 18   9  14  1   
 19   9  30  1   
 20   9  31  1   
 21  10  15  ar  
 22  10  32  1   
 23  11  15  ar  
 24  11  33  1   
 25  12  14  1   
 26  12  34  1   
 27  12  35  1   
 28  13  16  1   
 29  13  36  1   
 30  13  37  1   
 31  15  17  1   
 32  16  18  ar  
 33  16  19  ar  
 34  17  20  1   
 35  17  38  1   
 36  17  39  1   
 37  18  21  ar  
 38  18  40  1   
 39  19  22  ar  
 40  19  41  1   
 41  20  23  1   
 42  20  42  1   
 43  20  43  1   
 44  21  24  ar  
 45  21  44  1   
 46  22  24  ar  
 47  22  45  1   
 48  23  46  1   
 49  23  47  1   
 50  23  48  1   
@<TRIPOS>SUBSTRUCTURE
  1 ****   3 GROUP 4 **** **** 0

# MOE 2024.06 (io_trps.svl 2023.06)
