@<TRIPOS>MOLECULE
NONAME
59 61 1 0 0 
SMALL
USER_CHARGES


@<TRIPOS>ATOM
  1 O        0.4110    -0.2990    -0.0650 O.2   1 <1>  -0.5700 
  2 C        1.5850    -0.5360    -0.2150 C.2   1 <1>   0.5690 
  3 N        2.5720     0.4000    -0.1160 N.am  1 <1>  -0.4940 
  4 C        1.9930    -1.9750    -0.5220 C.3   1 <1>  -0.0190 
  5 C        2.5810     1.7710     0.2100 C.2   1 <1>  -0.0880 
  6 C        1.3390    -2.4680    -1.8270 C.3   1 <1>  -0.1600 
  7 C        1.6210    -2.9060     0.6480 C.3   1 <1>  -0.1600 
  8 N        1.6120     2.7070     0.0270 N.pl3 1 <1>   0.3140 
  9 C        3.6560     2.4120     0.7530 C.2   1 <1>  -0.0540 
 10 C        1.6160    -3.9480    -2.0860 C.3   1 <1>   0.3430 
 11 C        1.8880    -4.3750     0.3250 C.3   1 <1>   0.3430 
 12 N        2.0370     3.9300     0.4080 N.2   1 <1>  -0.7070 
 13 C        0.2760     2.5610    -0.5660 C.3   1 <1>   0.0160 
 14 C        4.9220     1.8410     1.1630 C.ar  1 <1>   0.0540 
 15 C        3.2420     3.7470     0.8330 C.2   1 <1>   0.1080 
 16 N        1.1550    -4.7530    -0.9190 N.4   1 <1>  -0.9590 
 17 C        5.7000     1.0090     0.3410 C.ar  1 <1>   0.0820 
 18 C        5.3990     2.0950     2.4470 C.ar  1 <1>  -0.1500 
 19 C        4.0780     4.9030     1.3400 C.3   1 <1>  -0.0590 
 20 C        1.2780    -6.2160    -1.2270 C.3   1 <1>   0.3430 
 21 O        5.3160     0.6820    -0.9160 O.3   1 <1>  -0.3620 
 22 C        6.8910     0.4680     0.7940 C.ar  1 <1>  -0.1500 
 23 C        6.5930     1.5620     2.8980 C.ar  1 <1>  -0.1500 
 24 C        0.5520    -7.1080    -0.2130 C.3   1 <1>   0.1200 
 25 C        5.4250     1.7040    -1.8860 C.3   1 <1>   0.0400 
 26 C        7.3430     0.7460     2.0710 C.ar  1 <1>  -0.1500 
 27 O        0.7350    -8.4190    -0.6230 O.3   1 <1>  -0.5600 
 28 C        0.1120    -9.3710     0.1830 C.3   1 <1>   0.0400 
 29 H        3.5300     0.0510    -0.2420 H     1 <1>   0.3700 
 30 H        3.0620    -2.0060    -0.6500 H     1 <1>   0.0800 
 31 H        1.7140    -1.8900    -2.6540 H     1 <1>   0.0800 
 32 H        0.2740    -2.3130    -1.7880 H     1 <1>   0.0800 
 33 H        0.5810    -2.7850     0.8980 H     1 <1>   0.0800 
 34 H        2.1900    -2.6270     1.5180 H     1 <1>   0.0800 
 35 H        2.6730    -4.0980    -2.2400 H     1 <1>   0.0800 
 36 H        1.0960    -4.2580    -2.9790 H     1 <1>   0.0800 
 37 H        1.5600    -4.9830     1.1530 H     1 <1>   0.0800 
 38 H        2.9460    -4.5300     0.1890 H     1 <1>   0.0800 
 39 H        0.3350     1.9220    -1.4260 H     1 <1>   0.0800 
 40 H       -0.0880     3.5280    -0.8600 H     1 <1>   0.0800 
 41 H       -0.3860     2.1360     0.1640 H     1 <1>   0.0800 
 42 H        0.1590    -4.5310    -0.7780 H     1 <1>   0.4500 
 43 H        4.8180     2.7140     3.1070 H     1 <1>   0.1500 
 44 H        5.1200     4.7240     1.1530 H     1 <1>   0.0800 
 45 H        3.9180     5.0280     2.3940 H     1 <1>   0.0800 
 46 H        3.7860     5.8060     0.8360 H     1 <1>   0.0800 
 47 H        2.3190    -6.4960    -1.2510 H     1 <1>   0.0800 
 48 H        0.8560    -6.4140    -2.1990 H     1 <1>   0.0800 
 49 H        7.4660    -0.1670     0.1450 H     1 <1>   0.1500 
 50 H        6.9380     1.7780     3.8950 H     1 <1>   0.1500 
 51 H       -0.5040    -6.8980    -0.2060 H     1 <1>   0.0800 
 52 H        0.9690    -7.0040     0.7730 H     1 <1>   0.0800 
 53 H        5.1910     1.2850    -2.8480 H     1 <1>   0.0800 
 54 H        6.4340     2.0790    -1.8840 H     1 <1>   0.0800 
 55 H        4.7330     2.4940    -1.6550 H     1 <1>   0.0800 
 56 H        8.2730     0.3280     2.4200 H     1 <1>   0.1500 
 57 H        0.3200   -10.3440    -0.2270 H     1 <1>   0.0800 
 58 H       -0.9510    -9.2020     0.1830 H     1 <1>   0.0800 
 59 H        0.5070    -9.3100     1.1820 H     1 <1>   0.0800 
@<TRIPOS>BOND
  1   1   2  2   
  2   2   3  am  
  3   2   4  1   
  4   3   5  1   
  5   3  29  1   
  6   4   6  1   
  7   4   7  1   
  8   4  30  1   
  9   5   8  1   
 10   5   9  2   
 11   6  10  1   
 12   6  31  1   
 13   6  32  1   
 14   7  11  1   
 15   7  33  1   
 16   7  34  1   
 17   8  12  1   
 18   8  13  1   
 19   9  14  1   
 20   9  15  1   
 21  10  16  1   
 22  10  35  1   
 23  10  36  1   
 24  11  16  1   
 25  11  37  1   
 26  11  38  1   
 27  12  15  2   
 28  13  39  1   
 29  13  40  1   
 30  13  41  1   
 31  14  17  ar  
 32  14  18  ar  
 33  15  19  1   
 34  16  20  1   
 35  16  42  1   
 36  17  21  1   
 37  17  22  ar  
 38  18  23  ar  
 39  18  43  1   
 40  19  44  1   
 41  19  45  1   
 42  19  46  1   
 43  20  24  1   
 44  20  47  1   
 45  20  48  1   
 46  21  25  1   
 47  22  26  ar  
 48  22  49  1   
 49  23  26  ar  
 50  23  50  1   
 51  24  27  1   
 52  24  51  1   
 53  24  52  1   
 54  25  53  1   
 55  25  54  1   
 56  25  55  1   
 57  26  56  1   
 58  27  28  1   
 59  28  57  1   
 60  28  58  1   
 61  28  59  1   
@<TRIPOS>SUBSTRUCTURE
  1 ****   3 GROUP 4 **** **** 0

# MOE 2024.06 (io_trps.svl 2023.06)
