@<TRIPOS>MOLECULE
NONAME
43 45 1 0 0 
SMALL
USER_CHARGES


@<TRIPOS>ATOM
  1 F        2.7050     0.7210     1.2350 F     1 <1>  -0.1900 
  2 C        2.8330    -0.2650     0.3840 C.ar  1 <1>   0.1900 
  3 C        1.8150    -1.2000     0.2980 C.ar  1 <1>   0.1900 
  4 C        3.9810    -0.3580    -0.4020 C.ar  1 <1>   0.0860 
  5 F        0.7510    -1.0620     1.0500 F     1 <1>  -0.1900 
  6 C        1.8930    -2.2810    -0.5660 C.ar  1 <1>  -0.1440 
  7 C        5.0600     0.6110    -0.3550 C.2   1 <1>   0.5440 
  8 C        4.0520    -1.4600    -1.2610 C.ar  1 <1>  -0.1500 
  9 C        3.0340    -2.3990    -1.3460 C.ar  1 <1>  -0.1500 
 10 C        0.7740    -3.3090    -0.6590 C.3   1 <1>  -0.0960 
 11 O        6.2100     0.2770    -0.5690 O.2   1 <1>  -0.5700 
 12 N        4.8520     1.9540    -0.1680 N.am  1 <1>  -0.6600 
 13 C        5.8190     2.7330     0.6910 C.3   1 <1>   0.2200 
 14 C        3.9420     2.6870    -1.0910 C.3   1 <1>   0.1400 
 15 C        5.1830     3.9800     1.3270 C.3   1 <1>   0.1200 
 16 C        7.0900     3.1210    -0.1020 C.3   1 <1>   0.3430 
 17 C        4.5140     4.0310    -1.5830 C.3   1 <1>  -0.0800 
 18 O        5.2830     5.0750     0.4630 O.3   1 <1>  -0.5600 
 19 N        6.8890     2.9870    -1.5840 N.4   1 <1>  -0.9590 
 20 C        4.3270     5.1450    -0.5400 C.3   1 <1>   0.1200 
 21 C        5.9470     3.9990    -2.1710 C.3   1 <1>   0.3430 
 22 C        8.1920     2.9420    -2.3030 C.3   1 <1>   0.2630 
 23 H        4.9280    -1.5860    -1.8750 H     1 <1>   0.1500 
 24 H        3.1370    -3.2290    -2.0250 H     1 <1>   0.1500 
 25 H        1.0040    -4.0690    -1.3840 H     1 <1>   0.0800 
 26 H       -0.1450    -2.8290    -0.9470 H     1 <1>   0.0800 
 27 H        0.6300    -3.7820     0.2970 H     1 <1>   0.0800 
 28 H        6.1190     2.0920     1.5030 H     1 <1>   0.0800 
 29 H        3.7390     2.0640    -1.9460 H     1 <1>   0.0800 
 30 H        3.0020     2.8550    -0.5900 H     1 <1>   0.0800 
 31 H        5.7340     4.2410     2.2140 H     1 <1>   0.0800 
 32 H        4.1560     3.8120     1.6060 H     1 <1>   0.0800 
 33 H        7.8790     2.4550     0.2050 H     1 <1>   0.0800 
 34 H        7.3920     4.1250     0.1500 H     1 <1>   0.0800 
 35 H        3.8760     4.3290    -2.3960 H     1 <1>   0.0800 
 36 H        6.4400     2.0510    -1.6510 H     1 <1>   0.4500 
 37 H        3.3480     5.1130    -0.0920 H     1 <1>   0.0800 
 38 H        4.4430     6.1080    -1.0100 H     1 <1>   0.0800 
 39 H        6.3780     4.9820    -2.0720 H     1 <1>   0.0800 
 40 H        5.8600     3.7950    -3.2260 H     1 <1>   0.0800 
 41 H        8.7110     3.8800    -2.1970 H     1 <1>   0.0800 
 42 H        8.0330     2.7480    -3.3520 H     1 <1>   0.0800 
 43 H        8.8100     2.1550    -1.9010 H     1 <1>   0.0800 
@<TRIPOS>BOND
  1   1   2  1   
  2   2   3  ar  
  3   2   4  ar  
  4   3   5  1   
  5   3   6  ar  
  6   4   7  1   
  7   4   8  ar  
  8   6   9  ar  
  9   6  10  1   
 10   7  11  2   
 11   7  12  am  
 12   8   9  ar  
 13   8  23  1   
 14   9  24  1   
 15  10  25  1   
 16  10  26  1   
 17  10  27  1   
 18  12  13  1   
 19  12  14  1   
 20  13  15  1   
 21  13  16  1   
 22  13  28  1   
 23  14  17  1   
 24  14  29  1   
 25  14  30  1   
 26  15  18  1   
 27  15  31  1   
 28  15  32  1   
 29  16  19  1   
 30  16  33  1   
 31  16  34  1   
 32  17  20  1   
 33  17  21  1   
 34  17  35  1   
 35  18  20  1   
 36  19  21  1   
 37  19  22  1   
 38  19  36  1   
 39  20  37  1   
 40  20  38  1   
 41  21  39  1   
 42  21  40  1   
 43  22  41  1   
 44  22  42  1   
 45  22  43  1   
@<TRIPOS>SUBSTRUCTURE
  1 ****  12 GROUP 4 **** **** 0

# MOE 2024.06 (io_trps.svl 2023.06)
