@<TRIPOS>MOLECULE
NONAME
38 39 1 0 0 
SMALL
USER_CHARGES


@<TRIPOS>ATOM
  1 S        0.5830     0.7880     1.2430 S.3   1 <1>  -0.0800 
  2 C        1.8030    -0.0830     0.3230 C.2   1 <1>  -0.1400 
  3 C       -0.7030    -0.1640     0.5230 C.2   1 <1>  -0.1100 
  4 C        1.2260    -1.0170    -0.4550 C.2   1 <1>  -0.1500 
  5 C        3.2530     0.3110     0.5260 C.3   1 <1>   0.0200 
  6 C       -0.2010    -1.0630    -0.3430 C.2   1 <1>  -0.1500 
  7 C        3.5300     1.6920    -0.0780 C.3   1 <1>  -0.1600 
  8 C        4.9870     2.1330     0.1460 C.3   1 <1>  -0.0990 
  9 C        5.2820     3.4800    -0.4870 C.2   1 <1>   0.5690 
 10 O        6.0570     3.5230    -1.4090 O.2   1 <1>  -0.5700 
 11 N        4.6430     4.5730     0.0240 N.am  1 <1>  -0.4940 
 12 C        4.6550     5.9290    -0.3790 C.2   1 <1>  -0.0880 
 13 N        5.7250     6.6910    -0.7590 N.pl3 1 <1>   0.3140 
 14 C        3.5730     6.7440    -0.4240 C.2   1 <1>  -0.1810 
 15 N        5.3430     7.9620    -1.0330 N.2   1 <1>  -0.7070 
 16 C        7.1650     6.3450    -0.8140 C.3   1 <1>   0.0960 
 17 C        4.0640     7.9770    -0.8360 C.2   1 <1>   0.1390 
 18 C        2.1190     6.4380    -0.1140 C.3   1 <1>  -0.0590 
 19 C        7.7360     6.0350     0.5770 C.3   1 <1>  -0.2400 
 20 H       -1.7110     0.0540     0.8280 H     1 <1>   0.1500 
 21 H        1.7450    -1.6890    -1.1160 H     1 <1>   0.1500 
 22 H        3.8840    -0.4220     0.0550 H     1 <1>   0.0800 
 23 H        3.4710     0.3120     1.5800 H     1 <1>   0.0800 
 24 H       -0.7760    -1.7680    -0.9170 H     1 <1>   0.1500 
 25 H        2.8610     2.4110     0.3610 H     1 <1>   0.0800 
 26 H        3.3270     1.6580    -1.1360 H     1 <1>   0.0800 
 27 H        5.6520     1.4040    -0.2840 H     1 <1>   0.0800 
 28 H        5.2000     2.1920     1.1970 H     1 <1>   0.0800 
 29 H        3.9400     4.3600     0.7300 H     1 <1>   0.3700 
 30 H        7.6880     7.1880    -1.2300 H     1 <1>   0.0800 
 31 H        7.3050     5.5190    -1.4830 H     1 <1>   0.0800 
 32 H        3.4590     8.8560    -0.9770 H     1 <1>   0.1500 
 33 H        1.9690     5.3810     0.0030 H     1 <1>   0.0800 
 34 H        1.4960     6.7820    -0.9200 H     1 <1>   0.0800 
 35 H        1.8250     6.9370     0.7910 H     1 <1>   0.0800 
 36 H        7.5910     6.8770     1.2300 H     1 <1>   0.0800 
 37 H        8.7900     5.8390     0.4980 H     1 <1>   0.0800 
 38 H        7.2600     5.1680     0.9950 H     1 <1>   0.0800 
@<TRIPOS>BOND
  1   1   2  1   
  2   1   3  1   
  3   2   4  2   
  4   2   5  1   
  5   3   6  2   
  6   3  20  1   
  7   4   6  1   
  8   4  21  1   
  9   5   7  1   
 10   5  22  1   
 11   5  23  1   
 12   6  24  1   
 13   7   8  1   
 14   7  25  1   
 15   7  26  1   
 16   8   9  1   
 17   8  27  1   
 18   8  28  1   
 19   9  10  2   
 20   9  11  am  
 21  11  12  1   
 22  11  29  1   
 23  12  13  1   
 24  12  14  2   
 25  13  15  1   
 26  13  16  1   
 27  14  17  1   
 28  14  18  1   
 29  15  17  2   
 30  16  19  1   
 31  16  30  1   
 32  16  31  1   
 33  17  32  1   
 34  18  33  1   
 35  18  34  1   
 36  18  35  1   
 37  19  36  1   
 38  19  37  1   
 39  19  38  1   
@<TRIPOS>SUBSTRUCTURE
  1 ****  11 GROUP 4 **** **** 0

# MOE 2024.06 (io_trps.svl 2023.06)
