@<TRIPOS>MOLECULE
NONAME
49 51 1 0 0 
SMALL
USER_CHARGES


@<TRIPOS>ATOM
  1 CL       2.1000     0.2600    -1.7300 Cl    1 <1>  -0.1770 
  2 C        2.5880    -1.0640    -0.7050 C.ar  1 <1>   0.1770 
  3 C        2.0490    -2.3150    -0.9200 C.ar  1 <1>  -0.1500 
  4 C        3.5050    -0.8350     0.3020 C.ar  1 <1>  -0.1500 
  5 C        2.4170    -3.3910    -0.1120 C.ar  1 <1>   0.0860 
  6 C        3.8930    -1.8880     1.1140 C.ar  1 <1>  -0.1440 
  7 C        1.8620    -4.7200    -0.3110 C.2   1 <1>   0.5440 
  8 C        3.3520    -3.1460     0.8980 C.ar  1 <1>  -0.1500 
  9 C        4.9060    -1.6600     2.2210 C.3   1 <1>  -0.0960 
 10 O        2.5200    -5.7120    -0.0560 O.2   1 <1>  -0.5700 
 11 N        0.5720    -4.9210    -0.7570 N.am  1 <1>  -0.6600 
 12 C        0.2030    -6.2490    -1.3110 C.3   1 <1>   0.1400 
 13 C       -0.5680    -4.2020    -0.1280 C.3   1 <1>   0.1400 
 14 C       -0.2910    -7.1450    -0.1530 C.3   1 <1>   0.4230 
 15 C       -1.1030    -5.0650     1.0250 C.3   1 <1>  -0.1600 
 16 N       -0.4890    -8.6040    -0.5380 N.4   1 <1>  -0.9590 
 17 C       -1.5010    -6.5110     0.5990 C.3   1 <1>   0.0000 
 18 C       -1.3360    -9.3800     0.4240 C.3   1 <1>   0.3430 
 19 C       -0.9510    -8.8480    -1.9440 C.3   1 <1>   0.2630 
 20 C       -1.8000    -7.3440     1.8820 C.3   1 <1>  -0.1600 
 21 C       -2.7490    -6.4750    -0.3290 C.3   1 <1>   0.1200 
 22 C       -1.2560    -8.7850     1.8290 C.3   1 <1>  -0.1600 
 23 O       -3.7880    -5.7540     0.2350 O.3   1 <1>  -0.6800 
 24 H        1.3460    -2.4540    -1.7210 H     1 <1>   0.1500 
 25 H        3.9070     0.1530     0.4410 H     1 <1>   0.1500 
 26 H        3.6590    -3.9690     1.5210 H     1 <1>   0.1500 
 27 H        4.8510    -2.4420     2.9570 H     1 <1>   0.0800 
 28 H        4.7200    -0.7210     2.7110 H     1 <1>   0.0800 
 29 H        5.8990    -1.6450     1.8080 H     1 <1>   0.0800 
 30 H       -0.5510    -6.1140    -2.0640 H     1 <1>   0.0800 
 31 H        1.0690    -6.6920    -1.7720 H     1 <1>   0.0800 
 32 H       -0.2490    -3.2480     0.2570 H     1 <1>   0.0800 
 33 H       -1.3380    -4.0230    -0.8610 H     1 <1>   0.0800 
 34 H        0.5180    -7.1340     0.5600 H     1 <1>   0.0800 
 35 H       -0.3300    -5.1060     1.7730 H     1 <1>   0.0800 
 36 H       -1.9380    -4.5580     1.4770 H     1 <1>   0.0800 
 37 H        0.4590    -9.0050    -0.4650 H     1 <1>   0.4500 
 38 H       -2.3650    -9.3590     0.1040 H     1 <1>   0.0800 
 39 H       -1.0160   -10.4110     0.4450 H     1 <1>   0.0800 
 40 H       -1.9230    -8.4120    -2.1040 H     1 <1>   0.0800 
 41 H       -1.0140    -9.9070    -2.1370 H     1 <1>   0.0800 
 42 H       -0.2580    -8.4190    -2.6500 H     1 <1>   0.0800 
 43 H       -1.3690    -6.8730     2.7500 H     1 <1>   0.0800 
 44 H       -2.8600    -7.3800     2.0620 H     1 <1>   0.0800 
 45 H       -3.1190    -7.4640    -0.5310 H     1 <1>   0.0800 
 46 H       -2.5270    -5.9980    -1.2660 H     1 <1>   0.0800 
 47 H       -1.8210    -9.4000     2.5080 H     1 <1>   0.0800 
 48 H       -0.2320    -8.8080     2.1630 H     1 <1>   0.0800 
 49 H       -4.1140    -6.1570     1.0640 H     1 <1>   0.4000 
@<TRIPOS>BOND
  1   1   2  1   
  2   2   3  ar  
  3   2   4  ar  
  4   3   5  ar  
  5   3  24  1   
  6   4   6  ar  
  7   4  25  1   
  8   5   7  1   
  9   5   8  ar  
 10   6   8  ar  
 11   6   9  1   
 12   7  10  2   
 13   7  11  am  
 14   8  26  1   
 15   9  27  1   
 16   9  28  1   
 17   9  29  1   
 18  11  12  1   
 19  11  13  1   
 20  12  14  1   
 21  12  30  1   
 22  12  31  1   
 23  13  15  1   
 24  13  32  1   
 25  13  33  1   
 26  14  16  1   
 27  14  17  1   
 28  14  34  1   
 29  15  17  1   
 30  15  35  1   
 31  15  36  1   
 32  16  18  1   
 33  16  19  1   
 34  16  37  1   
 35  17  20  1   
 36  17  21  1   
 37  18  22  1   
 38  18  38  1   
 39  18  39  1   
 40  19  40  1   
 41  19  41  1   
 42  19  42  1   
 43  20  22  1   
 44  20  43  1   
 45  20  44  1   
 46  21  23  1   
 47  21  45  1   
 48  21  46  1   
 49  22  47  1   
 50  22  48  1   
 51  23  49  1   
@<TRIPOS>SUBSTRUCTURE
  1 ****  11 GROUP 4 **** **** 0

# MOE 2024.06 (io_trps.svl 2023.06)
