@<TRIPOS>MOLECULE
NONAME
45 47 1 0 0 
SMALL
USER_CHARGES


@<TRIPOS>ATOM
  1 O        0.2330     1.1090     0.1320 O.2   1 <1>  -0.5700 
  2 C       -0.0110     2.2570    -0.1560 C.2   1 <1>   0.5690 
  3 N       -0.7220     3.0860     0.6700 N.am  1 <1>  -0.6600 
  4 C        0.4790     2.7820    -1.5070 C.3   1 <1>   0.1810 
  5 C       -1.0560     4.4910     0.2610 C.3   1 <1>   0.3640 
  6 C       -1.1340     2.6830     2.0460 C.3   1 <1>   0.0600 
  7 O        0.5950     4.1830    -1.5320 O.3   1 <1>  -0.5600 
  8 C       -2.5510     4.7870     0.4610 C.ar  1 <1>  -0.1430 
  9 C       -0.5940     4.8670    -1.1710 C.3   1 <1>   0.2610 
 10 C       -3.5940     3.9950    -0.0320 C.ar  1 <1>  -0.1430 
 11 C       -2.8660     5.9310     1.1850 C.ar  1 <1>  -0.1500 
 12 C       -0.3740     6.3800    -1.2490 C.2   1 <1>   0.5690 
 13 C       -4.9080     4.3650     0.2190 C.ar  1 <1>  -0.1500 
 14 C       -3.3810     2.7170    -0.8370 C.3   1 <1>  -0.0960 
 15 C       -4.1780     6.2910     1.4260 C.ar  1 <1>  -0.1500 
 16 O       -1.3030     7.1140    -1.4810 O.2   1 <1>  -0.5700 
 17 N        0.8700     6.8810    -1.0480 N.am  1 <1>  -0.7300 
 18 C       -5.2030     5.5040     0.9420 C.ar  1 <1>  -0.1500 
 19 C        1.2230     8.3230    -1.0730 C.3   1 <1>   0.3210 
 20 C        2.5610     8.6010    -0.3890 C.2   1 <1>   0.3350 
 21 N        3.3800     7.7180     0.0350 N.2   1 <1>  -0.4100 
 22 N        2.9810     9.8440    -0.1860 N.2   1 <1>  -0.5650 
 23 O        4.3940     8.3480     0.5460 O.3   1 <1>  -0.0190 
 24 C        4.0940     9.6120     0.3820 C.2   1 <1>   0.2980 
 25 C        5.0690    10.6600     0.8670 C.3   1 <1>  -0.0600 
 26 H       -0.2000     2.4780    -2.2820 H     1 <1>   0.0800 
 27 H        1.4490     2.3700    -1.7140 H     1 <1>   0.0800 
 28 H       -0.5050     5.1280     0.9320 H     1 <1>   0.0800 
 29 H       -0.7580     3.3920     2.7620 H     1 <1>   0.0800 
 30 H       -0.7440     1.7100     2.2900 H     1 <1>   0.0800 
 31 H       -2.2070     2.6490     2.1140 H     1 <1>   0.0800 
 32 H       -1.3530     4.6120    -1.8850 H     1 <1>   0.0800 
 33 H       -2.0870     6.5670     1.5680 H     1 <1>   0.1500 
 34 H       -5.7210     3.7650    -0.1500 H     1 <1>   0.1500 
 35 H       -4.2930     2.4080    -1.3150 H     1 <1>   0.0800 
 36 H       -3.0620     1.9220    -0.1880 H     1 <1>   0.0800 
 37 H       -2.6480     2.8570    -1.6060 H     1 <1>   0.0800 
 38 H       -4.4000     7.1820     1.9860 H     1 <1>   0.1500 
 39 H        1.6630     6.2380    -0.9370 H     1 <1>   0.3700 
 40 H       -6.2270     5.7780     1.1260 H     1 <1>   0.1500 
 41 H        1.2810     8.6540    -2.0940 H     1 <1>   0.0800 
 42 H        0.4520     8.8880    -0.5800 H     1 <1>   0.0800 
 43 H        4.6840    11.6420     0.6620 H     1 <1>   0.0800 
 44 H        6.0100    10.5390     0.3640 H     1 <1>   0.0800 
 45 H        5.2170    10.5540     1.9260 H     1 <1>   0.0800 
@<TRIPOS>BOND
  1   1   2  2   
  2   2   3  am  
  3   2   4  1   
  4   3   5  1   
  5   3   6  1   
  6   4   7  1   
  7   4  26  1   
  8   4  27  1   
  9   5   8  1   
 10   5   9  1   
 11   5  28  1   
 12   6  29  1   
 13   6  30  1   
 14   6  31  1   
 15   7   9  1   
 16   8  10  ar  
 17   8  11  ar  
 18   9  12  1   
 19   9  32  1   
 20  10  13  ar  
 21  10  14  1   
 22  11  15  ar  
 23  11  33  1   
 24  12  16  2   
 25  12  17  am  
 26  13  18  ar  
 27  13  34  1   
 28  14  35  1   
 29  14  36  1   
 30  14  37  1   
 31  15  18  ar  
 32  15  38  1   
 33  17  19  1   
 34  17  39  1   
 35  18  40  1   
 36  19  20  1   
 37  19  41  1   
 38  19  42  1   
 39  20  21  2   
 40  20  22  1   
 41  21  23  1   
 42  22  24  2   
 43  23  24  1   
 44  24  25  1   
 45  25  43  1   
 46  25  44  1   
 47  25  45  1   
@<TRIPOS>SUBSTRUCTURE
  1 ****  12 GROUP 4 **** **** 0

# MOE 2024.06 (io_trps.svl 2023.06)
