@<TRIPOS>MOLECULE
NONAME
58 60 1 0 0 
SMALL
USER_CHARGES


@<TRIPOS>ATOM
  1 S       -0.6550    -2.1540    -0.2280 S.o2  1 <1>   1.2040 
  2 O       -0.2410    -1.6460    -1.5150 O.2   1 <1>  -0.6500 
  3 O       -0.0140    -1.6900     0.9820 O.2   1 <1>  -0.6500 
  4 C       -2.4520    -1.9930    -0.0630 C.ar  1 <1>  -0.0090 
  5 C       -0.4470    -3.9230    -0.2770 C.3   1 <1>  -0.1350 
  6 C       -3.0470    -1.7500     1.1670 C.ar  1 <1>  -0.1500 
  7 C       -3.2890    -2.1280    -1.1610 C.ar  1 <1>  -0.1500 
  8 C       -4.4220    -1.6430     1.2980 C.ar  1 <1>  -0.1500 
  9 C       -4.6630    -2.0220    -1.0350 C.ar  1 <1>  -0.1500 
 10 C       -5.2610    -1.7760     0.1960 C.ar  1 <1>  -0.1430 
 11 C       -6.8060    -1.6450     0.2550 C.3   1 <1>   0.2040 
 12 C       -7.4130    -2.9140    -0.4150 C.2   1 <1>   0.5690 
 13 C       -7.3310    -1.4710     1.7070 C.3   1 <1>  -0.1600 
 14 C       -7.1720    -0.3400    -0.5110 C.3   1 <1>  -0.1600 
 15 O       -7.9640    -2.8370    -1.4920 O.2   1 <1>  -0.5700 
 16 N       -7.2580    -4.1580     0.1360 N.am  1 <1>  -0.6600 
 17 C       -8.8360    -1.1570     1.7740 C.3   1 <1>  -0.1600 
 18 C       -8.6610     0.0480    -0.4320 C.3   1 <1>  -0.1600 
 19 C       -6.6320    -5.1790    -0.7450 C.3   1 <1>   0.3200 
 20 C       -8.2880    -4.7010     1.0870 C.3   1 <1>   0.1400 
 21 C       -9.1440     0.1380     1.0180 C.3   1 <1>  -0.1600 
 22 C       -6.0660    -6.3280     0.0680 C.2   1 <1>  -0.3320 
 23 C       -9.5500    -5.2190     0.3760 C.3   1 <1>   0.1200 
 24 N       -5.1050    -6.2160     1.0060 N.pl3 1 <1>   0.0480 
 25 C       -6.4030    -7.6360     0.0190 C.2   1 <1>   0.0770 
 26 O      -10.1450    -4.2050    -0.3590 O.3   1 <1>  -0.6800 
 27 C       -4.9290    -7.4740     1.4680 C.2   1 <1>   0.0360 
 28 C       -4.4080    -4.9980     1.4510 C.3   1 <1>   0.0160 
 29 N       -5.6880    -8.3540     0.9020 N.2   1 <1>  -0.5650 
 30 H        0.5930    -4.1640    -0.3780 H     1 <1>   0.0800 
 31 H       -0.9750    -4.3400    -1.1130 H     1 <1>   0.0800 
 32 H       -0.8140    -4.3700     0.6260 H     1 <1>   0.0800 
 33 H       -2.4250    -1.6310     2.0390 H     1 <1>   0.1500 
 34 H       -2.8610    -2.3050    -2.1340 H     1 <1>   0.1500 
 35 H       -4.8070    -1.4470     2.2820 H     1 <1>   0.1500 
 36 H       -5.2690    -2.1240    -1.9210 H     1 <1>   0.1500 
 37 H       -6.8230    -0.6430     2.1680 H     1 <1>   0.0800 
 38 H       -7.1110    -2.3480     2.2880 H     1 <1>   0.0800 
 39 H       -6.9000    -0.4330    -1.5470 H     1 <1>   0.0800 
 40 H       -6.5910     0.4700    -0.1040 H     1 <1>   0.0800 
 41 H       -9.1380    -1.0490     2.8020 H     1 <1>   0.0800 
 42 H       -9.4150    -1.9550     1.3430 H     1 <1>   0.0800 
 43 H       -9.2570    -0.6790    -0.9570 H     1 <1>   0.0800 
 44 H       -8.8100     0.9960    -0.9180 H     1 <1>   0.0800 
 45 H       -5.8410    -4.7230    -1.3160 H     1 <1>   0.0800 
 46 H       -7.3660    -5.5480    -1.4420 H     1 <1>   0.0800 
 47 H       -8.5840    -3.9460     1.7890 H     1 <1>   0.0800 
 48 H       -7.8620    -5.5030     1.6640 H     1 <1>   0.0800 
 49 H       -8.6590     0.9660     1.5070 H     1 <1>   0.0800 
 50 H      -10.2040     0.3220     1.0330 H     1 <1>   0.0800 
 51 H      -10.2690    -5.5660     1.0980 H     1 <1>   0.0800 
 52 H       -9.3120    -6.0300    -0.2890 H     1 <1>   0.0800 
 53 H       -7.1350    -8.1110    -0.6140 H     1 <1>   0.1500 
 54 H       -9.4710    -3.7620    -0.9340 H     1 <1>   0.4000 
 55 H       -4.2170    -7.7050     2.2400 H     1 <1>   0.1500 
 56 H       -4.0090    -4.4880     0.5940 H     1 <1>   0.0800 
 57 H       -3.6090    -5.2590     2.1200 H     1 <1>   0.0800 
 58 H       -5.1060    -4.3580     1.9560 H     1 <1>   0.0800 
@<TRIPOS>BOND
  1   1   2  2   
  2   1   3  2   
  3   1   4  1   
  4   1   5  1   
  5   4   6  ar  
  6   4   7  ar  
  7   5  30  1   
  8   5  31  1   
  9   5  32  1   
 10   6   8  ar  
 11   6  33  1   
 12   7   9  ar  
 13   7  34  1   
 14   8  10  ar  
 15   8  35  1   
 16   9  10  ar  
 17   9  36  1   
 18  10  11  1   
 19  11  12  1   
 20  11  13  1   
 21  11  14  1   
 22  12  15  2   
 23  12  16  am  
 24  13  17  1   
 25  13  37  1   
 26  13  38  1   
 27  14  18  1   
 28  14  39  1   
 29  14  40  1   
 30  16  19  1   
 31  16  20  1   
 32  17  21  1   
 33  17  41  1   
 34  17  42  1   
 35  18  21  1   
 36  18  43  1   
 37  18  44  1   
 38  19  22  1   
 39  19  45  1   
 40  19  46  1   
 41  20  23  1   
 42  20  47  1   
 43  20  48  1   
 44  21  49  1   
 45  21  50  1   
 46  22  24  1   
 47  22  25  2   
 48  23  26  1   
 49  23  51  1   
 50  23  52  1   
 51  24  27  1   
 52  24  28  1   
 53  25  29  1   
 54  25  53  1   
 55  26  54  1   
 56  27  29  2   
 57  27  55  1   
 58  28  56  1   
 59  28  57  1   
 60  28  58  1   
@<TRIPOS>SUBSTRUCTURE
  1 ****  10 GROUP 4 **** **** 0

# MOE 2024.06 (io_trps.svl 2023.06)
