@<TRIPOS>MOLECULE
NONAME
49 51 1 0 0 
SMALL
USER_CHARGES


@<TRIPOS>ATOM
  1 N        0.5240    -1.2200     1.3370 N.2   1 <1>  -0.3380 
  2 N        0.5210     0.0430     1.7530 N.2   1 <1>  -0.3380 
  3 C        0.7950    -1.2010     0.0770 C.2   1 <1>   0.0070 
  4 C        0.7980     0.7820     0.7350 C.2   1 <1>   0.0060 
  5 N        0.9900     0.0470    -0.3590 N.pl3 1 <1>   0.0330 
  6 C        0.8410    -2.4600    -0.7700 C.3   1 <1>   0.5230 
  7 C        0.8890     2.2980     0.7680 C.3   1 <1>   0.0200 
  8 N       -0.2490    -3.3670    -0.2960 N.4   1 <1>  -0.9590 
  9 C       -0.2440     2.9420    -0.0380 C.3   1 <1>  -0.2400 
 10 C       -0.0470    -4.7890    -0.6720 C.3   1 <1>   0.4230 
 11 C       -1.5830    -2.8080    -0.6850 C.3   1 <1>   0.3430 
 12 C       -1.1090    -5.6990    -0.0630 C.3   1 <1>  -0.1600 
 13 C        1.2750    -5.3410    -0.1300 C.3   1 <1>  -0.1600 
 14 C       -2.5190    -2.6710     0.5170 C.3   1 <1>  -0.0170 
 15 C       -0.4560    -7.0770    -0.0400 C.3   1 <1>  -0.1600 
 16 C        1.0250    -6.8110     0.2320 C.3   1 <1>  -0.1600 
 17 C       -3.4950    -1.5520     0.2170 C.ar  1 <1>  -0.1430 
 18 C       -4.6780    -1.8050    -0.4600 C.ar  1 <1>  -0.1500 
 19 C       -3.1940    -0.2560     0.6080 C.ar  1 <1>  -0.1500 
 20 C       -5.5480    -0.7690    -0.7510 C.ar  1 <1>  -0.1500 
 21 C       -4.0650     0.7800     0.3180 C.ar  1 <1>  -0.1500 
 22 C       -5.2420     0.5240    -0.3630 C.ar  1 <1>  -0.1500 
 23 H        1.2180     0.4000    -1.2920 H     1 <1>   0.2700 
 24 H        1.8030    -2.9260    -0.6360 H     1 <1>   0.0800 
 25 H        0.7080    -2.2260    -1.8120 H     1 <1>   0.0800 
 26 H        1.8430     2.6120     0.3810 H     1 <1>   0.0800 
 27 H        0.8270     2.6280     1.7910 H     1 <1>   0.0800 
 28 H       -0.1850    -3.2890     0.7330 H     1 <1>   0.4500 
 29 H       -0.1830     2.6690    -1.0760 H     1 <1>   0.0800 
 30 H       -0.1840     4.0130     0.0380 H     1 <1>   0.0800 
 31 H       -1.1970     2.6260     0.3510 H     1 <1>   0.0800 
 32 H       -0.0640    -4.9060    -1.7440 H     1 <1>   0.0800 
 33 H       -2.0490    -3.4130    -1.4450 H     1 <1>   0.0800 
 34 H       -1.4490    -1.8190    -1.0940 H     1 <1>   0.0800 
 35 H       -2.0160    -5.7130    -0.6410 H     1 <1>   0.0800 
 36 H       -1.3190    -5.4060     0.9510 H     1 <1>   0.0800 
 37 H        1.5780    -4.8180     0.7610 H     1 <1>   0.0800 
 38 H        2.0520    -5.2680    -0.8720 H     1 <1>   0.0800 
 39 H       -1.9700    -2.4180     1.4080 H     1 <1>   0.0800 
 40 H       -3.0520    -3.5880     0.6910 H     1 <1>   0.0800 
 41 H       -0.5640    -7.5470    -1.0040 H     1 <1>   0.0800 
 42 H       -0.8920    -7.7190     0.7080 H     1 <1>   0.0800 
 43 H        1.2400    -6.9710     1.2760 H     1 <1>   0.0800 
 44 H        1.6440    -7.4750    -0.3480 H     1 <1>   0.0800 
 45 H       -4.9370    -2.8040    -0.7640 H     1 <1>   0.1500 
 46 H       -2.2840    -0.0400     1.1460 H     1 <1>   0.1500 
 47 H       -6.4670    -0.9660    -1.2750 H     1 <1>   0.1500 
 48 H       -3.8310     1.7840     0.6270 H     1 <1>   0.1500 
 49 H       -5.9200     1.3290    -0.5870 H     1 <1>   0.1500 
@<TRIPOS>BOND
  1   1   2  1   
  2   1   3  2   
  3   2   4  2   
  4   3   5  1   
  5   3   6  1   
  6   4   5  1   
  7   4   7  1   
  8   5  23  1   
  9   6   8  1   
 10   6  24  1   
 11   6  25  1   
 12   7   9  1   
 13   7  26  1   
 14   7  27  1   
 15   8  10  1   
 16   8  11  1   
 17   8  28  1   
 18   9  29  1   
 19   9  30  1   
 20   9  31  1   
 21  10  12  1   
 22  10  13  1   
 23  10  32  1   
 24  11  14  1   
 25  11  33  1   
 26  11  34  1   
 27  12  15  1   
 28  12  35  1   
 29  12  36  1   
 30  13  16  1   
 31  13  37  1   
 32  13  38  1   
 33  14  17  1   
 34  14  39  1   
 35  14  40  1   
 36  15  16  1   
 37  15  41  1   
 38  15  42  1   
 39  16  43  1   
 40  16  44  1   
 41  17  18  ar  
 42  17  19  ar  
 43  18  20  ar  
 44  18  45  1   
 45  19  21  ar  
 46  19  46  1   
 47  20  22  ar  
 48  20  47  1   
 49  21  22  ar  
 50  21  48  1   
 51  22  49  1   
@<TRIPOS>SUBSTRUCTURE
  1 ****  11 GROUP 4 **** **** 0

# MOE 2024.06 (io_trps.svl 2023.06)
