@<TRIPOS>MOLECULE
NONAME
56 60 1 0 0 
SMALL
USER_CHARGES


@<TRIPOS>ATOM
  1 F       -1.1940    -0.8230     0.6410 F     1 <1>  -0.3400 
  2 C       -0.0720    -1.4340     0.3110 C.3   1 <1>   0.6800 
  3 F        0.1860    -1.0510    -0.9300 F     1 <1>  -0.3400 
  4 C       -0.2770    -2.9370     0.3240 C.3   1 <1>  -0.1600 
  5 C        1.0570    -0.9660     1.2100 C.3   1 <1>  -0.1600 
  6 C        1.0310    -3.6130    -0.0660 C.3   1 <1>   0.3430 
  7 C        2.3350    -1.6830     0.7960 C.3   1 <1>   0.3430 
  8 N        2.1450    -3.1720     0.8430 N.4   1 <1>  -0.9590 
  9 C        3.4520    -3.8420     0.5320 C.3   1 <1>   0.3430 
 10 C        3.4500    -5.3480     0.8580 C.3   1 <1>  -0.0800 
 11 C        3.0270    -6.2000    -0.3530 C.3   1 <1>   0.2000 
 12 C        4.8510    -5.9610     1.1390 C.3   1 <1>  -0.0800 
 13 O        4.2520    -6.4340    -0.9350 O.3   1 <1>  -0.5600 
 14 C        2.6200    -7.6130     0.0780 C.3   1 <1>  -0.1600 
 15 C        4.9120    -7.0700     0.0990 C.3   1 <1>   0.2800 
 16 C        6.1050    -5.1480     0.7880 C.3   1 <1>   0.3430 
 17 C        3.9770    -8.2390     0.4090 C.3   1 <1>  -0.1600 
 18 C        6.3910    -7.3240    -0.2140 C.3   1 <1>   0.3430 
 19 N        7.1200    -6.1370     0.3310 N.4   1 <1>  -0.9590 
 20 C        8.1450    -5.5510    -0.5790 C.3   1 <1>   0.5230 
 21 C        9.0590    -4.6420     0.2360 C.2   1 <1>   0.0060 
 22 N        8.9890    -4.5350     1.5300 N.2   1 <1>  -0.5650 
 23 N       10.0310    -3.8740    -0.3200 N.pl3 1 <1>   0.0480 
 24 C        9.9620    -3.6570     1.8350 C.2   1 <1>   0.0770 
 25 C       10.6020    -3.2460     0.7210 C.2   1 <1>  -0.3020 
 26 C       10.4380    -3.7280    -1.7330 C.3   1 <1>   0.0160 
 27 H       -0.5780    -3.2600     1.3030 H     1 <1>   0.0800 
 28 H       -1.0500    -3.2000    -0.3760 H     1 <1>   0.0800 
 29 H        1.1810     0.0970     1.1080 H     1 <1>   0.0800 
 30 H        0.8290    -1.1870     2.2370 H     1 <1>   0.0800 
 31 H        1.2710    -3.3580    -1.0880 H     1 <1>   0.0800 
 32 H        0.9000    -4.6810    -0.0050 H     1 <1>   0.0800 
 33 H        3.1350    -1.3890     1.4580 H     1 <1>   0.0800 
 34 H        2.6000    -1.3800    -0.2060 H     1 <1>   0.0800 
 35 H        1.8840    -3.4180     1.8100 H     1 <1>   0.4500 
 36 H        3.7090    -3.6960    -0.5060 H     1 <1>   0.0800 
 37 H        4.2160    -3.3710     1.1290 H     1 <1>   0.0800 
 38 H        2.8020    -5.5340     1.6980 H     1 <1>   0.0800 
 39 H        2.3540    -5.7430    -1.0580 H     1 <1>   0.0800 
 40 H        4.9340    -6.3570     2.1370 H     1 <1>   0.0800 
 41 H        1.9460    -7.6130     0.9170 H     1 <1>   0.0800 
 42 H        2.1550    -8.1300    -0.7450 H     1 <1>   0.0800 
 43 H        6.4690    -4.5790     1.6300 H     1 <1>   0.0800 
 44 H        5.8850    -4.4780    -0.0270 H     1 <1>   0.0800 
 45 H        4.1810    -9.0730    -0.2410 H     1 <1>   0.0800 
 46 H        4.0490    -8.5580     1.4350 H     1 <1>   0.0800 
 47 H        6.5250    -7.4320    -1.2770 H     1 <1>   0.0800 
 48 H        6.7250    -8.2180     0.2860 H     1 <1>   0.0800 
 49 H        7.6700    -6.3870     1.1720 H     1 <1>   0.4500 
 50 H        8.7400    -6.3360    -1.0150 H     1 <1>   0.0800 
 51 H        7.6710    -4.9940    -1.3700 H     1 <1>   0.0800 
 52 H       10.1600    -3.3600     2.8540 H     1 <1>   0.1500 
 53 H       11.4210    -2.5540     0.6250 H     1 <1>   0.1500 
 54 H       11.2760    -3.0570    -1.7960 H     1 <1>   0.0800 
 55 H        9.6240    -3.3240    -2.3060 H     1 <1>   0.0800 
 56 H       10.7280    -4.6850    -2.1280 H     1 <1>   0.0800 
@<TRIPOS>BOND
  1   1   2  1   
  2   2   3  1   
  3   2   4  1   
  4   2   5  1   
  5   4   6  1   
  6   4  27  1   
  7   4  28  1   
  8   5   7  1   
  9   5  29  1   
 10   5  30  1   
 11   6   8  1   
 12   6  31  1   
 13   6  32  1   
 14   7   8  1   
 15   7  33  1   
 16   7  34  1   
 17   8   9  1   
 18   8  35  1   
 19   9  10  1   
 20   9  36  1   
 21   9  37  1   
 22  10  11  1   
 23  10  12  1   
 24  10  38  1   
 25  11  13  1   
 26  11  14  1   
 27  11  39  1   
 28  12  15  1   
 29  12  16  1   
 30  12  40  1   
 31  13  15  1   
 32  14  17  1   
 33  14  41  1   
 34  14  42  1   
 35  15  17  1   
 36  15  18  1   
 37  16  19  1   
 38  16  43  1   
 39  16  44  1   
 40  17  45  1   
 41  17  46  1   
 42  18  19  1   
 43  18  47  1   
 44  18  48  1   
 45  19  20  1   
 46  19  49  1   
 47  20  21  1   
 48  20  50  1   
 49  20  51  1   
 50  21  22  2   
 51  21  23  1   
 52  22  24  1   
 53  23  25  1   
 54  23  26  1   
 55  24  25  2   
 56  24  52  1   
 57  25  53  1   
 58  26  54  1   
 59  26  55  1   
 60  26  56  1   
@<TRIPOS>SUBSTRUCTURE
  1 ****   9 GROUP 4 **** **** 0

# MOE 2024.06 (io_trps.svl 2023.06)
