@<TRIPOS>MOLECULE
NONAME
49 51 1 0 0 
SMALL
USER_CHARGES


@<TRIPOS>ATOM
  1 O        0.2430     1.1210     2.0680 O.2   1 <1>  -0.5700 
  2 C       -0.0130     1.9290     1.2010 C.2   1 <1>   0.5440 
  3 N        1.0410     2.4120     0.4850 N.am  1 <1>  -0.7300 
  4 C       -1.3630     2.3940     0.9780 C.ar  1 <1>   0.0860 
  5 C        1.0430     3.4090    -0.6130 C.3   1 <1>   0.1400 
  6 C       -2.0290     3.1110     1.9720 C.ar  1 <1>  -0.1500 
  7 C       -2.0190     2.2000    -0.2390 C.ar  1 <1>  -0.1500 
  8 C        0.6210     4.7940    -0.1120 C.3   1 <1>  -0.1600 
  9 C       -3.2640     3.6830     1.7370 C.ar  1 <1>  -0.1500 
 10 C       -3.2540     2.7700    -0.4830 C.ar  1 <1>  -0.1500 
 11 C        0.7420     5.8260    -1.2340 C.3   1 <1>   0.1400 
 12 C       -3.8610     3.5440     0.4910 C.ar  1 <1>   0.0830 
 13 N        0.2210     7.1330    -0.7870 N.am  1 <1>  -0.7300 
 14 O       -5.0100     4.1760     0.1860 O.3   1 <1>  -0.3620 
 15 C        0.8970     8.0210    -0.0190 C.2   1 <1>   0.5690 
 16 C       -5.0820     5.5580     0.4520 C.3   1 <1>   0.1200 
 17 O        1.9460     7.7420     0.5090 O.2   1 <1>  -0.5700 
 18 C        0.3460     9.4210     0.1600 C.3   1 <1>  -0.0990 
 19 C       -5.5760     6.2590    -0.8150 C.3   1 <1>  -0.1600 
 20 C       -1.0190     9.4800     0.8700 C.3   1 <1>   0.0210 
 21 C       -5.4820     7.7890    -0.7110 C.3   1 <1>   0.0960 
 22 C       -2.1950     8.9790     0.0420 C.2   1 <1>   0.0460 
 23 N       -4.0800     8.2510    -0.6130 N.pl3 1 <1>   0.3140 
 24 N       -2.1790     8.9240    -1.2960 N.2   1 <1>  -0.2270 
 25 C       -3.3870     8.5560     0.4870 C.2   1 <1>  -0.3020 
 26 N       -3.3180     8.4730    -1.6880 N.2   1 <1>  -0.4180 
 27 H        1.9550     2.0760     0.7940 H     1 <1>   0.3700 
 28 H        0.3780     3.0830    -1.3940 H     1 <1>   0.0800 
 29 H        2.0370     3.4630    -1.0230 H     1 <1>   0.0800 
 30 H       -1.5540     3.2260     2.9310 H     1 <1>   0.1500 
 31 H       -1.5410     1.6080    -0.9990 H     1 <1>   0.1500 
 32 H        1.2570     5.0870     0.7050 H     1 <1>   0.0800 
 33 H       -0.3990     4.7730     0.2230 H     1 <1>   0.0800 
 34 H       -3.7560     4.2390     2.5130 H     1 <1>   0.1500 
 35 H       -3.7470     2.6330    -1.4290 H     1 <1>   0.1500 
 36 H        0.1850     5.5070    -2.0980 H     1 <1>   0.0800 
 37 H        1.7770     5.9390    -1.5150 H     1 <1>   0.0800 
 38 H       -0.6820     7.4270    -1.1870 H     1 <1>   0.3700 
 39 H       -4.1010     5.9140     0.7160 H     1 <1>   0.0800 
 40 H       -5.7570     5.7070     1.2770 H     1 <1>   0.0800 
 41 H        0.2860     9.8960    -0.8010 H     1 <1>   0.0800 
 42 H        1.0550     9.9780     0.7440 H     1 <1>   0.0800 
 43 H       -6.6010     5.9810    -0.9870 H     1 <1>   0.0800 
 44 H       -4.9930     5.9330    -1.6600 H     1 <1>   0.0800 
 45 H       -1.2180    10.5060     1.1210 H     1 <1>   0.0800 
 46 H       -0.9690     8.9240     1.7890 H     1 <1>   0.0800 
 47 H       -6.0240     8.1420     0.1470 H     1 <1>   0.0800 
 48 H       -5.9140     8.2350    -1.5890 H     1 <1>   0.0800 
 49 H       -3.7720     8.4680     1.4850 H     1 <1>   0.1500 
@<TRIPOS>BOND
  1   1   2  2   
  2   2   3  am  
  3   2   4  1   
  4   3   5  1   
  5   3  27  1   
  6   4   6  ar  
  7   4   7  ar  
  8   5   8  1   
  9   5  28  1   
 10   5  29  1   
 11   6   9  ar  
 12   6  30  1   
 13   7  10  ar  
 14   7  31  1   
 15   8  11  1   
 16   8  32  1   
 17   8  33  1   
 18   9  12  ar  
 19   9  34  1   
 20  10  12  ar  
 21  10  35  1   
 22  11  13  1   
 23  11  36  1   
 24  11  37  1   
 25  12  14  1   
 26  13  15  am  
 27  13  38  1   
 28  14  16  1   
 29  15  17  2   
 30  15  18  1   
 31  16  19  1   
 32  16  39  1   
 33  16  40  1   
 34  18  20  1   
 35  18  41  1   
 36  18  42  1   
 37  19  21  1   
 38  19  43  1   
 39  19  44  1   
 40  20  22  1   
 41  20  45  1   
 42  20  46  1   
 43  21  23  1   
 44  21  47  1   
 45  21  48  1   
 46  22  24  1   
 47  22  25  2   
 48  23  25  1   
 49  23  26  1   
 50  24  26  2   
 51  25  49  1   
@<TRIPOS>SUBSTRUCTURE
  1 ****   8 GROUP 4 **** **** 0

# MOE 2024.06 (io_trps.svl 2023.06)
