@<TRIPOS>MOLECULE
NONAME
26 27 1 0 0 
SMALL
USER_CHARGES


@<TRIPOS>ATOM
  1 BR      -0.4500     0.0290    -2.0760 Br    1 <1>  -0.1110 
  2 C       -1.9700     0.8880    -1.2720 C.ar  1 <1>   0.4210 
  3 N       -1.8510     2.2150    -1.1110 N.ar  1 <1>  -0.6200 
  4 C       -3.0460     0.1040    -0.9250 C.ar  1 <1>  -0.1500 
  5 C       -2.9000     2.7890    -0.5590 C.ar  1 <1>   0.1600 
  6 C       -4.1420     0.7430    -0.3420 C.ar  1 <1>  -0.1520 
  7 C       -4.0590     2.1080    -0.1600 C.ar  1 <1>   0.2270 
  8 N       -5.3640     0.3710     0.1340 N.pl3 1 <1>   0.0480 
  9 N       -5.2000     2.5760     0.4160 N.2   1 <1>  -0.5650 
 10 C       -5.9360     1.5330     0.5720 C.2   1 <1>   0.0060 
 11 C       -5.9560    -0.9960     0.1750 C.3   1 <1>   0.1760 
 12 C       -7.3180     1.6090     1.1910 C.3   1 <1>  -0.0600 
 13 C       -5.1170    -1.9290     1.0570 C.3   1 <1>  -0.2400 
 14 C       -6.1250    -1.5610    -1.2400 C.3   1 <1>  -0.2400 
 15 H       -3.0320    -0.9530    -1.1010 H     1 <1>   0.1500 
 16 H       -2.8790     3.8520    -0.3980 H     1 <1>   0.1500 
 17 H       -6.9330    -0.9230     0.6160 H     1 <1>   0.0800 
 18 H       -7.3590     1.0110     2.0820 H     1 <1>   0.0800 
 19 H       -8.0580     1.2660     0.4910 H     1 <1>   0.0800 
 20 H       -7.5430     2.6280     1.4530 H     1 <1>   0.0800 
 21 H       -4.1380    -2.0820     0.6420 H     1 <1>   0.0800 
 22 H       -5.6000    -2.8850     1.1430 H     1 <1>   0.0800 
 23 H       -5.0180    -1.5120     2.0440 H     1 <1>   0.0800 
 24 H       -5.1740    -1.7040    -1.7190 H     1 <1>   0.0800 
 25 H       -6.7200    -0.8910    -1.8350 H     1 <1>   0.0800 
 26 H       -6.6280    -2.5100    -1.1980 H     1 <1>   0.0800 
@<TRIPOS>BOND
  1   1   2  1   
  2   2   3  ar  
  3   2   4  ar  
  4   3   5  ar  
  5   4   6  ar  
  6   4  15  1   
  7   5   7  ar  
  8   5  16  1   
  9   6   7  ar  
 10   6   8  1   
 11   7   9  1   
 12   8  10  1   
 13   8  11  1   
 14   9  10  2   
 15  10  12  1   
 16  11  13  1   
 17  11  14  1   
 18  11  17  1   
 19  12  18  1   
 20  12  19  1   
 21  12  20  1   
 22  13  21  1   
 23  13  22  1   
 24  13  23  1   
 25  14  24  1   
 26  14  25  1   
 27  14  26  1   
@<TRIPOS>SUBSTRUCTURE
  1 ****   6 GROUP 4 **** **** 0

# MOE 2024.06 (io_trps.svl 2023.06)
