@<TRIPOS>MOLECULE
NONAME
40 41 1 0 0 
SMALL
USER_CHARGES


@<TRIPOS>ATOM
  1 F       -1.1610     0.4160     1.7190 F     1 <1>  -0.3400 
  2 C       -0.9160     0.7700     0.4650 C.3   1 <1>   1.1640 
  3 F        0.3640     0.4930     0.2430 F     1 <1>  -0.3400 
  4 F       -1.6170    -0.0510    -0.3070 F     1 <1>  -0.3400 
  5 C       -1.2240     2.2580     0.2190 C.ar  1 <1>  -0.1440 
  6 C       -0.3420     3.2380     0.6680 C.ar  1 <1>  -0.1500 
  7 C       -2.3800     2.6590    -0.4420 C.ar  1 <1>  -0.1500 
  8 C       -0.5980     4.5860     0.4550 C.ar  1 <1>  -0.1440 
  9 C       -2.6460     4.0000    -0.6480 C.ar  1 <1>  -0.1500 
 10 C       -1.7600     4.9620    -0.2010 C.ar  1 <1>  -0.1500 
 11 C        0.3800     5.6430     0.9320 C.3   1 <1>   0.4870 
 12 N        1.5610     5.6480     0.0210 N.4   1 <1>  -0.9590 
 13 C        2.6920     6.4250     0.6040 C.3   1 <1>   0.5230 
 14 C        1.1680     6.1320    -1.3400 C.3   1 <1>   0.2630 
 15 C        2.3020     7.8800     0.7440 C.2   1 <1>  -0.3320 
 16 N        2.6460     8.8720    -0.1130 N.pl3 1 <1>   0.0480 
 17 C        1.5870     8.4620     1.7330 C.2   1 <1>   0.0770 
 18 C        2.0820     9.9820     0.4130 C.2   1 <1>   0.0360 
 19 C        3.5160     8.8470    -1.3130 C.3   1 <1>   0.0960 
 20 N        1.4320     9.7730     1.5090 N.2   1 <1>  -0.5650 
 21 C        4.9930     8.8400    -0.9100 C.3   1 <1>  -0.2400 
 22 H        0.5490     2.9340     1.1940 H     1 <1>   0.1500 
 23 H       -3.0900     1.9280    -0.7990 H     1 <1>   0.1500 
 24 H       -3.5510     4.2930    -1.1570 H     1 <1>   0.1500 
 25 H       -1.9940     6.0000    -0.3680 H     1 <1>   0.1500 
 26 H        0.6860     5.4140     1.9390 H     1 <1>   0.0800 
 27 H       -0.0940     6.6120     0.9330 H     1 <1>   0.0800 
 28 H        1.8530     4.6680    -0.0670 H     1 <1>   0.4500 
 29 H        3.5660     6.3400    -0.0210 H     1 <1>   0.0800 
 30 H        2.9400     6.0310     1.5770 H     1 <1>   0.0800 
 31 H        0.8080     7.1470    -1.2860 H     1 <1>   0.0800 
 32 H        0.3840     5.5110    -1.7460 H     1 <1>   0.0800 
 33 H        2.0110     6.0950    -2.0100 H     1 <1>   0.0800 
 34 H        1.1610     8.0160     2.6180 H     1 <1>   0.1500 
 35 H        2.1810    10.9500    -0.0480 H     1 <1>   0.1500 
 36 H        3.3090     9.7210    -1.9060 H     1 <1>   0.0800 
 37 H        3.2890     7.9800    -1.9040 H     1 <1>   0.0800 
 38 H        5.2260     9.7190    -0.3330 H     1 <1>   0.0800 
 39 H        5.6110     8.8460    -1.7910 H     1 <1>   0.0800 
 40 H        5.2350     7.9660    -0.3330 H     1 <1>   0.0800 
@<TRIPOS>BOND
  1   1   2  1   
  2   2   3  1   
  3   2   4  1   
  4   2   5  1   
  5   5   6  ar  
  6   5   7  ar  
  7   6   8  ar  
  8   6  22  1   
  9   7   9  ar  
 10   7  23  1   
 11   8  10  ar  
 12   8  11  1   
 13   9  10  ar  
 14   9  24  1   
 15  10  25  1   
 16  11  12  1   
 17  11  26  1   
 18  11  27  1   
 19  12  13  1   
 20  12  14  1   
 21  12  28  1   
 22  13  15  1   
 23  13  29  1   
 24  13  30  1   
 25  14  31  1   
 26  14  32  1   
 27  14  33  1   
 28  15  16  1   
 29  15  17  2   
 30  16  18  1   
 31  16  19  1   
 32  17  20  1   
 33  17  34  1   
 34  18  20  2   
 35  18  35  1   
 36  19  21  1   
 37  19  36  1   
 38  19  37  1   
 39  21  38  1   
 40  21  39  1   
 41  21  40  1   
@<TRIPOS>SUBSTRUCTURE
  1 ****  11 GROUP 4 **** **** 0

# MOE 2024.06 (io_trps.svl 2023.06)
