@<TRIPOS>MOLECULE
NONAME
51 54 1 0 0 
SMALL
USER_CHARGES


@<TRIPOS>ATOM
  1 N       -0.0140     0.4320    -0.0060 N.ar  1 <1>  -0.6200 
  2 C        1.0420     1.2220    -0.0850 C.ar  1 <1>   0.7710 
  3 C       -1.0670     0.8800     0.6430 C.ar  1 <1>   0.4100 
  4 N        1.0460     2.4550     0.4420 N.ar  1 <1>  -0.1790 
  5 N        2.1540     0.7790    -0.7210 N.pl3 1 <1>  -0.8380 
  6 N       -2.1290     0.0630     0.7270 N.pl3 1 <1>  -0.8690 
  7 C       -1.1150     2.1670     1.2350 C.ar  1 <1>  -0.1430 
  8 C       -0.0190     2.9670     1.1030 C.ar  1 <1>   0.2170 
  9 C        2.2080    -0.5750    -1.3410 C.3   1 <1>   0.2090 
 10 C        3.4670     1.4610    -0.8820 C.3   1 <1>   0.2090 
 11 C       -2.3840    -1.1950     0.0140 C.3   1 <1>   0.5640 
 12 C       -2.3870     2.5760     1.9890 C.3   1 <1>  -0.0970 
 13 C        0.1270     4.3900     1.6310 C.3   1 <1>  -0.0970 
 14 C        3.5260    -0.6160    -2.1010 C.3   1 <1>  -0.1600 
 15 C        4.4190     0.3780    -1.3700 C.3   1 <1>  -0.1600 
 16 C       -3.8650    -1.2010    -0.3860 C.2   1 <1>   0.0070 
 17 C       -2.0680    -2.3590     0.9660 C.3   1 <1>  -0.1950 
 18 N       -4.7680    -0.4240     0.1460 N.2   1 <1>  -0.5650 
 19 N       -4.3680    -2.0280    -1.3390 N.pl3 1 <1>   0.0480 
 20 C       -0.6650    -2.7550     1.3160 C.3   1 <1>  -0.2000 
 21 C       -1.5120    -3.6620     0.4720 C.3   1 <1>  -0.2000 
 22 C       -5.9050    -0.7640    -0.4860 C.2   1 <1>   0.0770 
 23 C       -5.6800    -1.7380    -1.3920 C.2   1 <1>  -0.3020 
 24 C       -3.6900    -3.0460    -2.1630 C.3   1 <1>   0.0160 
 25 H        1.9000     2.9770     0.3070 H     1 <1>   0.4570 
 26 H       -3.0360     0.4000     1.0730 H     1 <1>   0.4000 
 27 H        1.3720    -0.7390    -2.0010 H     1 <1>   0.0800 
 28 H        2.2020    -1.3230    -0.5640 H     1 <1>   0.0800 
 29 H        3.8190     1.8810     0.0460 H     1 <1>   0.0800 
 30 H        3.3830     2.2310    -1.6330 H     1 <1>   0.0800 
 31 H       -1.7620    -1.2450    -0.8630 H     1 <1>   0.0800 
 32 H       -2.6600     1.8080     2.6930 H     1 <1>   0.0800 
 33 H       -3.2000     2.7010     1.2950 H     1 <1>   0.0800 
 34 H       -2.2740     3.4850     2.5480 H     1 <1>   0.0800 
 35 H        0.7220     4.9860     0.9630 H     1 <1>   0.0800 
 36 H        0.5990     4.3770     2.5980 H     1 <1>   0.0800 
 37 H       -0.8260     4.8760     1.7210 H     1 <1>   0.0800 
 38 H        3.3580    -0.2880    -3.1130 H     1 <1>   0.0800 
 39 H        3.9450    -1.6070    -2.1220 H     1 <1>   0.0800 
 40 H        4.8770    -0.0990    -0.5210 H     1 <1>   0.0800 
 41 H        5.1920     0.7760    -2.0050 H     1 <1>   0.0800 
 42 H       -2.7940    -2.4120     1.7580 H     1 <1>   0.1000 
 43 H       -0.4540    -3.0330     2.3340 H     1 <1>   0.1000 
 44 H        0.1510    -2.2240     0.8580 H     1 <1>   0.1000 
 45 H       -1.2260    -3.7840    -0.5580 H     1 <1>   0.1000 
 46 H       -1.8770    -4.5770     0.9080 H     1 <1>   0.1000 
 47 H       -6.8400    -0.2830    -0.2520 H     1 <1>   0.1500 
 48 H       -6.3730    -2.2260    -2.0530 H     1 <1>   0.1500 
 49 H       -2.7260    -2.6850    -2.4690 H     1 <1>   0.0800 
 50 H       -4.2820    -3.2510    -3.0360 H     1 <1>   0.0800 
 51 H       -3.5770    -3.9480    -1.5900 H     1 <1>   0.0800 
@<TRIPOS>BOND
  1   1   2  ar  
  2   1   3  ar  
  3   2   4  ar  
  4   2   5  1   
  5   3   6  1   
  6   3   7  ar  
  7   4   8  ar  
  8   4  25  1   
  9   5   9  1   
 10   5  10  1   
 11   6  11  1   
 12   6  26  1   
 13   7   8  ar  
 14   7  12  1   
 15   8  13  1   
 16   9  14  1   
 17   9  27  1   
 18   9  28  1   
 19  10  15  1   
 20  10  29  1   
 21  10  30  1   
 22  11  16  1   
 23  11  17  1   
 24  11  31  1   
 25  12  32  1   
 26  12  33  1   
 27  12  34  1   
 28  13  35  1   
 29  13  36  1   
 30  13  37  1   
 31  14  15  1   
 32  14  38  1   
 33  14  39  1   
 34  15  40  1   
 35  15  41  1   
 36  16  18  2   
 37  16  19  1   
 38  17  20  1   
 39  17  21  1   
 40  17  42  1   
 41  18  22  1   
 42  19  23  1   
 43  19  24  1   
 44  20  21  1   
 45  20  43  1   
 46  20  44  1   
 47  21  45  1   
 48  21  46  1   
 49  22  23  2   
 50  22  47  1   
 51  23  48  1   
 52  24  49  1   
 53  24  50  1   
 54  24  51  1   
@<TRIPOS>SUBSTRUCTURE
  1 ****   1 GROUP 4 **** **** 0

# MOE 2024.06 (io_trps.svl 2023.06)
