@<TRIPOS>MOLECULE
NONAME
53 55 1 0 0 
SMALL
USER_CHARGES


@<TRIPOS>ATOM
  1 O       -1.0720     0.8400     0.7160 O.2   1 <1>  -0.5700 
  2 C       -0.7510     1.8830     0.2050 C.2   1 <1>   0.5690 
  3 N       -0.7430     3.0280     0.9230 N.am  1 <1>  -0.7300 
  4 C       -0.3750     1.9270    -1.2810 C.3   1 <1>   0.1810 
  5 C       -0.3630     4.3450     0.3590 C.3   1 <1>   0.3640 
  6 O        0.3280     3.0990    -1.6360 O.3   1 <1>  -0.5600 
  7 C       -1.3450     5.4030     0.8480 C.ar  1 <1>  -0.1440 
  8 C       -0.2840     4.3000    -1.1860 C.3   1 <1>   0.2610 
  9 C       -0.8640     6.6140     1.3280 C.ar  1 <1>  -0.1500 
 10 C       -2.7170     5.1870     0.8160 C.ar  1 <1>  -0.1500 
 11 C        0.4190     5.5590    -1.7110 C.2   1 <1>   0.5690 
 12 C       -1.7380     7.5920     1.7700 C.ar  1 <1>  -0.1500 
 13 C       -3.5910     6.1640     1.2590 C.ar  1 <1>  -0.1500 
 14 O       -0.2760     6.3470    -2.3140 O.2   1 <1>  -0.5700 
 15 N        1.7560     5.8290    -1.4850 N.am  1 <1>  -0.6600 
 16 C       -3.1030     7.3670     1.7370 C.ar  1 <1>  -0.1500 
 17 C        2.3270     7.1440    -1.8850 C.3   1 <1>   0.1400 
 18 C        2.7670     4.8660    -0.9580 C.3   1 <1>   0.0600 
 19 C        2.1540     8.1380    -0.7340 C.3   1 <1>  -0.1600 
 20 C        2.7670     9.5030    -1.0770 C.3   1 <1>  -0.1600 
 21 C        2.5200    10.5420     0.0280 C.3   1 <1>  -0.0800 
 22 C        3.0990    11.9110    -0.3150 C.3   1 <1>  -0.1600 
 23 C        3.1760    10.2040     1.3670 C.3   1 <1>  -0.1600 
 24 C        3.1980    12.6360     1.0260 C.3   1 <1>  -0.1600 
 25 C        3.3400    11.5430     2.0910 C.3   1 <1>  -0.1600 
 26 H       -1.0310     3.0030     1.9020 H     1 <1>   0.3700 
 27 H       -1.2670     1.8730    -1.8780 H     1 <1>   0.0800 
 28 H        0.2510     1.0860    -1.5160 H     1 <1>   0.0800 
 29 H        0.6100     4.5910     0.7440 H     1 <1>   0.0800 
 30 H       -1.2850     4.3100    -1.5800 H     1 <1>   0.0800 
 31 H        0.1940     6.8090     1.3570 H     1 <1>   0.1500 
 32 H       -3.1150     4.2580     0.4460 H     1 <1>   0.1500 
 33 H       -1.3570     8.5290     2.1370 H     1 <1>   0.1500 
 34 H       -4.6530     5.9890     1.2310 H     1 <1>   0.1500 
 35 H       -3.7820     8.1280     2.0790 H     1 <1>   0.1500 
 36 H        3.3690     7.0320    -2.1290 H     1 <1>   0.0800 
 37 H        1.8210     7.5120    -2.7620 H     1 <1>   0.0800 
 38 H        3.3190     5.3220    -0.1540 H     1 <1>   0.0800 
 39 H        3.4510     4.6020    -1.7450 H     1 <1>   0.0800 
 40 H        2.3150     3.9650    -0.5900 H     1 <1>   0.0800 
 41 H        1.1020     8.2640    -0.5430 H     1 <1>   0.0800 
 42 H        2.6230     7.7430     0.1480 H     1 <1>   0.0800 
 43 H        2.3280     9.8650    -1.9910 H     1 <1>   0.0800 
 44 H        3.8250     9.3930    -1.2410 H     1 <1>   0.0800 
 45 H        1.4600    10.6550     0.1840 H     1 <1>   0.0800 
 46 H        4.0880    11.7970    -0.7280 H     1 <1>   0.0800 
 47 H        2.4830    12.4450    -1.0180 H     1 <1>   0.0800 
 48 H        2.5840     9.5130     1.9410 H     1 <1>   0.0800 
 49 H        4.1500     9.7770     1.1970 H     1 <1>   0.0800 
 50 H        4.0310    13.3180     1.0400 H     1 <1>   0.0800 
 51 H        2.2910    13.1900     1.2010 H     1 <1>   0.0800 
 52 H        2.5710    11.6610     2.8360 H     1 <1>   0.0800 
 53 H        4.3010    11.5960     2.5740 H     1 <1>   0.0800 
@<TRIPOS>BOND
  1   1   2  2   
  2   2   3  am  
  3   2   4  1   
  4   3   5  1   
  5   3  26  1   
  6   4   6  1   
  7   4  27  1   
  8   4  28  1   
  9   5   7  1   
 10   5   8  1   
 11   5  29  1   
 12   6   8  1   
 13   7   9  ar  
 14   7  10  ar  
 15   8  11  1   
 16   8  30  1   
 17   9  12  ar  
 18   9  31  1   
 19  10  13  ar  
 20  10  32  1   
 21  11  14  2   
 22  11  15  am  
 23  12  16  ar  
 24  12  33  1   
 25  13  16  ar  
 26  13  34  1   
 27  15  17  1   
 28  15  18  1   
 29  16  35  1   
 30  17  19  1   
 31  17  36  1   
 32  17  37  1   
 33  18  38  1   
 34  18  39  1   
 35  18  40  1   
 36  19  20  1   
 37  19  41  1   
 38  19  42  1   
 39  20  21  1   
 40  20  43  1   
 41  20  44  1   
 42  21  22  1   
 43  21  23  1   
 44  21  45  1   
 45  22  24  1   
 46  22  46  1   
 47  22  47  1   
 48  23  25  1   
 49  23  48  1   
 50  23  49  1   
 51  24  25  1   
 52  24  50  1   
 53  24  51  1   
 54  25  52  1   
 55  25  53  1   
@<TRIPOS>SUBSTRUCTURE
  1 ****   9 GROUP 4 **** **** 0

# MOE 2024.06 (io_trps.svl 2023.06)
