@<TRIPOS>MOLECULE
NONAME
45 46 1 0 0 
SMALL
USER_CHARGES


@<TRIPOS>ATOM
  1 S        0.0830    -0.1650     0.7280 S.o2  1 <1>   1.3330 
  2 O       -0.7680     0.9660     1.0190 O.2   1 <1>  -0.6500 
  3 O        0.6370    -0.9380     1.8170 O.2   1 <1>  -0.6500 
  4 N       -0.7780    -1.2330    -0.2730 N.am  1 <1>  -0.8490 
  5 C        1.3970     0.4080    -0.3510 C.3   1 <1>  -0.0550 
  6 C       -0.2000    -2.5800    -0.3190 C.3   1 <1>   0.1160 
  7 C       -2.1960    -1.3120     0.0910 C.3   1 <1>   0.1160 
  8 C        2.3270     1.4490     0.3030 C.3   1 <1>  -0.0800 
  9 C        3.2570     2.0700    -0.7250 C.3   1 <1>   0.2200 
 10 C        3.3270     0.7980     1.2620 C.3   1 <1>   0.1200 
 11 N        3.7380     3.3760    -0.2230 N.am  1 <1>  -0.7300 
 12 C        4.4170     1.0780    -0.7550 C.3   1 <1>   0.1200 
 13 O        4.4320     0.4370     0.4900 O.3   1 <1>  -0.5600 
 14 C        3.9560     4.4780    -0.9990 C.2   1 <1>   0.5440 
 15 O        3.6540     4.4220    -2.1750 O.2   1 <1>  -0.5700 
 16 C        4.5580     5.6650    -0.4350 C.ar  1 <1>   0.0860 
 17 C        4.0120     6.9280    -0.6600 C.ar  1 <1>   0.1900 
 18 C        5.7170     5.6110     0.3640 C.ar  1 <1>   0.0820 
 19 F        2.9110     7.0470    -1.3570 F     1 <1>  -0.1900 
 20 C        4.5900     8.0740    -0.1460 C.ar  1 <1>   0.1900 
 21 O        6.2550     4.3900     0.6130 O.3   1 <1>  -0.3630 
 22 C        6.2920     6.7760     0.8800 C.ar  1 <1>  -0.1500 
 23 F        4.0570     9.2480    -0.3770 F     1 <1>  -0.1900 
 24 C        5.7330     8.0160     0.6250 C.ar  1 <1>  -0.1500 
 25 C        7.4850     4.2070     1.2840 C.3   1 <1>   0.0400 
 26 H        1.9770    -0.4300    -0.6860 H     1 <1>   0.0800 
 27 H        0.9400     0.8530    -1.2130 H     1 <1>   0.0800 
 28 H       -0.7280    -3.1850    -1.0370 H     1 <1>   0.0800 
 29 H       -0.2630    -3.0510     0.6490 H     1 <1>   0.0800 
 30 H        0.8350    -2.5320    -0.6120 H     1 <1>   0.0800 
 31 H       -2.7150    -1.9840    -0.5700 H     1 <1>   0.0800 
 32 H       -2.6530    -0.3400     0.0070 H     1 <1>   0.0800 
 33 H       -2.3040    -1.6570     1.1060 H     1 <1>   0.0800 
 34 H        1.7310     2.1990     0.7950 H     1 <1>   0.0800 
 35 H        2.7990     2.1870    -1.6930 H     1 <1>   0.0800 
 36 H        2.9480    -0.0770     1.7610 H     1 <1>   0.0800 
 37 H        3.6630     1.5070     1.9980 H     1 <1>   0.0800 
 38 H        4.2730     3.3190     0.6480 H     1 <1>   0.3700 
 39 H        5.3640     1.5600    -0.9250 H     1 <1>   0.0800 
 40 H        4.2520     0.3260    -1.5050 H     1 <1>   0.0800 
 41 H        7.1780     6.7390     1.4860 H     1 <1>   0.1500 
 42 H        6.1670     8.9200     1.0160 H     1 <1>   0.1500 
 43 H        7.7040     3.1540     1.2990 H     1 <1>   0.0800 
 44 H        7.3940     4.5740     2.2910 H     1 <1>   0.0800 
 45 H        8.2570     4.7310     0.7490 H     1 <1>   0.0800 
@<TRIPOS>BOND
  1   1   2  2   
  2   1   3  2   
  3   1   4  am  
  4   1   5  1   
  5   4   6  1   
  6   4   7  1   
  7   5   8  1   
  8   5  26  1   
  9   5  27  1   
 10   6  28  1   
 11   6  29  1   
 12   6  30  1   
 13   7  31  1   
 14   7  32  1   
 15   7  33  1   
 16   8   9  1   
 17   8  10  1   
 18   8  34  1   
 19   9  11  1   
 20   9  12  1   
 21   9  35  1   
 22  10  13  1   
 23  10  36  1   
 24  10  37  1   
 25  11  14  am  
 26  11  38  1   
 27  12  13  1   
 28  12  39  1   
 29  12  40  1   
 30  14  15  2   
 31  14  16  1   
 32  16  17  ar  
 33  16  18  ar  
 34  17  19  1   
 35  17  20  ar  
 36  18  21  1   
 37  18  22  ar  
 38  20  23  1   
 39  20  24  ar  
 40  21  25  1   
 41  22  24  ar  
 42  22  41  1   
 43  24  42  1   
 44  25  43  1   
 45  25  44  1   
 46  25  45  1   
@<TRIPOS>SUBSTRUCTURE
  1 ****  11 GROUP 4 **** **** 0

# MOE 2024.06 (io_trps.svl 2023.06)
