@<TRIPOS>MOLECULE
NONAME
45 46 1 0 0 
SMALL
USER_CHARGES


@<TRIPOS>ATOM
  1 O        3.0900     1.6170     0.5510 O.2   1 <1>  -0.5700 
  2 C        2.9400     0.4350     0.7590 C.2   1 <1>   0.5690 
  3 N        2.5000    -0.5070    -0.1180 N.am  1 <1>  -0.6600 
  4 C        3.2530    -0.1770     2.0960 C.3   1 <1>  -0.0990 
  5 C        2.4340    -1.8450     0.5000 C.3   1 <1>   0.1400 
  6 C        1.9530    -0.3610    -1.5010 C.3   1 <1>   0.1400 
  7 C        3.1740    -1.6870     1.8340 C.3   1 <1>  -0.1600 
  8 C        2.4640     0.8730    -2.2540 C.3   1 <1>  -0.1600 
  9 C        3.9970     0.8930    -2.4270 C.3   1 <1>  -0.0990 
 10 C        4.5300     2.3020    -2.5840 C.2   1 <1>   0.5690 
 11 O        4.9790     2.6360    -3.6550 O.2   1 <1>  -0.5700 
 12 N        4.4680     3.1100    -1.4850 N.am  1 <1>  -0.4940 
 13 C        4.9150     4.4430    -1.3140 C.2   1 <1>  -0.0880 
 14 N        4.7800     5.1710    -0.1730 N.pl3 1 <1>   0.3140 
 15 C        5.5450     5.2500    -2.1980 C.2   1 <1>  -0.1500 
 16 N        5.3060     6.4110    -0.3070 N.2   1 <1>  -0.7070 
 17 C        4.1490     4.7440     1.0920 C.3   1 <1>   0.0960 
 18 C        5.7580     6.4430    -1.5200 C.2   1 <1>   0.1080 
 19 C        5.1220     3.9130     1.9420 C.3   1 <1>  -0.1600 
 20 C        6.4370     7.6620    -2.0980 C.3   1 <1>  -0.0590 
 21 C        4.4760     3.4740     3.2600 C.3   1 <1>  -0.2400 
 22 H        2.5070     0.1340     2.8040 H     1 <1>   0.0800 
 23 H        4.2290     0.1220     2.4330 H     1 <1>   0.0800 
 24 H        2.9110    -2.5810    -0.1250 H     1 <1>   0.0800 
 25 H        1.4040    -2.1130     0.6640 H     1 <1>   0.0800 
 26 H        0.8790    -0.3160    -1.4400 H     1 <1>   0.0800 
 27 H        2.2130    -1.2380    -2.0700 H     1 <1>   0.0800 
 28 H        2.6720    -2.2110     2.6280 H     1 <1>   0.0800 
 29 H        4.1670    -2.0890     1.7300 H     1 <1>   0.0800 
 30 H        2.1180     1.7530    -1.7420 H     1 <1>   0.0800 
 31 H        2.0120     0.8980    -3.2300 H     1 <1>   0.0800 
 32 H        4.2730     0.3110    -3.2870 H     1 <1>   0.0800 
 33 H        4.4890     0.4590    -1.5770 H     1 <1>   0.0800 
 34 H        4.0060     2.6720    -0.6730 H     1 <1>   0.3700 
 35 H        5.8270     5.0270    -3.2110 H     1 <1>   0.1500 
 36 H        3.2670     4.1760     0.8610 H     1 <1>   0.0800 
 37 H        3.8530     5.6260     1.6300 H     1 <1>   0.0800 
 38 H        5.9970     4.5050     2.1540 H     1 <1>   0.0800 
 39 H        5.4260     3.0410     1.3900 H     1 <1>   0.0800 
 40 H        6.7330     7.4800    -3.1140 H     1 <1>   0.0800 
 41 H        7.3050     7.8990    -1.5130 H     1 <1>   0.0800 
 42 H        5.7590     8.4950    -2.0700 H     1 <1>   0.0800 
 43 H        4.1920     4.3330     3.8440 H     1 <1>   0.0800 
 44 H        5.1710     2.8860     3.8330 H     1 <1>   0.0800 
 45 H        3.5990     2.8800     3.0690 H     1 <1>   0.0800 
@<TRIPOS>BOND
  1   1   2  2   
  2   2   3  am  
  3   2   4  1   
  4   3   5  1   
  5   3   6  1   
  6   4   7  1   
  7   4  22  1   
  8   4  23  1   
  9   5   7  1   
 10   5  24  1   
 11   5  25  1   
 12   6   8  1   
 13   6  26  1   
 14   6  27  1   
 15   7  28  1   
 16   7  29  1   
 17   8   9  1   
 18   8  30  1   
 19   8  31  1   
 20   9  10  1   
 21   9  32  1   
 22   9  33  1   
 23  10  11  2   
 24  10  12  am  
 25  12  13  1   
 26  12  34  1   
 27  13  14  1   
 28  13  15  2   
 29  14  16  1   
 30  14  17  1   
 31  15  18  1   
 32  15  35  1   
 33  16  18  2   
 34  17  19  1   
 35  17  36  1   
 36  17  37  1   
 37  18  20  1   
 38  19  21  1   
 39  19  38  1   
 40  19  39  1   
 41  20  40  1   
 42  20  41  1   
 43  20  42  1   
 44  21  43  1   
 45  21  44  1   
 46  21  45  1   
@<TRIPOS>SUBSTRUCTURE
  1 ****  12 GROUP 4 **** **** 0

# MOE 2024.06 (io_trps.svl 2023.06)
