@<TRIPOS>MOLECULE
NONAME
50 53 1 0 0 
SMALL
USER_CHARGES


@<TRIPOS>ATOM
  1 O       -0.6320     0.9350     2.2380 O.3   1 <1>  -0.5600 
  2 C        0.3960     0.9190     1.2940 C.3   1 <1>   0.1200 
  3 C       -1.8260     1.3940     1.6690 C.3   1 <1>   0.1200 
  4 C       -0.0230     1.8960     0.2000 C.3   1 <1>   0.2890 
  5 C       -1.5320     1.7210     0.1990 C.3   1 <1>  -0.0800 
  6 N        0.3020     3.2820     0.6270 N.pl3 1 <1>  -0.8690 
  7 C       -1.9700     0.5880    -0.7490 C.3   1 <1>  -0.0170 
  8 C        0.6890     4.3090    -0.1620 C.ar  1 <1>   0.4100 
  9 C       -3.4830     0.4280    -0.7680 C.ar  1 <1>  -0.1430 
 10 N        0.7260     4.0960    -1.4740 N.ar  1 <1>  -0.6200 
 11 C        1.0260     5.5310     0.3980 C.ar  1 <1>  -0.1500 
 12 C       -4.1170    -0.6250    -0.1400 C.ar  1 <1>  -0.1500 
 13 C       -4.3000     1.3310    -1.4170 C.ar  1 <1>  -0.1500 
 14 C        1.0990     5.0990    -2.2200 C.ar  1 <1>   0.7710 
 15 C        1.4180     6.5690    -0.4120 C.ar  1 <1>   0.4610 
 16 C       -5.4980    -0.7200    -0.1880 C.ar  1 <1>   0.1600 
 17 C       -5.6730     1.1450    -1.4050 C.ar  1 <1>   0.1600 
 18 N        1.4390     6.3060    -1.7290 N.ar  1 <1>  -0.1790 
 19 N        1.1320     4.8860    -3.5390 N.pl3 1 <1>  -0.9000 
 20 N        1.7710     7.8190     0.0220 N.pl3 1 <1>  -0.8380 
 21 N       -6.2910     0.1410    -0.8040 N.ar  1 <1>  -0.6200 
 22 C        1.6520     8.2460     1.4460 C.3   1 <1>   0.2090 
 23 C        2.3910     8.9130    -0.7810 C.3   1 <1>   0.2090 
 24 C        1.9880     9.7310     1.4470 C.3   1 <1>  -0.1600 
 25 C        2.9010     9.9160     0.2430 C.3   1 <1>  -0.1600 
 26 H        1.3240     1.1940     1.7630 H     1 <1>   0.0800 
 27 H        0.4670    -0.0810     0.9060 H     1 <1>   0.0800 
 28 H       -2.5830     0.6400     1.7920 H     1 <1>   0.0800 
 29 H       -2.1190     2.2810     2.2040 H     1 <1>   0.0800 
 30 H        0.4370     1.6650    -0.7450 H     1 <1>   0.0800 
 31 H       -2.0260     2.6290    -0.0980 H     1 <1>   0.0800 
 32 H        0.1950     3.4000     1.6400 H     1 <1>   0.4000 
 33 H       -1.5150    -0.3420    -0.4550 H     1 <1>   0.0800 
 34 H       -1.6380     0.8090    -1.7480 H     1 <1>   0.0800 
 35 H        0.9790     5.6450     1.4630 H     1 <1>   0.1500 
 36 H       -3.5530    -1.3740     0.3860 H     1 <1>   0.1500 
 37 H       -3.8860     2.1770    -1.9330 H     1 <1>   0.1500 
 38 H       -5.9750    -1.5480     0.3080 H     1 <1>   0.1500 
 39 H       -6.2950     1.8590    -1.9160 H     1 <1>   0.1500 
 40 H        1.6890     7.0430    -2.3660 H     1 <1>   0.4570 
 41 H        1.4180     5.5260    -4.2810 H     1 <1>   0.4000 
 42 H        0.8670     3.9540    -3.8720 H     1 <1>   0.4000 
 43 H        0.6590     8.0760     1.8270 H     1 <1>   0.0800 
 44 H        2.3700     7.7080     2.0430 H     1 <1>   0.0800 
 45 H        3.2010     8.5510    -1.3920 H     1 <1>   0.0800 
 46 H        1.6380     9.3790    -1.3970 H     1 <1>   0.0800 
 47 H        1.0830    10.2970     1.3140 H     1 <1>   0.0800 
 48 H        2.4560    10.0340     2.3670 H     1 <1>   0.0800 
 49 H        3.9140     9.6660     0.5090 H     1 <1>   0.0800 
 50 H        2.8800    10.9240    -0.1350 H     1 <1>   0.0800 
@<TRIPOS>BOND
  1   1   2  1   
  2   1   3  1   
  3   2   4  1   
  4   2  26  1   
  5   2  27  1   
  6   3   5  1   
  7   3  28  1   
  8   3  29  1   
  9   4   5  1   
 10   4   6  1   
 11   4  30  1   
 12   5   7  1   
 13   5  31  1   
 14   6   8  1   
 15   6  32  1   
 16   7   9  1   
 17   7  33  1   
 18   7  34  1   
 19   8  10  ar  
 20   8  11  ar  
 21   9  12  ar  
 22   9  13  ar  
 23  10  14  ar  
 24  11  15  ar  
 25  11  35  1   
 26  12  16  ar  
 27  12  36  1   
 28  13  17  ar  
 29  13  37  1   
 30  14  18  ar  
 31  14  19  1   
 32  15  18  ar  
 33  15  20  1   
 34  16  21  ar  
 35  16  38  1   
 36  17  21  ar  
 37  17  39  1   
 38  18  40  1   
 39  19  41  1   
 40  19  42  1   
 41  20  22  1   
 42  20  23  1   
 43  22  24  1   
 44  22  43  1   
 45  22  44  1   
 46  23  25  1   
 47  23  45  1   
 48  23  46  1   
 49  24  25  1   
 50  24  47  1   
 51  24  48  1   
 52  25  49  1   
 53  25  50  1   
@<TRIPOS>SUBSTRUCTURE
  1 ****   6 GROUP 4 **** **** 0

# MOE 2024.06 (io_trps.svl 2023.06)
