@<TRIPOS>MOLECULE
NONAME
49 51 1 0 0 
SMALL
USER_CHARGES


@<TRIPOS>ATOM
  1 S        0.1290    -1.5390    -2.6930 S.3   1 <1>  -0.0800 
  2 C        0.3040    -1.6600    -0.9570 C.2   1 <1>   0.4620 
  3 C       -1.0880    -2.7740    -2.6230 C.2   1 <1>  -0.1100 
  4 N       -0.4640    -2.5190    -0.4070 N.2   1 <1>  -0.5650 
  5 N        1.2090    -0.8680    -0.3350 N.pl3 1 <1>  -0.8840 
  6 C       -1.2810    -3.1740    -1.3460 C.2   1 <1>   0.1410 
  7 C       -2.2340    -4.2200    -0.9660 C.2   1 <1>   0.7160 
  8 O       -2.5470    -5.0470    -1.8060 O.2   1 <1>  -0.5700 
  9 N       -2.8220    -4.3260     0.2840 N.am  1 <1>  -0.6600 
 10 C       -3.4350    -5.6220     0.7120 C.3   1 <1>   0.1400 
 11 C       -2.8750    -3.1850     1.2450 C.3   1 <1>   0.1400 
 12 C       -4.9290    -5.6920     0.3610 C.3   1 <1>   0.1400 
 13 C       -4.1910    -3.0810     2.0290 C.3   1 <1>  -0.1600 
 14 N       -5.7610    -4.8240     1.2540 N.am  1 <1>  -0.6600 
 15 C       -5.4430    -3.3700     1.1940 C.3   1 <1>   0.1400 
 16 C       -6.7710    -5.2830     2.0730 C.2   1 <1>   0.5690 
 17 O       -7.3650    -4.5350     2.8170 O.2   1 <1>  -0.5700 
 18 C       -7.1650    -6.7580     2.1400 C.3   1 <1>   0.1810 
 19 O       -7.6200    -7.2440     0.8860 O.3   1 <1>  -0.3630 
 20 C       -8.0420    -8.5260     0.7410 C.ar  1 <1>   0.0830 
 21 C       -8.4430    -8.9110    -0.5260 C.ar  1 <1>  -0.1500 
 22 C       -8.0890    -9.4480     1.7850 C.ar  1 <1>  -0.1500 
 23 C       -8.8900   -10.1990    -0.7690 C.ar  1 <1>   0.0830 
 24 C       -8.5350   -10.7380     1.5480 C.ar  1 <1>  -0.1500 
 25 O       -9.2640   -10.4890    -2.0410 O.3   1 <1>  -0.3630 
 26 C       -8.9340   -11.1170     0.2780 C.ar  1 <1>  -0.1500 
 27 C       -9.7550   -11.7640    -2.3900 C.3   1 <1>   0.0400 
 28 H       -1.5460    -3.0930    -3.5420 H     1 <1>   0.1500 
 29 H        1.4020    -1.0150     0.6560 H     1 <1>   0.4000 
 30 H        1.8740    -0.3000    -0.8600 H     1 <1>   0.4000 
 31 H       -3.2960    -5.7680     1.7690 H     1 <1>   0.0800 
 32 H       -2.9300    -6.4280     0.2080 H     1 <1>   0.0800 
 33 H       -2.7560    -2.2670     0.6970 H     1 <1>   0.0800 
 34 H       -2.0490    -3.2640     1.9310 H     1 <1>   0.0800 
 35 H       -5.2380    -6.7170     0.4390 H     1 <1>   0.0800 
 36 H       -5.0710    -5.3950    -0.6640 H     1 <1>   0.0800 
 37 H       -4.2610    -2.0750     2.4010 H     1 <1>   0.0800 
 38 H       -4.1670    -3.7250     2.8900 H     1 <1>   0.0800 
 39 H       -5.3020    -3.0650     0.1710 H     1 <1>   0.0800 
 40 H       -6.2690    -2.8030     1.5890 H     1 <1>   0.0800 
 41 H       -7.9640    -6.8730     2.8490 H     1 <1>   0.0800 
 42 H       -6.3190    -7.3420     2.4470 H     1 <1>   0.0800 
 43 H       -8.4110    -8.2030    -1.3330 H     1 <1>   0.1500 
 44 H       -7.7900    -9.1870     2.7810 H     1 <1>   0.1500 
 45 H       -8.5720   -11.4490     2.3540 H     1 <1>   0.1500 
 46 H       -9.2750   -12.1230     0.1230 H     1 <1>   0.1500 
 47 H       -9.9930   -11.7550    -3.4380 H     1 <1>   0.0800 
 48 H      -10.6420   -11.9660    -1.8160 H     1 <1>   0.0800 
 49 H       -8.9920   -12.4970    -2.1950 H     1 <1>   0.0800 
@<TRIPOS>BOND
  1   1   2  1   
  2   1   3  1   
  3   2   4  2   
  4   2   5  1   
  5   3   6  2   
  6   3  28  1   
  7   4   6  1   
  8   5  29  1   
  9   5  30  1   
 10   6   7  1   
 11   7   8  2   
 12   7   9  am  
 13   9  10  1   
 14   9  11  1   
 15  10  12  1   
 16  10  31  1   
 17  10  32  1   
 18  11  13  1   
 19  11  33  1   
 20  11  34  1   
 21  12  14  1   
 22  12  35  1   
 23  12  36  1   
 24  13  15  1   
 25  13  37  1   
 26  13  38  1   
 27  14  15  1   
 28  14  16  am  
 29  15  39  1   
 30  15  40  1   
 31  16  17  2   
 32  16  18  1   
 33  18  19  1   
 34  18  41  1   
 35  18  42  1   
 36  19  20  1   
 37  20  21  ar  
 38  20  22  ar  
 39  21  23  ar  
 40  21  43  1   
 41  22  24  ar  
 42  22  44  1   
 43  23  25  1   
 44  23  26  ar  
 45  24  26  ar  
 46  24  45  1   
 47  25  27  1   
 48  26  46  1   
 49  27  47  1   
 50  27  48  1   
 51  27  49  1   
@<TRIPOS>SUBSTRUCTURE
  1 ****  12 GROUP 4 **** **** 0

# MOE 2024.06 (io_trps.svl 2023.06)
