@<TRIPOS>MOLECULE
NONAME
38 40 1 0 0 
SMALL
USER_CHARGES


@<TRIPOS>ATOM
  1 O       -0.6890    -1.1870    -0.0330 O.3   1 <1>  -0.5600 
  2 C        0.4540    -0.5370    -0.5020 C.3   1 <1>   0.1200 
  3 C       -1.7990    -0.3690    -0.2030 C.3   1 <1>   0.1200 
  4 C        0.1740     0.9670    -0.4270 C.3   1 <1>   0.2890 
  5 C       -1.2820     1.0460     0.0210 C.3   1 <1>  -0.0800 
  6 N        1.0480     1.6480     0.5570 N.pl3 1 <1>  -0.8690 
  7 C       -2.0880     2.1300    -0.7110 C.3   1 <1>  -0.0170 
  8 C        0.9620     3.0140     0.6450 C.ar  1 <1>   0.4100 
  9 C       -3.4710     2.2750    -0.1010 C.ar  1 <1>  -0.1440 
 10 N        0.3440     3.4990     1.7240 N.ar  1 <1>  -0.3100 
 11 C        1.4640     3.8290    -0.3510 C.ar  1 <1>  -0.1500 
 12 C       -4.6020     1.7360    -0.6780 C.ar  1 <1>  -0.1500 
 13 C       -3.6550     2.9650     1.0800 C.ar  1 <1>  -0.1500 
 14 N        0.1690     4.7920     1.8560 N.ar  1 <1>  -0.3100 
 15 C        1.2910     5.1850    -0.2080 C.ar  1 <1>  -0.1500 
 16 C       -5.8300     1.9070    -0.0610 C.ar  1 <1>   0.1600 
 17 C       -4.9280     3.0780     1.6140 C.ar  1 <1>   0.1600 
 18 C        0.6290     5.6180     0.9220 C.ar  1 <1>   0.1670 
 19 N       -6.0210     2.5640     1.0720 N.ar  1 <1>  -0.6200 
 20 C        0.3910     7.0960     1.1560 C.3   1 <1>  -0.0970 
 21 H        1.2930    -0.8280     0.1050 H     1 <1>   0.0800 
 22 H        0.6110    -0.8430    -1.5210 H     1 <1>   0.0800 
 23 H       -2.1630    -0.5080    -1.2070 H     1 <1>   0.0800 
 24 H       -2.5580    -0.6470     0.5080 H     1 <1>   0.0800 
 25 H        0.3140     1.4010    -1.4020 H     1 <1>   0.0800 
 26 H       -1.3240     1.2300     1.0810 H     1 <1>   0.0800 
 27 H        0.9090     1.2290     1.4820 H     1 <1>   0.4000 
 28 H       -2.1650     1.8980    -1.7580 H     1 <1>   0.0800 
 29 H       -1.5790     3.0750    -0.6230 H     1 <1>   0.0800 
 30 H        1.9690     3.4050    -1.1960 H     1 <1>   0.1500 
 31 H       -4.5430     1.1860    -1.5990 H     1 <1>   0.1500 
 32 H       -2.8190     3.4150     1.5880 H     1 <1>   0.1500 
 33 H        1.6580     5.8730    -0.9470 H     1 <1>   0.1500 
 34 H       -6.7030     1.4800    -0.5240 H     1 <1>   0.1500 
 35 H       -5.0510     3.6190     2.5360 H     1 <1>   0.1500 
 36 H        0.7990     7.6860     0.3560 H     1 <1>   0.0800 
 37 H        0.8560     7.3930     2.0780 H     1 <1>   0.0800 
 38 H       -0.6650     7.2840     1.2240 H     1 <1>   0.0800 
@<TRIPOS>BOND
  1   1   2  1   
  2   1   3  1   
  3   2   4  1   
  4   2  21  1   
  5   2  22  1   
  6   3   5  1   
  7   3  23  1   
  8   3  24  1   
  9   4   5  1   
 10   4   6  1   
 11   4  25  1   
 12   5   7  1   
 13   5  26  1   
 14   6   8  1   
 15   6  27  1   
 16   7   9  1   
 17   7  28  1   
 18   7  29  1   
 19   8  10  ar  
 20   8  11  ar  
 21   9  12  ar  
 22   9  13  ar  
 23  10  14  ar  
 24  11  15  ar  
 25  11  30  1   
 26  12  16  ar  
 27  12  31  1   
 28  13  17  ar  
 29  13  32  1   
 30  14  18  ar  
 31  15  18  ar  
 32  15  33  1   
 33  16  19  ar  
 34  16  34  1   
 35  17  19  ar  
 36  17  35  1   
 37  18  20  1   
 38  20  36  1   
 39  20  37  1   
 40  20  38  1   
@<TRIPOS>SUBSTRUCTURE
  1 ****   7 GROUP 4 **** **** 0

# MOE 2024.06 (io_trps.svl 2023.06)
