@<TRIPOS>MOLECULE
NONAME
48 49 1 0 0 
SMALL
USER_CHARGES


@<TRIPOS>ATOM
  1 S        0.3740     0.2820    -0.4710 S.o2  1 <1>   1.3330 
  2 O       -0.8180     1.0630    -0.7130 O.2   1 <1>  -0.6500 
  3 O        0.4980    -1.0340    -1.0580 O.2   1 <1>  -0.6500 
  4 N        0.5300     0.1140     1.2130 N.am  1 <1>  -0.8490 
  5 C        1.8160     1.2360    -0.9470 C.3   1 <1>  -0.0550 
  6 C        0.0940     1.3020     1.9570 C.3   1 <1>   0.1160 
  7 C       -0.1740    -1.0690     1.7160 C.3   1 <1>   0.1160 
  8 C        3.1550     0.4790    -0.8010 C.3   1 <1>  -0.0800 
  9 C        4.3610     1.2170    -1.3590 C.3   1 <1>   0.2200 
 10 C        3.5800     0.1770     0.6430 C.3   1 <1>   0.1200 
 11 N        4.3000     2.6460    -0.9830 N.am  1 <1>  -0.7300 
 12 C        5.4840     0.5530    -0.5760 C.3   1 <1>   0.1200 
 13 O        4.9670     0.3570     0.7050 O.3   1 <1>  -0.5600 
 14 C        4.6950     3.7040    -1.7420 C.2   1 <1>   0.5440 
 15 O        4.9960     3.4830    -2.9000 O.2   1 <1>  -0.5700 
 16 C        4.7510     5.0480    -1.1900 C.ar  1 <1>   0.0860 
 17 C        4.8170     5.3310     0.1880 C.ar  1 <1>   0.0820 
 18 C        4.7250     6.1420    -2.0590 C.ar  1 <1>  -0.1500 
 19 O        4.8770     4.3350     1.1020 O.3   1 <1>  -0.3630 
 20 C        4.8120     6.6430     0.6600 C.ar  1 <1>  -0.1440 
 21 C        4.7400     7.4420    -1.5980 C.ar  1 <1>  -0.1500 
 22 C        6.1550     3.8100     1.3940 C.3   1 <1>   0.0400 
 23 C        4.7780     7.6930    -0.2390 C.ar  1 <1>  -0.1500 
 24 C        4.8410     6.9480     2.1530 C.3   1 <1>  -0.0970 
 25 H        1.7070     1.5150    -1.9770 H     1 <1>   0.0800 
 26 H        1.8440     2.1420    -0.3750 H     1 <1>   0.0800 
 27 H        0.2940     1.1740     3.0080 H     1 <1>   0.0800 
 28 H       -0.9620     1.4680     1.8190 H     1 <1>   0.0800 
 29 H        0.6270     2.1730     1.6160 H     1 <1>   0.0800 
 30 H       -0.0470    -1.1560     2.7810 H     1 <1>   0.0800 
 31 H        0.2240    -1.9590     1.2560 H     1 <1>   0.0800 
 32 H       -1.2250    -1.0040     1.4870 H     1 <1>   0.0800 
 33 H        3.0750    -0.4610    -1.3200 H     1 <1>   0.0800 
 34 H        4.4740     1.1000    -2.4240 H     1 <1>   0.0800 
 35 H        3.3440    -0.8350     0.9260 H     1 <1>   0.0800 
 36 H        3.1360     0.8620     1.3430 H     1 <1>   0.0800 
 37 H        4.2430     2.8110     0.0290 H     1 <1>   0.3700 
 38 H        6.3700     1.1600    -0.5260 H     1 <1>   0.0800 
 39 H        5.7200    -0.4120    -0.9900 H     1 <1>   0.0800 
 40 H        4.6880     5.9630    -3.1200 H     1 <1>   0.1500 
 41 H        4.7190     8.2620    -2.2950 H     1 <1>   0.1500 
 42 H        6.0340     2.9740     2.0610 H     1 <1>   0.0800 
 43 H        6.7480     4.5750     1.8620 H     1 <1>   0.0800 
 44 H        6.6230     3.4840     0.4810 H     1 <1>   0.0800 
 45 H        4.7820     8.7120     0.1080 H     1 <1>   0.1500 
 46 H        4.5880     7.9750     2.3420 H     1 <1>   0.0800 
 47 H        5.8220     6.7580     2.5470 H     1 <1>   0.0800 
 48 H        4.1320     6.3270     2.6720 H     1 <1>   0.0800 
@<TRIPOS>BOND
  1   1   2  2   
  2   1   3  2   
  3   1   4  am  
  4   1   5  1   
  5   4   6  1   
  6   4   7  1   
  7   5   8  1   
  8   5  25  1   
  9   5  26  1   
 10   6  27  1   
 11   6  28  1   
 12   6  29  1   
 13   7  30  1   
 14   7  31  1   
 15   7  32  1   
 16   8   9  1   
 17   8  10  1   
 18   8  33  1   
 19   9  11  1   
 20   9  12  1   
 21   9  34  1   
 22  10  13  1   
 23  10  35  1   
 24  10  36  1   
 25  11  14  am  
 26  11  37  1   
 27  12  13  1   
 28  12  38  1   
 29  12  39  1   
 30  14  15  2   
 31  14  16  1   
 32  16  17  ar  
 33  16  18  ar  
 34  17  19  1   
 35  17  20  ar  
 36  18  21  ar  
 37  18  40  1   
 38  19  22  1   
 39  20  23  ar  
 40  20  24  1   
 41  21  23  ar  
 42  21  41  1   
 43  22  42  1   
 44  22  43  1   
 45  22  44  1   
 46  23  45  1   
 47  24  46  1   
 48  24  47  1   
 49  24  48  1   
@<TRIPOS>SUBSTRUCTURE
  1 ****  11 GROUP 4 **** **** 0

# MOE 2024.06 (io_trps.svl 2023.06)
