@<TRIPOS>MOLECULE
NONAME
43 45 1 0 0 
SMALL
USER_CHARGES


@<TRIPOS>ATOM
  1 F       -1.4920    -0.3190    -1.1650 F     1 <1>  -0.1900 
  2 C       -2.2800     0.4380    -0.4310 C.ar  1 <1>   0.1900 
  3 C       -1.7500     1.5850     0.1970 C.ar  1 <1>  -0.1710 
  4 C       -3.5950     0.0720    -0.3130 C.ar  1 <1>  -0.1500 
  5 O       -0.5580     1.9630     0.0950 O.3   1 <1>  -0.8290 
  6 C       -2.6350     2.3340     0.9810 C.ar  1 <1>  -0.1500 
  7 C       -4.4860     0.8460     0.4450 C.ar  1 <1>   0.0860 
  8 C       -3.9560     1.9710     1.1010 C.ar  1 <1>  -0.1500 
  9 C       -5.8780     0.5030     0.5350 C.2   1 <1>   0.5440 
 10 O       -6.2100    -0.6610     0.7210 O.2   1 <1>  -0.5700 
 11 N       -6.8790     1.4530     0.4010 N.am  1 <1>  -0.6600 
 12 C       -8.2790     1.1970     0.8600 C.3   1 <1>   0.1400 
 13 C       -6.7010     2.7220    -0.3560 C.3   1 <1>   0.1400 
 14 C       -9.2740     1.2030    -0.3280 C.3   1 <1>   0.0000 
 15 C       -7.6660     2.7640    -1.5460 C.3   1 <1>  -0.1600 
 16 C      -10.7200     0.9960     0.1540 C.3   1 <1>   0.2000 
 17 C       -9.1230     2.5210    -1.1170 C.3   1 <1>  -0.1600 
 18 C       -9.0640    -0.0380    -1.2130 C.3   1 <1>  -0.1600 
 19 O      -10.9780     1.7110     1.3270 O.3   1 <1>  -0.5600 
 20 C      -10.8740    -0.5130     0.3710 C.3   1 <1>  -0.1600 
 21 C       -9.8030    -1.1770    -0.5050 C.3   1 <1>  -0.1600 
 22 C      -12.3250     1.8210     1.6630 C.3   1 <1>   0.0400 
 23 H       -3.9530    -0.8100    -0.8070 H     1 <1>   0.1500 
 24 H       -2.2310     3.1960     1.4780 H     1 <1>   0.1500 
 25 H       -4.6090     2.5610     1.7150 H     1 <1>   0.1500 
 26 H       -8.3350     0.2610     1.3890 H     1 <1>   0.0800 
 27 H       -8.5460     1.9710     1.5570 H     1 <1>   0.0800 
 28 H       -6.8960     3.5500     0.3040 H     1 <1>   0.0800 
 29 H       -5.6920     2.8130    -0.7210 H     1 <1>   0.0800 
 30 H       -7.5870     3.7220    -2.0270 H     1 <1>   0.0800 
 31 H       -7.3640     2.0170    -2.2600 H     1 <1>   0.0800 
 32 H      -11.3980     1.3270    -0.6150 H     1 <1>   0.0800 
 33 H       -9.7580     2.5110    -1.9860 H     1 <1>   0.0800 
 34 H       -9.4410     3.3370    -0.4900 H     1 <1>   0.0800 
 35 H       -9.5150     0.1230    -2.1770 H     1 <1>   0.0800 
 36 H       -8.0240    -0.2740    -1.3590 H     1 <1>   0.0800 
 37 H      -10.6960    -0.7610     1.4030 H     1 <1>   0.0800 
 38 H      -11.8580    -0.8370     0.0840 H     1 <1>   0.0800 
 39 H       -9.1110    -1.7190     0.1190 H     1 <1>   0.0800 
 40 H      -10.2340    -1.8600    -1.2170 H     1 <1>   0.0800 
 41 H      -12.3970     2.4060     2.5630 H     1 <1>   0.0800 
 42 H      -12.7340     0.8420     1.8360 H     1 <1>   0.0800 
 43 H      -12.8510     2.3180     0.8660 H     1 <1>   0.0800 
@<TRIPOS>BOND
  1   1   2  1   
  2   2   3  ar  
  3   2   4  ar  
  4   3   5  1   
  5   3   6  ar  
  6   4   7  ar  
  7   4  23  1   
  8   6   8  ar  
  9   6  24  1   
 10   7   8  ar  
 11   7   9  1   
 12   8  25  1   
 13   9  10  2   
 14   9  11  am  
 15  11  12  1   
 16  11  13  1   
 17  12  14  1   
 18  12  26  1   
 19  12  27  1   
 20  13  15  1   
 21  13  28  1   
 22  13  29  1   
 23  14  16  1   
 24  14  17  1   
 25  14  18  1   
 26  15  17  1   
 27  15  30  1   
 28  15  31  1   
 29  16  19  1   
 30  16  20  1   
 31  16  32  1   
 32  17  33  1   
 33  17  34  1   
 34  18  21  1   
 35  18  35  1   
 36  18  36  1   
 37  19  22  1   
 38  20  21  1   
 39  20  37  1   
 40  20  38  1   
 41  21  39  1   
 42  21  40  1   
 43  22  41  1   
 44  22  42  1   
 45  22  43  1   
@<TRIPOS>SUBSTRUCTURE
  1 ****  11 GROUP 4 **** **** 0

# MOE 2024.06 (io_trps.svl 2023.06)
