@<TRIPOS>MOLECULE
NONAME
47 51 1 0 0 
SMALL
USER_CHARGES


@<TRIPOS>ATOM
  1 O        1.0480     0.0210    -1.2060 O.3   1 <1>  -0.6800 
  2 C        1.2730     0.2090     0.1470 C.3   1 <1>   0.4240 
  3 C        0.4770     1.4380     0.6360 C.ar  1 <1>  -0.1440 
  4 C        2.7890     0.3920     0.3910 C.3   1 <1>  -0.0800 
  5 C        0.8090    -1.0930     0.8210 C.3   1 <1>  -0.1600 
  6 C       -0.2230     2.2690    -0.2360 C.ar  1 <1>  -0.1500 
  7 C        0.4490     1.7490     1.9920 C.ar  1 <1>  -0.1500 
  8 C        3.6380    -0.8920     0.3770 C.3   1 <1>  -0.0800 
  9 C        3.4810     1.3700    -0.5530 C.3   1 <1>   0.2090 
 10 C        1.5410    -2.3620     0.3210 C.3   1 <1>  -0.1600 
 11 C       -0.9250     3.3670     0.2310 C.ar  1 <1>  -0.1500 
 12 C       -0.2510     2.8470     2.4630 C.ar  1 <1>  -0.1500 
 13 C        2.9380    -2.0970    -0.2770 C.3   1 <1>  -0.1600 
 14 C        4.9500    -0.5120    -0.3210 C.3   1 <1>   0.2090 
 15 N        4.9050     0.9530    -0.5760 N.pl3 1 <1>  -0.8220 
 16 C       -0.9410     3.6580     1.5820 C.ar  1 <1>  -0.1500 
 17 C        5.7360     1.7270     0.2500 C.2   1 <1>   0.2700 
 18 N        5.8720     1.5550     1.5340 N.2   1 <1>  -0.3380 
 19 N        6.4820     2.7560    -0.1880 N.pl3 1 <1>   0.3340 
 20 N        6.7250     2.4790     1.9780 N.2   1 <1>  -0.3380 
 21 C        7.0870     3.1940     0.9480 C.2   1 <1>   0.1410 
 22 C        6.7150     3.3660    -1.4200 C.2   1 <1>  -0.1810 
 23 C        7.9750     4.2990     0.8690 C.2   1 <1>  -0.1050 
 24 C        7.5640     4.4240    -1.5030 C.2   1 <1>  -0.1500 
 25 C        8.2100     4.9030    -0.3290 C.2   1 <1>  -0.1500 
 26 H        1.4070    -0.8520    -1.4400 H     1 <1>   0.4000 
 27 H        2.9100     0.8070     1.3750 H     1 <1>   0.0800 
 28 H        0.9880    -1.0040     1.8770 H     1 <1>   0.0800 
 29 H       -0.2550    -1.2020     0.6960 H     1 <1>   0.0800 
 30 H       -0.2320     2.0730    -1.2930 H     1 <1>   0.1500 
 31 H        0.9780     1.1410     2.7040 H     1 <1>   0.1500 
 32 H        3.8680    -1.1570     1.3950 H     1 <1>   0.0800 
 33 H        3.3680     2.3830    -0.2030 H     1 <1>   0.0800 
 34 H        3.0920     1.3040    -1.5540 H     1 <1>   0.0800 
 35 H        1.6360    -3.0430     1.1500 H     1 <1>   0.0800 
 36 H        0.9360    -2.8550    -0.4210 H     1 <1>   0.0800 
 37 H       -1.4590     3.9950    -0.4610 H     1 <1>   0.1500 
 38 H       -0.2580     3.0690     3.5150 H     1 <1>   0.1500 
 39 H        2.8470    -1.9170    -1.3350 H     1 <1>   0.0800 
 40 H        3.5480    -2.9770    -0.1610 H     1 <1>   0.0800 
 41 H        5.0450    -1.0210    -1.2640 H     1 <1>   0.0800 
 42 H        5.7970    -0.7730     0.2930 H     1 <1>   0.0800 
 43 H       -1.4860     4.5110     1.9450 H     1 <1>   0.1500 
 44 H        6.1900     2.9430    -2.2570 H     1 <1>   0.1500 
 45 H        8.4400     4.6250     1.7810 H     1 <1>   0.1500 
 46 H        7.7670     4.9180    -2.4390 H     1 <1>   0.1500 
 47 H        8.8790     5.7430    -0.4180 H     1 <1>   0.1500 
@<TRIPOS>BOND
  1   1   2  1   
  2   1  26  1   
  3   2   3  1   
  4   2   4  1   
  5   2   5  1   
  6   3   6  ar  
  7   3   7  ar  
  8   4   8  1   
  9   4   9  1   
 10   4  27  1   
 11   5  10  1   
 12   5  28  1   
 13   5  29  1   
 14   6  11  ar  
 15   6  30  1   
 16   7  12  ar  
 17   7  31  1   
 18   8  13  1   
 19   8  14  1   
 20   8  32  1   
 21   9  15  1   
 22   9  33  1   
 23   9  34  1   
 24  10  13  1   
 25  10  35  1   
 26  10  36  1   
 27  11  16  ar  
 28  11  37  1   
 29  12  16  ar  
 30  12  38  1   
 31  13  39  1   
 32  13  40  1   
 33  14  15  1   
 34  14  41  1   
 35  14  42  1   
 36  15  17  1   
 37  16  43  1   
 38  17  18  2   
 39  17  19  1   
 40  18  20  1   
 41  19  21  1   
 42  19  22  1   
 43  20  21  2   
 44  21  23  1   
 45  22  24  2   
 46  22  44  1   
 47  23  25  2   
 48  23  45  1   
 49  24  25  1   
 50  24  46  1   
 51  25  47  1   
@<TRIPOS>SUBSTRUCTURE
  1 ****   9 GROUP 4 **** **** 0

# MOE 2024.06 (io_trps.svl 2023.06)
