@<TRIPOS>MOLECULE
NONAME
53 56 1 0 0 
SMALL
USER_CHARGES


@<TRIPOS>ATOM
  1 O        1.2550     0.1010     0.5810 O.2   1 <1>  -0.5700 
  2 C        1.3180    -1.0710     0.3440 C.2   1 <1>   0.8520 
  3 N        0.2580    -1.8170    -0.0340 N.pl3 1 <1>  -0.8600 
  4 C        2.5440    -2.0010     0.4020 C.3   1 <1>   0.3890 
  5 C        0.5970    -3.0760    -0.2310 C.cat 1 <1>   1.2000 
  6 N        1.8820    -3.2590    -0.0050 N.pl3 1 <1>  -0.8440 
  7 C        3.6280    -1.6400    -0.6260 C.3   1 <1>  -0.1600 
  8 C        3.1110    -2.1660     1.8220 C.3   1 <1>  -0.1600 
  9 N       -0.2570    -4.0280    -0.6080 N.pl3 1 <1>  -0.7220 
 10 C        4.4310    -0.4250    -0.1620 C.3   1 <1>   0.2090 
 11 C        3.9240    -0.9370     2.2250 C.3   1 <1>   0.2090 
 12 C        0.1250    -5.4580    -0.8370 C.3   1 <1>   0.0880 
 13 C       -1.7180    -3.8030    -0.8580 C.3   1 <1>   0.0880 
 14 N        4.9610    -0.7210     1.1910 N.pl3 1 <1>  -0.8380 
 15 C        6.1050    -0.0560     1.6050 C.ar  1 <1>   0.4100 
 16 N        6.2090     1.2140     1.2550 N.ar  1 <1>  -0.6200 
 17 C        7.0780    -0.7130     2.3740 C.ar  1 <1>   0.1600 
 18 C        7.3150     1.8200     1.7240 C.ar  1 <1>   0.3960 
 19 N        8.1730    -0.1550     2.8440 N.ar  1 <1>  -0.6200 
 20 C        7.5870     3.2350     1.4560 C.2   1 <1>   0.5440 
 21 C        8.2490     1.1230     2.4990 C.ar  1 <1>   0.1600 
 22 O        8.1910     3.8820     2.2950 O.2   1 <1>  -0.5700 
 23 N        7.2320     3.8940     0.2920 N.am  1 <1>  -0.6600 
 24 C        7.6030     5.3010     0.0230 C.3   1 <1>   0.1400 
 25 C        6.5720     3.2910    -0.8880 C.3   1 <1>   0.1400 
 26 C        7.4900     5.4480    -1.4890 C.3   1 <1>  -0.1600 
 27 C        6.4280     4.4300    -1.8920 C.3   1 <1>  -0.1600 
 28 H       -0.6620    -1.4160    -0.1390 H     1 <1>   0.4500 
 29 H        2.3820    -4.1400    -0.0890 H     1 <1>   0.4500 
 30 H        3.1880    -1.4230    -1.5830 H     1 <1>   0.0800 
 31 H        4.3130    -2.4600    -0.7450 H     1 <1>   0.0800 
 32 H        3.7640    -3.0210     1.8620 H     1 <1>   0.0800 
 33 H        2.3180    -2.3090     2.5340 H     1 <1>   0.0800 
 34 H        3.8190     0.4620    -0.1240 H     1 <1>   0.0800 
 35 H        5.2480    -0.2420    -0.8400 H     1 <1>   0.0800 
 36 H        4.3860    -1.0970     3.1860 H     1 <1>   0.0800 
 37 H        3.3000    -0.0600     2.2960 H     1 <1>   0.0800 
 38 H       -0.4350    -6.0960    -0.1730 H     1 <1>   0.0800 
 39 H        1.1730    -5.6300    -0.6670 H     1 <1>   0.0800 
 40 H       -0.1030    -5.7390    -1.8520 H     1 <1>   0.0800 
 41 H       -2.3010    -4.4280    -0.2010 H     1 <1>   0.0800 
 42 H       -1.9580    -4.0600    -1.8760 H     1 <1>   0.0800 
 43 H       -2.0070    -2.7800    -0.6920 H     1 <1>   0.0800 
 44 H        6.9130    -1.7500     2.5940 H     1 <1>   0.1500 
 45 H        9.1110     1.6630     2.8520 H     1 <1>   0.1500 
 46 H        8.6010     5.5140     0.3700 H     1 <1>   0.0800 
 47 H        6.9020     5.9480     0.5230 H     1 <1>   0.0800 
 48 H        5.6080     2.8900    -0.6250 H     1 <1>   0.0800 
 49 H        7.1990     2.5100    -1.2850 H     1 <1>   0.0800 
 50 H        8.4340     5.1900    -1.9350 H     1 <1>   0.0800 
 51 H        7.2280     6.4520    -1.7730 H     1 <1>   0.0800 
 52 H        5.4490     4.8640    -1.7860 H     1 <1>   0.0800 
 53 H        6.5510     4.0880    -2.9050 H     1 <1>   0.0800 
@<TRIPOS>BOND
  1   1   2  2   
  2   2   3  1   
  3   2   4  1   
  4   3   5  ar  
  5   3  28  1   
  6   4   6  1   
  7   4   7  1   
  8   4   8  1   
  9   5   6  ar  
 10   5   9  ar  
 11   6  29  1   
 12   7  10  1   
 13   7  30  1   
 14   7  31  1   
 15   8  11  1   
 16   8  32  1   
 17   8  33  1   
 18   9  12  1   
 19   9  13  1   
 20  10  14  1   
 21  10  34  1   
 22  10  35  1   
 23  11  14  1   
 24  11  36  1   
 25  11  37  1   
 26  12  38  1   
 27  12  39  1   
 28  12  40  1   
 29  13  41  1   
 30  13  42  1   
 31  13  43  1   
 32  14  15  1   
 33  15  16  ar  
 34  15  17  ar  
 35  16  18  ar  
 36  17  19  ar  
 37  17  44  1   
 38  18  20  1   
 39  18  21  ar  
 40  19  21  ar  
 41  20  22  2   
 42  20  23  am  
 43  21  45  1   
 44  23  24  1   
 45  23  25  1   
 46  24  26  1   
 47  24  46  1   
 48  24  47  1   
 49  25  27  1   
 50  25  48  1   
 51  25  49  1   
 52  26  27  1   
 53  26  50  1   
 54  26  51  1   
 55  27  52  1   
 56  27  53  1   
@<TRIPOS>SUBSTRUCTURE
  1 ****  10 GROUP 4 **** **** 0

# MOE 2024.06 (io_trps.svl 2023.06)
