@<TRIPOS>MOLECULE
NONAME
52 55 1 0 0 
SMALL
USER_CHARGES


@<TRIPOS>ATOM
  1 O       -0.9870    -1.6160     0.7530 O.2   1 <1>  -0.5700 
  2 C        0.1900    -1.7250     0.5040 C.2   1 <1>   0.5690 
  3 N        0.9620    -2.7020     1.0740 N.am  1 <1>  -0.6600 
  4 C        0.7860    -0.7530    -0.5020 C.3   1 <1>  -0.0990 
  5 C        2.4210    -2.8690     0.8230 C.3   1 <1>   0.1400 
  6 C        0.3910    -3.6430     2.0980 C.3   1 <1>   0.2010 
  7 C        2.3200    -0.7100    -0.4820 C.3   1 <1>  -0.1600 
  8 C        2.8710    -2.1370    -0.4450 C.3   1 <1>  -0.1600 
  9 C        0.3320    -5.1010     1.6340 C.2   1 <1>   0.5690 
 10 O        1.1630    -5.8670     2.0680 O.2   1 <1>  -0.5700 
 11 N       -0.6330    -5.5260     0.7600 N.am  1 <1>  -0.6600 
 12 C       -1.6300    -4.6670     0.0720 C.3   1 <1>   0.1400 
 13 C       -0.7790    -6.9390     0.3490 C.3   1 <1>   0.1400 
 14 C       -2.4260    -5.6200    -0.8240 C.3   1 <1>   0.2000 
 15 C       -2.1700    -7.0240    -0.2760 C.3   1 <1>  -0.0800 
 16 O       -3.7840    -5.3450    -0.7880 O.3   1 <1>  -0.6800 
 17 C       -2.2940    -8.1150    -1.3520 C.3   1 <1>  -0.0170 
 18 C       -2.0580    -9.5010    -0.7610 C.ar  1 <1>  -0.1440 
 19 C       -3.0460   -10.1830    -0.0130 C.ar  1 <1>   0.0000 
 20 C       -0.8570   -10.1250    -0.9380 C.ar  1 <1>  -0.1500 
 21 C       -2.7120   -11.4560     0.5110 C.ar  1 <1>   0.3100 
 22 C       -4.3430    -9.6820     0.2450 C.ar  1 <1>  -0.1500 
 23 C       -0.6310   -11.3890    -0.3810 C.ar  1 <1>   0.1600 
 24 N       -1.5040   -12.0430     0.3170 N.ar  1 <1>  -0.6200 
 25 C       -3.6680   -12.1520     1.2670 C.ar  1 <1>  -0.1500 
 26 C       -5.2530   -10.3870     0.9850 C.ar  1 <1>  -0.1500 
 27 C       -4.9130   -11.6380     1.5050 C.ar  1 <1>  -0.1500 
 28 H        0.4510    -1.0540    -1.4770 H     1 <1>   0.0800 
 29 H        0.3950     0.2290    -0.3090 H     1 <1>   0.0800 
 30 H        2.9590    -2.4800     1.6700 H     1 <1>   0.0800 
 31 H        2.6580    -3.9160     0.7290 H     1 <1>   0.0800 
 32 H        0.9980    -3.5960     2.9840 H     1 <1>   0.0800 
 33 H       -0.5990    -3.3360     2.3790 H     1 <1>   0.0800 
 34 H        2.6820    -0.1910    -1.3540 H     1 <1>   0.0800 
 35 H        2.6540    -0.1740     0.3910 H     1 <1>   0.0800 
 36 H        3.9460    -2.1150    -0.4750 H     1 <1>   0.0800 
 37 H        2.5330    -2.6850    -1.3080 H     1 <1>   0.0800 
 38 H       -2.2630    -4.1880     0.7980 H     1 <1>   0.0800 
 39 H       -1.1310    -3.9270    -0.5280 H     1 <1>   0.0800 
 40 H       -0.0140    -7.1700    -0.3710 H     1 <1>   0.0800 
 41 H       -0.6840    -7.5990     1.1960 H     1 <1>   0.0800 
 42 H       -2.0890    -5.5280    -1.8420 H     1 <1>   0.0800 
 43 H       -2.8600    -7.2220     0.5250 H     1 <1>   0.0800 
 44 H       -4.1030    -5.3290     0.1350 H     1 <1>   0.4000 
 45 H       -1.5770    -7.9280    -2.1330 H     1 <1>   0.0800 
 46 H       -3.2670    -8.0730    -1.8100 H     1 <1>   0.0800 
 47 H       -0.0600    -9.6700    -1.4970 H     1 <1>   0.1500 
 48 H       -4.6280    -8.7240    -0.1490 H     1 <1>   0.1500 
 49 H        0.3300   -11.8460    -0.5430 H     1 <1>   0.1500 
 50 H       -3.3840   -13.1130     1.6560 H     1 <1>   0.1500 
 51 H       -6.2370    -9.9930     1.1740 H     1 <1>   0.1500 
 52 H       -5.6360   -12.1830     2.0870 H     1 <1>   0.1500 
@<TRIPOS>BOND
  1   1   2  2   
  2   2   3  am  
  3   2   4  1   
  4   3   5  1   
  5   3   6  1   
  6   4   7  1   
  7   4  28  1   
  8   4  29  1   
  9   5   8  1   
 10   5  30  1   
 11   5  31  1   
 12   6   9  1   
 13   6  32  1   
 14   6  33  1   
 15   7   8  1   
 16   7  34  1   
 17   7  35  1   
 18   8  36  1   
 19   8  37  1   
 20   9  10  2   
 21   9  11  am  
 22  11  12  1   
 23  11  13  1   
 24  12  14  1   
 25  12  38  1   
 26  12  39  1   
 27  13  15  1   
 28  13  40  1   
 29  13  41  1   
 30  14  15  1   
 31  14  16  1   
 32  14  42  1   
 33  15  17  1   
 34  15  43  1   
 35  16  44  1   
 36  17  18  1   
 37  17  45  1   
 38  17  46  1   
 39  18  19  ar  
 40  18  20  ar  
 41  19  21  ar  
 42  19  22  ar  
 43  20  23  ar  
 44  20  47  1   
 45  21  24  ar  
 46  21  25  ar  
 47  22  26  ar  
 48  22  48  1   
 49  23  24  ar  
 50  23  49  1   
 51  25  27  ar  
 52  25  50  1   
 53  26  27  ar  
 54  26  51  1   
 55  27  52  1   
@<TRIPOS>SUBSTRUCTURE
  1 ****  13 GROUP 4 **** **** 0

# MOE 2024.06 (io_trps.svl 2023.06)
