@<TRIPOS>MOLECULE
NONAME
54 57 1 0 0 
SMALL
USER_CHARGES


@<TRIPOS>ATOM
  1 O        1.5430     3.5910    -1.6400 O.2   1 <1>  -0.5700 
  2 C        0.6590     4.3070    -1.2330 C.2   1 <1>   0.5690 
  3 N       -0.2720     3.8780    -0.3260 N.am  1 <1>  -0.6600 
  4 C        0.5970     5.7420    -1.7570 C.3   1 <1>   0.1810 
  5 C       -1.3830     4.7700     0.1330 C.3   1 <1>   0.3640 
  6 C       -0.2580     2.5020     0.2470 C.3   1 <1>   0.0600 
  7 O       -0.7000     6.3060    -1.6930 O.3   1 <1>  -0.5600 
  8 C       -2.7680     4.1390    -0.1040 C.ar  1 <1>  -0.1440 
  9 C       -1.3220     6.2270    -0.4140 C.3   1 <1>   0.2610 
 10 C       -3.2530     3.6790    -1.3320 C.ar  1 <1>  -0.1440 
 11 C       -3.5900     4.0410     1.0150 C.ar  1 <1>  -0.1500 
 12 C       -0.6710     7.2170     0.5620 C.2   1 <1>   0.5690 
 13 C       -4.5300     3.1370    -1.4030 C.ar  1 <1>  -0.1500 
 14 C       -2.4560     3.7320    -2.6300 C.3   1 <1>  -0.0960 
 15 C       -4.8590     3.5000     0.9320 C.ar  1 <1>  -0.1500 
 16 O       -0.6360     6.9790     1.7480 O.2   1 <1>  -0.5700 
 17 N       -0.1330     8.3500     0.0330 N.am  1 <1>  -0.5790 
 18 C       -5.3310     3.0460    -0.2810 C.ar  1 <1>  -0.1500 
 19 C        0.9190     9.1510     0.6570 C.3   1 <1>   0.1810 
 20 C        2.2890     8.5520     0.3870 C.ar  1 <1>  -0.0320 
 21 C        0.7160    10.6320     0.6810 C.3   1 <1>  -0.2000 
 22 C        0.6290     9.8430     1.9490 C.3   1 <1>  -0.2000 
 23 C        3.0640     8.9950    -0.6730 C.ar  1 <1>  -0.1500 
 24 C        2.7550     7.5210     1.1860 C.ar  1 <1>  -0.1500 
 25 C        4.2960     8.4170    -0.9380 C.ar  1 <1>  -0.1440 
 26 C        3.9820     6.9370     0.9270 C.ar  1 <1>  -0.1500 
 27 C        4.7490     7.3850    -0.1340 C.ar  1 <1>  -0.1500 
 28 C        5.1390     8.9050    -2.1020 C.3   1 <1>  -0.0970 
 29 H        0.9030     5.7500    -2.7870 H     1 <1>   0.0800 
 30 H        1.2780     6.3530    -1.1940 H     1 <1>   0.0800 
 31 H       -1.2750     4.8240     1.2000 H     1 <1>   0.0800 
 32 H       -0.2730     2.5530     1.3210 H     1 <1>   0.0800 
 33 H        0.6270     1.9710    -0.0600 H     1 <1>   0.0800 
 34 H       -1.1200     1.9560    -0.0940 H     1 <1>   0.0800 
 35 H       -2.3320     6.5670    -0.5480 H     1 <1>   0.0800 
 36 H       -3.2500     4.3880     1.9760 H     1 <1>   0.1500 
 37 H       -4.9160     2.7780    -2.3410 H     1 <1>   0.1500 
 38 H       -3.0110     3.2990    -3.4420 H     1 <1>   0.0800 
 39 H       -1.5410     3.1780    -2.5360 H     1 <1>   0.0800 
 40 H       -2.2370     4.7480    -2.8940 H     1 <1>   0.0800 
 41 H       -5.4770     3.4320     1.8110 H     1 <1>   0.1500 
 42 H       -0.1620     8.4310    -0.9850 H     1 <1>   0.3700 
 43 H       -6.3170     2.6230    -0.3550 H     1 <1>   0.1500 
 44 H        1.5630    11.2850     0.5620 H     1 <1>   0.1000 
 45 H       -0.1900    11.0440     0.2740 H     1 <1>   0.1000 
 46 H       -0.3280     9.6740     2.4090 H     1 <1>   0.1000 
 47 H        1.4230     9.9400     2.6670 H     1 <1>   0.1000 
 48 H        2.7020     9.7920    -1.2970 H     1 <1>   0.1500 
 49 H        2.1530     7.1700     2.0080 H     1 <1>   0.1500 
 50 H        4.3370     6.1340     1.5490 H     1 <1>   0.1500 
 51 H        5.7010     6.9240    -0.3300 H     1 <1>   0.1500 
 52 H        6.1850     8.8080    -1.8720 H     1 <1>   0.0800 
 53 H        4.9340     9.9400    -2.3100 H     1 <1>   0.0800 
 54 H        4.9210     8.3230    -2.9790 H     1 <1>   0.0800 
@<TRIPOS>BOND
  1   1   2  2   
  2   2   3  am  
  3   2   4  1   
  4   3   5  1   
  5   3   6  1   
  6   4   7  1   
  7   4  29  1   
  8   4  30  1   
  9   5   8  1   
 10   5   9  1   
 11   5  31  1   
 12   6  32  1   
 13   6  33  1   
 14   6  34  1   
 15   7   9  1   
 16   8  10  ar  
 17   8  11  ar  
 18   9  12  1   
 19   9  35  1   
 20  10  13  ar  
 21  10  14  1   
 22  11  15  ar  
 23  11  36  1   
 24  12  16  2   
 25  12  17  am  
 26  13  18  ar  
 27  13  37  1   
 28  14  38  1   
 29  14  39  1   
 30  14  40  1   
 31  15  18  ar  
 32  15  41  1   
 33  17  19  1   
 34  17  42  1   
 35  18  43  1   
 36  19  20  1   
 37  19  21  1   
 38  19  22  1   
 39  20  23  ar  
 40  20  24  ar  
 41  21  22  1   
 42  21  44  1   
 43  21  45  1   
 44  22  46  1   
 45  22  47  1   
 46  23  25  ar  
 47  23  48  1   
 48  24  26  ar  
 49  24  49  1   
 50  25  27  ar  
 51  25  28  1   
 52  26  27  ar  
 53  26  50  1   
 54  27  51  1   
 55  28  52  1   
 56  28  53  1   
 57  28  54  1   
@<TRIPOS>SUBSTRUCTURE
  1 ****   9 GROUP 4 **** **** 0

# MOE 2024.06 (io_trps.svl 2023.06)
