@<TRIPOS>MOLECULE
NONAME
50 52 1 0 0 
SMALL
USER_CHARGES


@<TRIPOS>ATOM
  1 S        0.5550    -0.1390     1.4630 S.3   1 <1>  -0.3320 
  2 C        0.2430    -1.7800     0.7820 C.ar  1 <1>   0.1020 
  3 C        1.7830     0.7040     0.3690 C.3   1 <1>   0.1500 
  4 C       -0.5380    -2.6280     1.5450 C.ar  1 <1>  -0.1500 
  5 C        0.7430    -2.1950    -0.4430 C.ar  1 <1>  -0.1500 
  6 C        3.1710     0.1160     0.6430 C.3   1 <1>  -0.1600 
  7 C        1.7430     2.1990     0.6900 C.3   1 <1>  -0.1600 
  8 C       -0.8190    -3.9040     1.0860 C.ar  1 <1>  -0.1500 
  9 C        0.4580    -3.4720    -0.8960 C.ar  1 <1>  -0.1500 
 10 C        4.2390     0.8750    -0.1450 C.3   1 <1>   0.2090 
 11 C        2.8150     2.9430    -0.1060 C.3   1 <1>   0.2090 
 12 C       -0.3210    -4.3310    -0.1350 C.ar  1 <1>  -0.1430 
 13 N        4.1410     2.3290     0.1570 N.pl3 1 <1>  -0.8380 
 14 C       -0.6320    -5.7300    -0.6380 C.3   1 <1>  -0.0970 
 15 C        5.2700     3.1090     0.0560 C.ar  1 <1>   0.4100 
 16 N        6.1580     2.7810    -0.8770 N.ar  1 <1>  -0.6200 
 17 C        5.4470     4.1950     0.9100 C.ar  1 <1>  -0.1500 
 18 C        7.2300     3.5510    -0.9590 C.ar  1 <1>   0.1600 
 19 C        6.5640     4.9880     0.8040 C.ar  1 <1>  -0.1500 
 20 C        7.4990     4.6720    -0.1770 C.ar  1 <1>   0.0860 
 21 C        8.7050     5.4380    -0.3910 C.2   1 <1>   0.5440 
 22 O        9.7540     4.8480    -0.5740 O.2   1 <1>  -0.5700 
 23 N        8.7100     6.8220    -0.4070 N.am  1 <1>  -0.6600 
 24 C        9.9860     7.5890    -0.3550 C.3   1 <1>   0.0600 
 25 C        7.5050     7.6480    -0.6910 C.3   1 <1>   0.0600 
 26 H        1.4790     0.5430    -0.6500 H     1 <1>   0.0800 
 27 H       -0.9220    -2.2910     2.4910 H     1 <1>   0.1500 
 28 H        1.3420    -1.5510    -1.0520 H     1 <1>   0.1500 
 29 H        3.1990    -0.9230     0.3730 H     1 <1>   0.0800 
 30 H        3.3970     0.1950     1.6910 H     1 <1>   0.0800 
 31 H        1.9190     2.3530     1.7400 H     1 <1>   0.0800 
 32 H        0.7740     2.5960     0.4480 H     1 <1>   0.0800 
 33 H       -1.4280    -4.5600     1.6830 H     1 <1>   0.1500 
 34 H        0.8440    -3.7960    -1.8470 H     1 <1>   0.1500 
 35 H        4.1060     0.7240    -1.2030 H     1 <1>   0.0800 
 36 H        5.2160     0.5130     0.1280 H     1 <1>   0.0800 
 37 H        2.8240     3.9820     0.1740 H     1 <1>   0.0800 
 38 H        2.6040     2.8800    -1.1600 H     1 <1>   0.0800 
 39 H       -0.7460    -6.4090     0.1880 H     1 <1>   0.0800 
 40 H        0.1630    -6.0900    -1.2650 H     1 <1>   0.0800 
 41 H       -1.5440    -5.7170    -1.2060 H     1 <1>   0.0800 
 42 H        4.7000     4.3890     1.6560 H     1 <1>   0.1500 
 43 H        7.9600     3.2840    -1.7050 H     1 <1>   0.1500 
 44 H        6.7240     5.8240     1.4600 H     1 <1>   0.1500 
 45 H       10.7780     6.9780     0.0420 H     1 <1>   0.0800 
 46 H        9.8700     8.4520     0.2770 H     1 <1>   0.0800 
 47 H       10.2580     7.9060    -1.3470 H     1 <1>   0.0800 
 48 H        6.6940     7.0360    -1.0460 H     1 <1>   0.0800 
 49 H        7.7330     8.3750    -1.4510 H     1 <1>   0.0800 
 50 H        7.1970     8.1600     0.2040 H     1 <1>   0.0800 
@<TRIPOS>BOND
  1   1   2  1   
  2   1   3  1   
  3   2   4  ar  
  4   2   5  ar  
  5   3   6  1   
  6   3   7  1   
  7   3  26  1   
  8   4   8  ar  
  9   4  27  1   
 10   5   9  ar  
 11   5  28  1   
 12   6  10  1   
 13   6  29  1   
 14   6  30  1   
 15   7  11  1   
 16   7  31  1   
 17   7  32  1   
 18   8  12  ar  
 19   8  33  1   
 20   9  12  ar  
 21   9  34  1   
 22  10  13  1   
 23  10  35  1   
 24  10  36  1   
 25  11  13  1   
 26  11  37  1   
 27  11  38  1   
 28  12  14  1   
 29  13  15  1   
 30  14  39  1   
 31  14  40  1   
 32  14  41  1   
 33  15  16  ar  
 34  15  17  ar  
 35  16  18  ar  
 36  17  19  ar  
 37  17  42  1   
 38  18  20  ar  
 39  18  43  1   
 40  19  20  ar  
 41  19  44  1   
 42  20  21  1   
 43  21  22  2   
 44  21  23  am  
 45  23  24  1   
 46  23  25  1   
 47  24  45  1   
 48  24  46  1   
 49  24  47  1   
 50  25  48  1   
 51  25  49  1   
 52  25  50  1   
@<TRIPOS>SUBSTRUCTURE
  1 ****  13 GROUP 4 **** **** 0

# MOE 2024.06 (io_trps.svl 2023.06)
