@<TRIPOS>MOLECULE
NONAME
39 40 1 0 0 
SMALL
USER_CHARGES


@<TRIPOS>ATOM
  1 S        0.5840    -0.0080    -0.5110 S.o2  1 <1>   1.3330 
  2 O        1.9990     0.2590    -0.3800 O.2   1 <1>  -0.6500 
  3 O        0.0200    -0.2170    -1.8260 O.2   1 <1>  -0.6500 
  4 N        0.2120    -1.3640     0.4390 N.am  1 <1>  -0.8490 
  5 C       -0.3100     1.3150     0.3010 C.3   1 <1>  -0.0550 
  6 C       -1.0920    -1.9580     0.1230 C.3   1 <1>   0.1160 
  7 C        1.2550    -2.3910     0.3710 C.3   1 <1>   0.1160 
  8 C       -0.1150     2.6830    -0.3820 C.3   1 <1>  -0.0800 
  9 C       -1.0340     3.7880     0.1350 C.3   1 <1>   0.2000 
 10 C        1.3060     3.2560    -0.2280 C.3   1 <1>   0.1100 
 11 O       -1.1380     3.6830     1.5110 O.3   1 <1>  -0.6800 
 12 C       -0.2240     5.0410    -0.1640 C.3   1 <1>   0.1100 
 13 N        1.1550     4.6620     0.1860 N.3   1 <1>  -0.8100 
 14 C        2.1520     5.5410    -0.4600 C.3   1 <1>   0.2900 
 15 C        2.0460     6.9610     0.0700 C.2   1 <1>   0.0060 
 16 N        2.1050     8.0330    -0.6560 N.2   1 <1>  -0.5650 
 17 N        1.8710     7.2080     1.3840 N.pl3 1 <1>   0.0330 
 18 C        1.9620     9.0320     0.2370 C.2   1 <1>   0.0770 
 19 C        1.8170     8.5470     1.4890 C.2   1 <1>  -0.3020 
 20 H       -1.3560     1.0810     0.3000 H     1 <1>   0.0800 
 21 H        0.0070     1.3760     1.3240 H     1 <1>   0.0800 
 22 H       -1.3100    -2.7570     0.8100 H     1 <1>   0.0800 
 23 H       -1.0950    -2.3490    -0.8820 H     1 <1>   0.0800 
 24 H       -1.8690    -1.2180     0.2080 H     1 <1>   0.0800 
 25 H        0.9970    -3.2280     0.9970 H     1 <1>   0.0800 
 26 H        2.1920    -1.9900     0.7190 H     1 <1>   0.0800 
 27 H        1.3810    -2.7310    -0.6440 H     1 <1>   0.0800 
 28 H       -0.3060     2.5680    -1.4350 H     1 <1>   0.0800 
 29 H       -2.0190     3.7850    -0.2980 H     1 <1>   0.0800 
 30 H        1.8320     3.1750    -1.1660 H     1 <1>   0.0800 
 31 H        1.8660     2.7280     0.5260 H     1 <1>   0.0800 
 32 H       -0.2560     3.9200     1.8680 H     1 <1>   0.4000 
 33 H       -0.5670     5.8880     0.4070 H     1 <1>   0.0800 
 34 H       -0.2930     5.2720    -1.2140 H     1 <1>   0.0800 
 35 H        3.1410     5.1720    -0.2530 H     1 <1>   0.0800 
 36 H        2.0110     5.5480    -1.5280 H     1 <1>   0.0800 
 37 H        1.7750     6.4910     2.1090 H     1 <1>   0.2700 
 38 H        1.9710    10.0630    -0.0750 H     1 <1>   0.1500 
 39 H        1.6810     9.0660     2.4200 H     1 <1>   0.1500 
@<TRIPOS>BOND
  1   1   2  2   
  2   1   3  2   
  3   1   4  am  
  4   1   5  1   
  5   4   6  1   
  6   4   7  1   
  7   5   8  1   
  8   5  20  1   
  9   5  21  1   
 10   6  22  1   
 11   6  23  1   
 12   6  24  1   
 13   7  25  1   
 14   7  26  1   
 15   7  27  1   
 16   8   9  1   
 17   8  10  1   
 18   8  28  1   
 19   9  11  1   
 20   9  12  1   
 21   9  29  1   
 22  10  13  1   
 23  10  30  1   
 24  10  31  1   
 25  11  32  1   
 26  12  13  1   
 27  12  33  1   
 28  12  34  1   
 29  13  14  1   
 30  14  15  1   
 31  14  35  1   
 32  14  36  1   
 33  15  16  2   
 34  15  17  1   
 35  16  18  1   
 36  17  19  1   
 37  17  37  1   
 38  18  19  2   
 39  18  38  1   
 40  19  39  1   
@<TRIPOS>SUBSTRUCTURE
  1 ****  10 GROUP 4 **** **** 0

# MOE 2024.06 (io_trps.svl 2023.06)
