@<TRIPOS>MOLECULE
NONAME
38 39 1 0 0 
SMALL
USER_CHARGES


@<TRIPOS>ATOM
  1 CL      -2.9580    -0.1390    -0.3870 Cl    1 <1>  -0.1240 
  2 C       -2.8660    -1.7670     0.2290 C.2   1 <1>   0.2640 
  3 O       -2.7620    -2.7570    -0.6220 O.3   1 <1>  -0.2800 
  4 C       -2.8860    -2.1980     1.5050 C.2   1 <1>  -0.1500 
  5 C       -2.7090    -3.8930     0.0740 C.2   1 <1>   0.0550 
  6 C       -2.7840    -3.5870     1.4060 C.2   1 <1>  -0.1500 
  7 C       -2.5950    -5.1710    -0.5930 C.2   1 <1>   0.7150 
  8 O       -2.4400    -5.2670    -1.7960 O.2   1 <1>  -0.5700 
  9 N       -2.6830    -6.3270     0.1280 N.am  1 <1>  -0.7300 
 10 C       -2.4920    -7.6970    -0.4050 C.3   1 <1>   0.2200 
 11 C       -3.8300    -8.3880    -0.6200 C.3   1 <1>  -0.0800 
 12 C       -1.9130    -8.5650     0.7030 C.3   1 <1>   0.1200 
 13 C       -4.1740    -8.9030     0.7840 C.3   1 <1>   0.1200 
 14 C       -4.9160    -7.5190    -1.2920 C.3   1 <1>  -0.0550 
 15 O       -2.9970    -8.8340     1.5380 O.3   1 <1>  -0.5600 
 16 S       -6.4130    -8.4130    -1.7170 S.o2  1 <1>   1.3330 
 17 O       -6.0260    -9.6680    -2.3240 O.2   1 <1>  -0.6500 
 18 O       -7.3170    -7.5280    -2.4150 O.2   1 <1>  -0.6500 
 19 N       -7.1140    -8.7590    -0.2080 N.am  1 <1>  -0.8490 
 20 C       -7.9010    -7.6460     0.3350 C.3   1 <1>   0.1160 
 21 C       -7.9380    -9.9720    -0.2460 C.3   1 <1>   0.1160 
 22 H       -2.9630    -1.6150     2.4050 H     1 <1>   0.1500 
 23 H       -2.7660    -4.2610     2.2450 H     1 <1>   0.1500 
 24 H       -2.8780    -6.2980     1.1300 H     1 <1>   0.3700 
 25 H       -1.8750    -7.6880    -1.2890 H     1 <1>   0.0800 
 26 H       -3.6550    -9.2480    -1.2440 H     1 <1>   0.0800 
 27 H       -1.1340    -8.0750     1.2590 H     1 <1>   0.0800 
 28 H       -1.5540    -9.5010     0.3110 H     1 <1>   0.0800 
 29 H       -4.5190    -9.9240     0.7620 H     1 <1>   0.0800 
 30 H       -4.9070    -8.2840     1.2720 H     1 <1>   0.0800 
 31 H       -4.5010    -7.1140    -2.1950 H     1 <1>   0.0800 
 32 H       -5.1670    -6.6920    -0.6590 H     1 <1>   0.0800 
 33 H       -8.2430    -7.8840     1.3280 H     1 <1>   0.0800 
 34 H       -8.7560    -7.4470    -0.2910 H     1 <1>   0.0800 
 35 H       -7.2990    -6.7550     0.3880 H     1 <1>   0.0800 
 36 H       -8.3590   -10.1690     0.7250 H     1 <1>   0.0800 
 37 H       -7.3350   -10.8190    -0.5280 H     1 <1>   0.0800 
 38 H       -8.7340    -9.8610    -0.9640 H     1 <1>   0.0800 
@<TRIPOS>BOND
  1   1   2  1   
  2   2   3  1   
  3   2   4  2   
  4   3   5  1   
  5   4   6  1   
  6   4  22  1   
  7   5   6  2   
  8   5   7  1   
  9   6  23  1   
 10   7   8  2   
 11   7   9  am  
 12   9  10  1   
 13   9  24  1   
 14  10  11  1   
 15  10  12  1   
 16  10  25  1   
 17  11  13  1   
 18  11  14  1   
 19  11  26  1   
 20  12  15  1   
 21  12  27  1   
 22  12  28  1   
 23  13  15  1   
 24  13  29  1   
 25  13  30  1   
 26  14  16  1   
 27  14  31  1   
 28  14  32  1   
 29  16  17  2   
 30  16  18  2   
 31  16  19  am  
 32  19  20  1   
 33  19  21  1   
 34  20  33  1   
 35  20  34  1   
 36  20  35  1   
 37  21  36  1   
 38  21  37  1   
 39  21  38  1   
@<TRIPOS>SUBSTRUCTURE
  1 ****   9 GROUP 4 **** **** 0

# MOE 2024.06 (io_trps.svl 2023.06)
