@<TRIPOS>MOLECULE
NONAME
48 50 1 0 0 
SMALL
USER_CHARGES


@<TRIPOS>ATOM
  1 S        0.7020     0.0190     0.7030 S.o2  1 <1>   1.3330 
  2 O       -0.3500    -0.5640     1.5040 O.2   1 <1>  -0.6500 
  3 O        1.9890     0.2940     1.2990 O.2   1 <1>  -0.6500 
  4 N        0.9580    -0.9800    -0.6460 N.am  1 <1>  -0.8490 
  5 C        0.0470     1.5120    -0.0450 C.3   1 <1>  -0.0550 
  6 C        2.2580    -0.7630    -1.2910 C.3   1 <1>   0.1160 
  7 C        0.7940    -2.4020    -0.3260 C.3   1 <1>   0.1160 
  8 C       -0.3160     2.6110     0.9750 C.3   1 <1>  -0.0800 
  9 C       -1.1650     3.6960     0.3150 C.3   1 <1>   0.2000 
 10 C        0.9280     3.3730     1.4550 C.3   1 <1>   0.1400 
 11 O       -1.8410     4.3800     1.3110 O.3   1 <1>  -0.6800 
 12 C       -0.1470     4.6440    -0.3150 C.3   1 <1>   0.1400 
 13 N        1.0450     4.5670     0.5700 N.am  1 <1>  -0.6600 
 14 C        2.0470     5.4920     0.7780 C.2   1 <1>   0.6300 
 15 O        2.7750     5.3430     1.7330 O.2   1 <1>  -0.5700 
 16 C        2.3250     6.7170    -0.1340 C.3   1 <1>   0.0320 
 17 C        3.7870     7.1640    -0.0510 C.ar  1 <1>  -0.0320 
 18 C        1.2580     7.7750    -0.2560 C.3   1 <1>  -0.2000 
 19 C        1.6770     7.0060    -1.4670 C.3   1 <1>  -0.2000 
 20 C        4.2370     8.0880     0.8850 C.ar  1 <1>   0.1900 
 21 C        4.7210     6.6310    -0.9280 C.ar  1 <1>  -0.1500 
 22 F        3.3970     8.6150     1.7380 F     1 <1>  -0.1900 
 23 C        5.5580     8.4900     0.9580 C.ar  1 <1>  -0.1500 
 24 C        6.0510     7.0220    -0.8710 C.ar  1 <1>  -0.1500 
 25 C        6.4710     7.9500     0.0690 C.ar  1 <1>  -0.1500 
 26 H        0.7540     1.8980    -0.7530 H     1 <1>   0.0800 
 27 H       -0.8390     1.2390    -0.5850 H     1 <1>   0.0800 
 28 H        2.3280    -1.3510    -2.1910 H     1 <1>   0.0800 
 29 H        3.0600    -1.0440    -0.6270 H     1 <1>   0.0800 
 30 H        2.3760     0.2740    -1.5530 H     1 <1>   0.0800 
 31 H        0.9510    -3.0040    -1.2040 H     1 <1>   0.0800 
 32 H       -0.2050    -2.5860     0.0330 H     1 <1>   0.0800 
 33 H        1.4950    -2.6960     0.4380 H     1 <1>   0.0800 
 34 H       -0.8440     2.1590     1.7990 H     1 <1>   0.0800 
 35 H       -1.8920     3.3220    -0.3860 H     1 <1>   0.0800 
 36 H        1.8280     2.7830     1.4070 H     1 <1>   0.0800 
 37 H        0.7920     3.7030     2.4710 H     1 <1>   0.0800 
 38 H       -1.1910     4.8020     1.9100 H     1 <1>   0.4000 
 39 H       -0.5490     5.6380    -0.3830 H     1 <1>   0.0800 
 40 H        0.1200     4.2880    -1.2940 H     1 <1>   0.0800 
 41 H        0.3020     7.5900     0.1970 H     1 <1>   0.1000 
 42 H        1.5470     8.8080    -0.1760 H     1 <1>   0.1000 
 43 H        2.2460     7.5340    -2.2120 H     1 <1>   0.1000 
 44 H        1.0000     6.3110    -1.9190 H     1 <1>   0.1000 
 45 H        4.4140     5.9050    -1.6590 H     1 <1>   0.1500 
 46 H        5.8600     9.2070     1.6990 H     1 <1>   0.1500 
 47 H        6.7630     6.5990    -1.5580 H     1 <1>   0.1500 
 48 H        7.5050     8.2480     0.1100 H     1 <1>   0.1500 
@<TRIPOS>BOND
  1   1   2  2   
  2   1   3  2   
  3   1   4  am  
  4   1   5  1   
  5   4   6  1   
  6   4   7  1   
  7   5   8  1   
  8   5  26  1   
  9   5  27  1   
 10   6  28  1   
 11   6  29  1   
 12   6  30  1   
 13   7  31  1   
 14   7  32  1   
 15   7  33  1   
 16   8   9  1   
 17   8  10  1   
 18   8  34  1   
 19   9  11  1   
 20   9  12  1   
 21   9  35  1   
 22  10  13  1   
 23  10  36  1   
 24  10  37  1   
 25  11  38  1   
 26  12  13  1   
 27  12  39  1   
 28  12  40  1   
 29  13  14  am  
 30  14  15  2   
 31  14  16  1   
 32  16  17  1   
 33  16  18  1   
 34  16  19  1   
 35  17  20  ar  
 36  17  21  ar  
 37  18  19  1   
 38  18  41  1   
 39  18  42  1   
 40  19  43  1   
 41  19  44  1   
 42  20  22  1   
 43  20  23  ar  
 44  21  24  ar  
 45  21  45  1   
 46  23  25  ar  
 47  23  46  1   
 48  24  25  ar  
 49  24  47  1   
 50  25  48  1   
@<TRIPOS>SUBSTRUCTURE
  1 ****  13 GROUP 4 **** **** 0

# MOE 2024.06 (io_trps.svl 2023.06)
