@<TRIPOS>MOLECULE
NONAME
49 52 1 0 0 
SMALL
USER_CHARGES


@<TRIPOS>ATOM
  1 O        1.2880     1.1730     2.0790 O.2   1 <1>  -0.5700 
  2 C        1.2900     1.8980     1.1150 C.2   1 <1>   0.7800 
  3 O        2.2360     2.8010     0.9090 O.3   1 <1>  -0.4300 
  4 N        0.3800     1.9060     0.1360 N.am  1 <1>  -0.7300 
  5 C        1.9970     3.5330    -0.2810 C.3   1 <1>   0.2800 
  6 C        0.7480     2.8620    -0.9030 C.3   1 <1>   0.1400 
  7 C        3.2520     3.4280    -1.1650 C.3   1 <1>  -0.1600 
  8 C        1.7640     4.9890     0.1370 C.3   1 <1>  -0.1600 
  9 C        4.3580     4.4220    -0.7920 C.3   1 <1>   0.3430 
 10 C        2.9490     5.5590     0.9270 C.3   1 <1>   0.3430 
 11 N        4.2240     4.8420     0.6310 N.4   1 <1>  -0.9590 
 12 C        5.4600     5.6030     1.1270 C.3   1 <1>   0.4610 
 13 C        5.4530     7.0280     0.5570 C.ar  1 <1>  -0.1440 
 14 C        6.8250     4.8740     0.9770 C.2   1 <1>   0.9060 
 15 C        5.0130     8.0740     1.3290 C.ar  1 <1>  -0.1500 
 16 C        5.8930     7.2920    -0.7510 C.ar  1 <1>  -0.1500 
 17 O        7.4510     4.6090     2.0070 O.co2 1 <1>  -0.9000 
 18 O        7.1970     4.4840    -0.1410 O.co2 1 <1>  -0.9000 
 19 C        4.9580     9.3930     0.8380 C.ar  1 <1>   0.0000 
 20 C        5.8510     8.5620    -1.2550 C.ar  1 <1>  -0.1500 
 21 C        5.3770     9.6410    -0.4860 C.ar  1 <1>   0.0000 
 22 C        4.5000    10.4760     1.6160 C.ar  1 <1>  -0.1500 
 23 C        5.3130    10.9570    -0.9810 C.ar  1 <1>  -0.1500 
 24 C        4.4480    11.7460     1.1110 C.ar  1 <1>  -0.1500 
 25 C        4.8610    11.9950    -0.2120 C.ar  1 <1>   0.0820 
 26 O        4.8360    13.2270    -0.7760 O.3   1 <1>  -0.3630 
 27 C        4.4160    14.3660    -0.0580 C.3   1 <1>   0.0400 
 28 H       -0.3420     1.1880     0.0590 H     1 <1>   0.3700 
 29 H       -0.0470     3.5660    -1.0780 H     1 <1>   0.0800 
 30 H        0.9850     2.3450    -1.8180 H     1 <1>   0.0800 
 31 H        2.9920     3.6170    -2.1900 H     1 <1>   0.0800 
 32 H        3.6420     2.4260    -1.1200 H     1 <1>   0.0800 
 33 H        0.8710     5.0700     0.7300 H     1 <1>   0.0800 
 34 H        1.6160     5.5910    -0.7420 H     1 <1>   0.0800 
 35 H        4.2950     5.2940    -1.4220 H     1 <1>   0.0800 
 36 H        5.3110     3.9530    -0.9690 H     1 <1>   0.0800 
 37 H        2.7450     5.4760     1.9830 H     1 <1>   0.0800 
 38 H        3.0470     6.6060     0.6890 H     1 <1>   0.0800 
 39 H        4.2200     3.9580     1.1650 H     1 <1>   0.4500 
 40 H        5.3540     5.7090     2.1910 H     1 <1>   0.0800 
 41 H        4.6980     7.9110     2.3440 H     1 <1>   0.1500 
 42 H        6.2820     6.4890    -1.3570 H     1 <1>   0.1500 
 43 H        6.1940     8.7600    -2.2550 H     1 <1>   0.1500 
 44 H        4.1910    10.2860     2.6280 H     1 <1>   0.1500 
 45 H        5.6320    11.1480    -1.9890 H     1 <1>   0.1500 
 46 H        4.0940    12.5470     1.7310 H     1 <1>   0.1500 
 47 H        4.4960    15.2180    -0.7080 H     1 <1>   0.0800 
 48 H        5.0580    14.4970     0.7960 H     1 <1>   0.0800 
 49 H        3.3930    14.2320     0.2440 H     1 <1>   0.0800 
@<TRIPOS>BOND
  1   1   2  2   
  2   2   3  1   
  3   2   4  am  
  4   3   5  1   
  5   4   6  1   
  6   4  28  1   
  7   5   6  1   
  8   5   7  1   
  9   5   8  1   
 10   6  29  1   
 11   6  30  1   
 12   7   9  1   
 13   7  31  1   
 14   7  32  1   
 15   8  10  1   
 16   8  33  1   
 17   8  34  1   
 18   9  11  1   
 19   9  35  1   
 20   9  36  1   
 21  10  11  1   
 22  10  37  1   
 23  10  38  1   
 24  11  12  1   
 25  11  39  1   
 26  12  13  1   
 27  12  14  1   
 28  12  40  1   
 29  13  15  ar  
 30  13  16  ar  
 31  14  17  ar  
 32  14  18  ar  
 33  15  19  ar  
 34  15  41  1   
 35  16  20  ar  
 36  16  42  1   
 37  19  21  ar  
 38  19  22  ar  
 39  20  21  ar  
 40  20  43  1   
 41  21  23  ar  
 42  22  24  ar  
 43  22  44  1   
 44  23  25  ar  
 45  23  45  1   
 46  24  25  ar  
 47  24  46  1   
 48  25  26  1   
 49  26  27  1   
 50  27  47  1   
 51  27  48  1   
 52  27  49  1   
@<TRIPOS>SUBSTRUCTURE
  1 ****  13 GROUP 4 **** **** 0

# MOE 2024.06 (io_trps.svl 2023.06)
