@<TRIPOS>MOLECULE
NONAME
55 58 1 0 0 
SMALL
USER_CHARGES


@<TRIPOS>ATOM
  1 O        0.5440     0.0290     0.3040 O.2   1 <1>  -0.5700 
  2 C        1.5610    -0.5640    -0.0140 C.2   1 <1>   0.7150 
  3 N        2.6490     0.1930    -0.4250 N.am  1 <1>  -0.6600 
  4 C        1.5460    -2.0160     0.0510 C.2   1 <1>   0.0550 
  5 C        3.7640    -0.3730    -1.2470 C.3   1 <1>   0.1400 
  6 C        2.6290     1.6790    -0.2560 C.3   1 <1>   0.1400 
  7 O        2.6730    -2.7480     0.0770 O.3   1 <1>  -0.2800 
  8 C        0.4780    -2.8520     0.1200 C.2   1 <1>  -0.1500 
  9 C        4.9940    -0.6980    -0.3860 C.3   1 <1>   0.1400 
 10 C        4.0000     2.3090     0.0360 C.3   1 <1>  -0.1600 
 11 C        2.3370    -4.0340     0.1530 C.ar  1 <1>   0.1400 
 12 C        0.9630    -4.1680     0.1830 C.ar  1 <1>   0.0000 
 13 N        5.7130     0.5390     0.0460 N.am  1 <1>  -0.6600 
 14 C        4.9180     1.4520     0.9140 C.3   1 <1>   0.1400 
 15 C        3.1850    -5.1320     0.1990 C.ar  1 <1>  -0.1500 
 16 C        0.3990    -5.4430     0.2620 C.ar  1 <1>  -0.1500 
 17 C        6.9920     0.7960    -0.3860 C.2   1 <1>   0.5690 
 18 C        2.6220    -6.3910     0.2770 C.ar  1 <1>  -0.1500 
 19 C        1.2320    -6.5430     0.3080 C.ar  1 <1>  -0.1500 
 20 O        7.6020     0.0000    -1.0630 O.2   1 <1>  -0.5700 
 21 C        7.6820     2.1010    -0.0190 C.3   1 <1>  -0.0990 
 22 C        8.8750     2.4420    -0.9220 C.3   1 <1>   0.0210 
 23 C        9.4920     3.7600    -0.4940 C.2   1 <1>   0.1080 
 24 N        8.8930     4.8920    -0.6950 N.2   1 <1>  -0.7070 
 25 C       10.7200     3.9190     0.1490 C.2   1 <1>  -0.1810 
 26 N        9.7320     5.8130    -0.1910 N.pl3 1 <1>   0.3000 
 27 C       10.8440     5.2530     0.3290 C.2   1 <1>  -0.3320 
 28 C       11.6750     2.8050     0.5410 C.3   1 <1>  -0.0590 
 29 C       11.9530     6.0750     0.9640 C.3   1 <1>  -0.0600 
 30 H        4.0430     0.3210    -2.0210 H     1 <1>   0.0800 
 31 H        3.4310    -1.2700    -1.7370 H     1 <1>   0.0800 
 32 H        1.9770     1.9250     0.5660 H     1 <1>   0.0800 
 33 H        2.2080     2.1260    -1.1410 H     1 <1>   0.0800 
 34 H       -0.5620    -2.5810     0.1310 H     1 <1>   0.1500 
 35 H        5.6520    -1.3240    -0.9640 H     1 <1>   0.0800 
 36 H        4.7000    -1.2620     0.4810 H     1 <1>   0.0800 
 37 H        3.8210     3.2410     0.5400 H     1 <1>   0.0800 
 38 H        4.4950     2.5500    -0.8870 H     1 <1>   0.0800 
 39 H        4.3400     0.8790     1.6200 H     1 <1>   0.0800 
 40 H        5.5750     2.0870     1.4810 H     1 <1>   0.0800 
 41 H        4.2490    -4.9880     0.1750 H     1 <1>   0.1500 
 42 H       -0.6710    -5.5490     0.2860 H     1 <1>   0.1500 
 43 H        3.2500    -7.2640     0.3140 H     1 <1>   0.1500 
 44 H        0.8130    -7.5330     0.3690 H     1 <1>   0.1500 
 45 H        8.0180     2.0360     0.9980 H     1 <1>   0.0800 
 46 H        6.9790     2.9090    -0.0940 H     1 <1>   0.0800 
 47 H        8.5430     2.5300    -1.9410 H     1 <1>   0.0800 
 48 H        9.6080     1.6580    -0.8790 H     1 <1>   0.0800 
 49 H        9.5190     6.8170    -0.2170 H     1 <1>   0.2700 
 50 H       11.1640     2.0870     1.1560 H     1 <1>   0.0800 
 51 H       12.5120     3.1900     1.0920 H     1 <1>   0.0800 
 52 H       12.0420     2.3130    -0.3410 H     1 <1>   0.0800 
 53 H       12.7550     5.4440     1.2990 H     1 <1>   0.0800 
 54 H       11.5720     6.6170     1.8110 H     1 <1>   0.0800 
 55 H       12.3500     6.7750     0.2500 H     1 <1>   0.0800 
@<TRIPOS>BOND
  1   1   2  2   
  2   2   3  am  
  3   2   4  1   
  4   3   5  1   
  5   3   6  1   
  6   4   7  1   
  7   4   8  2   
  8   5   9  1   
  9   5  30  1   
 10   5  31  1   
 11   6  10  1   
 12   6  32  1   
 13   6  33  1   
 14   7  11  1   
 15   8  12  1   
 16   8  34  1   
 17   9  13  1   
 18   9  35  1   
 19   9  36  1   
 20  10  14  1   
 21  10  37  1   
 22  10  38  1   
 23  11  12  ar  
 24  11  15  ar  
 25  12  16  ar  
 26  13  14  1   
 27  13  17  am  
 28  14  39  1   
 29  14  40  1   
 30  15  18  ar  
 31  15  41  1   
 32  16  19  ar  
 33  16  42  1   
 34  17  20  2   
 35  17  21  1   
 36  18  19  ar  
 37  18  43  1   
 38  19  44  1   
 39  21  22  1   
 40  21  45  1   
 41  21  46  1   
 42  22  23  1   
 43  22  47  1   
 44  22  48  1   
 45  23  24  2   
 46  23  25  1   
 47  24  26  1   
 48  25  27  2   
 49  25  28  1   
 50  26  27  1   
 51  26  49  1   
 52  27  29  1   
 53  28  50  1   
 54  28  51  1   
 55  28  52  1   
 56  29  53  1   
 57  29  54  1   
 58  29  55  1   
@<TRIPOS>SUBSTRUCTURE
  1 ****  13 GROUP 4 **** **** 0

# MOE 2024.06 (io_trps.svl 2023.06)
