@<TRIPOS>MOLECULE
NONAME
56 59 1 0 0 
SMALL
USER_CHARGES


@<TRIPOS>ATOM
  1 O       -0.3640     0.3830    -0.4910 O.2   1 <1>  -0.5700 
  2 C       -1.3220     0.9020     0.0540 C.2   1 <1>   0.7160 
  3 N       -2.2490     0.0450     0.6360 N.am  1 <1>  -0.6600 
  4 C       -1.4620     2.3560     0.0360 C.2   1 <1>   0.2030 
  5 C       -3.2970     0.4590     1.6180 C.3   1 <1>   0.1400 
  6 C       -2.3520    -1.3870     0.2280 C.3   1 <1>   0.1400 
  7 N       -2.5860     3.0510     0.1390 N.2   1 <1>  -0.7070 
  8 C       -0.3840     3.2260    -0.1350 C.2   1 <1>  -0.1500 
  9 C       -4.7160     0.1800     1.0730 C.3   1 <1>   0.4230 
 10 C       -3.7580    -1.6750    -0.3300 C.3   1 <1>   0.3430 
 11 N       -2.2210     4.3360     0.0340 N.pl3 1 <1>   0.3140 
 12 C       -0.8840     4.4830    -0.1250 C.2   1 <1>  -0.2050 
 13 N       -4.8660    -1.2660     0.6210 N.4   1 <1>  -0.9590 
 14 C       -5.0930     1.1610    -0.0610 C.3   1 <1>   0.1200 
 15 C       -3.2110     5.4240     0.0470 C.3   1 <1>   0.0160 
 16 C       -0.1980     5.7410    -0.2680 C.ar  1 <1>   0.0530 
 17 C       -6.2440    -1.4610     0.0480 C.3   1 <1>   0.4230 
 18 O       -6.3780     0.8820    -0.5430 O.3   1 <1>  -0.5600 
 19 C       -0.1960     6.6850     0.7540 C.ar  1 <1>  -0.1500 
 20 C        0.4830     6.0440    -1.4420 C.ar  1 <1>  -0.1500 
 21 C       -6.5560    -0.4110    -1.0460 C.3   1 <1>   0.1200 
 22 C       -6.4290    -2.9080    -0.4400 C.3   1 <1>  -0.1600 
 23 C        0.4520     7.8980     0.6050 C.ar  1 <1>  -0.1500 
 24 C        1.1340     7.2550    -1.5980 C.ar  1 <1>  -0.1500 
 25 C       -7.9060    -3.2620    -0.6770 C.3   1 <1>  -0.1600 
 26 C        1.1180     8.1850    -0.5740 C.ar  1 <1>  -0.1500 
 27 C       -8.0550    -4.7320    -1.0800 C.3   1 <1>  -0.2400 
 28 H       -3.1570    -0.1020     2.5250 H     1 <1>   0.0800 
 29 H       -3.2010     1.4940     1.8880 H     1 <1>   0.0800 
 30 H       -1.6240    -1.6230    -0.5300 H     1 <1>   0.0800 
 31 H       -2.1510    -2.0170     1.0770 H     1 <1>   0.0800 
 32 H        0.6430     2.9260    -0.2530 H     1 <1>   0.1500 
 33 H       -5.4090     0.3650     1.8770 H     1 <1>   0.0800 
 34 H       -3.8320    -2.7270    -0.5490 H     1 <1>   0.0800 
 35 H       -3.8640    -1.1390    -1.2590 H     1 <1>   0.0800 
 36 H       -4.7930    -1.8560     1.4570 H     1 <1>   0.4500 
 37 H       -4.3940     1.1110    -0.8780 H     1 <1>   0.0800 
 38 H       -5.1010     2.1700     0.3110 H     1 <1>   0.0800 
 39 H       -2.9890     6.1140    -0.7460 H     1 <1>   0.0800 
 40 H       -3.1680     5.9300     0.9920 H     1 <1>   0.0800 
 41 H       -4.1930     5.0130    -0.1000 H     1 <1>   0.0800 
 42 H       -6.9590    -1.3010     0.8390 H     1 <1>   0.0800 
 43 H       -0.7020     6.4620     1.6760 H     1 <1>   0.1500 
 44 H        0.4980     5.3210    -2.2390 H     1 <1>   0.1500 
 45 H       -7.5820    -0.4890    -1.3590 H     1 <1>   0.0800 
 46 H       -5.9270    -0.5370    -1.9100 H     1 <1>   0.0800 
 47 H       -5.8900    -3.0640    -1.3590 H     1 <1>   0.0800 
 48 H       -6.0430    -3.5820     0.3040 H     1 <1>   0.0800 
 49 H        0.4430     8.6170     1.4050 H     1 <1>   0.1500 
 50 H        1.6550     7.4730    -2.5140 H     1 <1>   0.1500 
 51 H       -8.4760    -3.0890     0.2210 H     1 <1>   0.0800 
 52 H       -8.3230    -2.6510    -1.4590 H     1 <1>   0.0800 
 53 H        1.6240     9.1280    -0.6930 H     1 <1>   0.1500 
 54 H       -7.6850    -5.3820    -0.3060 H     1 <1>   0.0800 
 55 H       -7.5190    -4.9360    -1.9900 H     1 <1>   0.0800 
 56 H       -9.0940    -4.9630    -1.2430 H     1 <1>   0.0800 
@<TRIPOS>BOND
  1   1   2  2   
  2   2   3  am  
  3   2   4  1   
  4   3   5  1   
  5   3   6  1   
  6   4   7  2   
  7   4   8  1   
  8   5   9  1   
  9   5  28  1   
 10   5  29  1   
 11   6  10  1   
 12   6  30  1   
 13   6  31  1   
 14   7  11  1   
 15   8  12  2   
 16   8  32  1   
 17   9  13  1   
 18   9  14  1   
 19   9  33  1   
 20  10  13  1   
 21  10  34  1   
 22  10  35  1   
 23  11  12  1   
 24  11  15  1   
 25  12  16  1   
 26  13  17  1   
 27  13  36  1   
 28  14  18  1   
 29  14  37  1   
 30  14  38  1   
 31  15  39  1   
 32  15  40  1   
 33  15  41  1   
 34  16  19  ar  
 35  16  20  ar  
 36  17  21  1   
 37  17  22  1   
 38  17  42  1   
 39  18  21  1   
 40  19  23  ar  
 41  19  43  1   
 42  20  24  ar  
 43  20  44  1   
 44  21  45  1   
 45  21  46  1   
 46  22  25  1   
 47  22  47  1   
 48  22  48  1   
 49  23  26  ar  
 50  23  49  1   
 51  24  26  ar  
 52  24  50  1   
 53  25  27  1   
 54  25  51  1   
 55  25  52  1   
 56  26  53  1   
 57  27  54  1   
 58  27  55  1   
 59  27  56  1   
@<TRIPOS>SUBSTRUCTURE
  1 ****   7 GROUP 4 **** **** 0

# MOE 2024.06 (io_trps.svl 2023.06)
