@<TRIPOS>MOLECULE
NONAME
43 44 1 0 0 
SMALL
USER_CHARGES


@<TRIPOS>ATOM
  1 S        0.3490     0.4480     1.2990 S.3   1 <1>  -0.0800 
  2 C       -1.0380     1.1620     0.5220 C.2   1 <1>  -0.1400 
  3 C       -0.2360    -1.1310     0.8300 C.2   1 <1>   0.2280 
  4 C       -1.7880     0.1770    -0.0030 C.2   1 <1>   0.0460 
  5 C       -1.1600     2.6740     0.5680 C.3   1 <1>   0.0200 
  6 N       -1.3270    -1.1160     0.1750 N.2   1 <1>  -0.5650 
  7 C       -3.0840     0.3180    -0.7740 C.3   1 <1>  -0.0590 
  8 C       -0.1590     3.3280    -0.3890 C.3   1 <1>  -0.0990 
  9 C       -0.2740     4.8350    -0.3340 C.2   1 <1>   0.5690 
 10 O       -1.2260     5.3470    -0.8700 O.2   1 <1>  -0.5700 
 11 N        0.6990     5.5260     0.3210 N.am  1 <1>  -0.4930 
 12 C        0.8410     6.9230     0.5200 C.2   1 <1>   0.0630 
 13 C       -0.1200     7.8880     0.8410 C.2   1 <1>   0.1080 
 14 C        2.0060     7.6040     0.4610 C.2   1 <1>  -0.3320 
 15 N        0.3990     9.0690     0.9720 N.2   1 <1>  -0.7070 
 16 C       -1.6000     7.6570     1.0460 C.3   1 <1>  -0.0590 
 17 N        1.7100     8.9020     0.7310 N.pl3 1 <1>   0.3140 
 18 C        3.4070     7.0960     0.1500 C.3   1 <1>  -0.0600 
 19 C        2.6370    10.0520     0.7730 C.3   1 <1>   0.0960 
 20 C        2.7720    10.7000    -0.6130 C.3   1 <1>  -0.1600 
 21 C        3.7430    11.8860    -0.5840 C.3   1 <1>  -0.2400 
 22 H        0.3540    -1.9810     1.1210 H     1 <1>   0.1500 
 23 H       -0.9900     3.0140     1.5740 H     1 <1>   0.0800 
 24 H       -2.1580     2.9660     0.2890 H     1 <1>   0.0800 
 25 H       -3.3560     1.3490    -0.8910 H     1 <1>   0.0800 
 26 H       -3.8700    -0.1950    -0.2510 H     1 <1>   0.0800 
 27 H       -2.9710    -0.1240    -1.7470 H     1 <1>   0.0800 
 28 H       -0.3650     3.0060    -1.3940 H     1 <1>   0.0800 
 29 H        0.8420     3.0250    -0.1420 H     1 <1>   0.0800 
 30 H        1.4890     4.9870     0.6650 H     1 <1>   0.3700 
 31 H       -1.7690     6.6940     1.4890 H     1 <1>   0.0800 
 32 H       -2.1030     7.7050     0.0980 H     1 <1>   0.0800 
 33 H       -2.0020     8.4150     1.6930 H     1 <1>   0.0800 
 34 H        3.3900     6.0470    -0.0810 H     1 <1>   0.0800 
 35 H        4.0540     7.2500     0.9950 H     1 <1>   0.0800 
 36 H        3.8100     7.6190    -0.6990 H     1 <1>   0.0800 
 37 H        3.5920     9.7140     1.1270 H     1 <1>   0.0800 
 38 H        2.2460    10.7670     1.4740 H     1 <1>   0.0800 
 39 H        1.8030    11.0430    -0.9340 H     1 <1>   0.0800 
 40 H        3.1240     9.9700    -1.3210 H     1 <1>   0.0800 
 41 H        3.3960    12.6390     0.1020 H     1 <1>   0.0800 
 42 H        3.8140    12.3250    -1.5630 H     1 <1>   0.0800 
 43 H        4.7250    11.5650    -0.2810 H     1 <1>   0.0800 
@<TRIPOS>BOND
  1   1   2  1   
  2   1   3  1   
  3   2   4  2   
  4   2   5  1   
  5   3   6  2   
  6   3  22  1   
  7   4   6  1   
  8   4   7  1   
  9   5   8  1   
 10   5  23  1   
 11   5  24  1   
 12   7  25  1   
 13   7  26  1   
 14   7  27  1   
 15   8   9  1   
 16   8  28  1   
 17   8  29  1   
 18   9  10  2   
 19   9  11  am  
 20  11  12  1   
 21  11  30  1   
 22  12  13  1   
 23  12  14  2   
 24  13  15  2   
 25  13  16  1   
 26  14  17  1   
 27  14  18  1   
 28  15  17  1   
 29  16  31  1   
 30  16  32  1   
 31  16  33  1   
 32  17  19  1   
 33  18  34  1   
 34  18  35  1   
 35  18  36  1   
 36  19  20  1   
 37  19  37  1   
 38  19  38  1   
 39  20  21  1   
 40  20  39  1   
 41  20  40  1   
 42  21  41  1   
 43  21  42  1   
 44  21  43  1   
@<TRIPOS>SUBSTRUCTURE
  1 ****  11 GROUP 4 **** **** 0

# MOE 2024.06 (io_trps.svl 2023.06)
