@<TRIPOS>MOLECULE
NONAME
41 41 1 0 0 
SMALL
USER_CHARGES


@<TRIPOS>ATOM
  1 O       -0.6510    -0.1850     1.3120 O.2   1 <1>  -0.5700 
  2 C       -0.5590    -1.3280     0.9190 C.2   1 <1>   0.5690 
  3 N        0.6600    -1.9390     0.7660 N.am  1 <1>  -0.6600 
  4 C       -1.8720    -2.0980     0.6070 C.3   1 <1>   0.2510 
  5 C        0.7390    -3.3810     0.4120 C.3   1 <1>   0.1400 
  6 C        1.9490    -1.2070     0.9160 C.3   1 <1>   0.1400 
  7 N       -1.7390    -3.5600     0.3140 N.3   1 <1>  -0.8100 
  8 C       -2.5760    -1.4630    -0.6000 C.3   1 <1>  -0.2400 
  9 C       -0.5080    -4.1350     0.8930 C.3   1 <1>   0.1100 
 10 C        2.6590    -1.0140    -0.4380 C.3   1 <1>  -0.0800 
 11 C       -2.9400    -4.3070     0.7320 C.3   1 <1>   0.3100 
 12 C        3.9970    -0.2930    -0.2290 C.3   1 <1>  -0.2400 
 13 C        1.7980    -0.2200    -1.4320 C.3   1 <1>  -0.2400 
 14 C       -2.9220    -5.6980     0.1920 C.1   1 <1>  -0.2000 
 15 C       -2.8960    -6.8080    -0.2350 C.1   1 <1>  -0.2000 
 16 C       -2.8470    -8.1930    -0.7810 C.3   1 <1>   0.0400 
 17 C       -1.3970    -8.6570    -0.9270 C.3   1 <1>  -0.2400 
 18 H       -2.4960    -1.9710     1.4740 H     1 <1>   0.0800 
 19 H        1.6100    -3.8170     0.8690 H     1 <1>   0.0800 
 20 H        0.8270    -3.4820    -0.6550 H     1 <1>   0.0800 
 21 H        2.5850    -1.7550     1.5880 H     1 <1>   0.0800 
 22 H        1.7680    -0.2410     1.3590 H     1 <1>   0.0800 
 23 H       -1.9640    -1.5780    -1.4760 H     1 <1>   0.0800 
 24 H       -2.7220    -0.4130    -0.4240 H     1 <1>   0.0800 
 25 H       -3.5350    -1.9120    -0.7750 H     1 <1>   0.0800 
 26 H       -0.5530    -4.1020     1.9690 H     1 <1>   0.0800 
 27 H       -0.4110    -5.1640     0.5940 H     1 <1>   0.0800 
 28 H        2.8700    -1.9830    -0.8580 H     1 <1>   0.0800 
 29 H       -3.8230    -3.8190     0.3610 H     1 <1>   0.0800 
 30 H       -2.9990    -4.3390     1.8070 H     1 <1>   0.0800 
 31 H        3.8360     0.6880     0.1850 H     1 <1>   0.0800 
 32 H        4.5150    -0.1880    -1.1650 H     1 <1>   0.0800 
 33 H        4.6240    -0.8510     0.4430 H     1 <1>   0.0800 
 34 H        1.5290     0.7360    -1.0170 H     1 <1>   0.0800 
 35 H        0.8940    -0.7550    -1.6590 H     1 <1>   0.0800 
 36 H        2.3320    -0.0610    -2.3520 H     1 <1>   0.0800 
 37 H       -3.3340    -8.2100    -1.7400 H     1 <1>   0.0800 
 38 H       -3.3780    -8.8540    -0.1190 H     1 <1>   0.0800 
 39 H       -0.8640    -8.0020    -1.5940 H     1 <1>   0.0800 
 40 H       -1.3680    -9.6560    -1.3250 H     1 <1>   0.0800 
 41 H       -0.9070    -8.6510     0.0300 H     1 <1>   0.0800 
@<TRIPOS>BOND
  1   1   2  2   
  2   2   3  am  
  3   2   4  1   
  4   3   5  1   
  5   3   6  1   
  6   4   7  1   
  7   4   8  1   
  8   4  18  1   
  9   5   9  1   
 10   5  19  1   
 11   5  20  1   
 12   6  10  1   
 13   6  21  1   
 14   6  22  1   
 15   7   9  1   
 16   7  11  1   
 17   8  23  1   
 18   8  24  1   
 19   8  25  1   
 20   9  26  1   
 21   9  27  1   
 22  10  12  1   
 23  10  13  1   
 24  10  28  1   
 25  11  14  1   
 26  11  29  1   
 27  11  30  1   
 28  12  31  1   
 29  12  32  1   
 30  12  33  1   
 31  13  34  1   
 32  13  35  1   
 33  13  36  1   
 34  14  15  3   
 35  15  16  1   
 36  16  17  1   
 37  16  37  1   
 38  16  38  1   
 39  17  39  1   
 40  17  40  1   
 41  17  41  1   
@<TRIPOS>SUBSTRUCTURE
  1 ****   9 GROUP 4 **** **** 0

# MOE 2024.06 (io_trps.svl 2023.06)
