@<TRIPOS>MOLECULE
NONAME
48 51 1 0 0 
SMALL
USER_CHARGES


@<TRIPOS>ATOM
  1 O        0.5700     1.7200    -1.0290 O.3   1 <1>  -0.2800 
  2 C       -0.3050     1.7280    -0.0380 C.2   1 <1>  -0.0400 
  3 C        1.7110     1.2580    -0.5570 C.2   1 <1>  -0.0100 
  4 C        0.2730     1.2680     1.0960 C.2   1 <1>  -0.1500 
  5 C       -1.7220     2.2170    -0.3360 C.3   1 <1>   0.6030 
  6 C        1.5960     0.9620     0.7540 C.2   1 <1>  -0.1500 
  7 N       -1.7760     3.7130    -0.2380 N.4   1 <1>  -0.9590 
  8 C       -2.7140     1.5340     0.6200 C.3   1 <1>  -0.1600 
  9 C       -3.1100     4.3020    -0.5800 C.3   1 <1>   0.3430 
 10 C       -0.6770     4.3550    -1.0340 C.3   1 <1>   0.4860 
 11 C       -4.1880     1.6820     0.2130 C.3   1 <1>  -0.1600 
 12 C       -4.0360     4.2450     0.6330 C.3   1 <1>  -0.1600 
 13 C       -0.6510     5.8430    -0.7720 C.ar  1 <1>  -0.1430 
 14 C       -4.8580     2.9520     0.7490 C.3   1 <1>  -0.1600 
 15 C       -1.0910     6.7430    -1.7120 C.ar  1 <1>   0.1600 
 16 C       -0.1970     6.3570     0.4180 C.ar  1 <1>   0.1600 
 17 N       -1.1350     8.0260    -1.4730 N.ar  1 <1>  -0.6200 
 18 N       -0.2290     7.6390     0.6790 N.ar  1 <1>  -0.6200 
 19 C       -0.7260     8.4490    -0.2680 C.ar  1 <1>   0.6200 
 20 C       -0.8160     9.8740     0.0400 C.ar  1 <1>   0.3100 
 21 N       -1.9950    10.5090    -0.0900 N.ar  1 <1>  -0.6200 
 22 C        0.3270    10.5490     0.4760 C.ar  1 <1>  -0.1500 
 23 C       -2.0190    11.7960     0.2020 C.ar  1 <1>   0.1600 
 24 C        0.2870    11.8920     0.7800 C.ar  1 <1>  -0.1500 
 25 C       -0.9260    12.5250     0.6340 C.ar  1 <1>  -0.1500 
 26 H        2.5560     1.1670    -1.2200 H     1 <1>   0.1500 
 27 H       -0.1420     1.1350     2.0810 H     1 <1>   0.1500 
 28 H       -1.9650     1.9150    -1.3420 H     1 <1>   0.0800 
 29 H        2.3430     0.5660     1.4210 H     1 <1>   0.1500 
 30 H       -1.5950     3.9300     0.7450 H     1 <1>   0.4500 
 31 H       -2.5610     1.8590     1.6340 H     1 <1>   0.0800 
 32 H       -2.4930     0.4800     0.5960 H     1 <1>   0.0800 
 33 H       -3.5540     3.7970    -1.4220 H     1 <1>   0.0800 
 34 H       -2.9940     5.3410    -0.8410 H     1 <1>   0.0800 
 35 H       -0.8210     4.1660    -2.0860 H     1 <1>   0.0800 
 36 H        0.2800     3.9510    -0.7500 H     1 <1>   0.0800 
 37 H       -4.7380     0.8390     0.6010 H     1 <1>   0.0800 
 38 H       -4.2810     1.6370    -0.8590 H     1 <1>   0.0800 
 39 H       -4.7330     5.0620     0.5560 H     1 <1>   0.0800 
 40 H       -3.4740     4.4110     1.5350 H     1 <1>   0.0800 
 41 H       -5.1140     2.8060     1.7860 H     1 <1>   0.0800 
 42 H       -5.7900     3.0810     0.2210 H     1 <1>   0.0800 
 43 H       -1.4280     6.4160    -2.6820 H     1 <1>   0.1500 
 44 H        0.1980     5.7110     1.1860 H     1 <1>   0.1500 
 45 H        1.2490    10.0060     0.5750 H     1 <1>   0.1500 
 46 H       -2.9640    12.3010     0.0930 H     1 <1>   0.1500 
 47 H        1.1620    12.4220     1.1150 H     1 <1>   0.1500 
 48 H       -1.0280    13.5730     0.8530 H     1 <1>   0.1500 
@<TRIPOS>BOND
  1   1   2  1   
  2   1   3  1   
  3   2   4  2   
  4   2   5  1   
  5   3   6  2   
  6   3  26  1   
  7   4   6  1   
  8   4  27  1   
  9   5   7  1   
 10   5   8  1   
 11   5  28  1   
 12   6  29  1   
 13   7   9  1   
 14   7  10  1   
 15   7  30  1   
 16   8  11  1   
 17   8  31  1   
 18   8  32  1   
 19   9  12  1   
 20   9  33  1   
 21   9  34  1   
 22  10  13  1   
 23  10  35  1   
 24  10  36  1   
 25  11  14  1   
 26  11  37  1   
 27  11  38  1   
 28  12  14  1   
 29  12  39  1   
 30  12  40  1   
 31  13  15  ar  
 32  13  16  ar  
 33  14  41  1   
 34  14  42  1   
 35  15  17  ar  
 36  15  43  1   
 37  16  18  ar  
 38  16  44  1   
 39  17  19  ar  
 40  18  19  ar  
 41  19  20  1   
 42  20  21  ar  
 43  20  22  ar  
 44  21  23  ar  
 45  22  24  ar  
 46  22  45  1   
 47  23  25  ar  
 48  23  46  1   
 49  24  25  ar  
 50  24  47  1   
 51  25  48  1   
@<TRIPOS>SUBSTRUCTURE
  1 ****  13 GROUP 4 **** **** 0

# MOE 2024.06 (io_trps.svl 2023.06)
