@<TRIPOS>MOLECULE
NONAME
48 51 1 0 0 
SMALL
USER_CHARGES


@<TRIPOS>ATOM
  1 O        0.6350    -0.0500     0.5400 O.2   1 <1>  -0.5700 
  2 C        1.6320    -0.7460     0.5960 C.2   1 <1>   0.5440 
  3 N        2.8680    -0.1290     0.6600 N.am  1 <1>  -0.6600 
  4 C        1.4840    -2.1890     0.5900 C.ar  1 <1>   0.0860 
  5 C        4.1400    -0.7980     0.2420 C.3   1 <1>   0.1400 
  6 C        2.9780     1.3060     1.0490 C.3   1 <1>   0.1400 
  7 C        0.6690    -2.8190    -0.3520 C.ar  1 <1>  -0.1500 
  8 C        2.1330    -2.9950     1.5290 C.ar  1 <1>  -0.1500 
  9 C        4.8040    -0.1030    -0.9550 C.3   1 <1>   0.1400 
 10 C        3.1310     2.1850    -0.1960 C.3   1 <1>  -0.1600 
 11 C        0.5210    -4.1930    -0.3660 C.ar  1 <1>   0.0820 
 12 C        1.9960    -4.3720     1.5210 C.ar  1 <1>  -0.1500 
 13 N        5.4380     1.1920    -0.5600 N.am  1 <1>  -0.6600 
 14 C        4.5880     2.4160    -0.6170 C.3   1 <1>   0.1400 
 15 O       -0.2940    -4.7560    -1.2930 O.3   1 <1>  -0.3630 
 16 C        1.1960    -4.9790     0.5690 C.ar  1 <1>   0.0820 
 17 C        6.7730     1.2240    -0.1790 C.2   1 <1>   0.7160 
 18 C       -0.7000    -6.0920    -1.0580 C.3   1 <1>   0.1200 
 19 O        1.0850    -6.3280     0.5650 O.3   1 <1>  -0.3630 
 20 O        7.2670     0.1660     0.1850 O.2   1 <1>  -0.5700 
 21 C        7.6090     2.4280    -0.1870 C.2   1 <1>   0.2030 
 22 C        0.4900    -6.9300    -0.5700 C.3   1 <1>   0.1200 
 23 N        7.3430     3.6040    -0.7370 N.2   1 <1>  -0.7070 
 24 C        8.8790     2.4620     0.4110 C.2   1 <1>  -0.1500 
 25 N        8.4320     4.3630    -0.4950 N.pl3 1 <1>   0.3000 
 26 C        9.3760     3.6990     0.2110 C.2   1 <1>  -0.0680 
 27 N       10.6120     4.2200     0.6160 N.pl3 1 <1>  -0.8840 
 28 H        3.9420    -1.8140    -0.0450 H     1 <1>   0.0800 
 29 H        4.8280    -0.8210     1.0700 H     1 <1>   0.0800 
 30 H        3.8100     1.4420     1.7170 H     1 <1>   0.0800 
 31 H        2.0860     1.5980     1.5780 H     1 <1>   0.0800 
 32 H        0.1410    -2.2230    -1.0740 H     1 <1>   0.1500 
 33 H        2.7500    -2.5270     2.2770 H     1 <1>   0.1500 
 34 H        4.0830     0.0550    -1.7380 H     1 <1>   0.0800 
 35 H        5.5640    -0.7550    -1.3490 H     1 <1>   0.0800 
 36 H        2.7040     3.1480     0.0180 H     1 <1>   0.0800 
 37 H        2.5600     1.7730    -1.0100 H     1 <1>   0.0800 
 38 H        2.5040    -4.9820     2.2470 H     1 <1>   0.1500 
 39 H        5.0000     3.1540     0.0490 H     1 <1>   0.0800 
 40 H        4.6210     2.8220    -1.6140 H     1 <1>   0.0800 
 41 H       -1.0950    -6.4850    -1.9770 H     1 <1>   0.0800 
 42 H       -1.4780    -6.0790    -0.3160 H     1 <1>   0.0800 
 43 H        1.2370    -7.0010    -1.3410 H     1 <1>   0.0800 
 44 H        0.1730    -7.9190    -0.2930 H     1 <1>   0.0800 
 45 H        9.3390     1.6360     0.9210 H     1 <1>   0.1500 
 46 H        8.5350     5.3230    -0.8410 H     1 <1>   0.2700 
 47 H       10.5890     5.1480     1.0540 H     1 <1>   0.4000 
 48 H       11.1670     3.5790     1.1960 H     1 <1>   0.4000 
@<TRIPOS>BOND
  1   1   2  2   
  2   2   3  am  
  3   2   4  1   
  4   3   5  1   
  5   3   6  1   
  6   4   7  ar  
  7   4   8  ar  
  8   5   9  1   
  9   5  28  1   
 10   5  29  1   
 11   6  10  1   
 12   6  30  1   
 13   6  31  1   
 14   7  11  ar  
 15   7  32  1   
 16   8  12  ar  
 17   8  33  1   
 18   9  13  1   
 19   9  34  1   
 20   9  35  1   
 21  10  14  1   
 22  10  36  1   
 23  10  37  1   
 24  11  15  1   
 25  11  16  ar  
 26  12  16  ar  
 27  12  38  1   
 28  13  14  1   
 29  13  17  am  
 30  14  39  1   
 31  14  40  1   
 32  15  18  1   
 33  16  19  1   
 34  17  20  2   
 35  17  21  1   
 36  18  22  1   
 37  18  41  1   
 38  18  42  1   
 39  19  22  1   
 40  21  23  2   
 41  21  24  1   
 42  22  43  1   
 43  22  44  1   
 44  23  25  1   
 45  24  26  2   
 46  24  45  1   
 47  25  26  1   
 48  25  46  1   
 49  26  27  1   
 50  27  47  1   
 51  27  48  1   
@<TRIPOS>SUBSTRUCTURE
  1 ****   5 GROUP 4 **** **** 0

# MOE 2024.06 (io_trps.svl 2023.06)
