@<TRIPOS>MOLECULE
NONAME
53 55 1 0 0 
SMALL
USER_CHARGES


@<TRIPOS>ATOM
  1 O       -0.0730     0.2880    -1.0990 O.2   1 <1>  -0.5700 
  2 C       -1.0460     0.9730    -0.8970 C.2   1 <1>   0.5690 
  3 N       -2.2680     0.4180    -0.6340 N.am  1 <1>  -0.6600 
  4 C       -0.8690     2.4790    -0.9280 C.3   1 <1>  -0.0990 
  5 C       -3.5410     1.1370    -0.3830 C.3   1 <1>   0.1400 
  6 C       -2.4680    -1.0470    -0.5600 C.3   1 <1>   0.1400 
  7 C       -0.5290     3.0240     0.4630 C.3   1 <1>  -0.0160 
  8 C       -4.5940     0.0390    -0.2270 C.3   1 <1>   0.2000 
  9 C       -3.8230    -1.2330     0.1240 C.3   1 <1>  -0.0800 
 10 C       -0.4460     4.5410     0.4340 C.ar  1 <1>  -0.1440 
 11 O       -5.4970     0.3420     0.7800 O.3   1 <1>  -0.6800 
 12 C       -4.5590    -2.5140    -0.2970 C.3   1 <1>  -0.0170 
 13 C        0.7370     5.1670     0.0710 C.ar  1 <1>  -0.1500 
 14 C       -1.5480     5.3130     0.7720 C.ar  1 <1>  -0.1500 
 15 C       -3.7620    -3.7530     0.0780 C.ar  1 <1>  -0.1440 
 16 C        0.8270     6.5490     0.0450 C.ar  1 <1>   0.0820 
 17 C       -1.4730     6.6950     0.7330 C.ar  1 <1>  -0.1500 
 18 C       -2.9350    -4.3970    -0.8200 C.ar  1 <1>  -0.1500 
 19 C       -3.8260    -4.2970     1.3450 C.ar  1 <1>  -0.1500 
 20 O        2.0250     7.0930    -0.2820 O.3   1 <1>  -0.3620 
 21 C       -0.2980     7.3220     0.3560 C.ar  1 <1>   0.0820 
 22 C       -2.2300    -5.5190    -0.4180 C.ar  1 <1>   0.1600 
 23 C       -3.0800    -5.4250     1.6450 C.ar  1 <1>   0.1600 
 24 C        2.6900     7.7910     0.7470 C.3   1 <1>   0.0400 
 25 O       -0.3020     8.6780     0.3040 O.3   1 <1>  -0.3630 
 26 N       -2.2820    -6.0490     0.7930 N.ar  1 <1>  -0.6200 
 27 C       -0.1120     9.2580    -0.9680 C.3   1 <1>   0.0400 
 28 H       -0.0680     2.7150    -1.6050 H     1 <1>   0.0800 
 29 H       -1.7560     2.9520    -1.3050 H     1 <1>   0.0800 
 30 H       -3.4540     1.7170     0.5190 H     1 <1>   0.0800 
 31 H       -3.7840     1.7740    -1.2160 H     1 <1>   0.0800 
 32 H       -2.4820    -1.4440    -1.5610 H     1 <1>   0.0800 
 33 H       -1.6750    -1.5190    -0.0030 H     1 <1>   0.0800 
 34 H        0.4120     2.6140     0.7870 H     1 <1>   0.0800 
 35 H       -1.2770     2.7150     1.1710 H     1 <1>   0.0800 
 36 H       -5.1400    -0.0730    -1.1490 H     1 <1>   0.0800 
 37 H       -3.6390    -1.2600     1.1840 H     1 <1>   0.0800 
 38 H       -5.0490     0.3620     1.6470 H     1 <1>   0.4000 
 39 H       -4.7360    -2.5050    -1.3590 H     1 <1>   0.0800 
 40 H       -5.5190    -2.5490     0.1890 H     1 <1>   0.0800 
 41 H        1.6040     4.5880    -0.1910 H     1 <1>   0.1500 
 42 H       -2.4710     4.8440     1.0630 H     1 <1>   0.1500 
 43 H       -2.3270     7.2950     0.9900 H     1 <1>   0.1500 
 44 H       -2.8300    -4.0400    -1.8280 H     1 <1>   0.1500 
 45 H       -4.4490    -3.8560     2.1020 H     1 <1>   0.1500 
 46 H       -1.5880    -6.0080    -1.1320 H     1 <1>   0.1500 
 47 H       -3.1430    -5.8360     2.6380 H     1 <1>   0.1500 
 48 H        3.6580     8.0850     0.3840 H     1 <1>   0.0800 
 49 H        2.7960     7.1380     1.5960 H     1 <1>   0.0800 
 50 H        2.1190     8.6610     1.0150 H     1 <1>   0.0800 
 51 H       -0.2830    10.3160    -0.8840 H     1 <1>   0.0800 
 52 H       -0.8160     8.8240    -1.6560 H     1 <1>   0.0800 
 53 H        0.8940     9.0750    -1.2970 H     1 <1>   0.0800 
@<TRIPOS>BOND
  1   1   2  2   
  2   2   3  am  
  3   2   4  1   
  4   3   5  1   
  5   3   6  1   
  6   4   7  1   
  7   4  28  1   
  8   4  29  1   
  9   5   8  1   
 10   5  30  1   
 11   5  31  1   
 12   6   9  1   
 13   6  32  1   
 14   6  33  1   
 15   7  10  1   
 16   7  34  1   
 17   7  35  1   
 18   8   9  1   
 19   8  11  1   
 20   8  36  1   
 21   9  12  1   
 22   9  37  1   
 23  10  13  ar  
 24  10  14  ar  
 25  11  38  1   
 26  12  15  1   
 27  12  39  1   
 28  12  40  1   
 29  13  16  ar  
 30  13  41  1   
 31  14  17  ar  
 32  14  42  1   
 33  15  18  ar  
 34  15  19  ar  
 35  16  20  1   
 36  16  21  ar  
 37  17  21  ar  
 38  17  43  1   
 39  18  22  ar  
 40  18  44  1   
 41  19  23  ar  
 42  19  45  1   
 43  20  24  1   
 44  21  25  1   
 45  22  26  ar  
 46  22  46  1   
 47  23  26  ar  
 48  23  47  1   
 49  24  48  1   
 50  24  49  1   
 51  24  50  1   
 52  25  27  1   
 53  27  51  1   
 54  27  52  1   
 55  27  53  1   
@<TRIPOS>SUBSTRUCTURE
  1 ****   2 GROUP 4 **** **** 0

# MOE 2024.06 (io_trps.svl 2023.06)
