@<TRIPOS>MOLECULE
NONAME
45 47 1 0 0 
SMALL
USER_CHARGES


@<TRIPOS>ATOM
  1 O       -0.1630    -0.5420     0.4500 O.3   1 <1>  -0.5600 
  2 C        1.0110    -1.0520    -0.1070 C.3   1 <1>   0.2000 
  3 C       -0.0450     0.7310     1.0100 C.3   1 <1>   0.1200 
  4 C        1.4440    -0.1550    -1.2770 C.3   1 <1>  -0.1600 
  5 C        0.7370    -2.4870    -0.5620 C.3   1 <1>  -0.1600 
  6 C        0.3250     1.7410    -0.0820 C.3   1 <1>  -0.1600 
  7 C        1.5930     1.3030    -0.8250 C.3   1 <1>  -0.1600 
  8 C        0.2410    -3.3600     0.5910 C.3   1 <1>   0.2090 
  9 N        0.0200    -4.7450     0.0950 N.pl3 1 <1>  -0.8380 
 10 C       -1.2690    -5.2610    -0.0180 C.ar  1 <1>   0.4100 
 11 C        1.1810    -5.6670     0.2470 C.3   1 <1>   0.1290 
 12 N       -1.4720    -6.5480     0.3000 N.ar  1 <1>  -0.3100 
 13 C       -2.3170    -4.4670    -0.4550 C.ar  1 <1>  -0.1500 
 14 N       -2.6650    -7.0840     0.2190 N.ar  1 <1>  -0.3100 
 15 C       -3.5660    -5.0270    -0.5400 C.ar  1 <1>  -0.1500 
 16 C       -3.7140    -6.3590    -0.1860 C.ar  1 <1>   0.3100 
 17 C       -5.0110    -6.9980    -0.2550 C.ar  1 <1>   0.0000 
 18 C       -6.1550    -6.3840     0.2570 C.ar  1 <1>  -0.1500 
 19 C       -5.1630    -8.2540    -0.8420 C.ar  1 <1>  -0.1500 
 20 C       -7.3950    -6.9910     0.1770 C.ar  1 <1>  -0.1500 
 21 C       -6.4000    -8.8660    -0.9250 C.ar  1 <1>  -0.1500 
 22 C       -7.5210    -8.2340    -0.4170 C.ar  1 <1>  -0.1500 
 23 H        1.7690    -1.0540     0.6580 H     1 <1>   0.0800 
 24 H        0.7050     0.6990     1.7830 H     1 <1>   0.0800 
 25 H       -0.9930     0.9840     1.4520 H     1 <1>   0.0800 
 26 H        0.7060    -0.2150    -2.0580 H     1 <1>   0.0800 
 27 H        2.3780    -0.5070    -1.6780 H     1 <1>   0.0800 
 28 H        1.6440    -2.9050    -0.9560 H     1 <1>   0.0800 
 29 H        0.0020    -2.4760    -1.3450 H     1 <1>   0.0800 
 30 H        0.4750     2.7100     0.3580 H     1 <1>   0.0800 
 31 H       -0.4960     1.8150    -0.7740 H     1 <1>   0.0800 
 32 H        1.7640     1.9400    -1.6750 H     1 <1>   0.0800 
 33 H        2.4390     1.3870    -0.1650 H     1 <1>   0.0800 
 34 H       -0.6740    -2.9600     0.9930 H     1 <1>   0.0800 
 35 H        0.9670    -3.3710     1.3860 H     1 <1>   0.0800 
 36 H        2.0900    -5.1740    -0.0500 H     1 <1>   0.0800 
 37 H        1.0460    -6.5360    -0.3750 H     1 <1>   0.0800 
 38 H        1.2630    -5.9820     1.2730 H     1 <1>   0.0800 
 39 H       -2.1500    -3.4430    -0.7250 H     1 <1>   0.1500 
 40 H       -4.4080    -4.4540    -0.8790 H     1 <1>   0.1500 
 41 H       -6.0720    -5.4220     0.7310 H     1 <1>   0.1500 
 42 H       -4.2960    -8.7550    -1.2370 H     1 <1>   0.1500 
 43 H       -8.2640    -6.4990     0.5780 H     1 <1>   0.1500 
 44 H       -6.4900    -9.8360    -1.3830 H     1 <1>   0.1500 
 45 H       -8.4850    -8.7090    -0.4800 H     1 <1>   0.1500 
@<TRIPOS>BOND
  1   1   2  1   
  2   1   3  1   
  3   2   4  1   
  4   2   5  1   
  5   2  23  1   
  6   3   6  1   
  7   3  24  1   
  8   3  25  1   
  9   4   7  1   
 10   4  26  1   
 11   4  27  1   
 12   5   8  1   
 13   5  28  1   
 14   5  29  1   
 15   6   7  1   
 16   6  30  1   
 17   6  31  1   
 18   7  32  1   
 19   7  33  1   
 20   8   9  1   
 21   8  34  1   
 22   8  35  1   
 23   9  10  1   
 24   9  11  1   
 25  10  12  ar  
 26  10  13  ar  
 27  11  36  1   
 28  11  37  1   
 29  11  38  1   
 30  12  14  ar  
 31  13  15  ar  
 32  13  39  1   
 33  14  16  ar  
 34  15  16  ar  
 35  15  40  1   
 36  16  17  1   
 37  17  18  ar  
 38  17  19  ar  
 39  18  20  ar  
 40  18  41  1   
 41  19  21  ar  
 42  19  42  1   
 43  20  22  ar  
 44  20  43  1   
 45  21  22  ar  
 46  21  44  1   
 47  22  45  1   
@<TRIPOS>SUBSTRUCTURE
  1 ****  13 GROUP 4 **** **** 0

# MOE 2024.06 (io_trps.svl 2023.06)
