@<TRIPOS>MOLECULE
NONAME
43 44 1 0 0 
SMALL
USER_CHARGES


@<TRIPOS>ATOM
  1 S        0.3790     0.4360    -1.3880 S.o2  1 <1>   1.3330 
  2 O        0.6530    -0.8330    -2.0240 O.2   1 <1>  -0.6500 
  3 O       -0.4880     1.3910    -2.0390 O.2   1 <1>  -0.6500 
  4 N       -0.2910     0.1140     0.1410 N.am  1 <1>  -0.8490 
  5 C        1.9490     1.2190    -1.0110 C.3   1 <1>  -0.0550 
  6 C       -0.9550     1.2780     0.7400 C.3   1 <1>   0.1160 
  7 C       -1.2190    -1.0200     0.1080 C.3   1 <1>   0.1160 
  8 C        2.9880     0.2750    -0.3680 C.3   1 <1>  -0.0800 
  9 C        4.3810     0.8670    -0.2110 C.3   1 <1>   0.2200 
 10 C        2.6590    -0.1930     1.0560 C.3   1 <1>   0.1200 
 11 N        4.3110     2.2580     0.3000 N.am  1 <1>  -0.7300 
 12 C        4.9360    -0.0270     0.8880 C.3   1 <1>   0.1200 
 13 O        3.8670    -0.2180     1.7620 O.3   1 <1>  -0.5600 
 14 C        4.4760     3.3840    -0.4560 C.2   1 <1>   0.5440 
 15 O        4.6050     3.2440    -1.6550 O.2   1 <1>  -0.5700 
 16 C        4.4930     4.7050     0.1400 C.ar  1 <1>   0.0860 
 17 C        3.9170     4.9590     1.3850 C.ar  1 <1>   0.1600 
 18 C        5.0800     5.7870    -0.5050 C.ar  1 <1>  -0.1500 
 19 N        3.8910     6.1250     2.0090 N.ar  1 <1>  -0.6200 
 20 C        5.0690     7.0160     0.1190 C.ar  1 <1>  -0.1440 
 21 C        4.4670     7.1260     1.3630 C.ar  1 <1>   0.1600 
 22 C        5.7010     8.2240    -0.5530 C.3   1 <1>  -0.0970 
 23 H        2.3660     1.5910    -1.9280 H     1 <1>   0.0800 
 24 H        1.7800     2.0640    -0.3750 H     1 <1>   0.0800 
 25 H       -1.2790     1.0450     1.7390 H     1 <1>   0.0800 
 26 H       -1.8110     1.5680     0.1520 H     1 <1>   0.0800 
 27 H       -0.2740     2.1110     0.7900 H     1 <1>   0.0800 
 28 H       -1.6190    -1.2060     1.0900 H     1 <1>   0.0800 
 29 H       -0.7060    -1.9090    -0.2180 H     1 <1>   0.0800 
 30 H       -2.0300    -0.8210    -0.5740 H     1 <1>   0.0800 
 31 H        3.0750    -0.6020    -0.9850 H     1 <1>   0.0800 
 32 H        4.9630     0.8170    -1.1170 H     1 <1>   0.0800 
 33 H        2.2280    -1.1800     1.0620 H     1 <1>   0.0800 
 34 H        2.0020     0.4920     1.5620 H     1 <1>   0.0800 
 35 H        4.2440     2.3040     1.3200 H     1 <1>   0.3700 
 36 H        5.7650     0.4160     1.4120 H     1 <1>   0.0800 
 37 H        5.2200    -0.9880     0.4940 H     1 <1>   0.0800 
 38 H        3.4400     4.1450     1.9010 H     1 <1>   0.1500 
 39 H        5.5320     5.6540    -1.4730 H     1 <1>   0.1500 
 40 H        4.4550     8.0850     1.8520 H     1 <1>   0.1500 
 41 H        6.5400     7.9220    -1.1550 H     1 <1>   0.0800 
 42 H        6.0470     8.9290     0.1810 H     1 <1>   0.0800 
 43 H        4.9780     8.7080    -1.1860 H     1 <1>   0.0800 
@<TRIPOS>BOND
  1   1   2  2   
  2   1   3  2   
  3   1   4  am  
  4   1   5  1   
  5   4   6  1   
  6   4   7  1   
  7   5   8  1   
  8   5  23  1   
  9   5  24  1   
 10   6  25  1   
 11   6  26  1   
 12   6  27  1   
 13   7  28  1   
 14   7  29  1   
 15   7  30  1   
 16   8   9  1   
 17   8  10  1   
 18   8  31  1   
 19   9  11  1   
 20   9  12  1   
 21   9  32  1   
 22  10  13  1   
 23  10  33  1   
 24  10  34  1   
 25  11  14  am  
 26  11  35  1   
 27  12  13  1   
 28  12  36  1   
 29  12  37  1   
 30  14  15  2   
 31  14  16  1   
 32  16  17  ar  
 33  16  18  ar  
 34  17  19  ar  
 35  17  38  1   
 36  18  20  ar  
 37  18  39  1   
 38  19  21  ar  
 39  20  21  ar  
 40  20  22  1   
 41  21  40  1   
 42  22  41  1   
 43  22  42  1   
 44  22  43  1   
@<TRIPOS>SUBSTRUCTURE
  1 ****  11 GROUP 4 **** **** 0

# MOE 2024.06 (io_trps.svl 2023.06)
