@<TRIPOS>MOLECULE
NONAME
48 51 1 0 0 
SMALL
USER_CHARGES


@<TRIPOS>ATOM
  1 O        0.9400    -0.7940    -2.3850 O.2   1 <1>  -0.5700 
  2 C        1.2830    -1.5300    -1.4730 C.2   1 <1>   0.5440 
  3 N        1.3950    -0.9610    -0.2170 N.am  1 <1>  -0.6600 
  4 C        1.5760    -2.9340    -1.7670 C.ar  1 <1>   0.3960 
  5 C        1.9240    -1.6220     0.9970 C.3   1 <1>   0.1400 
  6 C        1.0680     0.4560     0.0530 C.3   1 <1>   0.1400 
  7 N        1.3560    -3.9010    -0.8570 N.ar  1 <1>  -0.6200 
  8 C        2.0860    -3.2350    -3.0360 C.ar  1 <1>   0.1600 
  9 C        2.1880    -0.4830     1.9750 C.3   1 <1>  -0.1600 
 10 C        1.2070     0.6110     1.5630 C.3   1 <1>  -0.1600 
 11 C        1.6670    -5.1060    -1.2810 C.ar  1 <1>   0.4100 
 12 N        2.4160    -4.4440    -3.4740 N.ar  1 <1>  -0.6200 
 13 N        1.4230    -6.0860    -0.3560 N.pl3 1 <1>  -0.8690 
 14 C        2.1950    -5.3620    -2.5560 C.ar  1 <1>   0.1600 
 15 C        0.6610    -7.2970    -0.7150 C.3   1 <1>   0.2090 
 16 C       -0.4800    -7.4670     0.2870 C.3   1 <1>  -0.1600 
 17 C       -1.3620    -8.6790    -0.0380 C.3   1 <1>   0.2000 
 18 O       -2.4790    -8.6270     0.8270 O.3   1 <1>  -0.3630 
 19 C       -0.6420   -10.0310     0.1320 C.3   1 <1>   0.1200 
 20 C       -3.2450    -9.7440     0.9150 C.ar  1 <1>   0.0830 
 21 O       -1.5420   -11.0990    -0.0920 O.3   1 <1>  -0.3630 
 22 C       -2.7830   -10.9750     0.4440 C.ar  1 <1>   0.0830 
 23 C       -4.5050    -9.6500     1.4790 C.ar  1 <1>  -0.1500 
 24 C       -3.5940   -12.0940     0.5240 C.ar  1 <1>  -0.1500 
 25 C       -5.3110   -10.7740     1.5630 C.ar  1 <1>  -0.1500 
 26 C       -4.8570   -11.9930     1.0830 C.ar  1 <1>  -0.1500 
 27 H        2.8230    -2.1750     0.7810 H     1 <1>   0.0800 
 28 H        1.1730    -2.2860     1.3900 H     1 <1>   0.0800 
 29 H        0.0710     0.6880    -0.2830 H     1 <1>   0.0800 
 30 H        1.7760     1.0830    -0.4620 H     1 <1>   0.0800 
 31 H        2.2290    -2.4210    -3.7260 H     1 <1>   0.1500 
 32 H        3.1990    -0.1370     1.8430 H     1 <1>   0.0800 
 33 H        2.0540    -0.7930     2.9960 H     1 <1>   0.0800 
 34 H        0.2490     0.4350     2.0210 H     1 <1>   0.0800 
 35 H        1.5490     1.5940     1.8340 H     1 <1>   0.0800 
 36 H        1.0940    -5.6640     0.5180 H     1 <1>   0.4000 
 37 H        2.4400    -6.3780    -2.8000 H     1 <1>   0.1500 
 38 H        1.3240    -8.1450    -0.6840 H     1 <1>   0.0800 
 39 H        0.2620    -7.2020    -1.7120 H     1 <1>   0.0800 
 40 H       -1.0960    -6.5840     0.2540 H     1 <1>   0.0800 
 41 H       -0.0770    -7.5780     1.2770 H     1 <1>   0.0800 
 42 H       -1.7360    -8.5970    -1.0450 H     1 <1>   0.0800 
 43 H       -0.2540   -10.1270     1.1310 H     1 <1>   0.0800 
 44 H        0.1630   -10.1370    -0.5710 H     1 <1>   0.0800 
 45 H       -4.8500    -8.7000     1.8460 H     1 <1>   0.1500 
 46 H       -3.2320   -13.0350     0.1520 H     1 <1>   0.1500 
 47 H       -6.2920   -10.7000     2.0000 H     1 <1>   0.1500 
 48 H       -5.4870   -12.8640     1.1470 H     1 <1>   0.1500 
@<TRIPOS>BOND
  1   1   2  2   
  2   2   3  am  
  3   2   4  1   
  4   3   5  1   
  5   3   6  1   
  6   4   7  ar  
  7   4   8  ar  
  8   5   9  1   
  9   5  27  1   
 10   5  28  1   
 11   6  10  1   
 12   6  29  1   
 13   6  30  1   
 14   7  11  ar  
 15   8  12  ar  
 16   8  31  1   
 17   9  10  1   
 18   9  32  1   
 19   9  33  1   
 20  10  34  1   
 21  10  35  1   
 22  11  13  1   
 23  11  14  ar  
 24  12  14  ar  
 25  13  15  1   
 26  13  36  1   
 27  14  37  1   
 28  15  16  1   
 29  15  38  1   
 30  15  39  1   
 31  16  17  1   
 32  16  40  1   
 33  16  41  1   
 34  17  18  1   
 35  17  19  1   
 36  17  42  1   
 37  18  20  1   
 38  19  21  1   
 39  19  43  1   
 40  19  44  1   
 41  20  22  ar  
 42  20  23  ar  
 43  21  22  1   
 44  22  24  ar  
 45  23  25  ar  
 46  23  45  1   
 47  24  26  ar  
 48  24  46  1   
 49  25  26  ar  
 50  25  47  1   
 51  26  48  1   
@<TRIPOS>SUBSTRUCTURE
  1 ****  16 GROUP 4 **** **** 0

# MOE 2024.06 (io_trps.svl 2023.06)
