@<TRIPOS>MOLECULE
NONAME
44 46 1 0 0 
SMALL
USER_CHARGES


@<TRIPOS>ATOM
  1 S        0.5660     0.0380     1.7920 S.o2  1 <1>   1.5010 
  2 O       -0.0090     1.1420     2.5290 O.2   1 <1>  -0.6500 
  3 O        1.2330    -1.0310     2.5000 O.2   1 <1>  -0.6500 
  4 N        1.7660     0.7530     0.8240 N.am  1 <1>  -0.8490 
  5 C       -0.6380    -0.5730     0.5810 C.2   1 <1>  -0.0630 
  6 C        2.7330     1.4850     1.6760 C.3   1 <1>   0.1960 
  7 C        2.4590    -0.2260    -0.0290 C.3   1 <1>   0.1960 
  8 C       -0.7540    -1.8220     0.0690 C.2   1 <1>  -0.1400 
  9 C       -1.6030     0.3320     0.0140 C.2   1 <1>  -0.1500 
 10 C        3.7030     2.4450     0.9270 C.3   1 <1>   0.4230 
 11 C        3.2870     0.4550    -1.1390 C.3   1 <1>  -0.0800 
 12 S       -2.0370    -1.9030    -1.1260 S.3   1 <1>  -0.0800 
 13 C       -0.0220    -3.1300     0.3120 C.3   1 <1>  -0.0600 
 14 C       -2.4180    -0.2120    -0.9050 C.2   1 <1>  -0.1400 
 15 N        3.2010     2.9430    -0.4190 N.4   1 <1>  -0.9590 
 16 C        5.1310     1.8680     0.8320 C.3   1 <1>   0.1200 
 17 C        4.8050     0.3280    -0.9440 C.3   1 <1>   0.1200 
 18 C        2.8210     1.8900    -1.4290 C.3   1 <1>   0.3430 
 19 C       -3.5560     0.3540    -1.7280 C.3   1 <1>  -0.0600 
 20 C        2.0220     3.8410    -0.2090 C.3   1 <1>   0.2630 
 21 O        5.1540     0.5510     0.3810 O.3   1 <1>  -0.5600 
 22 H        2.1890     2.0980     2.3740 H     1 <1>   0.0800 
 23 H        3.2980     0.7850     2.2710 H     1 <1>   0.0800 
 24 H        3.0730    -0.8820     0.5700 H     1 <1>   0.0800 
 25 H        1.7240    -0.8450    -0.5150 H     1 <1>   0.0800 
 26 H       -1.6400     1.3570     0.3400 H     1 <1>   0.1500 
 27 H        3.8040     3.3110     1.5600 H     1 <1>   0.0800 
 28 H        3.0770    -0.0970    -2.0380 H     1 <1>   0.0800 
 29 H        0.7600    -3.0200     1.0380 H     1 <1>   0.0800 
 30 H        0.4090    -3.4860    -0.6070 H     1 <1>   0.0800 
 31 H       -0.7160    -3.8690     0.6730 H     1 <1>   0.0800 
 32 H        3.9580     3.5010    -0.8320 H     1 <1>   0.4500 
 33 H        5.5640     1.8530     1.8180 H     1 <1>   0.0800 
 34 H        5.7640     2.4690     0.2030 H     1 <1>   0.0800 
 35 H        5.3600     0.9970    -1.5810 H     1 <1>   0.0800 
 36 H        5.1110    -0.6800    -1.1710 H     1 <1>   0.0800 
 37 H        1.7460     1.8590    -1.5110 H     1 <1>   0.0800 
 38 H        3.2000     2.1850    -2.3940 H     1 <1>   0.0800 
 39 H       -3.6990     1.3950    -1.5010 H     1 <1>   0.0800 
 40 H       -4.4650    -0.1760    -1.5060 H     1 <1>   0.0800 
 41 H       -3.3400     0.2510    -2.7760 H     1 <1>   0.0800 
 42 H        1.2040     3.2840     0.2210 H     1 <1>   0.0800 
 43 H        1.6950     4.2590    -1.1480 H     1 <1>   0.0800 
 44 H        2.2750     4.6500     0.4570 H     1 <1>   0.0800 
@<TRIPOS>BOND
  1   1   2  2   
  2   1   3  2   
  3   1   4  am  
  4   1   5  1   
  5   4   6  1   
  6   4   7  1   
  7   5   8  2   
  8   5   9  1   
  9   6  10  1   
 10   6  22  1   
 11   6  23  1   
 12   7  11  1   
 13   7  24  1   
 14   7  25  1   
 15   8  12  1   
 16   8  13  1   
 17   9  14  2   
 18   9  26  1   
 19  10  15  1   
 20  10  16  1   
 21  10  27  1   
 22  11  17  1   
 23  11  18  1   
 24  11  28  1   
 25  12  14  1   
 26  13  29  1   
 27  13  30  1   
 28  13  31  1   
 29  14  19  1   
 30  15  18  1   
 31  15  20  1   
 32  15  32  1   
 33  16  21  1   
 34  16  33  1   
 35  16  34  1   
 36  17  21  1   
 37  17  35  1   
 38  17  36  1   
 39  18  37  1   
 40  18  38  1   
 41  19  39  1   
 42  19  40  1   
 43  19  41  1   
 44  20  42  1   
 45  20  43  1   
 46  20  44  1   
@<TRIPOS>SUBSTRUCTURE
  1 ****   4 GROUP 4 **** **** 0

# MOE 2024.06 (io_trps.svl 2023.06)
