@<TRIPOS>MOLECULE
NONAME
52 54 1 0 0 
SMALL
USER_CHARGES


@<TRIPOS>ATOM
  1 O        1.4590    -1.1550    -2.4510 O.2   1 <1>  -0.5700 
  2 C        1.3490    -2.1610    -1.7760 C.2   1 <1>   0.5440 
  3 N        2.5110    -2.6070    -1.2140 N.am  1 <1>  -0.7300 
  4 C        0.0490    -2.8120    -1.5950 C.ar  1 <1>   0.3960 
  5 C        2.9800    -2.1880     0.1250 C.3   1 <1>   0.3000 
  6 N       -0.0390    -4.0380    -1.0490 N.ar  1 <1>  -0.6200 
  7 C       -1.1040    -2.1270    -2.0050 C.ar  1 <1>   0.1600 
  8 C        3.3130    -0.6730     0.1240 C.3   1 <1>   0.2000 
  9 C        4.2800    -2.9580     0.4060 C.3   1 <1>  -0.1600 
 10 C        1.9150    -2.5530     1.1700 C.3   1 <1>  -0.2400 
 11 C       -1.2760    -4.4850    -0.9530 C.ar  1 <1>   0.1600 
 12 N       -2.3470    -2.5730    -1.9060 N.ar  1 <1>  -0.6200 
 13 O        3.7800    -0.2660     1.3770 O.3   1 <1>  -0.6800 
 14 C        4.3930    -0.3510    -0.9260 C.3   1 <1>   0.1200 
 15 C        5.5020    -2.4850    -0.4350 C.3   1 <1>   0.2800 
 16 C       -2.3960    -3.7770    -1.3670 C.ar  1 <1>   0.1600 
 17 O        5.1290    -1.4820    -1.3420 O.3   1 <1>  -0.5600 
 18 C        6.6370    -1.9270     0.4560 C.3   1 <1>  -0.1600 
 19 C        6.0210    -3.6270    -1.3400 C.3   1 <1>  -0.1600 
 20 C        7.9930    -2.0050    -0.2450 C.3   1 <1>   0.1400 
 21 C        7.2090    -4.3750    -0.7300 C.3   1 <1>   0.1400 
 22 N        8.3470    -3.4370    -0.4850 N.am  1 <1>  -0.6600 
 23 C        9.6320    -3.9210    -0.4880 C.2   1 <1>   0.5690 
 24 O        9.8550    -5.1060    -0.5720 O.2   1 <1>  -0.5700 
 25 C       10.8140    -2.9590    -0.3750 C.3   1 <1>  -0.0990 
 26 C       12.1790    -3.5710    -0.7380 C.3   1 <1>  -0.2400 
 27 H        3.3070    -2.4680    -1.8470 H     1 <1>   0.3700 
 28 H       -0.9800    -1.1510    -2.4410 H     1 <1>   0.1500 
 29 H        2.4280    -0.0940    -0.0740 H     1 <1>   0.0800 
 30 H        4.0970    -4.0090     0.2710 H     1 <1>   0.0800 
 31 H        4.5150    -2.8560     1.4490 H     1 <1>   0.0800 
 32 H        2.2710    -2.3360     2.1610 H     1 <1>   0.0800 
 33 H        1.6840    -3.6010     1.1190 H     1 <1>   0.0800 
 34 H        1.0180    -1.9820     1.0160 H     1 <1>   0.0800 
 35 H       -1.4160    -5.4630    -0.5250 H     1 <1>   0.1500 
 36 H        4.5940    -0.7510     1.6040 H     1 <1>   0.4000 
 37 H        5.0740     0.4020    -0.5700 H     1 <1>   0.0800 
 38 H        3.9100     0.0300    -1.8090 H     1 <1>   0.0800 
 39 H       -3.3670    -4.2240    -1.2460 H     1 <1>   0.1500 
 40 H        6.4420    -0.9120     0.7430 H     1 <1>   0.0800 
 41 H        6.7200    -2.5030     1.3600 H     1 <1>   0.0800 
 42 H        5.2390    -4.3280    -1.5660 H     1 <1>   0.0800 
 43 H        6.3550    -3.2260    -2.2810 H     1 <1>   0.0800 
 44 H        8.7370    -1.5360     0.3740 H     1 <1>   0.0800 
 45 H        7.9490    -1.4850    -1.1870 H     1 <1>   0.0800 
 46 H        7.5230    -5.1550    -1.4040 H     1 <1>   0.0800 
 47 H        6.9240    -4.8340     0.2010 H     1 <1>   0.0800 
 48 H       10.6390    -2.1240    -1.0270 H     1 <1>   0.0800 
 49 H       10.8550    -2.5980     0.6350 H     1 <1>   0.0800 
 50 H       12.1620    -3.9430    -1.7470 H     1 <1>   0.0800 
 51 H       12.4070    -4.3890    -0.0770 H     1 <1>   0.0800 
 52 H       12.9550    -2.8310    -0.6530 H     1 <1>   0.0800 
@<TRIPOS>BOND
  1   1   2  2   
  2   2   3  am  
  3   2   4  1   
  4   3   5  1   
  5   3  27  1   
  6   4   6  ar  
  7   4   7  ar  
  8   5   8  1   
  9   5   9  1   
 10   5  10  1   
 11   6  11  ar  
 12   7  12  ar  
 13   7  28  1   
 14   8  13  1   
 15   8  14  1   
 16   8  29  1   
 17   9  15  1   
 18   9  30  1   
 19   9  31  1   
 20  10  32  1   
 21  10  33  1   
 22  10  34  1   
 23  11  16  ar  
 24  11  35  1   
 25  12  16  ar  
 26  13  36  1   
 27  14  17  1   
 28  14  37  1   
 29  14  38  1   
 30  15  17  1   
 31  15  18  1   
 32  15  19  1   
 33  16  39  1   
 34  18  20  1   
 35  18  40  1   
 36  18  41  1   
 37  19  21  1   
 38  19  42  1   
 39  19  43  1   
 40  20  22  1   
 41  20  44  1   
 42  20  45  1   
 43  21  22  1   
 44  21  46  1   
 45  21  47  1   
 46  22  23  am  
 47  23  24  2   
 48  23  25  1   
 49  25  26  1   
 50  25  48  1   
 51  25  49  1   
 52  26  50  1   
 53  26  51  1   
 54  26  52  1   
@<TRIPOS>SUBSTRUCTURE
  1 ****   9 GROUP 4 **** **** 0

# MOE 2024.06 (io_trps.svl 2023.06)
