@<TRIPOS>MOLECULE
NONAME
46 47 1 0 0 
SMALL
USER_CHARGES


@<TRIPOS>ATOM
  1 CL      -1.1830    -0.6220     1.9190 Cl    1 <1>  -0.1770 
  2 C       -1.8960    -1.3260     0.4800 C.ar  1 <1>   0.1770 
  3 C       -2.4470    -0.5790    -0.5710 C.ar  1 <1>   0.0820 
  4 C       -1.8920    -2.7070     0.4410 C.ar  1 <1>  -0.1500 
  5 O       -2.5290     0.7710    -0.6830 O.3   1 <1>  -0.3630 
  6 C       -2.9810    -1.2750    -1.6460 C.ar  1 <1>  -0.1500 
  7 C       -2.4420    -3.4050    -0.6310 C.ar  1 <1>   0.0860 
  8 C       -1.9570     1.6910     0.2150 C.3   1 <1>   0.1200 
  9 C       -2.9760    -2.6570    -1.6780 C.ar  1 <1>  -0.1500 
 10 C       -2.4610    -4.8510    -0.6710 C.2   1 <1>   0.5440 
 11 C       -2.1850     3.0990    -0.3360 C.3   1 <1>  -0.1600 
 12 O       -1.7530    -5.4220    -1.4760 O.2   1 <1>  -0.5700 
 13 N       -3.2720    -5.5920     0.1650 N.am  1 <1>  -0.6600 
 14 C       -1.5890     4.1630     0.5920 C.3   1 <1>  -0.2400 
 15 C       -3.3200    -7.0780     0.0590 C.3   1 <1>   0.3200 
 16 C       -4.2130    -4.9770     1.1520 C.3   1 <1>   0.1400 
 17 C       -4.6930    -7.5030    -0.4220 C.2   1 <1>  -0.3320 
 18 C       -5.4630    -4.4180     0.4630 C.3   1 <1>   0.1200 
 19 N       -5.7200    -7.8460     0.3790 N.pl3 1 <1>   0.0330 
 20 C       -5.1510    -7.6050    -1.6880 C.2   1 <1>   0.0770 
 21 O       -6.3930    -4.0930     1.4400 O.3   1 <1>  -0.6800 
 22 C       -6.7430    -8.1250    -0.4570 C.2   1 <1>   0.0060 
 23 N       -6.4400    -7.9920    -1.7050 N.2   1 <1>  -0.5650 
 24 C       -8.1090    -8.5500     0.0350 C.3   1 <1>  -0.0600 
 25 H       -1.4550    -3.2560     1.2560 H     1 <1>   0.1500 
 26 H       -3.4020    -0.7190    -2.4660 H     1 <1>   0.1500 
 27 H       -0.9030     1.4840     0.2920 H     1 <1>   0.0800 
 28 H       -2.4380     1.5790     1.1710 H     1 <1>   0.0800 
 29 H       -3.3890    -3.1760    -2.5270 H     1 <1>   0.1500 
 30 H       -3.2430     3.2710    -0.4390 H     1 <1>   0.0800 
 31 H       -1.7270     3.1780    -1.3060 H     1 <1>   0.0800 
 32 H       -2.0450     4.1130     1.5660 H     1 <1>   0.0800 
 33 H       -1.7630     5.1440     0.1850 H     1 <1>   0.0800 
 34 H       -0.5280     4.0200     0.6970 H     1 <1>   0.0800 
 35 H       -3.1020    -7.5170     1.0170 H     1 <1>   0.0800 
 36 H       -2.5810    -7.4380    -0.6360 H     1 <1>   0.0800 
 37 H       -3.7190    -4.1860     1.6870 H     1 <1>   0.0800 
 38 H       -4.5090    -5.7210     1.8690 H     1 <1>   0.0800 
 39 H       -5.9090    -5.1460    -0.1920 H     1 <1>   0.0800 
 40 H       -5.2290    -3.5260    -0.0910 H     1 <1>   0.0800 
 41 H       -5.7430    -7.8770     1.4020 H     1 <1>   0.2700 
 42 H       -4.6110    -7.4080    -2.6000 H     1 <1>   0.1500 
 43 H       -7.2030    -3.7270     1.0300 H     1 <1>   0.4000 
 44 H       -8.5300    -7.7870     0.6630 H     1 <1>   0.0800 
 45 H       -8.0340    -9.4690     0.5860 H     1 <1>   0.0800 
 46 H       -8.7640    -8.7050    -0.8050 H     1 <1>   0.0800 
@<TRIPOS>BOND
  1   1   2  1   
  2   2   3  ar  
  3   2   4  ar  
  4   3   5  1   
  5   3   6  ar  
  6   4   7  ar  
  7   4  25  1   
  8   5   8  1   
  9   6   9  ar  
 10   6  26  1   
 11   7   9  ar  
 12   7  10  1   
 13   8  11  1   
 14   8  27  1   
 15   8  28  1   
 16   9  29  1   
 17  10  12  2   
 18  10  13  am  
 19  11  14  1   
 20  11  30  1   
 21  11  31  1   
 22  13  15  1   
 23  13  16  1   
 24  14  32  1   
 25  14  33  1   
 26  14  34  1   
 27  15  17  1   
 28  15  35  1   
 29  15  36  1   
 30  16  18  1   
 31  16  37  1   
 32  16  38  1   
 33  17  19  1   
 34  17  20  2   
 35  18  21  1   
 36  18  39  1   
 37  18  40  1   
 38  19  22  1   
 39  19  41  1   
 40  20  23  1   
 41  20  42  1   
 42  21  43  1   
 43  22  23  2   
 44  22  24  1   
 45  24  44  1   
 46  24  45  1   
 47  24  46  1   
@<TRIPOS>SUBSTRUCTURE
  1 ****   7 GROUP 4 **** **** 0

# MOE 2024.06 (io_trps.svl 2023.06)
