@<TRIPOS>MOLECULE
NONAME
51 54 1 0 0 
SMALL
USER_CHARGES


@<TRIPOS>ATOM
  1 O        2.3360    -0.6510    -2.9620 O.2   1 <1>  -0.5700 
  2 C        1.9910    -1.1250    -1.8910 C.2   1 <1>   0.5440 
  3 N        1.3600    -0.2680    -1.0040 N.am  1 <1>  -0.6600 
  4 C        2.2860    -2.5380    -1.6220 C.ar  1 <1>   0.3960 
  5 C        1.1730     1.1730    -1.2860 C.3   1 <1>   0.1400 
  6 C        0.9240    -0.5900     0.3760 C.3   1 <1>   0.1400 
  7 N        1.5500    -3.2570    -0.7540 N.ar  1 <1>  -0.6200 
  8 C        3.3560    -3.1200    -2.3130 C.ar  1 <1>   0.1600 
  9 C        0.9650     1.8120     0.0810 C.3   1 <1>  -0.1600 
 10 C        0.3400     0.7080     0.9270 C.3   1 <1>  -0.1600 
 11 C        1.9370    -4.5070    -0.6380 C.ar  1 <1>   0.4100 
 12 N        3.7640    -4.3780    -2.1980 N.ar  1 <1>  -0.6200 
 13 N        1.1730    -5.2360     0.2290 N.pl3 1 <1>  -0.8690 
 14 C        3.0250    -5.0470    -1.3390 C.ar  1 <1>   0.1600 
 15 C        0.2000    -6.1720    -0.3390 C.3   1 <1>   0.4330 
 16 C       -1.1370    -5.9240     0.3510 C.ar  1 <1>  -0.1440 
 17 C        0.6970    -7.6030    -0.1280 C.3   1 <1>  -0.1600 
 18 C       -2.2490    -5.5680    -0.4010 C.ar  1 <1>  -0.1500 
 19 C       -1.2670    -6.0520     1.7280 C.ar  1 <1>  -0.1500 
 20 C       -0.3550    -8.6370    -0.5600 C.3   1 <1>   0.0960 
 21 C       -3.4710    -5.3560     0.2120 C.ar  1 <1>  -0.1500 
 22 C       -2.4900    -5.8410     2.3410 C.ar  1 <1>  -0.1500 
 23 N        0.1850   -10.0030    -0.4510 N.pl3 1 <1>   0.3140 
 24 C       -3.5940    -5.4950     1.5830 C.ar  1 <1>  -0.1500 
 25 N        1.0310   -10.5100    -1.3360 N.2   1 <1>  -0.7070 
 26 C       -0.0510   -10.9220     0.4900 C.2   1 <1>   0.0360 
 27 C        1.2440   -11.6960    -0.8670 C.2   1 <1>   0.3660 
 28 N        0.5980   -12.0070     0.2640 N.2   1 <1>  -0.5650 
 29 H        0.2970     1.2960    -1.9000 H     1 <1>   0.0800 
 30 H        2.0290     1.5870    -1.7910 H     1 <1>   0.0800 
 31 H        1.7760    -0.9000     0.9560 H     1 <1>   0.0800 
 32 H        0.1800    -1.3690     0.3710 H     1 <1>   0.0800 
 33 H        3.9080    -2.5030    -3.0010 H     1 <1>   0.1500 
 34 H        0.3450     2.6880     0.0220 H     1 <1>   0.0800 
 35 H        1.9240     2.0860     0.4860 H     1 <1>   0.0800 
 36 H        0.5480     0.8250     1.9750 H     1 <1>   0.0800 
 37 H       -0.7260     0.6970     0.7810 H     1 <1>   0.0800 
 38 H        0.6450    -4.5890     0.8220 H     1 <1>   0.4000 
 39 H        3.2750    -6.0760    -1.1600 H     1 <1>   0.1500 
 40 H        0.0960    -5.9850    -1.3970 H     1 <1>   0.0800 
 41 H        0.9350    -7.7520     0.9090 H     1 <1>   0.0800 
 42 H        1.5880    -7.7470    -0.7130 H     1 <1>   0.0800 
 43 H       -2.1730    -5.4490    -1.4680 H     1 <1>   0.1500 
 44 H       -0.4160    -6.3160     2.3330 H     1 <1>   0.1500 
 45 H       -0.6370    -8.4750    -1.5850 H     1 <1>   0.0800 
 46 H       -1.2360    -8.5670     0.0530 H     1 <1>   0.0800 
 47 H       -4.3290    -5.0810    -0.3780 H     1 <1>   0.1500 
 48 H       -2.5830    -5.9440     3.4090 H     1 <1>   0.1500 
 49 H       -4.5450    -5.3310     2.0590 H     1 <1>   0.1500 
 50 H       -0.7070   -10.7540     1.3250 H     1 <1>   0.1500 
 51 H        1.8980   -12.4100    -1.3410 H     1 <1>   0.1500 
@<TRIPOS>BOND
  1   1   2  2   
  2   2   3  am  
  3   2   4  1   
  4   3   5  1   
  5   3   6  1   
  6   4   7  ar  
  7   4   8  ar  
  8   5   9  1   
  9   5  29  1   
 10   5  30  1   
 11   6  10  1   
 12   6  31  1   
 13   6  32  1   
 14   7  11  ar  
 15   8  12  ar  
 16   8  33  1   
 17   9  10  1   
 18   9  34  1   
 19   9  35  1   
 20  10  36  1   
 21  10  37  1   
 22  11  13  1   
 23  11  14  ar  
 24  12  14  ar  
 25  13  15  1   
 26  13  38  1   
 27  14  39  1   
 28  15  16  1   
 29  15  17  1   
 30  15  40  1   
 31  16  18  ar  
 32  16  19  ar  
 33  17  20  1   
 34  17  41  1   
 35  17  42  1   
 36  18  21  ar  
 37  18  43  1   
 38  19  22  ar  
 39  19  44  1   
 40  20  23  1   
 41  20  45  1   
 42  20  46  1   
 43  21  24  ar  
 44  21  47  1   
 45  22  24  ar  
 46  22  48  1   
 47  23  25  1   
 48  23  26  1   
 49  24  49  1   
 50  25  27  2   
 51  26  28  2   
 52  26  50  1   
 53  27  28  1   
 54  27  51  1   
@<TRIPOS>SUBSTRUCTURE
  1 ****  13 GROUP 4 **** **** 0

# MOE 2024.06 (io_trps.svl 2023.06)
