@<TRIPOS>MOLECULE
NONAME
47 49 1 0 0 
SMALL
USER_CHARGES


@<TRIPOS>ATOM
  1 S        0.6210     0.6350     2.3160 S.o2  1 <1>   1.2040 
  2 O        0.4480    -0.1290     3.5300 O.2   1 <1>  -0.6500 
  3 O        1.7890     1.4750     2.1600 O.2   1 <1>  -0.6500 
  4 C        0.5310    -0.5010     0.9070 C.ar  1 <1>  -0.0090 
  5 C       -0.8600     1.6350     2.1140 C.3   1 <1>  -0.0550 
  6 C        1.5910    -0.6190     0.0140 C.ar  1 <1>  -0.1500 
  7 C       -0.5930    -1.2900     0.6850 C.ar  1 <1>  -0.1500 
  8 C       -0.8810     2.5440     0.8700 C.3   1 <1>  -0.0990 
  9 C        1.5220    -1.4650    -1.0790 C.ar  1 <1>  -0.1500 
 10 C       -0.6700    -2.1390    -0.4060 C.ar  1 <1>  -0.1500 
 11 C        0.0310     3.7460     1.0440 C.2   1 <1>   0.5690 
 12 C        0.3870    -2.2240    -1.2920 C.ar  1 <1>  -0.1500 
 13 O       -0.1990     4.4560     1.9930 O.2   1 <1>  -0.5700 
 14 N        1.0460     4.0140     0.1700 N.am  1 <1>  -0.6600 
 15 C        1.9460     5.1610     0.4220 C.3   1 <1>   0.4010 
 16 C        1.6810     3.0510    -0.7570 C.3   1 <1>   0.1400 
 17 C        1.2840     6.4830     0.0540 C.2   1 <1>  -0.1810 
 18 C        3.2040     4.8830    -0.4050 C.3   1 <1>  -0.1600 
 19 C        3.1640     3.3870    -0.7020 C.3   1 <1>  -0.1600 
 20 C        0.7850     6.9460    -1.1060 C.2   1 <1>  -0.0400 
 21 C        1.0540     7.5400     0.9370 C.2   1 <1>   0.1080 
 22 O        0.3360     8.1540    -0.8990 O.3   1 <1>  -0.0190 
 23 C        0.6570     6.3580    -2.4960 C.3   1 <1>  -0.0600 
 24 N        0.4950     8.5280     0.3350 N.2   1 <1>  -0.4100 
 25 C        1.3910     7.5550     2.4130 C.3   1 <1>  -0.0590 
 26 H       -0.9790     2.2510     2.9860 H     1 <1>   0.0800 
 27 H       -1.7140     0.9880     2.0780 H     1 <1>   0.0800 
 28 H        2.4880    -0.0440     0.1770 H     1 <1>   0.1500 
 29 H       -1.4190    -1.2530     1.3730 H     1 <1>   0.1500 
 30 H       -1.8770     2.9290     0.7500 H     1 <1>   0.0800 
 31 H       -0.6490     1.9860    -0.0160 H     1 <1>   0.0800 
 32 H        2.3530    -1.5390    -1.7600 H     1 <1>   0.1500 
 33 H       -1.5510    -2.7400    -0.5630 H     1 <1>   0.1500 
 34 H        0.3300    -2.8850    -2.1410 H     1 <1>   0.1500 
 35 H        2.2110     5.1550     1.4660 H     1 <1>   0.0800 
 36 H        1.2940     3.2030    -1.7490 H     1 <1>   0.0800 
 37 H        1.5150     2.0350    -0.4540 H     1 <1>   0.0800 
 38 H        4.0900     5.1660     0.1340 H     1 <1>   0.0800 
 39 H        3.1730     5.4400    -1.3240 H     1 <1>   0.0800 
 40 H        3.6710     3.1330    -1.6160 H     1 <1>   0.0800 
 41 H        3.6120     2.8420     0.1120 H     1 <1>   0.0800 
 42 H        1.0500     5.3620    -2.5250 H     1 <1>   0.0800 
 43 H        1.1950     6.9690    -3.1980 H     1 <1>   0.0800 
 44 H       -0.3790     6.3310    -2.7800 H     1 <1>   0.0800 
 45 H        0.8660     6.7620     2.9130 H     1 <1>   0.0800 
 46 H        1.0930     8.4920     2.8470 H     1 <1>   0.0800 
 47 H        2.4480     7.4280     2.5510 H     1 <1>   0.0800 
@<TRIPOS>BOND
  1   1   2  2   
  2   1   3  2   
  3   1   4  1   
  4   1   5  1   
  5   4   6  ar  
  6   4   7  ar  
  7   5   8  1   
  8   5  26  1   
  9   5  27  1   
 10   6   9  ar  
 11   6  28  1   
 12   7  10  ar  
 13   7  29  1   
 14   8  11  1   
 15   8  30  1   
 16   8  31  1   
 17   9  12  ar  
 18   9  32  1   
 19  10  12  ar  
 20  10  33  1   
 21  11  13  2   
 22  11  14  am  
 23  12  34  1   
 24  14  15  1   
 25  14  16  1   
 26  15  17  1   
 27  15  18  1   
 28  15  35  1   
 29  16  19  1   
 30  16  36  1   
 31  16  37  1   
 32  17  20  2   
 33  17  21  1   
 34  18  19  1   
 35  18  38  1   
 36  18  39  1   
 37  19  40  1   
 38  19  41  1   
 39  20  22  1   
 40  20  23  1   
 41  21  24  2   
 42  21  25  1   
 43  22  24  1   
 44  23  42  1   
 45  23  43  1   
 46  23  44  1   
 47  25  45  1   
 48  25  46  1   
 49  25  47  1   
@<TRIPOS>SUBSTRUCTURE
  1 ****  14 GROUP 4 **** **** 0

# MOE 2024.06 (io_trps.svl 2023.06)
