@<TRIPOS>MOLECULE
NONAME
48 51 1 0 0 
SMALL
USER_CHARGES


@<TRIPOS>ATOM
  1 O        5.5500    -2.7330    -1.1540 O.2   1 <1>  -0.5700 
  2 C        4.6010    -2.6050    -0.4150 C.2   1 <1>   0.5690 
  3 N        4.6620    -1.6890     0.6180 N.am  1 <1>  -0.6600 
  4 C        3.3620    -3.4520    -0.7230 C.3   1 <1>   0.2610 
  5 C        5.8880    -0.8530     0.7720 C.3   1 <1>   0.1400 
  6 C        3.5180    -1.2470     1.4610 C.3   1 <1>   0.1400 
  7 O        2.2150    -2.6140    -0.8680 O.3   1 <1>  -0.3630 
  8 C        3.1470    -4.5320     0.3480 C.3   1 <1>   0.1200 
  9 C        5.9570     0.1940    -0.3520 C.3   1 <1>   0.3430 
 10 C        3.0100     0.1360     1.0260 C.3   1 <1>  -0.1600 
 11 C        0.9970    -3.2020    -0.7580 C.ar  1 <1>   0.0820 
 12 O        1.9350    -5.2260     0.1300 O.3   1 <1>  -0.3630 
 13 N        4.8070     1.1680    -0.3560 N.4   1 <1>  -0.9590 
 14 C        3.4330     0.5830    -0.3790 C.3   1 <1>   0.3430 
 15 C        0.8590    -4.5030    -0.2690 C.ar  1 <1>   0.0820 
 16 C       -0.1240    -2.4870    -1.1450 C.ar  1 <1>  -0.1500 
 17 C        5.0120     2.1860    -1.4180 C.3   1 <1>   0.5230 
 18 C       -0.3960    -5.0780    -0.1820 C.ar  1 <1>  -0.1500 
 19 C       -1.3790    -3.0670    -1.0500 C.ar  1 <1>  -0.1500 
 20 C        5.9570     3.2390    -0.8520 C.2   1 <1>   0.0060 
 21 C       -1.5150    -4.3600    -0.5710 C.ar  1 <1>  -0.1500 
 22 N        6.2470     3.3250     0.4120 N.2   1 <1>  -0.5650 
 23 N        6.5730     4.1780    -1.6100 N.pl3 1 <1>   0.0330 
 24 C        7.0930     4.3710     0.4810 C.2   1 <1>   0.0770 
 25 C        7.3020     4.9010    -0.7420 C.2   1 <1>  -0.3020 
 26 H        3.5130    -3.9380    -1.6700 H     1 <1>   0.0800 
 27 H        6.7560    -1.4880     0.7100 H     1 <1>   0.0800 
 28 H        5.9050    -0.3700     1.7330 H     1 <1>   0.0800 
 29 H        3.8260    -1.2150     2.4930 H     1 <1>   0.0800 
 30 H        2.7100    -1.9530     1.4060 H     1 <1>   0.0800 
 31 H        3.1080    -4.1040     1.3320 H     1 <1>   0.0800 
 32 H        3.9460    -5.2510     0.3180 H     1 <1>   0.0800 
 33 H        5.9950    -0.3300    -1.2940 H     1 <1>   0.0800 
 34 H        6.8800     0.7410    -0.2450 H     1 <1>   0.0800 
 35 H        3.2990     0.8760     1.7500 H     1 <1>   0.0800 
 36 H        1.9350     0.0960     1.0500 H     1 <1>   0.0800 
 37 H        4.9220     1.7410     0.5010 H     1 <1>   0.4500 
 38 H        2.7350     1.3340    -0.7110 H     1 <1>   0.0800 
 39 H        3.3830    -0.2470    -1.0680 H     1 <1>   0.0800 
 40 H       -0.0180    -1.4880    -1.5230 H     1 <1>   0.1500 
 41 H        4.0760     2.6580    -1.6660 H     1 <1>   0.0800 
 42 H        5.4240     1.7310    -2.3030 H     1 <1>   0.0800 
 43 H       -0.4920    -6.0820     0.1900 H     1 <1>   0.1500 
 44 H       -2.2530    -2.5140    -1.3510 H     1 <1>   0.1500 
 45 H       -2.4910    -4.8090    -0.5010 H     1 <1>   0.1500 
 46 H        6.5140     4.3340    -2.6230 H     1 <1>   0.2700 
 47 H        7.5140     4.6970     1.4200 H     1 <1>   0.1500 
 48 H        7.9170     5.7360    -1.0300 H     1 <1>   0.1500 
@<TRIPOS>BOND
  1   1   2  2   
  2   2   3  am  
  3   2   4  1   
  4   3   5  1   
  5   3   6  1   
  6   4   7  1   
  7   4   8  1   
  8   4  26  1   
  9   5   9  1   
 10   5  27  1   
 11   5  28  1   
 12   6  10  1   
 13   6  29  1   
 14   6  30  1   
 15   7  11  1   
 16   8  12  1   
 17   8  31  1   
 18   8  32  1   
 19   9  13  1   
 20   9  33  1   
 21   9  34  1   
 22  10  14  1   
 23  10  35  1   
 24  10  36  1   
 25  11  15  ar  
 26  11  16  ar  
 27  12  15  1   
 28  13  14  1   
 29  13  17  1   
 30  13  37  1   
 31  14  38  1   
 32  14  39  1   
 33  15  18  ar  
 34  16  19  ar  
 35  16  40  1   
 36  17  20  1   
 37  17  41  1   
 38  17  42  1   
 39  18  21  ar  
 40  18  43  1   
 41  19  21  ar  
 42  19  44  1   
 43  20  22  2   
 44  20  23  1   
 45  21  45  1   
 46  22  24  1   
 47  23  25  1   
 48  23  46  1   
 49  24  25  2   
 50  24  47  1   
 51  25  48  1   
@<TRIPOS>SUBSTRUCTURE
  1 ****  14 GROUP 4 **** **** 0

# MOE 2024.06 (io_trps.svl 2023.06)
