@<TRIPOS>MOLECULE
NONAME
48 51 1 0 0 
SMALL
USER_CHARGES


@<TRIPOS>ATOM
  1 O        0.4350     0.0000    -0.0700 O.2   1 <1>  -0.5700 
  2 C        1.5080    -0.5830    -0.1050 C.2   1 <1>   0.5440 
  3 N        2.6370     0.1820    -0.3810 N.am  1 <1>  -0.6600 
  4 C        1.5110    -2.0370     0.1100 C.ar  1 <1>   0.3960 
  5 C        3.9350    -0.4270    -0.8140 C.3   1 <1>   0.1400 
  6 C        2.5280     1.6730    -0.4330 C.3   1 <1>   0.1400 
  7 N        2.5640    -2.6460     0.7400 N.ar  1 <1>  -0.6200 
  8 C        0.4380    -2.7890    -0.3130 C.ar  1 <1>  -0.1500 
  9 C        4.9360    -0.5020     0.3470 C.3   1 <1>   0.1400 
 10 C        3.8050     2.4370    -0.0560 C.3   1 <1>  -0.1600 
 11 C        2.5170    -3.9300     0.9170 C.ar  1 <1>   0.1600 
 12 C        0.3730    -4.1790    -0.1360 C.ar  1 <1>   0.0000 
 13 N        5.5340     0.8330     0.6490 N.am  1 <1>  -0.6600 
 14 C        4.5650     1.8500     1.1370 C.3   1 <1>   0.1400 
 15 C        1.4650    -4.7760     0.5090 C.ar  1 <1>   0.0000 
 16 C       -0.7010    -4.9840    -0.5600 C.ar  1 <1>  -0.1500 
 17 C        6.8520     1.1210     0.3260 C.2   1 <1>   0.7150 
 18 C        1.4530    -6.1690     0.7120 C.ar  1 <1>  -0.1500 
 19 C       -0.6900    -6.3360    -0.3510 C.ar  1 <1>  -0.1500 
 20 O        7.4180     0.3580    -0.4440 O.2   1 <1>  -0.5700 
 21 C        7.5680     2.2920     0.8170 C.2   1 <1>   0.1020 
 22 C        0.3990    -6.9350     0.2920 C.ar  1 <1>  -0.1500 
 23 N        7.4650     2.8340     2.0160 N.2   1 <1>  -0.5650 
 24 N        8.4780     2.9680     0.0490 N.pl3 1 <1>   0.0480 
 25 C        8.3160     3.8640     2.0040 C.2   1 <1>   0.0770 
 26 C        8.9420     3.9650     0.8140 C.2   1 <1>  -0.3020 
 27 C        8.9020     2.7000    -1.3410 C.3   1 <1>   0.0160 
 28 H        4.3600     0.1400    -1.6240 H     1 <1>   0.0800 
 29 H        3.7600    -1.4200    -1.1850 H     1 <1>   0.0800 
 30 H        1.7530     1.9810     0.2490 H     1 <1>   0.0800 
 31 H        2.2150     1.9630    -1.4210 H     1 <1>   0.0800 
 32 H       -0.3890    -2.3020    -0.7980 H     1 <1>   0.1500 
 33 H        5.7110    -1.2020     0.0890 H     1 <1>   0.0800 
 34 H        4.4480    -0.8810     1.2270 H     1 <1>   0.0800 
 35 H        3.5100     3.4400     0.1960 H     1 <1>   0.0800 
 36 H        4.4560     2.5140    -0.9080 H     1 <1>   0.0800 
 37 H        3.3480    -4.3980     1.4170 H     1 <1>   0.1500 
 38 H        3.8830     1.4020     1.8400 H     1 <1>   0.0800 
 39 H        5.0740     2.6440     1.6510 H     1 <1>   0.0800 
 40 H       -1.5350    -4.5150    -1.0520 H     1 <1>   0.1500 
 41 H        2.2910    -6.6280     1.2080 H     1 <1>   0.1500 
 42 H       -1.5110    -6.9520    -0.6740 H     1 <1>   0.1500 
 43 H        0.3920    -8.0010     0.4490 H     1 <1>   0.1500 
 44 H        8.4430     4.4980     2.8670 H     1 <1>   0.1500 
 45 H        9.6770     4.6770     0.4890 H     1 <1>   0.1500 
 46 H        8.0350     2.5820    -1.9640 H     1 <1>   0.0800 
 47 H        9.4830     1.7960    -1.3640 H     1 <1>   0.0800 
 48 H        9.4970     3.5180    -1.7040 H     1 <1>   0.0800 
@<TRIPOS>BOND
  1   1   2  2   
  2   2   3  am  
  3   2   4  1   
  4   3   5  1   
  5   3   6  1   
  6   4   7  ar  
  7   4   8  ar  
  8   5   9  1   
  9   5  28  1   
 10   5  29  1   
 11   6  10  1   
 12   6  30  1   
 13   6  31  1   
 14   7  11  ar  
 15   8  12  ar  
 16   8  32  1   
 17   9  13  1   
 18   9  33  1   
 19   9  34  1   
 20  10  14  1   
 21  10  35  1   
 22  10  36  1   
 23  11  15  ar  
 24  11  37  1   
 25  12  15  ar  
 26  12  16  ar  
 27  13  14  1   
 28  13  17  am  
 29  14  38  1   
 30  14  39  1   
 31  15  18  ar  
 32  16  19  ar  
 33  16  40  1   
 34  17  20  2   
 35  17  21  1   
 36  18  22  ar  
 37  18  41  1   
 38  19  22  ar  
 39  19  42  1   
 40  21  23  2   
 41  21  24  1   
 42  22  43  1   
 43  23  25  1   
 44  24  26  1   
 45  24  27  1   
 46  25  26  2   
 47  25  44  1   
 48  26  45  1   
 49  27  46  1   
 50  27  47  1   
 51  27  48  1   
@<TRIPOS>SUBSTRUCTURE
  1 ****   5 GROUP 4 **** **** 0

# MOE 2024.06 (io_trps.svl 2023.06)
