@<TRIPOS>MOLECULE
NONAME
46 49 1 0 0 
SMALL
USER_CHARGES


@<TRIPOS>ATOM
  1 S        0.3380    -0.0380    -1.9240 S.3   1 <1>  -0.0800 
  2 C        1.0880    -1.0710    -0.6980 C.2   1 <1>  -0.0450 
  3 C        0.9660     1.4180    -1.1910 C.2   1 <1>  -0.1100 
  4 C        1.7690    -0.2810     0.1760 C.2   1 <1>  -0.1810 
  5 C        0.9110    -2.5010    -0.8030 C.2   1 <1>   0.7150 
  6 C        1.6940     1.1170    -0.1010 C.2   1 <1>  -0.1500 
  7 C        2.5710    -0.7650     1.3720 C.3   1 <1>  -0.0590 
  8 O        1.8690    -3.2380    -0.6410 O.2   1 <1>  -0.5700 
  9 N       -0.3200    -3.0710    -1.0540 N.am  1 <1>  -0.6600 
 10 C       -1.6170    -2.4190    -0.6960 C.3   1 <1>   0.1400 
 11 C       -0.4690    -4.5080    -1.4350 C.3   1 <1>   0.1400 
 12 C       -2.3760    -3.2470     0.3590 C.3   1 <1>   0.1900 
 13 C       -1.2600    -5.2810    -0.3670 C.3   1 <1>   0.1100 
 14 N       -2.5710    -4.6450    -0.1020 N.3   1 <1>  -0.8100 
 15 C       -3.7320    -2.5900     0.6820 C.3   1 <1>   0.1200 
 16 C       -3.3580    -5.4010     0.9020 C.3   1 <1>   0.3330 
 17 O       -4.4220    -3.3370     1.6430 O.3   1 <1>  -0.5600 
 18 C       -3.6880    -6.8050     0.3970 C.ar  1 <1>  -0.1430 
 19 C       -4.6690    -4.6580     1.2410 C.3   1 <1>   0.1200 
 20 C       -3.4860    -7.9050     1.2180 C.ar  1 <1>  -0.1500 
 21 C       -4.1960    -7.0010    -0.8800 C.ar  1 <1>  -0.1500 
 22 C       -3.7880    -9.1800     0.7710 C.ar  1 <1>  -0.1500 
 23 C       -4.4990    -8.2750    -1.3290 C.ar  1 <1>  -0.1500 
 24 C       -4.2940    -9.3650    -0.5030 C.ar  1 <1>  -0.1500 
 25 H        0.7250     2.3570    -1.6570 H     1 <1>   0.1500 
 26 H        2.1910     1.8360     0.5260 H     1 <1>   0.1500 
 27 H        2.2040    -0.3050     2.2720 H     1 <1>   0.0800 
 28 H        3.6070    -0.5050     1.2450 H     1 <1>   0.0800 
 29 H        2.5010    -1.8320     1.4800 H     1 <1>   0.0800 
 30 H       -1.4480    -1.4350    -0.2990 H     1 <1>   0.0800 
 31 H       -2.2190    -2.3270    -1.5820 H     1 <1>   0.0800 
 32 H       -0.9950    -4.5700    -2.3720 H     1 <1>   0.0800 
 33 H        0.4930    -4.9700    -1.5690 H     1 <1>   0.0800 
 34 H       -1.7900    -3.2470     1.2620 H     1 <1>   0.0800 
 35 H       -0.6790    -5.3260     0.5380 H     1 <1>   0.0800 
 36 H       -1.4070    -6.2870    -0.7190 H     1 <1>   0.0800 
 37 H       -4.3420    -2.5190    -0.2020 H     1 <1>   0.0800 
 38 H       -3.5840    -1.6030     1.0830 H     1 <1>   0.0800 
 39 H       -2.7820    -5.4820     1.8080 H     1 <1>   0.0800 
 40 H       -5.1750    -5.1580     2.0460 H     1 <1>   0.0800 
 41 H       -5.3190    -4.6400     0.3840 H     1 <1>   0.0800 
 42 H       -3.0930    -7.7770     2.2120 H     1 <1>   0.1500 
 43 H       -4.3500    -6.1550    -1.5280 H     1 <1>   0.1500 
 44 H       -3.6280   -10.0280     1.4140 H     1 <1>   0.1500 
 45 H       -4.8910    -8.4160    -2.3210 H     1 <1>   0.1500 
 46 H       -4.5290   -10.3560    -0.8510 H     1 <1>   0.1500 
@<TRIPOS>BOND
  1   1   2  1   
  2   1   3  1   
  3   2   4  2   
  4   2   5  1   
  5   3   6  2   
  6   3  25  1   
  7   4   6  1   
  8   4   7  1   
  9   5   8  2   
 10   5   9  am  
 11   6  26  1   
 12   7  27  1   
 13   7  28  1   
 14   7  29  1   
 15   9  10  1   
 16   9  11  1   
 17  10  12  1   
 18  10  30  1   
 19  10  31  1   
 20  11  13  1   
 21  11  32  1   
 22  11  33  1   
 23  12  14  1   
 24  12  15  1   
 25  12  34  1   
 26  13  14  1   
 27  13  35  1   
 28  13  36  1   
 29  14  16  1   
 30  15  17  1   
 31  15  37  1   
 32  15  38  1   
 33  16  18  1   
 34  16  19  1   
 35  16  39  1   
 36  17  19  1   
 37  18  20  ar  
 38  18  21  ar  
 39  19  40  1   
 40  19  41  1   
 41  20  22  ar  
 42  20  42  1   
 43  21  23  ar  
 44  21  43  1   
 45  22  24  ar  
 46  22  44  1   
 47  23  24  ar  
 48  23  45  1   
 49  24  46  1   
@<TRIPOS>SUBSTRUCTURE
  1 ****  12 GROUP 4 **** **** 0

# MOE 2024.06 (io_trps.svl 2023.06)
