@<TRIPOS>MOLECULE
NONAME
43 46 1 0 0 
SMALL
USER_CHARGES


@<TRIPOS>ATOM
  1 O       -0.4370     0.2070     0.9790 O.2   1 <1>  -0.5700 
  2 C       -1.4710     0.8700     0.8600 C.2   1 <1>   0.5440 
  3 N       -2.6600     0.2020     1.1670 N.am  1 <1>  -0.6600 
  4 C       -1.4050     2.2730     0.4920 C.ar  1 <1>   0.3960 
  5 C       -2.7450    -1.2890     1.1470 C.3   1 <1>   0.1400 
  6 C       -4.0010     0.8590     1.0500 C.3   1 <1>   0.1400 
  7 N       -0.7380     3.1250     1.3090 N.ar  1 <1>  -0.6200 
  8 C       -2.0450     2.7480    -0.6970 C.ar  1 <1>  -0.1710 
  9 C       -3.6390    -1.7710    -0.0100 C.3   1 <1>   0.3440 
 10 C       -4.8510     0.2230    -0.0710 C.3   1 <1>   0.2950 
 11 C       -0.6830     4.3870     0.9580 C.ar  1 <1>   0.1600 
 12 O       -2.7020     2.0160    -1.4790 O.3   1 <1>  -0.8290 
 13 C       -1.9580     4.1030    -1.0250 C.ar  1 <1>  -0.1500 
 14 O       -4.9040    -1.1700     0.0830 O.3   1 <1>  -0.5600 
 15 C       -3.7900    -3.2910     0.0220 C.ar  1 <1>  -0.1440 
 16 C       -6.2920     0.7440    -0.0450 C.3   1 <1>  -0.1950 
 17 C       -1.2680     4.9240    -0.1860 C.ar  1 <1>  -0.1500 
 18 C       -4.7890    -3.9070     0.7640 C.ar  1 <1>  -0.1500 
 19 C       -2.9010    -4.0800    -0.6940 C.ar  1 <1>  -0.1500 
 20 C       -7.1510     0.7180    -1.2700 C.3   1 <1>  -0.2000 
 21 C       -6.6330     2.0250    -0.7390 C.3   1 <1>  -0.2000 
 22 C       -4.8970    -5.2870     0.7910 C.ar  1 <1>  -0.1500 
 23 C       -3.0070    -5.4600    -0.6690 C.ar  1 <1>  -0.1500 
 24 C       -4.0060    -6.0650     0.0740 C.ar  1 <1>  -0.1500 
 25 H       -1.7690    -1.7270     1.0340 H     1 <1>   0.0800 
 26 H       -3.1530    -1.6340     2.0790 H     1 <1>   0.0800 
 27 H       -4.5190     0.7530     1.9850 H     1 <1>   0.0800 
 28 H       -3.9030     1.9100     0.8540 H     1 <1>   0.0800 
 29 H       -3.1980    -1.4740    -0.9470 H     1 <1>   0.0800 
 30 H       -4.4130     0.4380    -1.0300 H     1 <1>   0.0800 
 31 H       -0.1440     5.0530     1.6070 H     1 <1>   0.1500 
 32 H       -2.4370     4.4400    -1.9250 H     1 <1>   0.1500 
 33 H       -6.7720     0.5590     0.9000 H     1 <1>   0.1000 
 34 H       -1.1700     5.9710    -0.3950 H     1 <1>   0.1500 
 35 H       -5.4870    -3.3050     1.3200 H     1 <1>   0.1500 
 36 H       -2.1200    -3.6180    -1.2740 H     1 <1>   0.1500 
 37 H       -6.7290     0.3240    -2.1800 H     1 <1>   0.1000 
 38 H       -8.1940     0.4800    -1.1590 H     1 <1>   0.1000 
 39 H       -7.3160     2.7060    -0.2640 H     1 <1>   0.1000 
 40 H       -5.8470     2.5330    -1.2780 H     1 <1>   0.1000 
 41 H       -5.6770    -5.7510     1.3680 H     1 <1>   0.1500 
 42 H       -2.3130    -6.0630    -1.2280 H     1 <1>   0.1500 
 43 H       -4.0900    -7.1370     0.0940 H     1 <1>   0.1500 
@<TRIPOS>BOND
  1   1   2  2   
  2   2   3  am  
  3   2   4  1   
  4   3   5  1   
  5   3   6  1   
  6   4   7  ar  
  7   4   8  ar  
  8   5   9  1   
  9   5  25  1   
 10   5  26  1   
 11   6  10  1   
 12   6  27  1   
 13   6  28  1   
 14   7  11  ar  
 15   8  12  1   
 16   8  13  ar  
 17   9  14  1   
 18   9  15  1   
 19   9  29  1   
 20  10  14  1   
 21  10  16  1   
 22  10  30  1   
 23  11  17  ar  
 24  11  31  1   
 25  13  17  ar  
 26  13  32  1   
 27  15  18  ar  
 28  15  19  ar  
 29  16  20  1   
 30  16  21  1   
 31  16  33  1   
 32  17  34  1   
 33  18  22  ar  
 34  18  35  1   
 35  19  23  ar  
 36  19  36  1   
 37  20  21  1   
 38  20  37  1   
 39  20  38  1   
 40  21  39  1   
 41  21  40  1   
 42  22  24  ar  
 43  22  41  1   
 44  23  24  ar  
 45  23  42  1   
 46  24  43  1   
@<TRIPOS>SUBSTRUCTURE
  1 ****   3 GROUP 4 **** **** 0

# MOE 2024.06 (io_trps.svl 2023.06)
