@<TRIPOS>MOLECULE
NONAME
38 39 1 0 0 
SMALL
USER_CHARGES


@<TRIPOS>ATOM
  1 N       -0.1690     0.0640    -0.2580 N.ar  1 <1>  -0.6200 
  2 C       -1.3260     0.6460    -0.0180 C.ar  1 <1>   0.4100 
  3 C        0.8720     0.8630    -0.3530 C.ar  1 <1>   0.4760 
  4 N       -2.4240    -0.1730     0.0920 N.pl3 1 <1>  -0.8690 
  5 C       -1.4320     2.0250     0.1240 C.ar  1 <1>  -0.1430 
  6 N        0.9000     2.1750    -0.2340 N.ar  1 <1>  -0.6200 
  7 C        2.2020     0.2030    -0.6280 C.3   1 <1>  -0.0970 
  8 C       -2.3510    -1.6450     0.0540 C.3   1 <1>   0.2090 
  9 C       -0.2650     2.7410     0.0040 C.ar  1 <1>   0.1600 
 10 C       -2.7950     2.6720     0.3950 C.3   1 <1>  -0.0170 
 11 C       -3.7670    -2.2090     0.0250 C.3   1 <1>  -0.1600 
 12 C       -2.7940     4.2040     0.4560 C.3   1 <1>  -0.2400 
 13 C       -3.7400    -3.7390    -0.0600 C.3   1 <1>   0.0960 
 14 N       -5.1140    -4.2740    -0.0610 N.pl3 1 <1>   0.0480 
 15 C       -5.8290    -4.6650     1.0280 C.2   1 <1>  -0.3020 
 16 C       -5.9070    -4.4640    -1.1490 C.2   1 <1>  -0.3020 
 17 C       -7.0560    -5.0970     0.6360 C.2   1 <1>  -0.1500 
 18 C       -7.1060    -4.9680    -0.7560 C.2   1 <1>  -0.1500 
 19 H       -3.2690     0.2170     0.5070 H     1 <1>   0.4000 
 20 H        2.0740    -0.8490    -0.8000 H     1 <1>   0.0800 
 21 H        2.8510     0.3470     0.2140 H     1 <1>   0.0800 
 22 H        2.6480     0.6480    -1.4980 H     1 <1>   0.0800 
 23 H       -1.8190    -1.9960     0.9230 H     1 <1>   0.0800 
 24 H       -1.8090    -1.9500    -0.8270 H     1 <1>   0.0800 
 25 H       -0.2600     3.8120     0.1010 H     1 <1>   0.1500 
 26 H       -3.1720     2.2940     1.3290 H     1 <1>   0.0800 
 27 H       -3.4750     2.3660    -0.3810 H     1 <1>   0.0800 
 28 H       -4.2840    -1.8180    -0.8340 H     1 <1>   0.0800 
 29 H       -4.2860    -1.9140     0.9200 H     1 <1>   0.0800 
 30 H       -2.1660     4.5500     1.2590 H     1 <1>   0.0800 
 31 H       -3.7930     4.5620     0.6310 H     1 <1>   0.0800 
 32 H       -2.4450     4.6180    -0.4740 H     1 <1>   0.0800 
 33 H       -3.2120    -4.1520     0.7810 H     1 <1>   0.0800 
 34 H       -3.2490    -4.0550    -0.9640 H     1 <1>   0.0800 
 35 H       -5.4320    -4.6170     2.0260 H     1 <1>   0.1500 
 36 H       -5.5810    -4.2310    -2.1470 H     1 <1>   0.1500 
 37 H       -7.8550    -5.4700     1.2520 H     1 <1>   0.1500 
 38 H       -7.9490    -5.2290    -1.3720 H     1 <1>   0.1500 
@<TRIPOS>BOND
  1   1   2  ar  
  2   1   3  ar  
  3   2   4  1   
  4   2   5  ar  
  5   3   6  ar  
  6   3   7  1   
  7   4   8  1   
  8   4  19  1   
  9   5   9  ar  
 10   5  10  1   
 11   6   9  ar  
 12   7  20  1   
 13   7  21  1   
 14   7  22  1   
 15   8  11  1   
 16   8  23  1   
 17   8  24  1   
 18   9  25  1   
 19  10  12  1   
 20  10  26  1   
 21  10  27  1   
 22  11  13  1   
 23  11  28  1   
 24  11  29  1   
 25  12  30  1   
 26  12  31  1   
 27  12  32  1   
 28  13  14  1   
 29  13  33  1   
 30  13  34  1   
 31  14  15  1   
 32  14  16  1   
 33  15  17  2   
 34  15  35  1   
 35  16  18  2   
 36  16  36  1   
 37  17  18  1   
 38  17  37  1   
 39  18  38  1   
@<TRIPOS>SUBSTRUCTURE
  1 ****   4 GROUP 4 **** **** 0

# MOE 2024.06 (io_trps.svl 2023.06)
