@<TRIPOS>MOLECULE
NONAME
52 55 1 0 0 
SMALL
USER_CHARGES


@<TRIPOS>ATOM
  1 O       -1.0880     0.7800    -2.6330 O.2   1 <1>  -0.5700 
  2 C       -1.9920     1.2780    -1.9890 C.2   1 <1>   0.5440 
  3 N       -3.2130     0.6370    -1.9210 N.am  1 <1>  -0.6600 
  4 C       -1.7560     2.5290    -1.2970 C.ar  1 <1>   0.0860 
  5 C       -3.4860    -0.6260    -2.6630 C.3   1 <1>   0.1400 
  6 C       -4.3010     1.0150    -0.9760 C.3   1 <1>   0.1400 
  7 C       -2.4180     3.6990    -1.6660 C.ar  1 <1>  -0.1500 
  8 C       -0.8610     2.6000    -0.2330 C.ar  1 <1>  -0.1500 
  9 C       -3.6700    -1.7720    -1.6650 C.3   1 <1>  -0.1600 
 10 C       -4.4830    -0.1040     0.0520 C.3   1 <1>  -0.1600 
 11 C       -2.2060     4.8880    -0.9920 C.ar  1 <1>  -0.1500 
 12 C       -0.6470     3.7860     0.4460 C.ar  1 <1>  -0.1500 
 13 C       -4.7580    -1.4640    -0.6190 C.3   1 <1>   0.4240 
 14 C       -1.3190     4.9390     0.0720 C.ar  1 <1>  -0.1430 
 15 O       -5.9300    -1.3040    -1.3910 O.3   1 <1>  -0.5600 
 16 C       -4.9040    -2.6210     0.4120 C.ar  1 <1>  -0.1430 
 17 C       -1.0830     6.2370     0.8230 C.3   1 <1>   0.2630 
 18 C       -7.1560    -1.4580    -0.7550 C.3   1 <1>   0.1200 
 19 C       -3.8520    -3.0090     1.2540 C.ar  1 <1>   0.0820 
 20 C       -6.1130    -3.3080     0.5180 C.ar  1 <1>  -0.1430 
 21 O       -1.7260     6.1360     2.0390 O.3   1 <1>  -0.6800 
 22 C       -7.2930    -2.9160    -0.3460 C.3   1 <1>  -0.0170 
 23 O       -2.6710    -2.3390     1.1840 O.3   1 <1>  -0.3620 
 24 C       -4.0220    -4.0600     2.1530 C.ar  1 <1>  -0.1500 
 25 C       -6.2690    -4.3540     1.4120 C.ar  1 <1>  -0.1500 
 26 C       -1.4970    -2.7940     1.8200 C.3   1 <1>   0.0400 
 27 C       -5.2240    -4.7320     2.2290 C.ar  1 <1>  -0.1500 
 28 H       -2.6780    -0.8580    -3.3350 H     1 <1>   0.0800 
 29 H       -4.3790    -0.5010    -3.2520 H     1 <1>   0.0800 
 30 H       -5.2120     1.1590    -1.5310 H     1 <1>   0.0800 
 31 H       -4.0730     1.9320    -0.4650 H     1 <1>   0.0800 
 32 H       -3.1030     3.6650    -2.4950 H     1 <1>   0.1500 
 33 H       -0.3330     1.7090     0.0580 H     1 <1>   0.1500 
 34 H       -2.7220    -1.9420    -1.1960 H     1 <1>   0.0800 
 35 H       -3.9320    -2.6720    -2.1880 H     1 <1>   0.0800 
 36 H       -5.2800     0.1410     0.7270 H     1 <1>   0.0800 
 37 H       -3.5860    -0.1530     0.6370 H     1 <1>   0.0800 
 38 H       -2.7350     5.7730    -1.3010 H     1 <1>   0.1500 
 39 H        0.0450     3.8120     1.2710 H     1 <1>   0.1500 
 40 H       -1.4930     7.0780     0.2920 H     1 <1>   0.0800 
 41 H       -0.0350     6.4030     1.0050 H     1 <1>   0.0800 
 42 H       -7.9270    -1.1860    -1.4530 H     1 <1>   0.0800 
 43 H       -7.2020    -0.8070     0.1000 H     1 <1>   0.0800 
 44 H       -2.5400     5.6100     1.9190 H     1 <1>   0.4000 
 45 H       -7.3240    -3.5350    -1.2250 H     1 <1>   0.0800 
 46 H       -8.2130    -3.0450     0.1940 H     1 <1>   0.0800 
 47 H       -3.2310    -4.3710     2.8070 H     1 <1>   0.1500 
 48 H       -7.2060    -4.8790     1.4770 H     1 <1>   0.1500 
 49 H       -0.6880    -2.1520     1.5230 H     1 <1>   0.0800 
 50 H       -1.2970    -3.8030     1.5040 H     1 <1>   0.0800 
 51 H       -1.6330    -2.7410     2.8850 H     1 <1>   0.0800 
 52 H       -5.3480    -5.5450     2.9230 H     1 <1>   0.1500 
@<TRIPOS>BOND
  1   1   2  2   
  2   2   3  am  
  3   2   4  1   
  4   3   5  1   
  5   3   6  1   
  6   4   7  ar  
  7   4   8  ar  
  8   5   9  1   
  9   5  28  1   
 10   5  29  1   
 11   6  10  1   
 12   6  30  1   
 13   6  31  1   
 14   7  11  ar  
 15   7  32  1   
 16   8  12  ar  
 17   8  33  1   
 18   9  13  1   
 19   9  34  1   
 20   9  35  1   
 21  10  13  1   
 22  10  36  1   
 23  10  37  1   
 24  11  14  ar  
 25  11  38  1   
 26  12  14  ar  
 27  12  39  1   
 28  13  15  1   
 29  13  16  1   
 30  14  17  1   
 31  15  18  1   
 32  16  19  ar  
 33  16  20  ar  
 34  17  21  1   
 35  17  40  1   
 36  17  41  1   
 37  18  22  1   
 38  18  42  1   
 39  18  43  1   
 40  19  23  1   
 41  19  24  ar  
 42  20  22  1   
 43  20  25  ar  
 44  21  44  1   
 45  22  45  1   
 46  22  46  1   
 47  23  26  1   
 48  24  27  ar  
 49  24  47  1   
 50  25  27  ar  
 51  25  48  1   
 52  26  49  1   
 53  26  50  1   
 54  26  51  1   
 55  27  52  1   
@<TRIPOS>SUBSTRUCTURE
  1 ****  10 GROUP 4 **** **** 0

# MOE 2024.06 (io_trps.svl 2023.06)
