@<TRIPOS>MOLECULE
NONAME
44 45 1 0 0 
SMALL
USER_CHARGES


@<TRIPOS>ATOM
  1 S       -0.2040    -0.0220     0.4080 S.o2  1 <1>   1.3330 
  2 O       -0.0980    -0.6080     1.7250 O.2   1 <1>  -0.6500 
  3 O       -0.9400     1.2090     0.2320 O.2   1 <1>  -0.6500 
  4 N       -0.8670    -1.1930    -0.6270 N.am  1 <1>  -0.8490 
  5 C        1.4350     0.2180    -0.2790 C.3   1 <1>  -0.0550 
  6 C       -2.3220    -1.0620    -0.7580 C.3   1 <1>   0.1160 
  7 C       -0.5220    -2.5680    -0.2500 C.3   1 <1>   0.1160 
  8 C        2.2440     1.3270     0.4250 C.3   1 <1>  -0.0800 
  9 C        3.5310     1.6230    -0.3260 C.3   1 <1>   0.2200 
 10 C        2.7530     0.8880     1.8060 C.3   1 <1>   0.1200 
 11 N        3.9500     3.0110    -0.0340 N.am  1 <1>  -0.7300 
 12 C        4.5040     0.6550     0.3320 C.3   1 <1>   0.1200 
 13 O        4.1120     0.5890     1.6690 O.3   1 <1>  -0.5600 
 14 C        4.1180     4.0010    -0.9590 C.2   1 <1>   0.5440 
 15 O        3.9190     3.7360    -2.1280 O.2   1 <1>  -0.5700 
 16 C        4.5410     5.3310    -0.5550 C.ar  1 <1>   0.0860 
 17 C        4.2730     5.8400     0.7160 C.ar  1 <1>  -0.1500 
 18 C        5.2360     6.1600    -1.4340 C.ar  1 <1>  -0.1500 
 19 C        4.6920     7.1030     1.0940 C.ar  1 <1>  -0.1500 
 20 C        5.6580     7.4240    -1.0630 C.ar  1 <1>  -0.1500 
 21 C        5.3960     7.9150     0.2120 C.ar  1 <1>  -0.1440 
 22 C        5.8590     9.3210     0.6320 C.3   1 <1>   1.1630 
 23 F        4.9240    10.2360     0.4120 F     1 <1>  -0.3400 
 24 F        6.9410     9.7260    -0.0220 F     1 <1>  -0.3400 
 25 F        6.1580     9.3950     1.9240 F     1 <1>  -0.3400 
 26 H        1.9790    -0.7050    -0.2400 H     1 <1>   0.0800 
 27 H        1.3210     0.4870    -1.3120 H     1 <1>   0.0800 
 28 H       -2.7050    -1.8080    -1.4320 H     1 <1>   0.0800 
 29 H       -2.5700    -0.0920    -1.1570 H     1 <1>   0.0800 
 30 H       -2.7960    -1.1730     0.2030 H     1 <1>   0.0800 
 31 H       -0.8880    -3.2580    -0.9910 H     1 <1>   0.0800 
 32 H       -0.9560    -2.8170     0.7050 H     1 <1>   0.0800 
 33 H        0.5460    -2.6790    -0.1820 H     1 <1>   0.0800 
 34 H        1.6280     2.2080     0.4970 H     1 <1>   0.0800 
 35 H        3.4540     1.4620    -1.3890 H     1 <1>   0.0800 
 36 H        2.2530     0.0160     2.1900 H     1 <1>   0.0800 
 37 H        2.6660     1.6880     2.5210 H     1 <1>   0.0800 
 38 H        4.2530     3.1550     0.9310 H     1 <1>   0.3700 
 39 H        5.5260     0.9840     0.2680 H     1 <1>   0.0800 
 40 H        4.4090    -0.3300    -0.0880 H     1 <1>   0.0800 
 41 H        3.7210     5.2430     1.4200 H     1 <1>   0.1500 
 42 H        5.4480     5.8010    -2.4270 H     1 <1>   0.1500 
 43 H        4.4610     7.4540     2.0880 H     1 <1>   0.1500 
 44 H        6.1930     8.0250    -1.7810 H     1 <1>   0.1500 
@<TRIPOS>BOND
  1   1   2  2   
  2   1   3  2   
  3   1   4  am  
  4   1   5  1   
  5   4   6  1   
  6   4   7  1   
  7   5   8  1   
  8   5  26  1   
  9   5  27  1   
 10   6  28  1   
 11   6  29  1   
 12   6  30  1   
 13   7  31  1   
 14   7  32  1   
 15   7  33  1   
 16   8   9  1   
 17   8  10  1   
 18   8  34  1   
 19   9  11  1   
 20   9  12  1   
 21   9  35  1   
 22  10  13  1   
 23  10  36  1   
 24  10  37  1   
 25  11  14  am  
 26  11  38  1   
 27  12  13  1   
 28  12  39  1   
 29  12  40  1   
 30  14  15  2   
 31  14  16  1   
 32  16  17  ar  
 33  16  18  ar  
 34  17  19  ar  
 35  17  41  1   
 36  18  20  ar  
 37  18  42  1   
 38  19  21  ar  
 39  19  43  1   
 40  20  21  ar  
 41  20  44  1   
 42  21  22  1   
 43  22  23  1   
 44  22  24  1   
 45  22  25  1   
@<TRIPOS>SUBSTRUCTURE
  1 ****  11 GROUP 4 **** **** 0

# MOE 2024.06 (io_trps.svl 2023.06)
