@<TRIPOS>MOLECULE
NONAME
47 50 1 0 0 
SMALL
USER_CHARGES


@<TRIPOS>ATOM
  1 S       -0.9570     0.9110    -1.3550 S.3   1 <1>  -0.0800 
  2 C       -0.5430     2.0960    -0.1350 C.2   1 <1>  -0.1400 
  3 C        0.5430     1.2390    -2.2100 C.2   1 <1>  -0.1100 
  4 C        0.6430     2.6680    -0.3750 C.2   1 <1>  -0.1810 
  5 C       -1.4440     2.4120     1.0280 C.3   1 <1>   0.0200 
  6 C        1.2670     2.1800    -1.5720 C.2   1 <1>  -0.1500 
  7 C        1.2150     3.7250     0.5730 C.3   1 <1>   0.4610 
  8 C       -0.9860     3.7620     1.6030 C.3   1 <1>   0.1200 
  9 O        0.4150     3.8110     1.7400 O.3   1 <1>  -0.5600 
 10 C        2.6140     3.3180     1.0480 C.3   1 <1>  -0.1600 
 11 C        1.2640     5.1030    -0.1020 C.3   1 <1>  -0.1600 
 12 C        3.2370     4.3870     1.9450 C.3   1 <1>   0.1400 
 13 C        1.8970     6.1580     0.8070 C.3   1 <1>   0.1400 
 14 N        3.2480     5.6920     1.2260 N.am  1 <1>  -0.6600 
 15 C        4.4270     6.2920     0.8350 C.2   1 <1>   0.6160 
 16 O        5.4440     5.6250     0.8040 O.2   1 <1>  -0.5700 
 17 C        4.4870     7.6880     0.4480 C.2   1 <1>   0.0140 
 18 C        3.8570     8.6880     1.1370 C.2   1 <1>  -0.1360 
 19 C        5.2470     8.0770    -0.6930 C.2   1 <1>  -0.1500 
 20 C        3.9110    10.0440     0.7320 C.2   1 <1>   0.6160 
 21 C        5.3170     9.3740    -1.0870 C.2   1 <1>  -0.0410 
 22 O        3.3070    10.9080     1.3560 O.2   1 <1>  -0.5700 
 23 N        4.6530    10.3670    -0.3930 N.am  1 <1>  -0.4690 
 24 C        4.7570    11.7760    -0.8490 C.3   1 <1>   0.1400 
 25 C        5.9860    12.4290    -0.2200 C.3   1 <1>  -0.2400 
 26 H        0.7270     0.6840    -3.1130 H     1 <1>   0.1500 
 27 H       -1.3640     1.6420     1.7740 H     1 <1>   0.0800 
 28 H       -2.4670     2.4800     0.7050 H     1 <1>   0.0800 
 29 H        2.2220     2.5530    -1.8980 H     1 <1>   0.1500 
 30 H       -1.4170     3.9160     2.5770 H     1 <1>   0.0800 
 31 H       -1.2940     4.5670     0.9600 H     1 <1>   0.0800 
 32 H        3.2600     3.1690     0.2030 H     1 <1>   0.0800 
 33 H        2.5500     2.3860     1.5770 H     1 <1>   0.0800 
 34 H        0.2770     5.4080    -0.3930 H     1 <1>   0.0800 
 35 H        1.8490     5.0320    -1.0000 H     1 <1>   0.0800 
 36 H        4.2370     4.0940     2.2210 H     1 <1>   0.0800 
 37 H        2.6620     4.4880     2.8500 H     1 <1>   0.0800 
 38 H        1.2870     6.3070     1.6820 H     1 <1>   0.0800 
 39 H        1.9560     7.0890     0.2720 H     1 <1>   0.0800 
 40 H        3.2880     8.4850     2.0230 H     1 <1>   0.1500 
 41 H        5.7700     7.3030    -1.2300 H     1 <1>   0.1500 
 42 H        5.8940     9.6700    -1.9480 H     1 <1>   0.1500 
 43 H        3.8690    12.3180    -0.5700 H     1 <1>   0.0800 
 44 H        4.8360    11.8000    -1.9220 H     1 <1>   0.0800 
 45 H        5.8950    12.4290     0.8520 H     1 <1>   0.0800 
 46 H        6.0660    13.4480    -0.5530 H     1 <1>   0.0800 
 47 H        6.8800    11.9030    -0.5030 H     1 <1>   0.0800 
@<TRIPOS>BOND
  1   1   2  1   
  2   1   3  1   
  3   2   4  2   
  4   2   5  1   
  5   3   6  2   
  6   3  26  1   
  7   4   6  1   
  8   4   7  1   
  9   5   8  1   
 10   5  27  1   
 11   5  28  1   
 12   6  29  1   
 13   7   9  1   
 14   7  10  1   
 15   7  11  1   
 16   8   9  1   
 17   8  30  1   
 18   8  31  1   
 19  10  12  1   
 20  10  32  1   
 21  10  33  1   
 22  11  13  1   
 23  11  34  1   
 24  11  35  1   
 25  12  14  1   
 26  12  36  1   
 27  12  37  1   
 28  13  14  1   
 29  13  38  1   
 30  13  39  1   
 31  14  15  am  
 32  15  16  2   
 33  15  17  1   
 34  17  18  2   
 35  17  19  1   
 36  18  20  1   
 37  18  40  1   
 38  19  21  2   
 39  19  41  1   
 40  20  22  2   
 41  20  23  am  
 42  21  23  1   
 43  21  42  1   
 44  23  24  1   
 45  24  25  1   
 46  24  43  1   
 47  24  44  1   
 48  25  45  1   
 49  25  46  1   
 50  25  47  1   
@<TRIPOS>SUBSTRUCTURE
  1 ****  13 GROUP 4 **** **** 0

# MOE 2024.06 (io_trps.svl 2023.06)
