@<TRIPOS>MOLECULE
NONAME
54 57 1 0 0 
SMALL
USER_CHARGES


@<TRIPOS>ATOM
  1 O       -0.6190     1.8070    -3.2710 O.2   1 <1>  -0.5700 
  2 C       -0.6980     2.9450    -2.8740 C.2   1 <1>   0.5690 
  3 N       -0.3380     3.3070    -1.6030 N.am  1 <1>  -0.6600 
  4 C       -1.2370     4.0090    -3.8340 C.3   1 <1>   0.1810 
  5 C       -0.4800     4.7240    -1.1300 C.3   1 <1>   0.3640 
  6 C        0.3200     2.3580    -0.6570 C.3   1 <1>   0.0600 
  7 O       -0.8470     5.3130    -3.4750 O.3   1 <1>  -0.5600 
  8 C       -1.1290     4.7940     0.2590 C.ar  1 <1>  -0.1440 
  9 C       -1.1930     5.6550    -2.1440 C.3   1 <1>   0.2610 
 10 C       -2.3370     4.1810     0.6090 C.ar  1 <1>  -0.1440 
 11 C       -0.4480     5.5300     1.2220 C.ar  1 <1>  -0.1500 
 12 C       -0.8030     7.1010    -1.8500 C.2   1 <1>   0.5690 
 13 C       -2.8210     4.3200     1.9020 C.ar  1 <1>  -0.1500 
 14 C       -3.1680     3.3390    -0.3550 C.3   1 <1>  -0.0960 
 15 C       -0.9420     5.6630     2.5060 C.ar  1 <1>  -0.1500 
 16 O       -1.5260     7.7800    -1.1580 O.2   1 <1>  -0.5700 
 17 N        0.3710     7.5630    -2.3580 N.am  1 <1>  -0.5790 
 18 C       -2.1320     5.0560     2.8470 C.ar  1 <1>  -0.1500 
 19 C        1.0870     8.7510    -1.8920 C.3   1 <1>   0.1810 
 20 C        1.7740     8.5140    -0.5570 C.ar  1 <1>  -0.0320 
 21 C        1.7230     9.6060    -2.9410 C.3   1 <1>  -0.2000 
 22 C        0.5060    10.0880    -2.2220 C.3   1 <1>  -0.2000 
 23 C        3.0700     8.0270    -0.5020 C.ar  1 <1>  -0.1500 
 24 C        1.0960     8.7640     0.6250 C.ar  1 <1>  -0.1500 
 25 C        3.6790     7.7930     0.7200 C.ar  1 <1>  -0.1500 
 26 C        1.7040     8.5330     1.8470 C.ar  1 <1>  -0.1500 
 27 C        2.9980     8.0430     1.9000 C.ar  1 <1>  -0.1440 
 28 C        3.6620     7.7890     3.2410 C.3   1 <1>  -0.0970 
 29 H       -2.3110     3.9640    -3.8570 H     1 <1>   0.0800 
 30 H       -0.8610     3.8160    -4.8220 H     1 <1>   0.0800 
 31 H        0.5250     5.0980    -1.0320 H     1 <1>   0.0800 
 32 H        1.2620     2.7620    -0.3300 H     1 <1>   0.0800 
 33 H        0.5000     1.4090    -1.1330 H     1 <1>   0.0800 
 34 H       -0.3090     2.1970     0.2010 H     1 <1>   0.0800 
 35 H       -2.2590     5.5790    -2.0440 H     1 <1>   0.0800 
 36 H        0.4820     6.0180     0.9840 H     1 <1>   0.1500 
 37 H       -3.7470     3.8520     2.1870 H     1 <1>   0.1500 
 38 H       -4.1530     3.1660     0.0400 H     1 <1>   0.0800 
 39 H       -2.7000     2.3830    -0.5060 H     1 <1>   0.0800 
 40 H       -3.2820     3.8250    -1.3030 H     1 <1>   0.0800 
 41 H       -0.3990     6.2410     3.2330 H     1 <1>   0.1500 
 42 H        0.8750     6.9750    -3.0230 H     1 <1>   0.3700 
 43 H       -2.5230     5.1560     3.8440 H     1 <1>   0.1500 
 44 H        2.6560    10.0960    -2.7230 H     1 <1>   0.1000 
 45 H        1.6280     9.3310    -3.9760 H     1 <1>   0.1000 
 46 H       -0.4460    10.1080    -2.7230 H     1 <1>   0.1000 
 47 H        0.6150    10.8850    -1.5080 H     1 <1>   0.1000 
 48 H        3.6070     7.8280    -1.4120 H     1 <1>   0.1500 
 49 H        0.0840     9.1320     0.5880 H     1 <1>   0.1500 
 50 H        4.6870     7.4160     0.7470 H     1 <1>   0.1500 
 51 H        1.1610     8.7380     2.7530 H     1 <1>   0.1500 
 52 H        4.4190     7.0310     3.1510 H     1 <1>   0.0800 
 53 H        2.9360     7.4580     3.9610 H     1 <1>   0.0800 
 54 H        4.1170     8.6950     3.5980 H     1 <1>   0.0800 
@<TRIPOS>BOND
  1   1   2  2   
  2   2   3  am  
  3   2   4  1   
  4   3   5  1   
  5   3   6  1   
  6   4   7  1   
  7   4  29  1   
  8   4  30  1   
  9   5   8  1   
 10   5   9  1   
 11   5  31  1   
 12   6  32  1   
 13   6  33  1   
 14   6  34  1   
 15   7   9  1   
 16   8  10  ar  
 17   8  11  ar  
 18   9  12  1   
 19   9  35  1   
 20  10  13  ar  
 21  10  14  1   
 22  11  15  ar  
 23  11  36  1   
 24  12  16  2   
 25  12  17  am  
 26  13  18  ar  
 27  13  37  1   
 28  14  38  1   
 29  14  39  1   
 30  14  40  1   
 31  15  18  ar  
 32  15  41  1   
 33  17  19  1   
 34  17  42  1   
 35  18  43  1   
 36  19  20  1   
 37  19  21  1   
 38  19  22  1   
 39  20  23  ar  
 40  20  24  ar  
 41  21  22  1   
 42  21  44  1   
 43  21  45  1   
 44  22  46  1   
 45  22  47  1   
 46  23  25  ar  
 47  23  48  1   
 48  24  26  ar  
 49  24  49  1   
 50  25  27  ar  
 51  25  50  1   
 52  26  27  ar  
 53  26  51  1   
 54  27  28  1   
 55  28  52  1   
 56  28  53  1   
 57  28  54  1   
@<TRIPOS>SUBSTRUCTURE
  1 ****   5 GROUP 4 **** **** 0

# MOE 2024.06 (io_trps.svl 2023.06)
