@<TRIPOS>MOLECULE
NONAME
44 46 1 0 0 
SMALL
USER_CHARGES


@<TRIPOS>ATOM
  1 O        1.5630     0.2030    -0.7600 O.3   1 <1>  -0.3630 
  2 C        1.7940    -1.0050    -0.2390 C.ar  1 <1>   0.0830 
  3 C        1.8000     1.1490     0.2830 C.3   1 <1>   0.4000 
  4 C        2.1560    -0.8940     1.0680 C.ar  1 <1>   0.0830 
  5 C        1.7000    -2.2330    -0.8580 C.ar  1 <1>  -0.1500 
  6 O        2.1710     0.3910     1.4340 O.3   1 <1>  -0.3630 
  7 C        2.4490    -2.0070     1.8270 C.ar  1 <1>  -0.1500 
  8 C        1.9820    -3.3750    -0.1110 C.ar  1 <1>  -0.1440 
  9 C        2.3660    -3.2630     1.2330 C.ar  1 <1>  -0.1430 
 10 C        1.8470    -4.7200    -0.8010 C.3   1 <1>   0.4870 
 11 C        2.7040    -4.4670     2.1050 C.3   1 <1>  -0.0960 
 12 N        0.6250    -5.3960    -0.3050 N.4   1 <1>  -0.9590 
 13 C        0.5750    -6.8290    -0.6940 C.3   1 <1>   0.5240 
 14 C       -0.6350    -4.6340    -0.5850 C.3   1 <1>   0.3430 
 15 C        0.1560    -7.6100     0.5440 C.2   1 <1>   0.0460 
 16 C       -1.8190    -5.0870     0.2840 C.3   1 <1>   0.1200 
 17 N        0.5690    -7.1970     1.7630 N.2   1 <1>  -0.5650 
 18 C       -0.6270    -8.7090     0.6470 C.2   1 <1>  -0.3320 
 19 O       -2.9330    -4.3670    -0.1120 O.3   1 <1>  -0.6800 
 20 C        0.0440    -8.0570     2.5760 C.2   1 <1>   0.0360 
 21 N       -0.6950    -9.0030     1.9610 N.pl3 1 <1>   0.0330 
 22 C       -1.3380    -9.5430    -0.4080 C.3   1 <1>  -0.0600 
 23 H        0.8970     1.6970     0.4870 H     1 <1>   0.0800 
 24 H        2.6080     1.8010     0.0040 H     1 <1>   0.0800 
 25 H        1.4110    -2.2700    -1.8930 H     1 <1>   0.1500 
 26 H        2.7360    -1.8800     2.8560 H     1 <1>   0.1500 
 27 H        2.7170    -5.3170    -0.5820 H     1 <1>   0.0800 
 28 H        1.7880    -4.5800    -1.8680 H     1 <1>   0.0800 
 29 H        3.4170    -4.1870     2.8610 H     1 <1>   0.0800 
 30 H        3.1390    -5.2680     1.5380 H     1 <1>   0.0800 
 31 H        1.8200    -4.8240     2.6020 H     1 <1>   0.0800 
 32 H        0.7280    -5.4520     0.7260 H     1 <1>   0.4500 
 33 H        1.5530    -7.1680    -0.9900 H     1 <1>   0.0800 
 34 H       -0.1170    -6.9920    -1.5030 H     1 <1>   0.0800 
 35 H       -0.9020    -4.7410    -1.6230 H     1 <1>   0.0800 
 36 H       -0.4740    -3.5880    -0.3850 H     1 <1>   0.0800 
 37 H       -1.6310    -4.8780     1.3230 H     1 <1>   0.0800 
 38 H       -2.0410    -6.1300     0.1460 H     1 <1>   0.0800 
 39 H       -3.7030    -4.5500     0.4660 H     1 <1>   0.4000 
 40 H        0.1720    -8.0420     3.6460 H     1 <1>   0.1500 
 41 H       -1.1930    -9.7810     2.4080 H     1 <1>   0.2700 
 42 H       -1.1590    -9.1540    -1.3950 H     1 <1>   0.0800 
 43 H       -2.3990    -9.5430    -0.2300 H     1 <1>   0.0800 
 44 H       -0.9850   -10.5590    -0.3770 H     1 <1>   0.0800 
@<TRIPOS>BOND
  1   1   2  1   
  2   1   3  1   
  3   2   4  ar  
  4   2   5  ar  
  5   3   6  1   
  6   3  23  1   
  7   3  24  1   
  8   4   6  1   
  9   4   7  ar  
 10   5   8  ar  
 11   5  25  1   
 12   7   9  ar  
 13   7  26  1   
 14   8   9  ar  
 15   8  10  1   
 16   9  11  1   
 17  10  12  1   
 18  10  27  1   
 19  10  28  1   
 20  11  29  1   
 21  11  30  1   
 22  11  31  1   
 23  12  13  1   
 24  12  14  1   
 25  12  32  1   
 26  13  15  1   
 27  13  33  1   
 28  13  34  1   
 29  14  16  1   
 30  14  35  1   
 31  14  36  1   
 32  15  17  1   
 33  15  18  2   
 34  16  19  1   
 35  16  37  1   
 36  16  38  1   
 37  17  20  2   
 38  18  21  1   
 39  18  22  1   
 40  19  39  1   
 41  20  21  1   
 42  20  40  1   
 43  21  41  1   
 44  22  42  1   
 45  22  43  1   
 46  22  44  1   
@<TRIPOS>SUBSTRUCTURE
  1 ****  12 GROUP 4 **** **** 0

# MOE 2024.06 (io_trps.svl 2023.06)
