@<TRIPOS>MOLECULE
NONAME
47 50 1 0 0 
SMALL
USER_CHARGES


@<TRIPOS>ATOM
  1 F        0.3910     0.3810    -0.1600 F     1 <1>  -0.1900 
  2 C        1.4190     1.2060    -0.1400 C.ar  1 <1>   0.1900 
  3 C        2.7200     0.7660     0.1150 C.ar  1 <1>   0.4100 
  4 C        1.1940     2.5340    -0.3690 C.ar  1 <1>   0.1600 
  5 N        3.7030     1.6490     0.1440 N.ar  1 <1>  -0.6200 
  6 N        3.0680    -0.5630     0.3560 N.pl3 1 <1>  -0.8380 
  7 N        2.1750     3.4150    -0.3520 N.ar  1 <1>  -0.6200 
  8 C        3.3750     2.9080    -0.0830 C.ar  1 <1>   0.7200 
  9 C        2.3640    -1.7110    -0.2610 C.3   1 <1>   0.2090 
 10 C        4.4390    -0.9540     0.7650 C.3   1 <1>   0.2090 
 11 N        4.4250     3.7620    -0.0420 N.pl3 1 <1>  -0.8690 
 12 C        3.4220    -2.8000    -0.3980 C.3   1 <1>  -0.1600 
 13 C        4.4500    -2.4740     0.6800 C.3   1 <1>  -0.1600 
 14 C        4.4370     5.0390    -0.7730 C.3   1 <1>   0.2090 
 15 C        5.8220     5.6670    -0.6500 C.3   1 <1>  -0.1600 
 16 C        5.8640     7.0260    -1.3580 C.3   1 <1>   0.0960 
 17 N        7.2120     7.6180    -1.2580 N.pl3 1 <1>   0.0480 
 18 C        7.7100     8.3440    -0.2000 C.ar  1 <1>  -0.1520 
 19 C        8.1900     7.5440    -2.2100 C.2   1 <1>  -0.3020 
 20 C        9.0140     8.7240    -0.5050 C.ar  1 <1>   0.0000 
 21 C        7.1320     8.7110     1.0200 C.ar  1 <1>  -0.1500 
 22 C        9.2930     8.2040    -1.7850 C.2   1 <1>  -0.1500 
 23 C        9.7520     9.4780     0.4120 C.ar  1 <1>  -0.1500 
 24 C        7.8680     9.4530     1.9140 C.ar  1 <1>  -0.1500 
 25 C        9.1800     9.8370     1.6100 C.ar  1 <1>  -0.1500 
 26 H        0.1960     2.8820    -0.5670 H     1 <1>   0.1500 
 27 H        1.9510    -1.4480    -1.2200 H     1 <1>   0.0800 
 28 H        1.5770    -2.0340     0.3990 H     1 <1>   0.0800 
 29 H        4.6540    -0.6060     1.7610 H     1 <1>   0.0800 
 30 H        5.1530    -0.5380     0.0740 H     1 <1>   0.0800 
 31 H        5.3070     3.2530    -0.0050 H     1 <1>   0.4000 
 32 H        3.8750    -2.7230    -1.3700 H     1 <1>   0.0800 
 33 H        3.0010    -3.7820    -0.2820 H     1 <1>   0.0800 
 34 H        4.1320    -2.8760     1.6260 H     1 <1>   0.0800 
 35 H        5.4290    -2.8540     0.4460 H     1 <1>   0.0800 
 36 H        3.6910     5.6920    -0.3490 H     1 <1>   0.0800 
 37 H        4.1930     4.8620    -1.8070 H     1 <1>   0.0800 
 38 H        6.5500     5.0130    -1.0960 H     1 <1>   0.0800 
 39 H        6.0560     5.8030     0.3920 H     1 <1>   0.0800 
 40 H        5.1580     7.7040    -0.9130 H     1 <1>   0.0800 
 41 H        5.6180     6.9110    -2.3990 H     1 <1>   0.0800 
 42 H        8.0430     7.0240    -3.1390 H     1 <1>   0.1500 
 43 H        6.1250     8.4130     1.2520 H     1 <1>   0.1500 
 44 H       10.2310     8.3340    -2.2950 H     1 <1>   0.1500 
 45 H       10.7570     9.7650     0.1630 H     1 <1>   0.1500 
 46 H        7.4430     9.7460     2.8580 H     1 <1>   0.1500 
 47 H        9.7350    10.4180     2.3250 H     1 <1>   0.1500 
@<TRIPOS>BOND
  1   1   2  1   
  2   2   3  ar  
  3   2   4  ar  
  4   3   5  ar  
  5   3   6  1   
  6   4   7  ar  
  7   4  26  1   
  8   5   8  ar  
  9   6   9  1   
 10   6  10  1   
 11   7   8  ar  
 12   8  11  1   
 13   9  12  1   
 14   9  27  1   
 15   9  28  1   
 16  10  13  1   
 17  10  29  1   
 18  10  30  1   
 19  11  14  1   
 20  11  31  1   
 21  12  13  1   
 22  12  32  1   
 23  12  33  1   
 24  13  34  1   
 25  13  35  1   
 26  14  15  1   
 27  14  36  1   
 28  14  37  1   
 29  15  16  1   
 30  15  38  1   
 31  15  39  1   
 32  16  17  1   
 33  16  40  1   
 34  16  41  1   
 35  17  18  1   
 36  17  19  1   
 37  18  20  ar  
 38  18  21  ar  
 39  19  22  2   
 40  19  42  1   
 41  20  22  1   
 42  20  23  ar  
 43  21  24  ar  
 44  21  43  1   
 45  22  44  1   
 46  23  25  ar  
 47  23  45  1   
 48  24  25  ar  
 49  24  46  1   
 50  25  47  1   
@<TRIPOS>SUBSTRUCTURE
  1 ****  11 GROUP 4 **** **** 0

# MOE 2024.06 (io_trps.svl 2023.06)
