@<TRIPOS>MOLECULE
NONAME
49 52 1 0 0 
SMALL
USER_CHARGES


@<TRIPOS>ATOM
  1 F        0.0370     0.4170     0.3320 F     1 <1>  -0.3400 
  2 C        1.2530    -0.0800     0.1110 C.3   1 <1>   1.1640 
  3 F        2.0330     0.4700     1.0400 F     1 <1>  -0.3400 
  4 F        1.6470     0.4410    -1.0480 F     1 <1>  -0.3400 
  5 C        1.3200    -1.6360     0.1130 C.ar  1 <1>   0.1660 
  6 N        0.1800    -2.3090     0.1680 N.ar  1 <1>  -0.6200 
  7 C        2.5330    -2.3160     0.0600 C.ar  1 <1>  -0.1440 
  8 C        0.2450    -3.6310     0.1820 C.ar  1 <1>   0.7200 
  9 C        2.4810    -3.7000     0.0830 C.ar  1 <1>   0.1660 
 10 C        3.8860    -1.5930    -0.0060 C.3   1 <1>  -0.0170 
 11 N        1.3520    -4.3550     0.1400 N.ar  1 <1>  -0.6200 
 12 N       -0.9450    -4.3100     0.2470 N.pl3 1 <1>  -0.8380 
 13 C        3.7270    -4.5740     0.0310 C.3   1 <1>  -0.0170 
 14 C        5.0390    -2.4960    -0.4580 C.3   1 <1>  -0.1600 
 15 C       -2.2650    -3.6750     0.0060 C.3   1 <1>   0.2090 
 16 C       -1.0440    -5.7860     0.1590 C.3   1 <1>   0.2090 
 17 C        5.0220    -3.8090     0.3230 C.3   1 <1>  -0.1600 
 18 C       -3.1780    -4.8230    -0.4280 C.3   1 <1>   0.2000 
 19 C       -2.5420    -6.0870     0.1480 C.3   1 <1>  -0.0800 
 20 O       -4.4700    -4.6740     0.0560 O.3   1 <1>  -0.6800 
 21 C       -2.9110    -7.3560    -0.6330 C.3   1 <1>   0.0210 
 22 C       -2.1780    -8.5660    -0.0880 C.2   1 <1>   0.1080 
 23 N       -2.3740    -9.0270     1.1080 N.2   1 <1>  -0.7070 
 24 C       -1.2240    -9.3010    -0.7850 C.2   1 <1>  -0.1500 
 25 N       -1.5420   -10.0800     1.2080 N.pl3 1 <1>   0.3000 
 26 C       -0.8340   -10.2660     0.0740 C.2   1 <1>  -0.3320 
 27 C        0.1880   -11.3710    -0.1220 C.3   1 <1>  -0.0600 
 28 H        3.8430    -0.7590    -0.6840 H     1 <1>   0.0800 
 29 H        4.1160    -1.2110     0.9740 H     1 <1>   0.0800 
 30 H        3.6250    -5.3790     0.7380 H     1 <1>   0.0800 
 31 H        3.7830    -5.0090    -0.9500 H     1 <1>   0.0800 
 32 H        4.9440    -2.7020    -1.5110 H     1 <1>   0.0800 
 33 H        5.9760    -1.9890    -0.3020 H     1 <1>   0.0800 
 34 H       -2.6100    -3.2270     0.9210 H     1 <1>   0.0800 
 35 H       -2.1960    -2.9300    -0.7680 H     1 <1>   0.0800 
 36 H       -0.5750    -6.1170    -0.7520 H     1 <1>   0.0800 
 37 H       -0.5570    -6.2540     1.0000 H     1 <1>   0.0800 
 38 H        5.0850    -3.6020     1.3780 H     1 <1>   0.0800 
 39 H        5.8680    -4.4150     0.0500 H     1 <1>   0.0800 
 40 H       -3.2190    -4.8590    -1.5030 H     1 <1>   0.0800 
 41 H       -2.8430    -6.2060     1.1750 H     1 <1>   0.0800 
 42 H       -4.4680    -4.7350     1.0320 H     1 <1>   0.4000 
 43 H       -2.6700    -7.2330    -1.6740 H     1 <1>   0.0800 
 44 H       -3.9690    -7.5300    -0.5540 H     1 <1>   0.0800 
 45 H       -0.8880    -9.1160    -1.7890 H     1 <1>   0.1500 
 46 H       -1.4820   -10.6490     2.0600 H     1 <1>   0.2700 
 47 H        0.6150   -11.3090    -1.1070 H     1 <1>   0.0800 
 48 H       -0.2790   -12.3340    -0.0110 H     1 <1>   0.0800 
 49 H        0.9790   -11.2790     0.6010 H     1 <1>   0.0800 
@<TRIPOS>BOND
  1   1   2  1   
  2   2   3  1   
  3   2   4  1   
  4   2   5  1   
  5   5   6  ar  
  6   5   7  ar  
  7   6   8  ar  
  8   7   9  ar  
  9   7  10  1   
 10   8  11  ar  
 11   8  12  1   
 12   9  11  ar  
 13   9  13  1   
 14  10  14  1   
 15  10  28  1   
 16  10  29  1   
 17  12  15  1   
 18  12  16  1   
 19  13  17  1   
 20  13  30  1   
 21  13  31  1   
 22  14  17  1   
 23  14  32  1   
 24  14  33  1   
 25  15  18  1   
 26  15  34  1   
 27  15  35  1   
 28  16  19  1   
 29  16  36  1   
 30  16  37  1   
 31  17  38  1   
 32  17  39  1   
 33  18  19  1   
 34  18  20  1   
 35  18  40  1   
 36  19  21  1   
 37  19  41  1   
 38  20  42  1   
 39  21  22  1   
 40  21  43  1   
 41  21  44  1   
 42  22  23  2   
 43  22  24  1   
 44  23  25  1   
 45  24  26  2   
 46  24  45  1   
 47  25  26  1   
 48  25  46  1   
 49  26  27  1   
 50  27  47  1   
 51  27  48  1   
 52  27  49  1   
@<TRIPOS>SUBSTRUCTURE
  1 ****   8 GROUP 4 **** **** 0

# MOE 2024.06 (io_trps.svl 2023.06)
