@<TRIPOS>MOLECULE
NONAME
46 48 1 0 0 
SMALL
USER_CHARGES


@<TRIPOS>ATOM
  1 O       -0.1180     0.6620    -0.6010 O.2   1 <1>  -0.5700 
  2 C       -1.1630     1.2580    -0.3920 C.2   1 <1>   0.5440 
  3 N       -2.3120     0.5530    -0.1140 N.am  1 <1>  -0.4200 
  4 C       -1.2410     2.6910    -0.4240 C.ar  1 <1>   0.0860 
  5 C       -3.4820     1.2340     0.1270 C.2   1 <1>   0.4500 
  6 C       -2.2830    -0.9320    -0.0750 C.3   1 <1>   0.0600 
  7 C       -2.4840     3.2770    -0.1650 C.ar  1 <1>   0.1790 
  8 C       -0.1560     3.5260    -0.6990 C.ar  1 <1>  -0.1500 
  9 N       -3.5970     2.5080     0.1120 N.2   1 <1>  -0.6290 
 10 C       -2.6080     4.6600    -0.1840 C.ar  1 <1>  -0.1500 
 11 C       -0.2990     4.8970    -0.7110 C.ar  1 <1>  -0.1500 
 12 C       -1.5340     5.5010    -0.4430 C.ar  1 <1>   0.0860 
 13 C       -1.6930     6.9420    -0.4350 C.2   1 <1>   0.5440 
 14 O       -2.7150     7.4450    -0.8570 O.2   1 <1>  -0.5700 
 15 N       -0.6810     7.7310     0.0610 N.am  1 <1>  -0.4940 
 16 C       -0.5140     9.1360     0.1160 C.2   1 <1>  -0.0880 
 17 N       -1.4640    10.0930     0.3230 N.pl3 1 <1>   0.3140 
 18 C        0.6670     9.7940     0.0060 C.2   1 <1>  -0.1810 
 19 N       -0.9180    11.3280     0.3540 N.2   1 <1>  -0.7070 
 20 C       -2.8960     9.9310     0.6010 C.3   1 <1>   0.0160 
 21 C        0.3490    11.1410     0.1590 C.2   1 <1>   0.1080 
 22 C        2.0440     9.2000    -0.2400 C.3   1 <1>   0.0210 
 23 C        1.3260    12.3030     0.1150 C.3   1 <1>   0.0210 
 24 C        2.7350     8.8800     1.0860 C.3   1 <1>  -0.2400 
 25 C        1.4940    12.8290    -1.3140 C.3   1 <1>  -0.2400 
 26 H       -4.3480     0.6320     0.3410 H     1 <1>   0.0600 
 27 H       -1.5870    -1.2580     0.6790 H     1 <1>   0.0800 
 28 H       -1.9600    -1.3100    -1.0300 H     1 <1>   0.0800 
 29 H       -3.2570    -1.3280     0.1490 H     1 <1>   0.0800 
 30 H        0.8010     3.0770    -0.9080 H     1 <1>   0.1500 
 31 H       -3.5770     5.0860     0.0110 H     1 <1>   0.1500 
 32 H        0.5540     5.5110    -0.9430 H     1 <1>   0.1500 
 33 H        0.1350     7.2160     0.3860 H     1 <1>   0.3700 
 34 H       -3.0490     9.0420     1.1820 H     1 <1>   0.0800 
 35 H       -3.4250     9.8570    -0.3300 H     1 <1>   0.0800 
 36 H       -3.2480    10.7850     1.1490 H     1 <1>   0.0800 
 37 H        2.6420     9.8930    -0.8060 H     1 <1>   0.0800 
 38 H        1.9480     8.3040    -0.8260 H     1 <1>   0.0800 
 39 H        2.2760    11.9930     0.5070 H     1 <1>   0.0800 
 40 H        0.9500    13.0900     0.7440 H     1 <1>   0.0800 
 41 H        2.8490     9.7760     1.6700 H     1 <1>   0.0800 
 42 H        3.7080     8.4590     0.9060 H     1 <1>   0.0800 
 43 H        2.1500     8.1770     1.6520 H     1 <1>   0.0800 
 44 H        1.8710    12.0540    -1.9560 H     1 <1>   0.0800 
 45 H        2.1760    13.6600    -1.3280 H     1 <1>   0.0800 
 46 H        0.5400    13.1540    -1.6930 H     1 <1>   0.0800 
@<TRIPOS>BOND
  1   1   2  2   
  2   2   3  am  
  3   2   4  1   
  4   3   5  1   
  5   3   6  1   
  6   4   7  ar  
  7   4   8  ar  
  8   5   9  2   
  9   5  26  1   
 10   6  27  1   
 11   6  28  1   
 12   6  29  1   
 13   7   9  1   
 14   7  10  ar  
 15   8  11  ar  
 16   8  30  1   
 17  10  12  ar  
 18  10  31  1   
 19  11  12  ar  
 20  11  32  1   
 21  12  13  1   
 22  13  14  2   
 23  13  15  am  
 24  15  16  1   
 25  15  33  1   
 26  16  17  1   
 27  16  18  2   
 28  17  19  1   
 29  17  20  1   
 30  18  21  1   
 31  18  22  1   
 32  19  21  2   
 33  20  34  1   
 34  20  35  1   
 35  20  36  1   
 36  21  23  1   
 37  22  24  1   
 38  22  37  1   
 39  22  38  1   
 40  23  25  1   
 41  23  39  1   
 42  23  40  1   
 43  24  41  1   
 44  24  42  1   
 45  24  43  1   
 46  25  44  1   
 47  25  45  1   
 48  25  46  1   
@<TRIPOS>SUBSTRUCTURE
  1 ****  12 GROUP 4 **** **** 0

# MOE 2024.06 (io_trps.svl 2023.06)
