@<TRIPOS>MOLECULE
NONAME
45 46 1 0 0 
SMALL
USER_CHARGES


@<TRIPOS>ATOM
  1 CL       2.0670    -2.3820     3.7370 Cl    1 <1>  -0.1770 
  2 C        2.1450    -2.3910     1.9940 C.ar  1 <1>   0.1770 
  3 C        2.3720    -1.2060     1.3260 C.ar  1 <1>  -0.1500 
  4 C        1.9770    -3.5860     1.3240 C.ar  1 <1>  -0.1500 
  5 C        2.4270    -1.2260    -0.0630 C.ar  1 <1>   0.0830 
  6 C        2.0350    -3.6300    -0.0700 C.ar  1 <1>   0.0860 
  7 O        2.6420    -0.1230    -0.8190 O.3   1 <1>  -0.3630 
  8 C        2.2580    -2.4240    -0.7370 C.ar  1 <1>  -0.1500 
  9 C        1.8650    -4.8710    -0.8080 C.2   1 <1>   0.5440 
 10 C        2.8200     1.1500    -0.2360 C.3   1 <1>   0.0400 
 11 O        1.4950    -4.8670    -1.9640 O.2   1 <1>  -0.5700 
 12 N        2.0990    -6.0780    -0.2170 N.am  1 <1>  -0.7300 
 13 C        2.0020    -7.3980    -0.8860 C.3   1 <1>   0.2200 
 14 C        0.6890    -8.0840    -0.5400 C.3   1 <1>  -0.0800 
 15 C        2.9880    -8.3480    -0.2240 C.3   1 <1>   0.1200 
 16 C        0.9860    -8.7180     0.8260 C.3   1 <1>   0.1200 
 17 C       -0.5540    -7.1730    -0.5780 C.3   1 <1>  -0.0550 
 18 O        2.3780    -8.7120     0.9770 O.3   1 <1>  -0.5600 
 19 S       -2.0770    -8.0510    -0.2400 S.o2  1 <1>   1.3330 
 20 O       -2.1230    -8.3880     1.1650 O.2   1 <1>  -0.6500 
 21 O       -2.2120    -9.0990    -1.2270 O.2   1 <1>  -0.6500 
 22 N       -3.2760    -6.8860    -0.5330 N.am  1 <1>  -0.8490 
 23 C       -4.5580    -7.4920    -0.9040 C.3   1 <1>   0.1160 
 24 C       -3.4680    -5.9520     0.5810 C.3   1 <1>   0.1160 
 25 H        2.4970    -0.3050     1.8940 H     1 <1>   0.1500 
 26 H        1.7950    -4.4760     1.8960 H     1 <1>   0.1500 
 27 H        2.3010    -2.4190    -1.8130 H     1 <1>   0.1500 
 28 H        2.9690     1.8610    -1.0280 H     1 <1>   0.0800 
 29 H        3.6870     1.1250     0.4000 H     1 <1>   0.0800 
 30 H        1.9370     1.4050     0.3220 H     1 <1>   0.0800 
 31 H        2.4290    -6.1390     0.7490 H     1 <1>   0.3700 
 32 H        2.1630    -7.3060    -1.9480 H     1 <1>   0.0800 
 33 H        0.5390    -8.8860    -1.2430 H     1 <1>   0.0800 
 34 H        3.9430    -7.8930    -0.0260 H     1 <1>   0.0800 
 35 H        3.1190    -9.2390    -0.8140 H     1 <1>   0.0800 
 36 H        0.6300    -9.7330     0.8830 H     1 <1>   0.0800 
 37 H        0.5680    -8.1430     1.6360 H     1 <1>   0.0800 
 38 H       -0.6200    -6.7290    -1.5530 H     1 <1>   0.0800 
 39 H       -0.4450    -6.3800     0.1330 H     1 <1>   0.0800 
 40 H       -5.2890    -6.7280    -1.1030 H     1 <1>   0.0800 
 41 H       -4.9140    -8.1290    -0.1120 H     1 <1>   0.0800 
 42 H       -4.4400    -8.0840    -1.7970 H     1 <1>   0.0800 
 43 H       -4.1760    -5.1890     0.3050 H     1 <1>   0.0800 
 44 H       -2.5360    -5.4730     0.8280 H     1 <1>   0.0800 
 45 H       -3.8330    -6.4720     1.4510 H     1 <1>   0.0800 
@<TRIPOS>BOND
  1   1   2  1   
  2   2   3  ar  
  3   2   4  ar  
  4   3   5  ar  
  5   3  25  1   
  6   4   6  ar  
  7   4  26  1   
  8   5   7  1   
  9   5   8  ar  
 10   6   8  ar  
 11   6   9  1   
 12   7  10  1   
 13   8  27  1   
 14   9  11  2   
 15   9  12  am  
 16  10  28  1   
 17  10  29  1   
 18  10  30  1   
 19  12  13  1   
 20  12  31  1   
 21  13  14  1   
 22  13  15  1   
 23  13  32  1   
 24  14  16  1   
 25  14  17  1   
 26  14  33  1   
 27  15  18  1   
 28  15  34  1   
 29  15  35  1   
 30  16  18  1   
 31  16  36  1   
 32  16  37  1   
 33  17  19  1   
 34  17  38  1   
 35  17  39  1   
 36  19  20  2   
 37  19  21  2   
 38  19  22  am  
 39  22  23  1   
 40  22  24  1   
 41  23  40  1   
 42  23  41  1   
 43  23  42  1   
 44  24  43  1   
 45  24  44  1   
 46  24  45  1   
@<TRIPOS>SUBSTRUCTURE
  1 ****   9 GROUP 4 **** **** 0

# MOE 2024.06 (io_trps.svl 2023.06)
