@<TRIPOS>MOLECULE
NONAME
51 53 1 0 0 
SMALL
USER_CHARGES


@<TRIPOS>ATOM
  1 S        0.7990     0.7180    -1.3870 S.o2  1 <1>   1.3330 
  2 O        0.0760     1.7230    -2.1330 O.2   1 <1>  -0.6500 
  3 O        0.9750    -0.6040    -1.9450 O.2   1 <1>  -0.6500 
  4 N        0.0220     0.5490     0.1150 N.am  1 <1>  -0.8490 
  5 C        2.4220     1.3590    -0.9620 C.3   1 <1>  -0.0550 
  6 C       -0.5670     1.7990     0.6080 C.3   1 <1>   0.1160 
  7 C       -1.0000    -0.5020     0.0920 C.3   1 <1>   0.1160 
  8 C        3.3090     0.3670    -0.1800 C.3   1 <1>  -0.0800 
  9 C        4.7610     0.7930    -0.0150 C.3   1 <1>   0.2200 
 10 C        2.8670     0.0900     1.2640 C.3   1 <1>   0.1200 
 11 N        4.8620     2.2310     0.3450 N.am  1 <1>  -0.7300 
 12 C        5.1490    -0.0320     1.2030 C.3   1 <1>   0.1200 
 13 O        4.0330     0.0340     2.0360 O.3   1 <1>  -0.5600 
 14 C        5.2440     3.2290    -0.5060 C.2   1 <1>   0.5440 
 15 O        5.3280     2.9630    -1.6870 O.2   1 <1>  -0.5700 
 16 C        5.5290     4.5630    -0.0380 C.ar  1 <1>   0.0860 
 17 C        5.8240     4.8640     1.2810 C.ar  1 <1>   0.1600 
 18 C        5.5350     5.6510    -0.8930 C.ar  1 <1>   0.1600 
 19 N        6.0770     6.0780     1.7090 N.ar  1 <1>  -0.6200 
 20 N        5.7850     6.8770    -0.5000 N.ar  1 <1>  -0.6200 
 21 C        6.0490     7.0400     0.7940 C.ar  1 <1>   0.7200 
 22 N        6.3020     8.2800     1.2890 N.pl3 1 <1>  -0.6000 
 23 C        6.4010     9.5470     0.6990 C.ar  1 <1>   0.1000 
 24 C        6.0150    10.6600     1.4370 C.ar  1 <1>  -0.1500 
 25 C        6.8930     9.7450    -0.5870 C.ar  1 <1>  -0.1500 
 26 C        6.1080    11.9340     0.9050 C.ar  1 <1>  -0.1500 
 27 C        6.9870    11.0170    -1.1240 C.ar  1 <1>  -0.1500 
 28 C        6.5940    12.1140    -0.3780 C.ar  1 <1>  -0.1500 
 29 H        2.9300     1.6060    -1.8750 H     1 <1>   0.0800 
 30 H        2.3120     2.2670    -0.4040 H     1 <1>   0.0800 
 31 H       -0.9640     1.6560     1.5980 H     1 <1>   0.0800 
 32 H       -1.3620     2.1240    -0.0450 H     1 <1>   0.0800 
 33 H        0.1810     2.5720     0.6500 H     1 <1>   0.0800 
 34 H       -1.4670    -0.5920     1.0580 H     1 <1>   0.0800 
 35 H       -0.5500    -1.4500    -0.1520 H     1 <1>   0.0800 
 36 H       -1.7520    -0.2770    -0.6460 H     1 <1>   0.0800 
 37 H        3.3050    -0.5730    -0.7050 H     1 <1>   0.0800 
 38 H        5.3660     0.5660    -0.8770 H     1 <1>   0.0800 
 39 H        2.3450    -0.8480     1.3470 H     1 <1>   0.0800 
 40 H        2.2550     0.8820     1.6580 H     1 <1>   0.0800 
 41 H        4.6250     2.4090     1.3240 H     1 <1>   0.3700 
 42 H        6.0130     0.3520     1.7160 H     1 <1>   0.0800 
 43 H        5.3060    -1.0630     0.9360 H     1 <1>   0.0800 
 44 H        5.8580     4.0710     2.0070 H     1 <1>   0.1500 
 45 H        5.3240     5.4930    -1.9380 H     1 <1>   0.1500 
 46 H        6.3700     8.2510     2.3010 H     1 <1>   0.4000 
 47 H        5.6330    10.5290     2.4320 H     1 <1>   0.1500 
 48 H        7.2080     8.9020    -1.1730 H     1 <1>   0.1500 
 49 H        5.8020    12.7860     1.4870 H     1 <1>   0.1500 
 50 H        7.3660    11.1510    -2.1220 H     1 <1>   0.1500 
 51 H        6.6660    13.1040    -0.7950 H     1 <1>   0.1500 
@<TRIPOS>BOND
  1   1   2  2   
  2   1   3  2   
  3   1   4  am  
  4   1   5  1   
  5   4   6  1   
  6   4   7  1   
  7   5   8  1   
  8   5  29  1   
  9   5  30  1   
 10   6  31  1   
 11   6  32  1   
 12   6  33  1   
 13   7  34  1   
 14   7  35  1   
 15   7  36  1   
 16   8   9  1   
 17   8  10  1   
 18   8  37  1   
 19   9  11  1   
 20   9  12  1   
 21   9  38  1   
 22  10  13  1   
 23  10  39  1   
 24  10  40  1   
 25  11  14  am  
 26  11  41  1   
 27  12  13  1   
 28  12  42  1   
 29  12  43  1   
 30  14  15  2   
 31  14  16  1   
 32  16  17  ar  
 33  16  18  ar  
 34  17  19  ar  
 35  17  44  1   
 36  18  20  ar  
 37  18  45  1   
 38  19  21  ar  
 39  20  21  ar  
 40  21  22  1   
 41  22  23  1   
 42  22  46  1   
 43  23  24  ar  
 44  23  25  ar  
 45  24  26  ar  
 46  24  47  1   
 47  25  27  ar  
 48  25  48  1   
 49  26  28  ar  
 50  26  49  1   
 51  27  28  ar  
 52  27  50  1   
 53  28  51  1   
@<TRIPOS>SUBSTRUCTURE
  1 ****  16 GROUP 4 **** **** 0

# MOE 2024.06 (io_trps.svl 2023.06)
