@<TRIPOS>MOLECULE
NONAME
58 63 1 0 0 
SMALL
USER_CHARGES


@<TRIPOS>ATOM
  1 O        1.8860    -1.9470     1.7000 O.3   1 <1>  -0.5600 
  2 C        2.7740    -2.9800     1.3610 C.3   1 <1>   0.1200 
  3 C        1.8860    -0.8560     0.8270 C.3   1 <1>   0.1200 
  4 C        4.2300    -2.4550     1.3060 C.3   1 <1>   0.5180 
  5 C        3.2960    -0.2330     0.7460 C.3   1 <1>   0.4230 
  6 N        4.3370    -1.2710     0.3960 N.4   1 <1>  -0.9590 
  7 C        5.2770    -3.5120     0.9010 C.3   1 <1>  -0.1950 
  8 C        3.3310     0.9710    -0.2380 C.3   1 <1>   0.1100 
  9 C        4.3230    -1.5890    -1.0770 C.3   1 <1>   0.3430 
 10 C        5.0570    -4.5920    -0.1190 C.3   1 <1>  -0.2000 
 11 C        5.1960    -4.9450     1.3340 C.3   1 <1>  -0.2000 
 12 N        4.5150     0.9200    -1.1330 N.3   1 <1>  -0.8100 
 13 C        4.4960    -0.3170    -1.9480 C.3   1 <1>   0.1100 
 14 C        4.7590     2.1600    -1.8960 C.3   1 <1>   0.2780 
 15 C        5.4710     3.2120    -1.0380 C.2   1 <1>   0.1820 
 16 N        5.5250     4.5510    -1.3900 N.pl3 1 <1>  -0.6290 
 17 C        6.1340     3.0490     0.1430 C.2   1 <1>   0.3090 
 18 C        6.2130     5.1670    -0.4060 C.cat 1 <1>   0.9620 
 19 C        5.0690     5.2910    -2.4510 C.2   1 <1>   0.2290 
 20 N        6.5750     4.2910     0.5120 N.pl3 1 <1>  -0.7000 
 21 C        6.3960     1.8790     0.9550 C.ar  1 <1>   0.0410 
 22 N        6.4890     6.4700    -0.3640 N.2   1 <1>  -0.6120 
 23 C        5.3340     6.6210    -2.4460 C.2   1 <1>  -0.1360 
 24 C        5.8350     1.7470     2.2240 C.ar  1 <1>  -0.1500 
 25 C        7.2080     0.8450     0.4910 C.ar  1 <1>  -0.1500 
 26 C        6.0540     7.1670    -1.3670 C.2   1 <1>   0.3760 
 27 C        6.0660     0.6210     2.9940 C.ar  1 <1>  -0.1500 
 28 C        7.4450    -0.2800     1.2580 C.ar  1 <1>  -0.1500 
 29 C        6.8720    -0.3950     2.5120 C.ar  1 <1>  -0.1500 
 30 H        2.6830    -3.7380     2.1180 H     1 <1>   0.0800 
 31 H        2.4690    -3.3990     0.4190 H     1 <1>   0.0800 
 32 H        1.5440    -1.1880    -0.1380 H     1 <1>   0.0800 
 33 H        1.1820    -0.1370     1.2110 H     1 <1>   0.0800 
 34 H        4.4750    -2.1350     2.3050 H     1 <1>   0.0800 
 35 H        3.5210     0.1520     1.7270 H     1 <1>   0.0800 
 36 H        5.2410    -0.8090     0.5740 H     1 <1>   0.4500 
 37 H        6.2670    -3.0950     0.9600 H     1 <1>   0.1000 
 38 H        3.3410     1.8790     0.3400 H     1 <1>   0.0800 
 39 H        2.4330     0.9840    -0.8350 H     1 <1>   0.0800 
 40 H        5.1190    -2.2760    -1.3130 H     1 <1>   0.0800 
 41 H        3.3950    -2.0700    -1.3360 H     1 <1>   0.0800 
 42 H        4.0950    -4.7610    -0.5710 H     1 <1>   0.1000 
 43 H        5.8640    -4.8690    -0.7780 H     1 <1>   0.1000 
 44 H        6.0980    -5.4460     1.6500 H     1 <1>   0.1000 
 45 H        4.3290    -5.3350     1.8390 H     1 <1>   0.1000 
 46 H        3.6990    -0.2730    -2.6720 H     1 <1>   0.0800 
 47 H        5.4220    -0.4010    -2.4920 H     1 <1>   0.0800 
 48 H        5.3850     1.9470    -2.7460 H     1 <1>   0.0800 
 49 H        3.8230     2.5500    -2.2600 H     1 <1>   0.0800 
 50 H        4.5250     4.8040    -3.2450 H     1 <1>   0.1500 
 51 H        7.1300     4.5480     1.3280 H     1 <1>   0.4500 
 52 H        5.0120     7.2730    -3.2390 H     1 <1>   0.1500 
 53 H        5.2170     2.5360     2.6200 H     1 <1>   0.1500 
 54 H        7.6680     0.9260    -0.4800 H     1 <1>   0.1500 
 55 H        6.2530     8.2250    -1.3810 H     1 <1>   0.0600 
 56 H        5.6330     0.5400     3.9790 H     1 <1>   0.1500 
 57 H        8.0920    -1.0600     0.8900 H     1 <1>   0.1500 
 58 H        7.0710    -1.2620     3.1220 H     1 <1>   0.1500 
@<TRIPOS>BOND
  1   1   2  1   
  2   1   3  1   
  3   2   4  1   
  4   2  30  1   
  5   2  31  1   
  6   3   5  1   
  7   3  32  1   
  8   3  33  1   
  9   4   6  1   
 10   4   7  1   
 11   4  34  1   
 12   5   6  1   
 13   5   8  1   
 14   5  35  1   
 15   6   9  1   
 16   6  36  1   
 17   7  10  1   
 18   7  11  1   
 19   7  37  1   
 20   8  12  1   
 21   8  38  1   
 22   8  39  1   
 23   9  13  1   
 24   9  40  1   
 25   9  41  1   
 26  10  11  1   
 27  10  42  1   
 28  10  43  1   
 29  11  44  1   
 30  11  45  1   
 31  12  13  1   
 32  12  14  1   
 33  13  46  1   
 34  13  47  1   
 35  14  15  1   
 36  14  48  1   
 37  14  49  1   
 38  15  16  1   
 39  15  17  2   
 40  16  18  ar  
 41  16  19  1   
 42  17  20  1   
 43  17  21  1   
 44  18  20  ar  
 45  18  22  1   
 46  19  23  2   
 47  19  50  1   
 48  20  51  1   
 49  21  24  ar  
 50  21  25  ar  
 51  22  26  2   
 52  23  26  1   
 53  23  52  1   
 54  24  27  ar  
 55  24  53  1   
 56  25  28  ar  
 57  25  54  1   
 58  26  55  1   
 59  27  29  ar  
 60  27  56  1   
 61  28  29  ar  
 62  28  57  1   
 63  29  58  1   
@<TRIPOS>SUBSTRUCTURE
  1 ****  12 GROUP 4 **** **** 0

# MOE 2024.06 (io_trps.svl 2023.06)
