@<TRIPOS>MOLECULE
NONAME
51 54 1 0 0 
SMALL
USER_CHARGES


@<TRIPOS>ATOM
  1 O       -1.1680    -0.0800    -0.1220 O.2   1 <1>  -0.5700 
  2 C       -1.3470     1.1120    -0.1330 C.2   1 <1>   0.5690 
  3 N       -2.5180     1.7740     0.1190 N.am  1 <1>  -0.4770 
  4 C       -0.2290     2.0710    -0.4430 C.3   1 <1>  -0.0990 
  5 C       -3.7860     1.2300     0.3940 C.ar  1 <1>   0.1170 
  6 C       -2.3150     3.2360     0.0320 C.3   1 <1>   0.1400 
  7 C       -0.9470     3.4110    -0.6360 C.3   1 <1>  -0.1600 
  8 C       -4.6820     1.8820     1.2380 C.ar  1 <1>  -0.1500 
  9 C       -4.1960     0.0250    -0.1710 C.ar  1 <1>  -0.1500 
 10 C       -5.9360     1.3580     1.4920 C.ar  1 <1>  -0.1500 
 11 C       -5.4490    -0.4980     0.0860 C.ar  1 <1>  -0.1500 
 12 C       -6.3560     0.1600     0.9140 C.ar  1 <1>   0.0860 
 13 C       -7.6740    -0.3870     1.1650 C.2   1 <1>   0.5440 
 14 O       -7.7750    -1.5330     1.5650 O.2   1 <1>  -0.5700 
 15 N       -8.8240     0.3500     0.9560 N.am  1 <1>  -0.6600 
 16 C      -10.1620    -0.1390     1.4080 C.3   1 <1>   0.1400 
 17 C       -8.8910     1.5550     0.0850 C.3   1 <1>   0.1400 
 18 C      -11.0390    -0.5200     0.2000 C.3   1 <1>   0.0000 
 19 C       -9.7500     1.2540    -1.1490 C.3   1 <1>  -0.1600 
 20 C      -12.4130    -1.0300     0.6760 C.3   1 <1>   0.2000 
 21 C      -11.1330     0.6930    -0.7700 C.3   1 <1>  -0.1600 
 22 C      -10.5030    -1.7670    -0.5280 C.3   1 <1>  -0.1600 
 23 O      -13.3110    -0.0100     0.9340 O.3   1 <1>  -0.6800 
 24 C      -12.9470    -1.9370    -0.4320 C.3   1 <1>  -0.1600 
 25 C      -11.7150    -2.3990    -1.2220 C.3   1 <1>  -0.1600 
 26 H        0.4420     2.1040     0.3960 H     1 <1>   0.0800 
 27 H        0.3020     1.7660    -1.3270 H     1 <1>   0.0800 
 28 H       -3.0970     3.6950    -0.5480 H     1 <1>   0.0800 
 29 H       -2.3030     3.6510     1.0260 H     1 <1>   0.0800 
 30 H       -1.0930     3.5950    -1.6860 H     1 <1>   0.0800 
 31 H       -0.3970     4.2330    -0.2120 H     1 <1>   0.0800 
 32 H       -4.3970     2.8020     1.7110 H     1 <1>   0.1500 
 33 H       -3.5260    -0.5110    -0.8190 H     1 <1>   0.1500 
 34 H       -6.6090     1.8750     2.1530 H     1 <1>   0.1500 
 35 H       -5.7390    -1.4360    -0.3550 H     1 <1>   0.1500 
 36 H      -10.0510    -0.9840     2.0650 H     1 <1>   0.0800 
 37 H      -10.6460     0.6430     1.9680 H     1 <1>   0.0800 
 38 H       -9.3260     2.3650     0.6450 H     1 <1>   0.0800 
 39 H       -7.9100     1.8570    -0.2360 H     1 <1>   0.0800 
 40 H       -9.8770     2.1600    -1.7150 H     1 <1>   0.0800 
 41 H       -9.2220     0.5600    -1.7780 H     1 <1>   0.0800 
 42 H      -12.2970    -1.6040     1.5810 H     1 <1>   0.0800 
 43 H      -11.6670     0.4220    -1.6640 H     1 <1>   0.0800 
 44 H      -11.6770     1.4890    -0.2930 H     1 <1>   0.0800 
 45 H       -9.7090    -1.5530    -1.2180 H     1 <1>   0.0800 
 46 H      -10.1220    -2.4640     0.2000 H     1 <1>   0.0800 
 47 H      -13.4750     0.4900     0.1130 H     1 <1>   0.4000 
 48 H      -13.4620    -2.7780    -0.0030 H     1 <1>   0.0800 
 49 H      -13.6140    -1.4030    -1.0850 H     1 <1>   0.0800 
 50 H      -11.6310    -3.4720    -1.2350 H     1 <1>   0.0800 
 51 H      -11.7800    -2.0440    -2.2360 H     1 <1>   0.0800 
@<TRIPOS>BOND
  1   1   2  2   
  2   2   3  am  
  3   2   4  1   
  4   3   5  1   
  5   3   6  1   
  6   4   7  1   
  7   4  26  1   
  8   4  27  1   
  9   5   8  ar  
 10   5   9  ar  
 11   6   7  1   
 12   6  28  1   
 13   6  29  1   
 14   7  30  1   
 15   7  31  1   
 16   8  10  ar  
 17   8  32  1   
 18   9  11  ar  
 19   9  33  1   
 20  10  12  ar  
 21  10  34  1   
 22  11  12  ar  
 23  11  35  1   
 24  12  13  1   
 25  13  14  2   
 26  13  15  am  
 27  15  16  1   
 28  15  17  1   
 29  16  18  1   
 30  16  36  1   
 31  16  37  1   
 32  17  19  1   
 33  17  38  1   
 34  17  39  1   
 35  18  20  1   
 36  18  21  1   
 37  18  22  1   
 38  19  21  1   
 39  19  40  1   
 40  19  41  1   
 41  20  23  1   
 42  20  24  1   
 43  20  42  1   
 44  21  43  1   
 45  21  44  1   
 46  22  25  1   
 47  22  45  1   
 48  22  46  1   
 49  23  47  1   
 50  24  25  1   
 51  24  48  1   
 52  24  49  1   
 53  25  50  1   
 54  25  51  1   
@<TRIPOS>SUBSTRUCTURE
  1 ****  12 GROUP 4 **** **** 0

# MOE 2024.06 (io_trps.svl 2023.06)
