@<TRIPOS>MOLECULE
NONAME
49 50 1 0 0 
SMALL
USER_CHARGES


@<TRIPOS>ATOM
  1 S        0.1990     0.0910    -0.3840 S.o2  1 <1>   1.3330 
  2 O        1.5830    -0.0590     0.0080 O.2   1 <1>  -0.6500 
  3 O       -0.1560    -0.0090    -1.7820 O.2   1 <1>  -0.6500 
  4 N       -0.7100    -1.0550     0.4780 N.am  1 <1>  -0.8490 
  5 C       -0.4310     1.6520     0.2270 C.3   1 <1>  -0.0550 
  6 C       -0.2070    -1.2970     1.8340 C.3   1 <1>   0.1160 
  7 C       -0.8270    -2.3240    -0.2450 C.3   1 <1>   0.1160 
  8 C        0.2120     2.8730    -0.4590 C.3   1 <1>  -0.0800 
  9 C       -0.4230     4.2140    -0.0920 C.3   1 <1>   0.2000 
 10 C        1.7070     3.0530    -0.1390 C.3   1 <1>   0.1100 
 11 O       -0.6940     4.2300     1.2640 O.3   1 <1>  -0.6800 
 12 C        0.7250     5.1850    -0.3290 C.3   1 <1>   0.1100 
 13 N        1.8950     4.4720     0.2010 N.3   1 <1>  -0.8100 
 14 C        3.1900     5.0170    -0.2840 C.3   1 <1>   0.2910 
 15 C        3.4180     6.4900     0.0690 C.2   1 <1>   0.3350 
 16 N        4.1100     6.9060     1.0550 N.2   1 <1>  -0.4100 
 17 N        2.9080     7.4730    -0.6670 N.2   1 <1>  -0.5650 
 18 O        4.0770     8.2030     1.0280 O.3   1 <1>  -0.0190 
 19 C        3.3400     8.4790    -0.0190 C.2   1 <1>   0.2980 
 20 C        3.0740     9.9330    -0.3640 C.3   1 <1>   0.0200 
 21 C        2.2580    10.6640     0.7200 C.3   1 <1>  -0.0800 
 22 C        0.8770    10.0210     0.9210 C.3   1 <1>  -0.2400 
 23 C        2.0890    12.1440     0.3550 C.3   1 <1>  -0.2400 
 24 H       -1.4900     1.6850     0.0590 H     1 <1>   0.0800 
 25 H       -0.2690     1.7130     1.2850 H     1 <1>   0.0800 
 26 H       -0.8710    -1.9620     2.3600 H     1 <1>   0.0800 
 27 H       -0.1520    -0.3720     2.3820 H     1 <1>   0.0800 
 28 H        0.7760    -1.7370     1.7990 H     1 <1>   0.0800 
 29 H       -1.4230    -3.0210     0.3190 H     1 <1>   0.0800 
 30 H        0.1480    -2.7490    -0.4180 H     1 <1>   0.0800 
 31 H       -1.3080    -2.1640    -1.1960 H     1 <1>   0.0800 
 32 H        0.1210     2.7510    -1.5250 H     1 <1>   0.0800 
 33 H       -1.3200     4.4450    -0.6390 H     1 <1>   0.0800 
 34 H        2.3000     2.7710    -0.9940 H     1 <1>   0.0800 
 35 H        2.0080     2.4520     0.7030 H     1 <1>   0.0800 
 36 H        0.1760     4.3220     1.7120 H     1 <1>   0.4000 
 37 H        0.5680     6.1250     0.1740 H     1 <1>   0.0800 
 38 H        0.8420     5.3610    -1.3860 H     1 <1>   0.0800 
 39 H        3.9880     4.4440     0.1540 H     1 <1>   0.0800 
 40 H        3.2520     4.9110    -1.3520 H     1 <1>   0.0800 
 41 H        4.0220    10.4240    -0.4950 H     1 <1>   0.0800 
 42 H        2.5490     9.9750    -1.3010 H     1 <1>   0.0800 
 43 H        2.7970    10.6070     1.6520 H     1 <1>   0.0800 
 44 H        0.3150    10.0320     0.0040 H     1 <1>   0.0800 
 45 H        0.3210    10.5560     1.6700 H     1 <1>   0.0800 
 46 H        0.9760     9.0010     1.2490 H     1 <1>   0.0800 
 47 H        1.5470    12.2500    -0.5680 H     1 <1>   0.0800 
 48 H        3.0500    12.6170     0.2470 H     1 <1>   0.0800 
 49 H        1.5480    12.6600     1.1290 H     1 <1>   0.0800 
@<TRIPOS>BOND
  1   1   2  2   
  2   1   3  2   
  3   1   4  am  
  4   1   5  1   
  5   4   6  1   
  6   4   7  1   
  7   5   8  1   
  8   5  24  1   
  9   5  25  1   
 10   6  26  1   
 11   6  27  1   
 12   6  28  1   
 13   7  29  1   
 14   7  30  1   
 15   7  31  1   
 16   8   9  1   
 17   8  10  1   
 18   8  32  1   
 19   9  11  1   
 20   9  12  1   
 21   9  33  1   
 22  10  13  1   
 23  10  34  1   
 24  10  35  1   
 25  11  36  1   
 26  12  13  1   
 27  12  37  1   
 28  12  38  1   
 29  13  14  1   
 30  14  15  1   
 31  14  39  1   
 32  14  40  1   
 33  15  16  2   
 34  15  17  1   
 35  16  18  1   
 36  17  19  2   
 37  18  19  1   
 38  19  20  1   
 39  20  21  1   
 40  20  41  1   
 41  20  42  1   
 42  21  22  1   
 43  21  23  1   
 44  21  43  1   
 45  22  44  1   
 46  22  45  1   
 47  22  46  1   
 48  23  47  1   
 49  23  48  1   
 50  23  49  1   
@<TRIPOS>SUBSTRUCTURE
  1 ****  13 GROUP 4 **** **** 0

# MOE 2024.06 (io_trps.svl 2023.06)
