@<TRIPOS>MOLECULE
NONAME
39 42 1 0 0 
SMALL
USER_CHARGES


@<TRIPOS>ATOM
  1 S        0.0620     0.3610    -1.8750 S.3   1 <1>  -0.0800 
  2 C       -0.9730     1.1080    -0.6670 C.2   1 <1>  -0.1400 
  3 C       -1.0930    -0.9460    -2.1020 C.2   1 <1>  -0.1100 
  4 C       -2.0940     0.3940    -0.4980 C.2   1 <1>  -0.1810 
  5 C       -0.5990     2.3970     0.0590 C.3   1 <1>   0.4600 
  6 C       -2.1680    -0.7830    -1.3070 C.2   1 <1>  -0.1500 
  7 C       -3.1380     0.8690     0.4870 C.3   1 <1>   0.0210 
  8 O       -1.5650     2.6410     1.0660 O.3   1 <1>  -0.5600 
  9 C       -0.5640     3.5900    -0.9030 C.3   1 <1>  -0.1600 
 10 C        0.7440     2.2480     0.7750 C.3   1 <1>  -0.1600 
 11 C       -2.9150     2.3680     0.7710 C.3   1 <1>   0.1200 
 12 C       -0.1690     4.8750    -0.1780 C.3   1 <1>   0.2090 
 13 C        1.1580     3.5450     1.4700 C.3   1 <1>   0.2090 
 14 N        1.1390     4.6760     0.4980 N.pl3 1 <1>  -0.8380 
 15 C        2.3010     5.0760    -0.1330 C.ar  1 <1>   0.4100 
 16 N        3.2130     4.1470    -0.3880 N.ar  1 <1>  -0.6200 
 17 C        2.4690     6.4120    -0.4790 C.ar  1 <1>  -0.1500 
 18 C        4.3060     4.5520    -1.0060 C.ar  1 <1>   0.1600 
 19 C        3.6100     6.8350    -1.1260 C.ar  1 <1>   0.0730 
 20 C        4.5510     5.8550    -1.3920 C.ar  1 <1>  -0.1500 
 21 C        3.8090     8.2040    -1.5020 C.1   1 <1>   0.4840 
 22 N        3.9690     9.2910    -1.8070 N.1   1 <1>  -0.5570 
 23 H       -0.8390    -1.7080    -2.8160 H     1 <1>   0.1500 
 24 H       -3.0150    -1.4440    -1.2550 H     1 <1>   0.1500 
 25 H       -3.0590     0.3080     1.4010 H     1 <1>   0.0800 
 26 H       -4.1230     0.7260     0.0820 H     1 <1>   0.0800 
 27 H       -1.5160     3.7100    -1.3820 H     1 <1>   0.0800 
 28 H        0.1610     3.3990    -1.6730 H     1 <1>   0.0800 
 29 H        1.5060     1.9880     0.0640 H     1 <1>   0.0800 
 30 H        0.6810     1.4510     1.4910 H     1 <1>   0.0800 
 31 H       -3.5030     2.6760     1.6170 H     1 <1>   0.0800 
 32 H       -3.2040     2.9560    -0.0810 H     1 <1>   0.0800 
 33 H       -0.9120     5.1290     0.5590 H     1 <1>   0.0800 
 34 H       -0.1050     5.6820    -0.8870 H     1 <1>   0.0800 
 35 H        2.1440     3.4370     1.8890 H     1 <1>   0.0800 
 36 H        0.4770     3.7630     2.2750 H     1 <1>   0.0800 
 37 H        1.6950     7.1090    -0.2240 H     1 <1>   0.1500 
 38 H        5.0470     3.7990    -1.2170 H     1 <1>   0.1500 
 39 H        5.4680     6.1030    -1.8940 H     1 <1>   0.1500 
@<TRIPOS>BOND
  1   1   2  1   
  2   1   3  1   
  3   2   4  2   
  4   2   5  1   
  5   3   6  2   
  6   3  23  1   
  7   4   6  1   
  8   4   7  1   
  9   5   8  1   
 10   5   9  1   
 11   5  10  1   
 12   6  24  1   
 13   7  11  1   
 14   7  25  1   
 15   7  26  1   
 16   8  11  1   
 17   9  12  1   
 18   9  27  1   
 19   9  28  1   
 20  10  13  1   
 21  10  29  1   
 22  10  30  1   
 23  11  31  1   
 24  11  32  1   
 25  12  14  1   
 26  12  33  1   
 27  12  34  1   
 28  13  14  1   
 29  13  35  1   
 30  13  36  1   
 31  14  15  1   
 32  15  16  ar  
 33  15  17  ar  
 34  16  18  ar  
 35  17  19  ar  
 36  17  37  1   
 37  18  20  ar  
 38  18  38  1   
 39  19  20  ar  
 40  19  21  1   
 41  20  39  1   
 42  21  22  3   
@<TRIPOS>SUBSTRUCTURE
  1 ****   9 GROUP 4 **** **** 0

# MOE 2024.06 (io_trps.svl 2023.06)
