@<TRIPOS>MOLECULE
NONAME
54 56 1 0 0 
SMALL
USER_CHARGES


@<TRIPOS>ATOM
  1 S       -1.0510    -0.4030     0.8730 S.3   1 <1>  -0.0800 
  2 C       -0.1170     0.6710    -0.1590 C.2   1 <1>  -0.1400 
  3 C       -1.2490    -1.5580    -0.4320 C.2   1 <1>  -0.1100 
  4 C        0.0160     0.1420    -1.3910 C.2   1 <1>  -0.1500 
  5 C        0.3900     1.9560     0.4590 C.3   1 <1>   0.5230 
  6 C       -0.6320    -1.1250    -1.5460 C.2   1 <1>  -0.1500 
  7 N       -0.5690     3.0560     0.1650 N.4   1 <1>  -0.9590 
  8 C        0.0240     4.3870     0.4640 C.3   1 <1>   0.3430 
  9 C       -1.8740     2.8610     0.8610 C.3   1 <1>   0.3430 
 10 C       -0.9250     5.4910    -0.0040 C.3   1 <1>  -0.1600 
 11 C       -2.8580     3.9380     0.4170 C.3   1 <1>  -0.1600 
 12 C       -2.3200     5.3660     0.6330 C.3   1 <1>  -0.0800 
 13 C       -3.2630     6.4340     0.0470 C.3   1 <1>   0.1400 
 14 N       -4.6060     6.3590     0.6660 N.am  1 <1>  -0.7300 
 15 C       -5.6660     5.7390     0.0990 C.2   1 <1>   0.6900 
 16 O       -5.5200     5.0310    -0.8780 O.2   1 <1>  -0.5700 
 17 N       -6.8790     5.9250     0.6610 N.am  1 <1>  -0.7300 
 18 C       -8.1430     5.3710     0.1430 C.3   1 <1>   0.2200 
 19 C       -9.0400     6.5110    -0.3580 C.3   1 <1>  -0.1600 
 20 C       -8.8370     4.5770     1.2480 C.3   1 <1>  -0.1600 
 21 C      -10.5340     6.1920    -0.1740 C.3   1 <1>   0.2000 
 22 C      -10.2010     4.0520     0.7650 C.3   1 <1>   0.1200 
 23 O      -10.7140     4.8200    -0.2880 O.3   1 <1>  -0.5600 
 24 C      -11.4090     6.8620    -1.2280 C.3   1 <1>  -0.2400 
 25 H       -1.8120    -2.4520    -0.2250 H     1 <1>   0.1500 
 26 H        0.5470     0.5770    -2.2210 H     1 <1>   0.1500 
 27 H        1.3490     2.1890     0.0270 H     1 <1>   0.0800 
 28 H        0.5150     1.8310     1.5220 H     1 <1>   0.0800 
 29 H       -0.6040    -1.6520    -2.4850 H     1 <1>   0.1500 
 30 H       -0.7720     3.0060    -0.8410 H     1 <1>   0.4500 
 31 H        0.9710     4.4940    -0.0410 H     1 <1>   0.0800 
 32 H        0.1910     4.4830     1.5250 H     1 <1>   0.0800 
 33 H       -1.7360     2.9150     1.9290 H     1 <1>   0.0800 
 34 H       -2.2870     1.8940     0.6200 H     1 <1>   0.0800 
 35 H       -1.0040     5.4540    -1.0770 H     1 <1>   0.0800 
 36 H       -0.4990     6.4450     0.2540 H     1 <1>   0.0800 
 37 H       -3.7690     3.8060     0.9740 H     1 <1>   0.0800 
 38 H       -3.1020     3.7870    -0.6210 H     1 <1>   0.0800 
 39 H       -2.2280     5.5470     1.6910 H     1 <1>   0.0800 
 40 H       -3.3560     6.2940    -1.0180 H     1 <1>   0.0800 
 41 H       -2.8590     7.4180     0.2130 H     1 <1>   0.0800 
 42 H       -4.7790     6.9810     1.4520 H     1 <1>   0.3700 
 43 H       -6.9670     6.5550     1.4510 H     1 <1>   0.3700 
 44 H       -7.9460     4.7020    -0.6800 H     1 <1>   0.0800 
 45 H       -8.8270     6.6710    -1.4000 H     1 <1>   0.0800 
 46 H       -8.8280     7.4260     0.1640 H     1 <1>   0.0800 
 47 H       -8.9930     5.2050     2.1060 H     1 <1>   0.0800 
 48 H       -8.2250     3.7460     1.5470 H     1 <1>   0.0800 
 49 H      -10.8640     6.4880     0.8090 H     1 <1>   0.0800 
 50 H      -10.9190     4.0550     1.5670 H     1 <1>   0.0800 
 51 H      -10.1030     3.0470     0.3940 H     1 <1>   0.0800 
 52 H      -11.1290     6.5280    -2.2110 H     1 <1>   0.0800 
 53 H      -11.2960     7.9290    -1.1780 H     1 <1>   0.0800 
 54 H      -12.4410     6.6180    -1.0520 H     1 <1>   0.0800 
@<TRIPOS>BOND
  1   1   2  1   
  2   1   3  1   
  3   2   4  2   
  4   2   5  1   
  5   3   6  2   
  6   3  25  1   
  7   4   6  1   
  8   4  26  1   
  9   5   7  1   
 10   5  27  1   
 11   5  28  1   
 12   6  29  1   
 13   7   8  1   
 14   7   9  1   
 15   7  30  1   
 16   8  10  1   
 17   8  31  1   
 18   8  32  1   
 19   9  11  1   
 20   9  33  1   
 21   9  34  1   
 22  10  12  1   
 23  10  35  1   
 24  10  36  1   
 25  11  12  1   
 26  11  37  1   
 27  11  38  1   
 28  12  13  1   
 29  12  39  1   
 30  13  14  1   
 31  13  40  1   
 32  13  41  1   
 33  14  15  am  
 34  14  42  1   
 35  15  16  2   
 36  15  17  am  
 37  17  18  1   
 38  17  43  1   
 39  18  19  1   
 40  18  20  1   
 41  18  44  1   
 42  19  21  1   
 43  19  45  1   
 44  19  46  1   
 45  20  22  1   
 46  20  47  1   
 47  20  48  1   
 48  21  23  1   
 49  21  24  1   
 50  21  49  1   
 51  22  23  1   
 52  22  50  1   
 53  22  51  1   
 54  24  52  1   
 55  24  53  1   
 56  24  54  1   
@<TRIPOS>SUBSTRUCTURE
  1 ****  11 GROUP 4 **** **** 0

# MOE 2024.06 (io_trps.svl 2023.06)
