@<TRIPOS>MOLECULE
NONAME
49 51 1 0 0 
SMALL
USER_CHARGES


@<TRIPOS>ATOM
  1 CL       1.3990     1.7450    -2.7870 Cl    1 <1>  -0.1770 
  2 C        2.0620     1.9790    -1.1800 C.ar  1 <1>   0.1770 
  3 C        2.3090     0.8770    -0.3540 C.ar  1 <1>   0.1000 
  4 C        2.3270     3.2700    -0.7780 C.ar  1 <1>  -0.1500 
  5 N        2.0430    -0.4290    -0.7620 N.pl3 1 <1>  -0.8380 
  6 C        2.8480     1.1400     0.9030 C.ar  1 <1>  -0.1500 
  7 C        2.8700     3.5310     0.4790 C.ar  1 <1>   0.0860 
  8 C        1.3760    -1.4040     0.1340 C.3   1 <1>   0.2090 
  9 C        3.0420    -1.1140    -1.6140 C.3   1 <1>   0.2090 
 10 C        3.1150     2.4340     1.3090 C.ar  1 <1>  -0.1500 
 11 C        3.1580     4.8870     0.8930 C.2   1 <1>   0.5440 
 12 C        2.2680    -2.6370     0.0950 C.3   1 <1>  -0.1600 
 13 C        2.8990    -2.5970    -1.2930 C.3   1 <1>  -0.1600 
 14 O        2.2940     5.7380     0.7820 O.2   1 <1>  -0.5700 
 15 N        4.3880     5.2630     1.3910 N.am  1 <1>  -0.6600 
 16 C        4.5710     6.5730     2.0900 C.3   1 <1>   0.3200 
 17 C        5.6270     4.4360     1.2780 C.3   1 <1>   0.0600 
 18 C        5.5660     7.4640     1.3620 C.2   1 <1>   0.0070 
 19 N        6.7350     7.7540     1.8270 N.2   1 <1>  -0.3380 
 20 N        5.3550     8.0430     0.1730 N.pl3 1 <1>   0.0480 
 21 N        7.3290     8.5460     0.9350 N.2   1 <1>  -0.3380 
 22 C        6.4950     8.7040    -0.0330 C.2   1 <1>   0.0360 
 23 C        4.1890     7.9860    -0.7340 C.3   1 <1>   0.0960 
 24 C        3.0900     8.9550    -0.2800 C.3   1 <1>  -0.1600 
 25 C        1.8760     8.8830    -1.2110 C.3   1 <1>  -0.2400 
 26 H        2.1100     4.0870    -1.4410 H     1 <1>   0.1500 
 27 H        3.0610     0.3180     1.5610 H     1 <1>   0.1500 
 28 H        0.4070    -1.6340    -0.2730 H     1 <1>   0.0800 
 29 H        1.2570    -1.0240     1.1340 H     1 <1>   0.0800 
 30 H        4.0300    -0.7660    -1.3620 H     1 <1>   0.0800 
 31 H        2.8460    -0.9170    -2.6550 H     1 <1>   0.0800 
 32 H        3.5210     2.6070     2.2910 H     1 <1>   0.1500 
 33 H        1.7110    -3.5400     0.2690 H     1 <1>   0.0800 
 34 H        3.0300    -2.5400     0.8480 H     1 <1>   0.0800 
 35 H        3.8450    -3.1070    -1.3310 H     1 <1>   0.0800 
 36 H        2.2320    -3.0430    -2.0100 H     1 <1>   0.0800 
 37 H        4.9400     6.3830     3.0820 H     1 <1>   0.0800 
 38 H        3.6350     7.0910     2.1930 H     1 <1>   0.0800 
 39 H        5.4800     3.6060     0.6100 H     1 <1>   0.0800 
 40 H        5.9060     4.0640     2.2480 H     1 <1>   0.0800 
 41 H        6.4380     5.0320     0.8920 H     1 <1>   0.0800 
 42 H        6.6830     9.2950    -0.9100 H     1 <1>   0.1500 
 43 H        3.8160     6.9800    -0.7600 H     1 <1>   0.0800 
 44 H        4.5130     8.2440    -1.7260 H     1 <1>   0.0800 
 45 H        3.4740     9.9610    -0.2730 H     1 <1>   0.0800 
 46 H        2.7730     8.7010     0.7170 H     1 <1>   0.0800 
 47 H        2.1500     9.1410    -2.2190 H     1 <1>   0.0800 
 48 H        1.1160     9.5670    -0.8770 H     1 <1>   0.0800 
 49 H        1.4610     7.8890    -1.2050 H     1 <1>   0.0800 
@<TRIPOS>BOND
  1   1   2  1   
  2   2   3  ar  
  3   2   4  ar  
  4   3   5  1   
  5   3   6  ar  
  6   4   7  ar  
  7   4  26  1   
  8   5   8  1   
  9   5   9  1   
 10   6  10  ar  
 11   6  27  1   
 12   7  10  ar  
 13   7  11  1   
 14   8  12  1   
 15   8  28  1   
 16   8  29  1   
 17   9  13  1   
 18   9  30  1   
 19   9  31  1   
 20  10  32  1   
 21  11  14  2   
 22  11  15  am  
 23  12  13  1   
 24  12  33  1   
 25  12  34  1   
 26  13  35  1   
 27  13  36  1   
 28  15  16  1   
 29  15  17  1   
 30  16  18  1   
 31  16  37  1   
 32  16  38  1   
 33  17  39  1   
 34  17  40  1   
 35  17  41  1   
 36  18  19  2   
 37  18  20  1   
 38  19  21  1   
 39  20  22  1   
 40  20  23  1   
 41  21  22  2   
 42  22  42  1   
 43  23  24  1   
 44  23  43  1   
 45  23  44  1   
 46  24  25  1   
 47  24  45  1   
 48  24  46  1   
 49  25  47  1   
 50  25  48  1   
 51  25  49  1   
@<TRIPOS>SUBSTRUCTURE
  1 ****   7 GROUP 4 **** **** 0

# MOE 2024.06 (io_trps.svl 2023.06)
