@<TRIPOS>MOLECULE
NONAME
42 43 1 0 0 
SMALL
USER_CHARGES


@<TRIPOS>ATOM
  1 S       -3.2790    -3.6390     3.1350 S.3   1 <1>  -0.4600 
  2 C       -2.6220    -2.9690     1.5690 C.3   1 <1>   0.2510 
  3 C       -2.1790    -2.9340     4.3920 C.3   1 <1>  -0.0100 
  4 C       -3.4580    -3.4430     0.3890 C.2   1 <1>   0.3350 
  5 N       -3.0970    -4.3390    -0.4430 N.2   1 <1>  -0.4100 
  6 N       -4.6500    -2.9230     0.1190 N.2   1 <1>  -0.5650 
  7 O       -4.0560    -4.4670    -1.3090 O.3   1 <1>  -0.0190 
  8 C       -4.9550    -3.5990    -0.9170 C.2   1 <1>   0.2980 
  9 C       -6.2480    -3.4810    -1.7100 C.3   1 <1>   0.3200 
 10 N       -6.9890    -4.7660    -1.7230 N.am  1 <1>  -0.7300 
 11 C       -7.2410    -5.5110    -2.8250 C.2   1 <1>   0.5690 
 12 O       -7.0130    -5.1030    -3.9380 O.2   1 <1>  -0.5700 
 13 C       -7.8280    -6.9140    -2.6360 C.3   1 <1>   0.1710 
 14 N       -7.5870    -7.5080    -1.2850 N.3   1 <1>  -0.8100 
 15 C       -8.4740    -8.6660    -1.0670 C.3   1 <1>   0.2530 
 16 C       -6.1690    -7.8850    -1.1190 C.3   1 <1>   0.0300 
 17 C       -8.3730    -9.1910     0.3610 C.ar  1 <1>  -0.1430 
 18 C       -8.1040   -10.5350     0.5940 C.ar  1 <1>  -0.1500 
 19 C       -8.5550    -8.3270     1.4340 C.ar  1 <1>  -0.1500 
 20 C       -8.0180   -11.0160     1.8900 C.ar  1 <1>  -0.1500 
 21 C       -8.4710    -8.7950     2.7350 C.ar  1 <1>  -0.1500 
 22 C       -8.2040   -10.1350     2.9370 C.ar  1 <1>   0.1900 
 23 F       -8.1250   -10.5850     4.1600 F     1 <1>  -0.1900 
 24 H       -1.6090    -3.3140     1.4760 H     1 <1>   0.0800 
 25 H       -2.6470    -1.8980     1.6410 H     1 <1>   0.0800 
 26 H       -2.5110    -3.2920     5.3510 H     1 <1>   0.0800 
 27 H       -2.2530    -1.8630     4.3390 H     1 <1>   0.0800 
 28 H       -1.1780    -3.2680     4.1860 H     1 <1>   0.0800 
 29 H       -6.0150    -3.1790    -2.7160 H     1 <1>   0.0800 
 30 H       -6.8680    -2.7230    -1.2650 H     1 <1>   0.0800 
 31 H       -7.1210    -5.2380    -0.8210 H     1 <1>   0.3700 
 32 H       -7.4250    -7.5590    -3.3960 H     1 <1>   0.0800 
 33 H       -8.8860    -6.8290    -2.8030 H     1 <1>   0.0800 
 34 H       -8.2300    -9.4460    -1.7680 H     1 <1>   0.0800 
 35 H       -9.4940    -8.3690    -1.2400 H     1 <1>   0.0800 
 36 H       -5.5280    -7.0370    -1.2920 H     1 <1>   0.0800 
 37 H       -5.9010    -8.6670    -1.8090 H     1 <1>   0.0800 
 38 H       -5.9910    -8.2300    -0.1150 H     1 <1>   0.0800 
 39 H       -7.9600   -11.2120    -0.2300 H     1 <1>   0.1500 
 40 H       -8.7560    -7.2850     1.2510 H     1 <1>   0.1500 
 41 H       -7.8120   -12.0520     2.0890 H     1 <1>   0.1500 
 42 H       -8.6060    -8.1370     3.5740 H     1 <1>   0.1500 
@<TRIPOS>BOND
  1   1   2  1   
  2   1   3  1   
  3   2   4  1   
  4   2  24  1   
  5   2  25  1   
  6   3  26  1   
  7   3  27  1   
  8   3  28  1   
  9   4   5  2   
 10   4   6  1   
 11   5   7  1   
 12   6   8  2   
 13   7   8  1   
 14   8   9  1   
 15   9  10  1   
 16   9  29  1   
 17   9  30  1   
 18  10  11  am  
 19  10  31  1   
 20  11  12  2   
 21  11  13  1   
 22  13  14  1   
 23  13  32  1   
 24  13  33  1   
 25  14  15  1   
 26  14  16  1   
 27  15  17  1   
 28  15  34  1   
 29  15  35  1   
 30  16  36  1   
 31  16  37  1   
 32  16  38  1   
 33  17  18  ar  
 34  17  19  ar  
 35  18  20  ar  
 36  18  39  1   
 37  19  21  ar  
 38  19  40  1   
 39  20  22  ar  
 40  20  41  1   
 41  21  22  ar  
 42  21  42  1   
 43  22  23  1   
@<TRIPOS>SUBSTRUCTURE
  1 ****  16 GROUP 4 **** **** 0

# MOE 2024.06 (io_trps.svl 2023.06)
