@<TRIPOS>MOLECULE
NONAME
25 25 1 0 0 
SMALL
USER_CHARGES


@<TRIPOS>ATOM
  1 O        0.1110    -0.8000     0.6460 O.3   1 <1>  -0.3630 
  2 C       -0.0220    -1.8970    -0.1290 C.ar  1 <1>   0.3920 
  3 C        1.2000     0.0890     0.5370 C.3   1 <1>   0.0400 
  4 N       -1.1100    -2.6050     0.1240 N.ar  1 <1>  -0.6200 
  5 C        0.9110    -2.2400    -1.1030 C.ar  1 <1>  -0.1500 
  6 C       -1.3140    -3.7030    -0.5980 C.ar  1 <1>   0.1660 
  7 C        0.7100    -3.3730    -1.8550 C.ar  1 <1>  -0.1500 
  8 C       -0.4240    -4.1110    -1.5920 C.ar  1 <1>  -0.1500 
  9 C       -2.6040    -4.4930    -0.2580 C.3   1 <1>   0.3440 
 10 C       -2.7630    -5.7180    -1.1130 C.1   1 <1>   0.3570 
 11 C       -3.8400    -3.5960    -0.4750 C.3   1 <1>  -0.2400 
 12 C       -2.5710    -4.9420     1.2170 C.3   1 <1>  -0.2400 
 13 N       -2.8780    -6.6450    -1.7650 N.1   1 <1>  -0.5570 
 14 H        1.0640     0.8710     1.2630 H     1 <1>   0.0800 
 15 H        1.2110     0.5090    -0.4530 H     1 <1>   0.0800 
 16 H        2.1100    -0.4450     0.7440 H     1 <1>   0.0800 
 17 H        1.7820    -1.6420    -1.2800 H     1 <1>   0.1500 
 18 H        1.4070    -3.6740    -2.6190 H     1 <1>   0.1500 
 19 H       -0.5850    -4.9980    -2.1780 H     1 <1>   0.1500 
 20 H       -3.8730    -3.2520    -1.4930 H     1 <1>   0.0800 
 21 H       -3.7990    -2.7360     0.1700 H     1 <1>   0.0800 
 22 H       -4.7460    -4.1370    -0.2640 H     1 <1>   0.0800 
 23 H       -1.7040    -5.5520     1.3980 H     1 <1>   0.0800 
 24 H       -3.4510    -5.5110     1.4630 H     1 <1>   0.0800 
 25 H       -2.5240    -4.0880     1.8700 H     1 <1>   0.0800 
@<TRIPOS>BOND
  1   1   2  1   
  2   1   3  1   
  3   2   4  ar  
  4   2   5  ar  
  5   3  14  1   
  6   3  15  1   
  7   3  16  1   
  8   4   6  ar  
  9   5   7  ar  
 10   5  17  1   
 11   6   8  ar  
 12   6   9  1   
 13   7   8  ar  
 14   7  18  1   
 15   8  19  1   
 16   9  10  1   
 17   9  11  1   
 18   9  12  1   
 19  10  13  3   
 20  11  20  1   
 21  11  21  1   
 22  11  22  1   
 23  12  23  1   
 24  12  24  1   
 25  12  25  1   
@<TRIPOS>SUBSTRUCTURE
  1 ****   6 GROUP 4 **** **** 0

# MOE 2024.06 (io_trps.svl 2023.06)
