@<TRIPOS>MOLECULE
NONAME
52 54 1 0 0 
SMALL
USER_CHARGES


@<TRIPOS>ATOM
  1 O       -0.8200     0.8220     0.3320 O.2   1 <1>  -0.5700 
  2 C       -0.7270     2.0270     0.3220 C.2   1 <1>   0.5690 
  3 N       -1.7220     2.8440     0.7850 N.am  1 <1>  -0.6600 
  4 C        0.5450     2.6420    -0.2640 C.3   1 <1>   0.1810 
  5 C       -1.5910     4.3380     0.7300 C.3   1 <1>   0.3640 
  6 C       -2.9300     2.3180     1.4820 C.3   1 <1>   0.0600 
  7 O        0.7810     3.9550     0.1830 O.3   1 <1>  -0.5600 
  8 C       -2.8420     4.9820     0.1050 C.ar  1 <1>  -0.1440 
  9 C       -0.3130     4.8400     0.0040 C.3   1 <1>   0.2610 
 10 C       -3.4240     4.5930    -1.1080 C.ar  1 <1>  -0.1440 
 11 C       -3.4150     6.0330     0.8130 C.ar  1 <1>  -0.1500 
 12 C        0.0830     6.2680     0.4320 C.2   1 <1>   0.5690 
 13 C       -4.5510     5.2610    -1.5670 C.ar  1 <1>  -0.1500 
 14 C       -2.9060     3.4490    -1.9740 C.3   1 <1>  -0.0960 
 15 C       -4.5360     6.6900     0.3440 C.ar  1 <1>  -0.1500 
 16 O       -0.3890     6.7230     1.4510 O.2   1 <1>  -0.5700 
 17 N        0.9680     7.0150    -0.3210 N.am  1 <1>  -0.6600 
 18 C       -5.1060     6.3030    -0.8510 C.ar  1 <1>  -0.1500 
 19 C        1.7610     6.4870    -1.4650 C.3   1 <1>   0.1400 
 20 C        1.3760     8.3820     0.1100 C.3   1 <1>   0.1400 
 21 C        3.2340     6.4180    -1.0540 C.3   1 <1>  -0.1600 
 22 C        2.8470     8.3550     0.5330 C.3   1 <1>  -0.1600 
 23 C        3.7710     7.7640    -0.5460 C.3   1 <1>   0.2800 
 24 O        3.7780     8.6440    -1.6200 O.3   1 <1>  -0.6800 
 25 C        5.2220     7.6210    -0.0340 C.3   1 <1>   0.1200 
 26 O        5.7860     8.8710     0.1890 O.3   1 <1>  -0.6800 
 27 H        0.4790     2.6520    -1.3360 H     1 <1>   0.0800 
 28 H        1.3890     2.0440     0.0260 H     1 <1>   0.0800 
 29 H       -1.5260     4.6560     1.7560 H     1 <1>   0.0800 
 30 H       -2.9960     2.7420     2.4690 H     1 <1>   0.0800 
 31 H       -2.8820     1.2460     1.5720 H     1 <1>   0.0800 
 32 H       -3.8170     2.5760     0.9300 H     1 <1>   0.0800 
 33 H       -0.5220     4.8800    -1.0460 H     1 <1>   0.0800 
 34 H       -2.9860     6.3580     1.7460 H     1 <1>   0.1500 
 35 H       -5.0140     4.9710    -2.4940 H     1 <1>   0.1500 
 36 H       -3.3340     3.4900    -2.9600 H     1 <1>   0.0800 
 37 H       -3.1770     2.5060    -1.5350 H     1 <1>   0.0800 
 38 H       -1.8420     3.4880    -2.0830 H     1 <1>   0.0800 
 39 H       -4.9600     7.5020     0.9080 H     1 <1>   0.1500 
 40 H       -5.9790     6.8110    -1.2220 H     1 <1>   0.1500 
 41 H        1.4310     5.5080    -1.7590 H     1 <1>   0.0800 
 42 H        1.6400     7.1400    -2.3120 H     1 <1>   0.0800 
 43 H        1.2290     9.0710    -0.7030 H     1 <1>   0.0800 
 44 H        0.7730     8.7230     0.9350 H     1 <1>   0.0800 
 45 H        3.8280     6.0790    -1.8830 H     1 <1>   0.0800 
 46 H        3.3250     5.6830    -0.2720 H     1 <1>   0.0800 
 47 H        2.9230     7.7590     1.4240 H     1 <1>   0.0800 
 48 H        3.1710     9.3480     0.7910 H     1 <1>   0.0800 
 49 H        2.8610     8.8160    -1.9010 H     1 <1>   0.4000 
 50 H        5.8250     7.1140    -0.7670 H     1 <1>   0.0800 
 51 H        5.2560     7.0660     0.8870 H     1 <1>   0.0800 
 52 H        5.5410     9.4400    -0.5720 H     1 <1>   0.4000 
@<TRIPOS>BOND
  1   1   2  2   
  2   2   3  am  
  3   2   4  1   
  4   3   5  1   
  5   3   6  1   
  6   4   7  1   
  7   4  27  1   
  8   4  28  1   
  9   5   8  1   
 10   5   9  1   
 11   5  29  1   
 12   6  30  1   
 13   6  31  1   
 14   6  32  1   
 15   7   9  1   
 16   8  10  ar  
 17   8  11  ar  
 18   9  12  1   
 19   9  33  1   
 20  10  13  ar  
 21  10  14  1   
 22  11  15  ar  
 23  11  34  1   
 24  12  16  2   
 25  12  17  am  
 26  13  18  ar  
 27  13  35  1   
 28  14  36  1   
 29  14  37  1   
 30  14  38  1   
 31  15  18  ar  
 32  15  39  1   
 33  17  19  1   
 34  17  20  1   
 35  18  40  1   
 36  19  21  1   
 37  19  41  1   
 38  19  42  1   
 39  20  22  1   
 40  20  43  1   
 41  20  44  1   
 42  21  23  1   
 43  21  45  1   
 44  21  46  1   
 45  22  23  1   
 46  22  47  1   
 47  22  48  1   
 48  23  24  1   
 49  23  25  1   
 50  24  49  1   
 51  25  26  1   
 52  25  50  1   
 53  25  51  1   
 54  26  52  1   
@<TRIPOS>SUBSTRUCTURE
  1 ****   9 GROUP 4 **** **** 0

# MOE 2024.06 (io_trps.svl 2023.06)
