@<TRIPOS>MOLECULE
NONAME
45 47 1 0 0 
SMALL
USER_CHARGES


@<TRIPOS>ATOM
  1 O        3.9640     0.9670    -4.8590 O.co2 1 <1>  -0.9030 
  2 C        4.5370    -0.0570    -4.4570 C.2   1 <1>   0.9770 
  3 O        4.6600    -1.0370    -5.2050 O.co2 1 <1>  -0.9030 
  4 C        5.0580    -0.0980    -3.1100 C.ar  1 <1>  -0.1870 
  5 C        5.6880    -1.2610    -2.6350 C.ar  1 <1>   0.1520 
  6 C        4.9510     0.9940    -2.2610 C.ar  1 <1>  -0.1180 
  7 N        6.2030    -1.4230    -1.4270 N.ar  1 <1>  -0.5840 
  8 C        5.4800     0.8390    -1.0000 C.ar  1 <1>   0.3020 
  9 C        6.0780    -0.3560    -0.6510 C.ar  1 <1>   0.6140 
 10 N        5.5810     1.6650     0.0970 N.pl3 1 <1>  -0.7040 
 11 N        6.5370    -0.2370     0.6420 N.pl3 1 <1>  -0.7680 
 12 C        6.2340     1.0070     1.0560 C.cat 1 <1>   1.0680 
 13 C        7.5070    -1.2140     1.1810 C.3   1 <1>   0.3470 
 14 N        6.5270     1.5570     2.2590 N.pl3 1 <1>  -0.5970 
 15 C        8.9230    -0.6920     0.9580 C.3   1 <1>  -0.2480 
 16 C        6.7680     3.0320     2.4250 C.3   1 <1>   0.3410 
 17 C        6.6860     0.7820     3.5220 C.3   1 <1>   0.0790 
 18 C        7.5380     3.6480     1.2600 C.2   1 <1>   0.2910 
 19 O        7.3380     4.9100     0.9850 O.3   1 <1>  -0.0290 
 20 N        8.3360     3.0350     0.4810 N.2   1 <1>  -0.5710 
 21 N        8.0490     5.1100    -0.0810 N.2   1 <1>  -0.4160 
 22 C        8.6290     4.0130    -0.3650 C.2   1 <1>   0.3280 
 23 C        9.5440     3.7790    -1.5530 C.3   1 <1>   0.0120 
 24 C        8.9370     2.7730    -2.5440 C.3   1 <1>  -0.1680 
 25 C        9.8550     2.5410    -3.7480 C.3   1 <1>  -0.2480 
 26 H        5.7580    -2.0960    -3.3180 H     1 <1>   0.1420 
 27 H        4.4790     1.9080    -2.5830 H     1 <1>   0.1420 
 28 H        5.3000     2.6410     0.1020 H     1 <1>   0.4440 
 29 H        7.3940    -2.1620     0.6790 H     1 <1>   0.0710 
 30 H        7.3340    -1.3910     2.2250 H     1 <1>   0.0710 
 31 H        9.1060    -0.5500    -0.0930 H     1 <1>   0.0710 
 32 H        9.6330    -1.4090     1.3270 H     1 <1>   0.0710 
 33 H        9.0810     0.2370     1.4750 H     1 <1>   0.0710 
 34 H        7.3370     3.2100     3.3210 H     1 <1>   0.0710 
 35 H        5.8210     3.5320     2.5300 H     1 <1>   0.0710 
 36 H        6.1370    -0.1430     3.4690 H     1 <1>   0.0710 
 37 H        6.2960     1.3440     4.3550 H     1 <1>   0.0710 
 38 H        7.7280     0.5750     3.7000 H     1 <1>   0.0710 
 39 H       10.4890     3.4130    -1.1940 H     1 <1>   0.0710 
 40 H        9.7170     4.7170    -2.0510 H     1 <1>   0.0710 
 41 H        7.9870     3.1430    -2.8920 H     1 <1>   0.0710 
 42 H        8.7670     1.8340    -2.0470 H     1 <1>   0.0710 
 43 H       10.0210     3.4620    -4.2790 H     1 <1>   0.0710 
 44 H        9.4010     1.8360    -4.4230 H     1 <1>   0.0710 
 45 H       10.8040     2.1460    -3.4300 H     1 <1>   0.0710 
@<TRIPOS>BOND
  1   1   2  ar  
  2   2   3  ar  
  3   2   4  1   
  4   4   5  ar  
  5   4   6  ar  
  6   5   7  ar  
  7   5  26  1   
  8   6   8  ar  
  9   6  27  1   
 10   7   9  ar  
 11   8   9  ar  
 12   8  10  1   
 13   9  11  1   
 14  10  12  ar  
 15  10  28  1   
 16  11  12  ar  
 17  11  13  1   
 18  12  14  ar  
 19  13  15  1   
 20  13  29  1   
 21  13  30  1   
 22  14  16  1   
 23  14  17  1   
 24  15  31  1   
 25  15  32  1   
 26  15  33  1   
 27  16  18  1   
 28  16  34  1   
 29  16  35  1   
 30  17  36  1   
 31  17  37  1   
 32  17  38  1   
 33  18  19  1   
 34  18  20  2   
 35  19  21  1   
 36  20  22  1   
 37  21  22  2   
 38  22  23  1   
 39  23  24  1   
 40  23  39  1   
 41  23  40  1   
 42  24  25  1   
 43  24  41  1   
 44  24  42  1   
 45  25  43  1   
 46  25  44  1   
 47  25  45  1   
@<TRIPOS>SUBSTRUCTURE
  1 ****   8 GROUP 4 **** **** 0

# MOE 2024.06 (io_trps.svl 2023.06)
