@<TRIPOS>MOLECULE
NONAME
40 42 1 0 0 
SMALL
USER_CHARGES


@<TRIPOS>ATOM
  1 F       -0.2020    -0.6460     0.8850 F     1 <1>  -0.3400 
  2 C        0.4280    -1.5010     0.0920 C.3   1 <1>   0.7800 
  3 F        0.4430    -0.9070    -1.0920 F     1 <1>  -0.3400 
  4 C       -0.3820    -2.7730    -0.0050 C.2   1 <1>  -0.3320 
  5 N       -1.6530    -2.7640    -0.4350 N.pl3 1 <1>   0.3000 
  6 C       -0.0790    -4.0570     0.2720 C.2   1 <1>  -0.1500 
  7 N       -2.1850    -3.9950    -0.4460 N.2   1 <1>  -0.7070 
  8 C       -1.2300    -4.8060    -0.0130 C.2   1 <1>   0.2030 
  9 C       -1.2830    -6.2590     0.1640 C.2   1 <1>   0.7160 
 10 O       -0.2740    -6.8560     0.5090 O.2   1 <1>  -0.5700 
 11 N       -2.4210    -7.0220    -0.0280 N.am  1 <1>  -0.6600 
 12 C       -3.7850    -6.5140    -0.3240 C.3   1 <1>   0.1400 
 13 C       -2.4230    -8.5070     0.0080 C.3   1 <1>   0.1400 
 14 C       -4.7050    -7.6910    -0.0040 C.3   1 <1>   0.2000 
 15 C       -3.8540    -8.9160    -0.3540 C.3   1 <1>  -0.0800 
 16 O       -4.9580    -7.6770     1.3600 O.3   1 <1>  -0.6800 
 17 C       -4.3030   -10.2410     0.2880 C.3   1 <1>   0.0210 
 18 C       -3.3910   -11.3790    -0.1280 C.2   1 <1>   0.1080 
 19 N       -3.3150   -11.8100    -1.3480 N.2   1 <1>  -0.7070 
 20 C       -2.5420   -12.0720     0.7290 C.2   1 <1>  -0.1500 
 21 N       -2.4070   -12.8020    -1.3020 N.pl3 1 <1>   0.3000 
 22 C       -1.9220   -12.9790    -0.0550 C.2   1 <1>  -0.3320 
 23 C       -0.8820   -14.0190     0.3170 C.3   1 <1>  -0.0600 
 24 H        1.4400    -1.6210     0.4380 H     1 <1>   0.0800 
 25 H       -2.1760    -1.9260    -0.7270 H     1 <1>   0.2700 
 26 H        0.8420    -4.4790     0.6380 H     1 <1>   0.1500 
 27 H       -4.0350    -5.6500     0.2670 H     1 <1>   0.0800 
 28 H       -3.8460    -6.2660    -1.3700 H     1 <1>   0.0800 
 29 H       -1.7120    -8.9090    -0.6940 H     1 <1>   0.0800 
 30 H       -2.1650    -8.8350     1.0010 H     1 <1>   0.0800 
 31 H       -5.6440    -7.6550    -0.5300 H     1 <1>   0.0800 
 32 H       -3.8860    -9.0410    -1.4230 H     1 <1>   0.0800 
 33 H       -4.1140    -7.5110     1.8270 H     1 <1>   0.4000 
 34 H       -5.3050   -10.4700    -0.0250 H     1 <1>   0.0800 
 35 H       -4.2990   -10.1640     1.3600 H     1 <1>   0.0800 
 36 H       -2.4250   -11.8990     1.7830 H     1 <1>   0.1500 
 37 H       -2.1410   -13.3390    -2.1370 H     1 <1>   0.2700 
 38 H       -0.6610   -13.9610     1.3680 H     1 <1>   0.0800 
 39 H        0.0260   -13.8510    -0.2330 H     1 <1>   0.0800 
 40 H       -1.2490   -15.0060     0.0990 H     1 <1>   0.0800 
@<TRIPOS>BOND
  1   1   2  1   
  2   2   3  1   
  3   2   4  1   
  4   2  24  1   
  5   4   5  1   
  6   4   6  2   
  7   5   7  1   
  8   5  25  1   
  9   6   8  1   
 10   6  26  1   
 11   7   8  2   
 12   8   9  1   
 13   9  10  2   
 14   9  11  am  
 15  11  12  1   
 16  11  13  1   
 17  12  14  1   
 18  12  27  1   
 19  12  28  1   
 20  13  15  1   
 21  13  29  1   
 22  13  30  1   
 23  14  15  1   
 24  14  16  1   
 25  14  31  1   
 26  15  17  1   
 27  15  32  1   
 28  16  33  1   
 29  17  18  1   
 30  17  34  1   
 31  17  35  1   
 32  18  19  2   
 33  18  20  1   
 34  19  21  1   
 35  20  22  2   
 36  20  36  1   
 37  21  22  1   
 38  21  37  1   
 39  22  23  1   
 40  23  38  1   
 41  23  39  1   
 42  23  40  1   
@<TRIPOS>SUBSTRUCTURE
  1 ****  11 GROUP 4 **** **** 0

# MOE 2024.06 (io_trps.svl 2023.06)
