@<TRIPOS>MOLECULE
NONAME
47 48 1 0 0 
SMALL
USER_CHARGES


@<TRIPOS>ATOM
  1 O        0.9400     0.1430     1.4050 O.3   1 <1>  -0.0320 
  2 N        0.4780     0.6500     0.1570 N.4   1 <1>  -0.7040 
  3 C        1.7690    -1.0050     1.4110 C.3   1 <1>   0.3430 
  4 C        1.3260     1.8060    -0.3400 C.3   1 <1>   0.5030 
  5 C       -1.0190     0.8630     0.2190 C.3   1 <1>   0.5030 
  6 C        1.1860    -2.1310     0.5510 C.ar  1 <1>  -0.1440 
  7 C        1.9930    -1.4100     2.8700 C.3   1 <1>  -0.2400 
  8 C        0.7140     2.4180    -1.6170 C.3   1 <1>  -0.1600 
  9 C        2.7180     1.2960    -0.7350 C.3   1 <1>  -0.2400 
 10 C        1.5390     2.8940     0.7280 C.3   1 <1>  -0.2400 
 11 C       -1.5330     1.4980    -1.0870 C.3   1 <1>  -0.1600 
 12 C       -1.7000    -0.5020     0.3430 C.3   1 <1>  -0.2400 
 13 C       -1.4670     1.6960     1.4340 C.3   1 <1>  -0.2400 
 14 C        0.1880    -2.9770     1.0220 C.ar  1 <1>  -0.1500 
 15 C        1.6750    -2.3320    -0.7340 C.ar  1 <1>  -0.1500 
 16 C       -0.7720     2.7560    -1.5060 C.3   1 <1>  -0.1600 
 17 C       -0.3320    -3.9740     0.2150 C.ar  1 <1>  -0.1500 
 18 C        1.1530    -3.3260    -1.5430 C.ar  1 <1>  -0.1500 
 19 C        0.1450    -4.1450    -1.0700 C.ar  1 <1>  -0.1500 
 20 H        0.5890    -0.1110    -0.5220 H     1 <1>   0.4500 
 21 H        2.7240    -0.7320     1.0100 H     1 <1>   0.0800 
 22 H        1.0610    -1.5740     3.3780 H     1 <1>   0.0800 
 23 H        2.5420    -0.6420     3.3850 H     1 <1>   0.0800 
 24 H        2.5700    -2.3170     2.9090 H     1 <1>   0.0800 
 25 H        0.8430     1.7320    -2.4370 H     1 <1>   0.0800 
 26 H        1.2520     3.3140    -1.8790 H     1 <1>   0.0800 
 27 H        2.6550     0.4600    -1.4030 H     1 <1>   0.0800 
 28 H        3.3080     1.0470     0.1260 H     1 <1>   0.0800 
 29 H        3.2570     2.0730    -1.2490 H     1 <1>   0.0800 
 30 H        0.6650     3.4850     0.8960 H     1 <1>   0.0800 
 31 H        2.2990     3.5800     0.3990 H     1 <1>   0.0800 
 32 H        1.8700     2.4760     1.6610 H     1 <1>   0.0800 
 33 H       -2.5760     1.7440    -0.9810 H     1 <1>   0.0800 
 34 H       -1.4670     0.7780    -1.8850 H     1 <1>   0.0800 
 35 H       -1.3810    -1.1710    -0.4360 H     1 <1>   0.0800 
 36 H       -2.7670    -0.3950     0.2620 H     1 <1>   0.0800 
 37 H       -1.5020    -0.9390     1.3030 H     1 <1>   0.0800 
 38 H       -1.2300     2.7330     1.3370 H     1 <1>   0.0800 
 39 H       -1.0510     1.3210     2.3510 H     1 <1>   0.0800 
 40 H       -2.5380     1.6460     1.5280 H     1 <1>   0.0800 
 41 H       -0.2040    -2.8760     2.0190 H     1 <1>   0.1500 
 42 H        2.4790    -1.7350    -1.1230 H     1 <1>   0.1500 
 43 H       -1.1370     3.0960    -2.4610 H     1 <1>   0.0800 
 44 H       -0.9320     3.5530    -0.8010 H     1 <1>   0.0800 
 45 H       -1.1080    -4.6220     0.5890 H     1 <1>   0.1500 
 46 H        1.5360    -3.4740    -2.5390 H     1 <1>   0.1500 
 47 H       -0.2600    -4.9210    -1.6970 H     1 <1>   0.1500 
@<TRIPOS>BOND
  1   1   2  1   
  2   1   3  1   
  3   2   4  1   
  4   2   5  1   
  5   2  20  1   
  6   3   6  1   
  7   3   7  1   
  8   3  21  1   
  9   4   8  1   
 10   4   9  1   
 11   4  10  1   
 12   5  11  1   
 13   5  12  1   
 14   5  13  1   
 15   6  14  ar  
 16   6  15  ar  
 17   7  22  1   
 18   7  23  1   
 19   7  24  1   
 20   8  16  1   
 21   8  25  1   
 22   8  26  1   
 23   9  27  1   
 24   9  28  1   
 25   9  29  1   
 26  10  30  1   
 27  10  31  1   
 28  10  32  1   
 29  11  16  1   
 30  11  33  1   
 31  11  34  1   
 32  12  35  1   
 33  12  36  1   
 34  12  37  1   
 35  13  38  1   
 36  13  39  1   
 37  13  40  1   
 38  14  17  ar  
 39  14  41  1   
 40  15  18  ar  
 41  15  42  1   
 42  16  43  1   
 43  16  44  1   
 44  17  19  ar  
 45  17  45  1   
 46  18  19  ar  
 47  18  46  1   
 48  19  47  1   
@<TRIPOS>SUBSTRUCTURE
  1 ****   2 GROUP 4 **** **** 0

# MOE 2024.06 (io_trps.svl 2023.06)
