@<TRIPOS>MOLECULE
NONAME
43 46 1 0 0 
SMALL
USER_CHARGES


@<TRIPOS>ATOM
  1 O       -2.0660     1.0460    -1.6940 O.2   1 <1>  -0.5700 
  2 C       -1.8250     0.9900    -0.5000 C.2   1 <1>   0.7160 
  3 N       -1.9590    -0.2110     0.1340 N.am  1 <1>  -0.7300 
  4 C       -1.4150     2.1560     0.2660 C.2   1 <1>   0.2030 
  5 C       -2.4300    -1.4750    -0.4680 C.3   1 <1>   0.2200 
  6 N       -1.1870     2.1760     1.5700 N.2   1 <1>  -0.7070 
  7 C       -1.2060     3.4300    -0.2790 C.2   1 <1>  -0.1500 
  8 C       -3.8690    -1.7170    -0.0500 C.3   1 <1>  -0.0800 
  9 C       -1.7020    -2.6610     0.1640 C.3   1 <1>   0.1200 
 10 N       -0.8360     3.4420     1.8450 N.pl3 1 <1>   0.3000 
 11 C       -0.8400     4.2210     0.7470 C.2   1 <1>  -0.2370 
 12 C       -3.6840    -2.3860     1.3130 C.3   1 <1>   0.1200 
 13 C       -4.6040    -2.6280    -1.0510 C.3   1 <1>  -0.0160 
 14 O       -2.4760    -3.0840     1.2500 O.3   1 <1>  -0.5600 
 15 C       -0.4850     5.6930     0.7690 C.3   1 <1>  -0.0150 
 16 C       -6.0530    -2.8450    -0.6410 C.ar  1 <1>  -0.1430 
 17 C        0.1710     6.3240    -0.4160 C.3   1 <1>  -0.2000 
 18 C        0.9500     6.1020     0.8470 C.3   1 <1>  -0.2000 
 19 C       -6.4880    -4.0290    -0.0820 C.ar  1 <1>  -0.1500 
 20 C       -7.0070    -1.8620    -0.8080 C.ar  1 <1>  -0.1500 
 21 C       -7.8180    -4.1670     0.2780 C.ar  1 <1>   0.1600 
 22 C       -8.3130    -2.1010    -0.4130 C.ar  1 <1>   0.1600 
 23 N       -8.7410    -3.2310     0.1280 N.ar  1 <1>  -0.6200 
 24 H       -1.7760    -0.2120     1.1420 H     1 <1>   0.3700 
 25 H       -2.2990    -1.4460    -1.5370 H     1 <1>   0.0800 
 26 H       -1.3260     3.6810    -1.3180 H     1 <1>   0.1500 
 27 H       -4.4110    -0.7920     0.0430 H     1 <1>   0.0800 
 28 H       -0.7140    -2.4040     0.5040 H     1 <1>   0.0800 
 29 H       -1.6460    -3.4820    -0.5290 H     1 <1>   0.0800 
 30 H       -0.5920     3.7590     2.7910 H     1 <1>   0.2700 
 31 H       -4.4750    -3.0680     1.5670 H     1 <1>   0.0800 
 32 H       -3.5890    -1.6440     2.0870 H     1 <1>   0.0800 
 33 H       -4.1040    -3.5780    -1.1280 H     1 <1>   0.0800 
 34 H       -4.5880    -2.1720    -2.0260 H     1 <1>   0.0800 
 35 H       -1.2070     6.2890     1.3010 H     1 <1>   0.1000 
 36 H        0.3980     5.7140    -1.2730 H     1 <1>   0.1000 
 37 H       -0.1110     7.3270    -0.6860 H     1 <1>   0.1000 
 38 H        1.2150     6.9550     1.4470 H     1 <1>   0.1000 
 39 H        1.7100     5.3400     0.8480 H     1 <1>   0.1000 
 40 H       -5.8060    -4.8440     0.0800 H     1 <1>   0.1500 
 41 H       -6.7480    -0.9120    -1.2390 H     1 <1>   0.1500 
 42 H       -8.1400    -5.0980     0.7140 H     1 <1>   0.1500 
 43 H       -9.0430    -1.3230    -0.5490 H     1 <1>   0.1500 
@<TRIPOS>BOND
  1   1   2  2   
  2   2   3  am  
  3   2   4  1   
  4   3   5  1   
  5   3  24  1   
  6   4   6  2   
  7   4   7  1   
  8   5   8  1   
  9   5   9  1   
 10   5  25  1   
 11   6  10  1   
 12   7  11  2   
 13   7  26  1   
 14   8  12  1   
 15   8  13  1   
 16   8  27  1   
 17   9  14  1   
 18   9  28  1   
 19   9  29  1   
 20  10  11  1   
 21  10  30  1   
 22  11  15  1   
 23  12  14  1   
 24  12  31  1   
 25  12  32  1   
 26  13  16  1   
 27  13  33  1   
 28  13  34  1   
 29  15  17  1   
 30  15  18  1   
 31  15  35  1   
 32  16  19  ar  
 33  16  20  ar  
 34  17  18  1   
 35  17  36  1   
 36  17  37  1   
 37  18  38  1   
 38  18  39  1   
 39  19  21  ar  
 40  19  40  1   
 41  20  22  ar  
 42  20  41  1   
 43  21  23  ar  
 44  21  42  1   
 45  22  23  ar  
 46  22  43  1   
@<TRIPOS>SUBSTRUCTURE
  1 ****   3 GROUP 4 **** **** 0

# MOE 2024.06 (io_trps.svl 2023.06)
