@<TRIPOS>MOLECULE
NONAME
44 46 1 0 0 
SMALL
USER_CHARGES


@<TRIPOS>ATOM
  1 S        0.4330     0.1960     0.0210 S.o2  1 <1>   1.3330 
  2 O        0.2700    -0.9080    -0.8980 O.2   1 <1>  -0.6500 
  3 O        0.4940    -0.0640     1.4420 O.2   1 <1>  -0.6500 
  4 N       -0.8240     1.3030    -0.2490 N.am  1 <1>  -0.8490 
  5 C        1.8970     1.1050    -0.4640 C.3   1 <1>  -0.0550 
  6 C       -0.9530     2.3110     0.8080 C.3   1 <1>   0.1160 
  7 C       -2.1100     0.6350    -0.4630 C.3   1 <1>   0.1160 
  8 C        3.1720     0.2380    -0.4830 C.3   1 <1>  -0.0800 
  9 C        4.4370     0.9610    -0.9210 C.3   1 <1>   0.2200 
 10 C        3.5740    -0.3550     0.8740 C.3   1 <1>   0.1200 
 11 N        4.5340     2.2930    -0.2750 N.am  1 <1>  -0.7300 
 12 C        5.4930     0.0510    -0.3130 C.3   1 <1>   0.1200 
 13 O        4.9730    -0.3210     0.9270 O.3   1 <1>  -0.5600 
 14 C        4.2040     3.4840    -0.8550 C.2   1 <1>   0.5440 
 15 O        3.7470     3.4550    -1.9810 O.2   1 <1>  -0.5700 
 16 C        4.3740     4.7420    -0.1470 C.ar  1 <1>   0.0860 
 17 C        4.4250     5.9490    -0.8540 C.ar  1 <1>  -0.1500 
 18 C        4.4870     4.7980     1.2540 C.ar  1 <1>  -0.1500 
 19 C        4.5880     7.1320    -0.1660 C.ar  1 <1>   0.0820 
 20 C        4.6510     5.9960     1.9350 C.ar  1 <1>  -0.1500 
 21 O        4.6620     8.3750    -0.6550 O.3   1 <1>  -0.3630 
 22 C        4.7000     7.1580     1.1930 C.ar  1 <1>   0.0820 
 23 C        4.8320     9.2460     0.4620 C.3   1 <1>   0.4000 
 24 O        4.8480     8.4130     1.6190 O.3   1 <1>  -0.3630 
 25 H        1.7460     1.5070    -1.4480 H     1 <1>   0.0800 
 26 H        2.0290     1.9300     0.2060 H     1 <1>   0.0800 
 27 H       -1.7110     3.0290     0.5430 H     1 <1>   0.0800 
 28 H       -0.0220     2.8370     0.9360 H     1 <1>   0.0800 
 29 H       -1.2210     1.8460     1.7430 H     1 <1>   0.0800 
 30 H       -2.8810     1.3610    -0.6530 H     1 <1>   0.0800 
 31 H       -2.3770     0.0510     0.4030 H     1 <1>   0.0800 
 32 H       -2.0480    -0.0200    -1.3160 H     1 <1>   0.0800 
 33 H        3.0080    -0.5840    -1.1590 H     1 <1>   0.0800 
 34 H        4.5260     1.0440    -1.9920 H     1 <1>   0.0800 
 35 H        3.2430    -1.3740     0.9810 H     1 <1>   0.0800 
 36 H        3.2040     0.2340     1.6960 H     1 <1>   0.0800 
 37 H        4.9340     2.2600     0.6650 H     1 <1>   0.3700 
 38 H        6.4430     0.5390    -0.1810 H     1 <1>   0.0800 
 39 H        5.6170    -0.8410    -0.9030 H     1 <1>   0.0800 
 40 H        4.3380     5.9610    -1.9270 H     1 <1>   0.1500 
 41 H        4.4390     3.8910     1.8290 H     1 <1>   0.1500 
 42 H        4.7380     6.0370     3.0060 H     1 <1>   0.1500 
 43 H        5.7710     9.7640     0.3760 H     1 <1>   0.0800 
 44 H        4.0020     9.9280     0.5180 H     1 <1>   0.0800 
@<TRIPOS>BOND
  1   1   2  2   
  2   1   3  2   
  3   1   4  am  
  4   1   5  1   
  5   4   6  1   
  6   4   7  1   
  7   5   8  1   
  8   5  25  1   
  9   5  26  1   
 10   6  27  1   
 11   6  28  1   
 12   6  29  1   
 13   7  30  1   
 14   7  31  1   
 15   7  32  1   
 16   8   9  1   
 17   8  10  1   
 18   8  33  1   
 19   9  11  1   
 20   9  12  1   
 21   9  34  1   
 22  10  13  1   
 23  10  35  1   
 24  10  36  1   
 25  11  14  am  
 26  11  37  1   
 27  12  13  1   
 28  12  38  1   
 29  12  39  1   
 30  14  15  2   
 31  14  16  1   
 32  16  17  ar  
 33  16  18  ar  
 34  17  19  ar  
 35  17  40  1   
 36  18  20  ar  
 37  18  41  1   
 38  19  21  1   
 39  19  22  ar  
 40  20  22  ar  
 41  20  42  1   
 42  21  23  1   
 43  22  24  1   
 44  23  24  1   
 45  23  43  1   
 46  23  44  1   
@<TRIPOS>SUBSTRUCTURE
  1 ****  14 GROUP 4 **** **** 0

# MOE 2024.06 (io_trps.svl 2023.06)
