@<TRIPOS>MOLECULE
NONAME
49 52 1 0 0 
SMALL
USER_CHARGES


@<TRIPOS>ATOM
  1 S        0.0550    -0.1440     1.5730 S.o2  1 <1>   1.4470 
  2 O       -0.5520    -1.2240     2.3200 O.2   1 <1>  -0.6500 
  3 O        0.4450     1.0650     2.2660 O.2   1 <1>  -0.6500 
  4 N       -1.0500     0.3150     0.3720 N.am  1 <1>  -0.8490 
  5 C        1.4520    -0.7980     0.6180 C.ar  1 <1>  -0.0090 
  6 C       -2.3890     0.5380     0.9410 C.3   1 <1>   0.1960 
  7 C       -0.6080     1.5030    -0.3640 C.3   1 <1>   0.1960 
  8 C        2.7470    -0.3320     0.8200 C.ar  1 <1>  -0.1500 
  9 C        1.2600    -1.7850    -0.3420 C.ar  1 <1>  -0.1500 
 10 C       -3.4500     0.7830    -0.1620 C.3   1 <1>   0.0000 
 11 C       -1.5630     1.7940    -1.5260 C.3   1 <1>  -0.1600 
 12 C        3.8170    -0.8270     0.0920 C.ar  1 <1>  -0.1430 
 13 C        2.3180    -2.2900    -1.0750 C.ar  1 <1>  -0.1500 
 14 C       -4.8600     1.0050     0.4220 C.3   1 <1>   0.2000 
 15 C       -3.0070     1.9760    -1.0330 C.3   1 <1>  -0.1600 
 16 C       -3.6600    -0.4960    -0.9930 C.3   1 <1>  -0.1600 
 17 C        3.6050    -1.8190    -0.8610 C.ar  1 <1>   0.1170 
 18 C        5.2250    -0.2790     0.3080 C.3   1 <1>  -0.0170 
 19 O       -4.8520     1.7270     1.6040 O.3   1 <1>  -0.6800 
 20 C       -5.4690    -0.3790     0.6530 C.3   1 <1>  -0.1600 
 21 C       -4.6320    -1.3570    -0.1820 C.3   1 <1>  -0.1600 
 22 N        4.6890    -2.3270    -1.5760 N.am  1 <1>  -0.5470 
 23 C        6.2930    -1.3480     0.0210 C.3   1 <1>  -0.0990 
 24 C        5.9880    -2.1140    -1.2530 C.2   1 <1>   0.5690 
 25 O        6.8820    -2.5330    -1.9410 O.2   1 <1>  -0.5700 
 26 H       -2.6830    -0.3200     1.5220 H     1 <1>   0.0800 
 27 H       -2.3470     1.3860     1.6050 H     1 <1>   0.0800 
 28 H       -0.5710     2.3540     0.2970 H     1 <1>   0.0800 
 29 H        0.3820     1.3410    -0.7580 H     1 <1>   0.0800 
 30 H        2.9130     0.4350     1.5580 H     1 <1>   0.1500 
 31 H        0.2640    -2.1600    -0.5130 H     1 <1>   0.1500 
 32 H       -1.2430     2.6870    -2.0320 H     1 <1>   0.0800 
 33 H       -1.5120     0.9830    -2.2310 H     1 <1>   0.0800 
 34 H        2.1450    -3.0560    -1.8100 H     1 <1>   0.1500 
 35 H       -5.4630     1.5460    -0.2880 H     1 <1>   0.0800 
 36 H       -3.6680     2.0970    -1.8740 H     1 <1>   0.0800 
 37 H       -3.0630     2.8750    -0.4420 H     1 <1>   0.0800 
 38 H       -4.1230    -0.2460    -1.9320 H     1 <1>   0.0800 
 39 H       -2.7420    -1.0200    -1.1960 H     1 <1>   0.0800 
 40 H        5.3700     0.5500    -0.3620 H     1 <1>   0.0800 
 41 H        5.3400     0.0810     1.3160 H     1 <1>   0.0800 
 42 H       -4.5450     1.1660     2.3400 H     1 <1>   0.4000 
 43 H       -5.4330    -0.6640     1.6900 H     1 <1>   0.0800 
 44 H       -6.4920    -0.3830     0.3200 H     1 <1>   0.0800 
 45 H       -4.0760    -2.0070     0.4730 H     1 <1>   0.0800 
 46 H       -5.2480    -1.9620    -0.8250 H     1 <1>   0.0800 
 47 H        4.5330    -2.9000    -2.4030 H     1 <1>   0.3700 
 48 H        6.3190    -2.0540     0.8290 H     1 <1>   0.0800 
 49 H        7.2620    -0.8900    -0.0590 H     1 <1>   0.0800 
@<TRIPOS>BOND
  1   1   2  2   
  2   1   3  2   
  3   1   4  am  
  4   1   5  1   
  5   4   6  1   
  6   4   7  1   
  7   5   8  ar  
  8   5   9  ar  
  9   6  10  1   
 10   6  26  1   
 11   6  27  1   
 12   7  11  1   
 13   7  28  1   
 14   7  29  1   
 15   8  12  ar  
 16   8  30  1   
 17   9  13  ar  
 18   9  31  1   
 19  10  14  1   
 20  10  15  1   
 21  10  16  1   
 22  11  15  1   
 23  11  32  1   
 24  11  33  1   
 25  12  17  ar  
 26  12  18  1   
 27  13  17  ar  
 28  13  34  1   
 29  14  19  1   
 30  14  20  1   
 31  14  35  1   
 32  15  36  1   
 33  15  37  1   
 34  16  21  1   
 35  16  38  1   
 36  16  39  1   
 37  17  22  1   
 38  18  23  1   
 39  18  40  1   
 40  18  41  1   
 41  19  42  1   
 42  20  21  1   
 43  20  43  1   
 44  20  44  1   
 45  21  45  1   
 46  21  46  1   
 47  22  24  am  
 48  22  47  1   
 49  23  24  1   
 50  23  48  1   
 51  23  49  1   
 52  24  25  2   
@<TRIPOS>SUBSTRUCTURE
  1 ****   5 GROUP 4 **** **** 0

# MOE 2024.06 (io_trps.svl 2023.06)
