@<TRIPOS>MOLECULE
NONAME
47 49 1 0 0 
SMALL
USER_CHARGES


@<TRIPOS>ATOM
  1 F       -1.7830    -0.5610    -0.3760 F     1 <1>  -0.3400 
  2 C       -0.5960    -1.0940    -0.6270 C.3   1 <1>   1.0200 
  3 F        0.3100    -0.2020    -0.2540 F     1 <1>  -0.3400 
  4 F       -0.5070    -1.2010    -1.9450 F     1 <1>  -0.3400 
  5 C       -0.4080    -2.4380     0.0740 C.3   1 <1>  -0.1600 
  6 C       -1.4450    -3.5080    -0.3430 C.3   1 <1>  -0.0990 
  7 C       -1.2660    -4.8470     0.3630 C.2   1 <1>   0.5690 
  8 O       -0.2840    -5.0010     1.0510 O.2   1 <1>  -0.5700 
  9 N       -2.2040    -5.8340     0.2020 N.am  1 <1>  -0.6600 
 10 C       -3.3710    -5.7080    -0.7230 C.3   1 <1>   0.1400 
 11 C       -2.0810    -7.1180     0.9560 C.3   1 <1>   0.1400 
 12 C       -4.0750    -7.0500    -0.9310 C.3   1 <1>  -0.1600 
 13 C       -3.4420    -7.5830     1.4860 C.3   1 <1>  -0.1600 
 14 C       -4.5550    -7.6320     0.4130 C.3   1 <1>   0.4240 
 15 O       -5.5340    -6.7350     0.8950 O.3   1 <1>  -0.5600 
 16 C       -5.1230    -9.0700     0.2530 C.ar  1 <1>  -0.1430 
 17 C       -6.8400    -6.8730     0.4330 C.3   1 <1>   0.1200 
 18 C       -4.3080   -10.1410    -0.1370 C.ar  1 <1>   0.0820 
 19 C       -6.4700    -9.3240     0.5000 C.ar  1 <1>  -0.1430 
 20 C       -7.3910    -8.2000     0.9300 C.3   1 <1>  -0.0170 
 21 O       -2.9880    -9.9070    -0.3680 O.3   1 <1>  -0.3630 
 22 C       -4.8480   -11.4190    -0.2750 C.ar  1 <1>  -0.1500 
 23 C       -6.9950   -10.5980     0.3640 C.ar  1 <1>  -0.1500 
 24 C       -2.0820   -10.9310    -0.7140 C.3   1 <1>   0.0400 
 25 C       -6.1860   -11.6450    -0.0260 C.ar  1 <1>  -0.1500 
 26 H       -0.4700    -2.2760     1.1350 H     1 <1>   0.0800 
 27 H        0.5820    -2.7940    -0.1470 H     1 <1>   0.0800 
 28 H       -1.3720    -3.6790    -1.4010 H     1 <1>   0.0800 
 29 H       -2.4330    -3.1430    -0.1240 H     1 <1>   0.0800 
 30 H       -3.0370    -5.3370    -1.6770 H     1 <1>   0.0800 
 31 H       -4.0690    -5.0010    -0.3070 H     1 <1>   0.0800 
 32 H       -1.4040    -7.0030     1.7860 H     1 <1>   0.0800 
 33 H       -1.6650    -7.8630     0.3000 H     1 <1>   0.0800 
 34 H       -3.3870    -7.7180    -1.4130 H     1 <1>   0.0800 
 35 H       -4.9020    -6.9330    -1.6040 H     1 <1>   0.0800 
 36 H       -3.7260    -6.9230     2.2870 H     1 <1>   0.0800 
 37 H       -3.3150    -8.5550     1.9230 H     1 <1>   0.0800 
 38 H       -6.8510    -6.8270    -0.6410 H     1 <1>   0.0800 
 39 H       -7.4170    -6.0550     0.8280 H     1 <1>   0.0800 
 40 H       -8.3760    -8.3470     0.5260 H     1 <1>   0.0800 
 41 H       -7.4620    -8.1800     2.0030 H     1 <1>   0.0800 
 42 H       -4.2460   -12.2530    -0.5750 H     1 <1>   0.1500 
 43 H       -8.0370   -10.7810     0.5610 H     1 <1>   0.1500 
 44 H       -1.1070   -10.4920    -0.8210 H     1 <1>   0.0800 
 45 H       -2.3890   -11.3690    -1.6480 H     1 <1>   0.0800 
 46 H       -2.0680   -11.6650     0.0720 H     1 <1>   0.0800 
 47 H       -6.5970   -12.6340    -0.1320 H     1 <1>   0.1500 
@<TRIPOS>BOND
  1   1   2  1   
  2   2   3  1   
  3   2   4  1   
  4   2   5  1   
  5   5   6  1   
  6   5  26  1   
  7   5  27  1   
  8   6   7  1   
  9   6  28  1   
 10   6  29  1   
 11   7   8  2   
 12   7   9  am  
 13   9  10  1   
 14   9  11  1   
 15  10  12  1   
 16  10  30  1   
 17  10  31  1   
 18  11  13  1   
 19  11  32  1   
 20  11  33  1   
 21  12  14  1   
 22  12  34  1   
 23  12  35  1   
 24  13  14  1   
 25  13  36  1   
 26  13  37  1   
 27  14  15  1   
 28  14  16  1   
 29  15  17  1   
 30  16  18  ar  
 31  16  19  ar  
 32  17  20  1   
 33  17  38  1   
 34  17  39  1   
 35  18  21  1   
 36  18  22  ar  
 37  19  20  1   
 38  19  23  ar  
 39  20  40  1   
 40  20  41  1   
 41  21  24  1   
 42  22  25  ar  
 43  22  42  1   
 44  23  25  ar  
 45  23  43  1   
 46  24  44  1   
 47  24  45  1   
 48  24  46  1   
 49  25  47  1   
@<TRIPOS>SUBSTRUCTURE
  1 ****  10 GROUP 4 **** **** 0

# MOE 2024.06 (io_trps.svl 2023.06)
