@<TRIPOS>MOLECULE
NONAME
40 44 1 0 0 
SMALL
USER_CHARGES


@<TRIPOS>ATOM
  1 S        0.0850     0.0750    -0.1800 S.3   1 <1>  -0.0800 
  2 C        0.0280    -1.6230     0.2940 C.ar  1 <1>   0.2970 
  3 C       -1.3990    -0.0850    -1.1220 C.2   1 <1>  -0.1100 
  4 N        0.9440    -2.1920     1.0480 N.ar  1 <1>  -0.5670 
  5 C       -1.0820    -2.2320    -0.2370 C.ar  1 <1>   0.0000 
  6 C       -1.8720    -1.3420    -1.0500 C.2   1 <1>  -0.1500 
  7 C        0.6950    -3.4700     1.2570 C.ar  1 <1>   0.4700 
  8 C       -1.2310    -3.5820     0.0890 C.ar  1 <1>   0.4100 
  9 N       -0.3240    -4.2020     0.8260 N.ar  1 <1>  -0.6200 
 10 N       -2.3200    -4.3210    -0.3220 N.pl3 1 <1>  -0.8380 
 11 C       -2.1460    -5.7770    -0.6040 C.3   1 <1>   0.2090 
 12 C       -3.6950    -3.8530     0.0200 C.3   1 <1>   0.2090 
 13 C       -3.4090    -6.3430    -1.2480 C.3   1 <1>  -0.1600 
 14 C       -4.4880    -4.9940     0.6440 C.3   1 <1>  -0.1600 
 15 C       -4.6520    -6.1490    -0.3590 C.3   1 <1>   0.4600 
 16 O       -5.7010    -5.8180    -1.2490 O.3   1 <1>  -0.5600 
 17 C       -5.0110    -7.4500     0.3550 C.2   1 <1>  -0.1400 
 18 C       -7.0300    -6.0750    -0.8520 C.3   1 <1>   0.1200 
 19 S       -3.8990    -8.2790     1.4330 S.3   1 <1>  -0.0800 
 20 C       -6.1670    -8.1200     0.2610 C.2   1 <1>  -0.1810 
 21 C       -7.2730    -7.5770    -0.6140 C.3   1 <1>   0.0210 
 22 C       -5.0750    -9.5550     1.7180 C.2   1 <1>  -0.1100 
 23 C       -6.2110    -9.3250     1.0310 C.2   1 <1>  -0.1500 
 24 H       -1.7500     0.7930    -1.6350 H     1 <1>   0.1500 
 25 H       -2.7530    -1.7060    -1.5460 H     1 <1>   0.1500 
 26 H        1.4170    -3.9930     1.8610 H     1 <1>   0.1500 
 27 H       -1.9370    -6.2960     0.3170 H     1 <1>   0.0800 
 28 H       -1.3060    -5.9120    -1.2630 H     1 <1>   0.0800 
 29 H       -4.1890    -3.5150    -0.8760 H     1 <1>   0.0800 
 30 H       -3.6390    -3.0310     0.7130 H     1 <1>   0.0800 
 31 H       -3.2650    -7.3870    -1.4530 H     1 <1>   0.0800 
 32 H       -3.5480    -5.8410    -2.1880 H     1 <1>   0.0800 
 33 H       -5.4430    -4.6440     0.9800 H     1 <1>   0.0800 
 34 H       -3.9520    -5.3340     1.5110 H     1 <1>   0.0800 
 35 H       -7.6790    -5.7150    -1.6310 H     1 <1>   0.0800 
 36 H       -7.2330    -5.5200     0.0460 H     1 <1>   0.0800 
 37 H       -7.2840    -8.1000    -1.5530 H     1 <1>   0.0800 
 38 H       -8.2250    -7.7130    -0.1340 H     1 <1>   0.0800 
 39 H       -4.7870   -10.3530     2.3790 H     1 <1>   0.1500 
 40 H       -7.0820    -9.9550     1.0320 H     1 <1>   0.1500 
@<TRIPOS>BOND
  1   1   2  1   
  2   1   3  1   
  3   2   4  ar  
  4   2   5  ar  
  5   3   6  2   
  6   3  24  1   
  7   4   7  ar  
  8   5   6  1   
  9   5   8  ar  
 10   6  25  1   
 11   7   9  ar  
 12   7  26  1   
 13   8   9  ar  
 14   8  10  1   
 15  10  11  1   
 16  10  12  1   
 17  11  13  1   
 18  11  27  1   
 19  11  28  1   
 20  12  14  1   
 21  12  29  1   
 22  12  30  1   
 23  13  15  1   
 24  13  31  1   
 25  13  32  1   
 26  14  15  1   
 27  14  33  1   
 28  14  34  1   
 29  15  16  1   
 30  15  17  1   
 31  16  18  1   
 32  17  19  1   
 33  17  20  2   
 34  18  21  1   
 35  18  35  1   
 36  18  36  1   
 37  19  22  1   
 38  20  21  1   
 39  20  23  1   
 40  21  37  1   
 41  21  38  1   
 42  22  23  2   
 43  22  39  1   
 44  23  40  1   
@<TRIPOS>SUBSTRUCTURE
  1 ****  10 GROUP 4 **** **** 0

# MOE 2024.06 (io_trps.svl 2023.06)
