@<TRIPOS>MOLECULE
NONAME
39 40 1 0 0 
SMALL
USER_CHARGES


@<TRIPOS>ATOM
  1 O        0.2010    -0.3050     0.5680 O.2   1 <1>  -0.5700 
  2 C        1.2040    -0.6500    -0.0290 C.2   1 <1>   0.7030 
  3 N        2.1660     0.2770    -0.3420 N.am  1 <1>  -0.4930 
  4 C        1.3790    -2.0520    -0.3920 C.2   1 <1>   0.2770 
  5 C        2.1310     1.6800    -0.1490 C.2   1 <1>   0.0630 
  6 N        0.7840    -3.1690     0.2070 N.pl3 1 <1>  -0.7640 
  7 C        2.1490    -2.5530    -1.3950 C.2   1 <1>   0.2000 
  8 C        1.1080     2.5970    -0.4150 C.2   1 <1>   0.1080 
  9 C        3.1510     2.4290     0.3250 C.2   1 <1>  -0.3320 
 10 C        1.2010    -4.2560    -0.4270 C.cat 1 <1>   0.6500 
 11 C       -0.1770    -3.1040     1.3490 C.3   1 <1>   0.2740 
 12 N        2.0330    -3.9150    -1.3990 N.pl3 1 <1>  -0.7000 
 13 N        1.4580     3.8110    -0.1310 N.2   1 <1>  -0.7070 
 14 C       -0.2640     2.2960    -0.9780 C.3   1 <1>  -0.0590 
 15 N        2.7160     3.7160     0.3300 N.pl3 1 <1>   0.3140 
 16 C        4.5370     2.0050     0.7950 C.3   1 <1>  -0.0600 
 17 C        3.4500     4.9220     0.7680 C.3   1 <1>   0.0960 
 18 C        4.2670     5.5190    -0.3870 C.3   1 <1>  -0.1600 
 19 C        5.0470     6.7590     0.0640 C.3   1 <1>  -0.2400 
 20 H        3.1010    -0.0560    -0.5600 H     1 <1>   0.3700 
 21 H        2.7610    -2.0150    -2.1020 H     1 <1>   0.1500 
 22 H        0.9040    -5.2700    -0.1900 H     1 <1>   0.1500 
 23 H        0.2660    -2.5720     2.1740 H     1 <1>   0.0800 
 24 H       -0.4460    -4.0930     1.6780 H     1 <1>   0.0800 
 25 H       -1.0710    -2.5830     1.0470 H     1 <1>   0.0800 
 26 H        2.4950    -4.5630    -2.0470 H     1 <1>   0.4500 
 27 H       -0.2190     1.4650    -1.6550 H     1 <1>   0.0800 
 28 H       -0.6340     3.1550    -1.5070 H     1 <1>   0.0800 
 29 H       -0.9380     2.0680    -0.1740 H     1 <1>   0.0800 
 30 H        4.6570     0.9400     0.7310 H     1 <1>   0.0800 
 31 H        4.6830     2.2970     1.8200 H     1 <1>   0.0800 
 32 H        5.2940     2.4710     0.1900 H     1 <1>   0.0800 
 33 H        4.0910     4.6580     1.5880 H     1 <1>   0.0800 
 34 H        2.7300     5.6400     1.1170 H     1 <1>   0.0800 
 35 H        3.5960     5.7940    -1.1840 H     1 <1>   0.0800 
 36 H        4.9570     4.7840    -0.7620 H     1 <1>   0.0800 
 37 H        4.3730     7.5180     0.4220 H     1 <1>   0.0800 
 38 H        5.6040     7.1630    -0.7640 H     1 <1>   0.0800 
 39 H        5.7380     6.5090     0.8500 H     1 <1>   0.0800 
@<TRIPOS>BOND
  1   1   2  2   
  2   2   3  am  
  3   2   4  1   
  4   3   5  1   
  5   3  20  1   
  6   4   6  1   
  7   4   7  2   
  8   5   8  1   
  9   5   9  2   
 10   6  10  ar  
 11   6  11  1   
 12   7  12  1   
 13   7  21  1   
 14   8  13  2   
 15   8  14  1   
 16   9  15  1   
 17   9  16  1   
 18  10  12  ar  
 19  10  22  1   
 20  11  23  1   
 21  11  24  1   
 22  11  25  1   
 23  12  26  1   
 24  13  15  1   
 25  14  27  1   
 26  14  28  1   
 27  14  29  1   
 28  15  17  1   
 29  16  30  1   
 30  16  31  1   
 31  16  32  1   
 32  17  18  1   
 33  17  33  1   
 34  17  34  1   
 35  18  19  1   
 36  18  35  1   
 37  18  36  1   
 38  19  37  1   
 39  19  38  1   
 40  19  39  1   
@<TRIPOS>SUBSTRUCTURE
  1 ****   3 GROUP 4 **** **** 0

# MOE 2024.06 (io_trps.svl 2023.06)
