@<TRIPOS>MOLECULE
NONAME
46 49 1 0 0 
SMALL
USER_CHARGES


@<TRIPOS>ATOM
  1 O       -0.5030     0.2660     0.8750 O.2   1 <1>  -0.5700 
  2 C       -1.5020     0.9570     0.7580 C.2   1 <1>   0.5440 
  3 N       -2.7270     0.3300     0.6910 N.am  1 <1>  -0.6600 
  4 C       -1.3790     2.4000     0.6430 C.ar  1 <1>   0.0860 
  5 C       -3.8380     0.8090    -0.1760 C.3   1 <1>   0.1400 
  6 C       -2.9100    -1.1170     0.9570 C.3   1 <1>   0.1400 
  7 C       -0.2880     2.9800    -0.0310 C.ar  1 <1>  -0.1520 
  8 C       -2.3090     3.2850     1.1740 C.ar  1 <1>  -0.1500 
  9 C       -4.7130    -0.4190    -0.4720 C.3   1 <1>   0.2000 
 10 C       -3.7910    -1.6090    -0.1900 C.3   1 <1>  -0.0800 
 11 N        0.7990     2.3740    -0.6010 N.pl3 1 <1>   0.0330 
 12 C       -0.1650     4.3540    -0.2080 C.ar  1 <1>   0.0000 
 13 C       -2.1960     4.6680     1.0110 C.ar  1 <1>  -0.1500 
 14 O       -5.7890    -0.4600     0.4230 O.3   1 <1>  -0.5600 
 15 C       -4.5170    -2.9310     0.1150 C.3   1 <1>   0.0200 
 16 C        1.5910     3.3430    -1.1510 C.2   1 <1>  -0.3020 
 17 C       -1.1360     5.2060     0.3190 C.ar  1 <1>  -0.1500 
 18 C        1.0310     4.5560    -0.9310 C.2   1 <1>  -0.1500 
 19 C       -6.9140     0.2620     0.0320 C.3   1 <1>   0.0400 
 20 C       -3.5730    -4.1180     0.2170 C.2   1 <1>  -0.0400 
 21 O       -4.0590    -5.2800     0.5650 O.3   1 <1>  -0.0190 
 22 C       -2.2540    -4.2730     0.0170 C.2   1 <1>  -0.1500 
 23 N       -3.1400    -6.2010     0.6110 N.2   1 <1>  -0.4100 
 24 C       -2.0410    -5.6220     0.2860 C.2   1 <1>   0.1080 
 25 C       -0.7020    -6.3200     0.2090 C.3   1 <1>  -0.0590 
 26 H       -4.4050     1.5780     0.3160 H     1 <1>   0.0800 
 27 H       -3.4250     1.1940    -1.0930 H     1 <1>   0.0800 
 28 H       -1.9720    -1.6420     0.9960 H     1 <1>   0.0800 
 29 H       -3.4200    -1.2320     1.8990 H     1 <1>   0.0800 
 30 H       -3.1430     2.8990     1.7340 H     1 <1>   0.1500 
 31 H       -5.0870    -0.4310    -1.4810 H     1 <1>   0.0800 
 32 H       -3.1620    -1.7470    -1.0520 H     1 <1>   0.0800 
 33 H        0.9780     1.3610    -0.5440 H     1 <1>   0.2700 
 34 H       -2.9460     5.3130     1.4360 H     1 <1>   0.1500 
 35 H       -5.2310    -3.1340    -0.6640 H     1 <1>   0.0800 
 36 H       -5.0600    -2.8450     1.0400 H     1 <1>   0.0800 
 37 H        2.5080     3.1060    -1.6600 H     1 <1>   0.1500 
 38 H       -1.0350     6.2680     0.1820 H     1 <1>   0.1500 
 39 H        1.3980     5.5220    -1.2300 H     1 <1>   0.1500 
 40 H       -7.6560     0.1680     0.8060 H     1 <1>   0.0800 
 41 H       -7.2990    -0.1490    -0.8860 H     1 <1>   0.0800 
 42 H       -6.6550     1.2980    -0.0950 H     1 <1>   0.0800 
 43 H       -1.5040    -3.5630    -0.2800 H     1 <1>   0.1500 
 44 H        0.0030    -5.8280     0.8530 H     1 <1>   0.0800 
 45 H       -0.3370    -6.2990    -0.8010 H     1 <1>   0.0800 
 46 H       -0.8040    -7.3440     0.5220 H     1 <1>   0.0800 
@<TRIPOS>BOND
  1   1   2  2   
  2   2   3  am  
  3   2   4  1   
  4   3   5  1   
  5   3   6  1   
  6   4   7  ar  
  7   4   8  ar  
  8   5   9  1   
  9   5  26  1   
 10   5  27  1   
 11   6  10  1   
 12   6  28  1   
 13   6  29  1   
 14   7  11  1   
 15   7  12  ar  
 16   8  13  ar  
 17   8  30  1   
 18   9  10  1   
 19   9  14  1   
 20   9  31  1   
 21  10  15  1   
 22  10  32  1   
 23  11  16  1   
 24  11  33  1   
 25  12  17  ar  
 26  12  18  1   
 27  13  17  ar  
 28  13  34  1   
 29  14  19  1   
 30  15  20  1   
 31  15  35  1   
 32  15  36  1   
 33  16  18  2   
 34  16  37  1   
 35  17  38  1   
 36  18  39  1   
 37  19  40  1   
 38  19  41  1   
 39  19  42  1   
 40  20  21  1   
 41  20  22  2   
 42  21  23  1   
 43  22  24  1   
 44  22  43  1   
 45  23  24  2   
 46  24  25  1   
 47  25  44  1   
 48  25  45  1   
 49  25  46  1   
@<TRIPOS>SUBSTRUCTURE
  1 ****   3 GROUP 4 **** **** 0

# MOE 2024.06 (io_trps.svl 2023.06)
