@<TRIPOS>MOLECULE
NONAME
54 56 1 0 0 
SMALL
USER_CHARGES


@<TRIPOS>ATOM
  1 O        3.1130     2.1840     1.8350 O.co2 1 <1>  -0.9000 
  2 C        2.3520     1.2970     1.4180 C.2   1 <1>   0.9060 
  3 O        2.0490     0.3390     2.1260 O.co2 1 <1>  -0.9000 
  4 C        2.0500     1.2040    -0.0860 C.3   1 <1>  -0.1060 
  5 C        2.8730    -0.0230    -0.5380 C.3   1 <1>   0.2000 
  6 C        2.5610     2.4550    -0.8760 C.3   1 <1>  -0.1600 
  7 C        0.5280     0.9940    -0.2980 C.3   1 <1>  -0.0160 
  8 O        2.7620    -0.1930    -1.9210 O.3   1 <1>  -0.6800 
  9 C        4.3730     0.1760    -0.1870 C.3   1 <1>   0.3430 
 10 C        4.0650     2.4270    -1.2060 C.3   1 <1>   0.3430 
 11 C       -0.2950     2.2420     0.0020 C.ar  1 <1>  -0.1440 
 12 N        4.7760     1.6290    -0.1720 N.4   1 <1>  -0.9590 
 13 C       -0.7870     3.0290    -1.0290 C.ar  1 <1>  -0.1500 
 14 C       -0.5600     2.6040     1.3140 C.ar  1 <1>  -0.1500 
 15 C        6.2250     1.8610    -0.0240 C.3   1 <1>   0.4860 
 16 C       -1.5270     4.1660    -0.7530 C.ar  1 <1>  -0.1500 
 17 C       -1.2970     3.7420     1.5920 C.ar  1 <1>  -0.1500 
 18 C        6.5060     3.3400     0.1160 C.ar  1 <1>  -0.1430 
 19 C       -1.7810     4.5240     0.5590 C.ar  1 <1>  -0.1500 
 20 C        5.9250     4.1100     1.0980 C.ar  1 <1>   0.1600 
 21 C        7.3630     3.9750    -0.7520 C.ar  1 <1>   0.1600 
 22 N        6.1710     5.3960     1.2030 N.ar  1 <1>  -0.6200 
 23 N        7.6200     5.2590    -0.6670 N.ar  1 <1>  -0.6200 
 24 C        7.0090     5.9100     0.3130 C.ar  1 <1>   0.4770 
 25 C        7.3060     7.4130     0.4170 C.3   1 <1>   0.0630 
 26 C        7.9280     7.7820     1.7750 C.3   1 <1>  -0.2400 
 27 C        6.0460     8.2580     0.1650 C.3   1 <1>  -0.2400 
 28 H        2.5140    -0.9250    -0.0690 H     1 <1>   0.0800 
 29 H        2.3390     3.3480    -0.3160 H     1 <1>   0.0800 
 30 H        2.0340     2.5410    -1.8080 H     1 <1>   0.0800 
 31 H        0.3360     0.6990    -1.3130 H     1 <1>   0.0800 
 32 H        0.1810     0.1920     0.3320 H     1 <1>   0.0800 
 33 H        1.8420    -0.4330    -2.1510 H     1 <1>   0.4000 
 34 H        4.9690    -0.3810    -0.8890 H     1 <1>   0.0800 
 35 H        4.5370    -0.2300     0.7990 H     1 <1>   0.0800 
 36 H        4.4380     3.4380    -1.2400 H     1 <1>   0.0800 
 37 H        4.2120     1.9690    -2.1710 H     1 <1>   0.0800 
 38 H        4.3390     1.9880     0.7170 H     1 <1>   0.4500 
 39 H       -0.5980     2.7620    -2.0530 H     1 <1>   0.1500 
 40 H       -0.1880     2.0030     2.1280 H     1 <1>   0.1500 
 41 H        6.5820     1.3480     0.8540 H     1 <1>   0.0800 
 42 H        6.7430     1.4690    -0.8830 H     1 <1>   0.0800 
 43 H       -1.9040     4.7720    -1.5570 H     1 <1>   0.1500 
 44 H       -1.4890     4.0140     2.6150 H     1 <1>   0.1500 
 45 H       -2.3520     5.4090     0.7770 H     1 <1>   0.1500 
 46 H        5.2370     3.6770     1.8130 H     1 <1>   0.1500 
 47 H        7.8540     3.4290    -1.5400 H     1 <1>   0.1500 
 48 H        8.0230     7.6610    -0.3460 H     1 <1>   0.0800 
 49 H        7.2360     7.5750     2.5730 H     1 <1>   0.0800 
 50 H        8.1840     8.8250     1.7990 H     1 <1>   0.0800 
 51 H        8.8200     7.2040     1.9370 H     1 <1>   0.0800 
 52 H        5.3060     8.0600     0.9210 H     1 <1>   0.0800 
 53 H        5.6280     8.0140    -0.7950 H     1 <1>   0.0800 
 54 H        6.2870     9.3060     0.1800 H     1 <1>   0.0800 
@<TRIPOS>BOND
  1   1   2  ar  
  2   2   3  ar  
  3   2   4  1   
  4   4   5  1   
  5   4   6  1   
  6   4   7  1   
  7   5   8  1   
  8   5   9  1   
  9   5  28  1   
 10   6  10  1   
 11   6  29  1   
 12   6  30  1   
 13   7  11  1   
 14   7  31  1   
 15   7  32  1   
 16   8  33  1   
 17   9  12  1   
 18   9  34  1   
 19   9  35  1   
 20  10  12  1   
 21  10  36  1   
 22  10  37  1   
 23  11  13  ar  
 24  11  14  ar  
 25  12  15  1   
 26  12  38  1   
 27  13  16  ar  
 28  13  39  1   
 29  14  17  ar  
 30  14  40  1   
 31  15  18  1   
 32  15  41  1   
 33  15  42  1   
 34  16  19  ar  
 35  16  43  1   
 36  17  19  ar  
 37  17  44  1   
 38  18  20  ar  
 39  18  21  ar  
 40  19  45  1   
 41  20  22  ar  
 42  20  46  1   
 43  21  23  ar  
 44  21  47  1   
 45  22  24  ar  
 46  23  24  ar  
 47  24  25  1   
 48  25  26  1   
 49  25  27  1   
 50  25  48  1   
 51  26  49  1   
 52  26  50  1   
 53  26  51  1   
 54  27  52  1   
 55  27  53  1   
 56  27  54  1   
@<TRIPOS>SUBSTRUCTURE
  1 ****   6 GROUP 4 **** **** 0

# MOE 2024.06 (io_trps.svl 2023.06)
