@<TRIPOS>MOLECULE
NONAME
51 54 1 0 0 
SMALL
USER_CHARGES


@<TRIPOS>ATOM
  1 O       -0.3070     0.3320     0.6550 O.2   1 <1>  -0.5700 
  2 C       -1.3760     0.9110     0.5970 C.2   1 <1>   0.7150 
  3 N       -2.5110     0.1730     0.3580 N.am  1 <1>  -0.6600 
  4 C       -1.4350     2.3360     0.7590 C.2   1 <1>  -0.2370 
  5 C       -3.7940     0.7330    -0.1340 C.3   1 <1>   0.1400 
  6 C       -2.4740    -1.2980     0.1610 C.3   1 <1>   0.1400 
  7 N       -0.4980     3.2020     0.2860 N.pl3 1 <1>   0.3140 
  8 C       -2.3590     3.1160     1.3880 C.2   1 <1>  -0.1500 
  9 C       -4.5080    -0.4410    -0.8030 C.3   1 <1>   0.2000 
 10 C       -3.9150    -1.6950    -0.1650 C.3   1 <1>  -0.0800 
 11 N       -0.8050     4.4800     0.5820 N.2   1 <1>  -0.7070 
 12 C        0.7430     2.8370    -0.4570 C.3   1 <1>   0.0960 
 13 C       -1.9170     4.4160     1.2410 C.2   1 <1>   0.1080 
 14 O       -5.8760    -0.3970    -0.5840 O.3   1 <1>  -0.6800 
 15 C       -4.0310    -2.9330    -1.0690 C.3   1 <1>  -0.0170 
 16 C        1.3100     3.9840    -1.3090 C.3   1 <1>  -0.2400 
 17 C       -2.6060     5.6510     1.7700 C.3   1 <1>  -0.0590 
 18 C       -3.4470    -4.1650    -0.3990 C.ar  1 <1>   0.1670 
 19 N       -2.1770    -4.3810    -0.5470 N.ar  1 <1>  -0.6200 
 20 C       -4.2960    -4.9970     0.3490 C.ar  1 <1>  -0.1500 
 21 C       -1.6450    -5.4730     0.0600 C.ar  1 <1>   0.3100 
 22 C       -3.7900    -6.1000     0.9680 C.ar  1 <1>  -0.1500 
 23 C       -2.4170    -6.3670     0.8340 C.ar  1 <1>   0.0000 
 24 C       -0.2710    -5.7260    -0.0810 C.ar  1 <1>  -0.1500 
 25 C       -1.7870    -7.4750     1.4330 C.ar  1 <1>  -0.1500 
 26 C        0.3230    -6.8100     0.5110 C.ar  1 <1>  -0.1500 
 27 C       -0.4440    -7.6930     1.2760 C.ar  1 <1>  -0.1500 
 28 H       -4.3630     1.0970     0.7020 H     1 <1>   0.0800 
 29 H       -3.6170     1.5270    -0.8400 H     1 <1>   0.0800 
 30 H       -1.8160    -1.5280    -0.6600 H     1 <1>   0.0800 
 31 H       -2.1150    -1.7960     1.0470 H     1 <1>   0.0800 
 32 H       -3.2480     2.8080     1.9060 H     1 <1>   0.1500 
 33 H       -4.3300    -0.4190    -1.8650 H     1 <1>   0.0800 
 34 H       -4.4090    -1.8900     0.7710 H     1 <1>   0.0800 
 35 H        1.4750     2.5190     0.2620 H     1 <1>   0.0800 
 36 H        0.5190     2.0060    -1.1000 H     1 <1>   0.0800 
 37 H       -6.0710    -0.4470     0.3710 H     1 <1>   0.4000 
 38 H       -3.5120    -2.7610    -1.9960 H     1 <1>   0.0800 
 39 H       -5.0650    -3.1090    -1.3070 H     1 <1>   0.0800 
 40 H        1.5990     4.8070    -0.6780 H     1 <1>   0.0800 
 41 H        0.5730     4.3220    -2.0150 H     1 <1>   0.0800 
 42 H        2.1770     3.6460    -1.8470 H     1 <1>   0.0800 
 43 H       -3.5100     5.3870     2.2860 H     1 <1>   0.0800 
 44 H       -2.8430     6.3060     0.9530 H     1 <1>   0.0800 
 45 H       -1.9490     6.1630     2.4480 H     1 <1>   0.0800 
 46 H       -5.3400    -4.7530     0.4250 H     1 <1>   0.1500 
 47 H       -4.4080    -6.7610     1.5480 H     1 <1>   0.1500 
 48 H        0.3010    -5.0360    -0.6720 H     1 <1>   0.1500 
 49 H       -2.3820    -8.1500     2.0210 H     1 <1>   0.1500 
 50 H        1.3780    -6.9920     0.3950 H     1 <1>   0.1500 
 51 H        0.0350    -8.5400     1.7360 H     1 <1>   0.1500 
@<TRIPOS>BOND
  1   1   2  2   
  2   2   3  am  
  3   2   4  1   
  4   3   5  1   
  5   3   6  1   
  6   4   7  1   
  7   4   8  2   
  8   5   9  1   
  9   5  28  1   
 10   5  29  1   
 11   6  10  1   
 12   6  30  1   
 13   6  31  1   
 14   7  11  1   
 15   7  12  1   
 16   8  13  1   
 17   8  32  1   
 18   9  10  1   
 19   9  14  1   
 20   9  33  1   
 21  10  15  1   
 22  10  34  1   
 23  11  13  2   
 24  12  16  1   
 25  12  35  1   
 26  12  36  1   
 27  13  17  1   
 28  14  37  1   
 29  15  18  1   
 30  15  38  1   
 31  15  39  1   
 32  16  40  1   
 33  16  41  1   
 34  16  42  1   
 35  17  43  1   
 36  17  44  1   
 37  17  45  1   
 38  18  19  ar  
 39  18  20  ar  
 40  19  21  ar  
 41  20  22  ar  
 42  20  46  1   
 43  21  23  ar  
 44  21  24  ar  
 45  22  23  ar  
 46  22  47  1   
 47  23  25  ar  
 48  24  26  ar  
 49  24  48  1   
 50  25  27  ar  
 51  25  49  1   
 52  26  27  ar  
 53  26  50  1   
 54  27  51  1   
@<TRIPOS>SUBSTRUCTURE
  1 ****   6 GROUP 4 **** **** 0

# MOE 2024.06 (io_trps.svl 2023.06)
