@<TRIPOS>MOLECULE
NONAME
41 43 1 0 0 
SMALL
USER_CHARGES


@<TRIPOS>ATOM
  1 O      -10.6080    -0.1730     1.0400 O.3   1 <1>  -0.2800 
  2 C      -10.7790    -1.2130     0.2590 C.2   1 <1>   0.2980 
  3 C       -9.3610     0.1800     0.8820 C.2   1 <1>  -0.0400 
  4 N       -9.7310    -1.5730    -0.3950 N.2   1 <1>  -0.5650 
  5 C      -12.1460    -1.8970     0.1830 C.3   1 <1>   0.6030 
  6 C       -8.8070    -0.6710     0.0040 C.2   1 <1>   0.0770 
  7 C       -8.8010     1.3750     1.6350 C.3   1 <1>   0.1630 
  8 N      -12.0470    -3.0990    -0.6940 N.4   1 <1>  -0.9060 
  9 C      -13.2180    -0.9530    -0.3820 C.3   1 <1>  -0.1600 
 10 C       -7.3510     1.6180     1.2450 C.ar  1 <1>  -0.1430 
 11 C      -13.3120    -3.8550    -0.8620 C.3   1 <1>   0.3430 
 12 C      -14.5660    -1.6610    -0.5870 C.3   1 <1>  -0.1600 
 13 C       -7.0560     2.2880     0.0670 C.ar  1 <1>  -0.1500 
 14 C       -6.3130     1.1640     2.0440 C.ar  1 <1>  -0.1500 
 15 C      -14.3870    -2.9280    -1.4350 C.3   1 <1>  -0.1600 
 16 C       -5.7440     2.5010    -0.3200 C.ar  1 <1>   0.0830 
 17 C       -4.9980     1.3760     1.6680 C.ar  1 <1>  -0.1500 
 18 O       -5.5550     3.1560    -1.4920 O.3   1 <1>  -0.3630 
 19 C       -4.7090     2.0410     0.4900 C.ar  1 <1>  -0.1500 
 20 C       -4.2600     3.4110    -1.9870 C.3   1 <1>   0.0400 
 21 H      -12.4310    -2.2000     1.1770 H     1 <1>   0.0800 
 22 H       -7.7930    -0.6850    -0.3680 H     1 <1>   0.1500 
 23 H       -8.8750     1.1970     2.6930 H     1 <1>   0.0800 
 24 H       -9.3860     2.2470     1.4050 H     1 <1>   0.0800 
 25 H      -11.2840    -3.6810    -0.3270 H     1 <1>   0.4500 
 26 H      -11.6950    -2.7560    -1.5960 H     1 <1>   0.4500 
 27 H      -12.8740    -0.5440    -1.3170 H     1 <1>   0.0800 
 28 H      -13.3500    -0.1270     0.2960 H     1 <1>   0.0800 
 29 H      -13.6390    -4.2380     0.0920 H     1 <1>   0.0800 
 30 H      -13.1600    -4.6900    -1.5280 H     1 <1>   0.0800 
 31 H      -15.2590    -0.9920    -1.0730 H     1 <1>   0.0800 
 32 H      -14.9870    -1.9230     0.3710 H     1 <1>   0.0800 
 33 H       -7.8420     2.6500    -0.5710 H     1 <1>   0.1500 
 34 H       -6.5200     0.6410     2.9620 H     1 <1>   0.1500 
 35 H      -15.3220    -3.4610    -1.4800 H     1 <1>   0.0800 
 36 H      -14.1260    -2.6600    -2.4440 H     1 <1>   0.0800 
 37 H       -4.1970     1.0220     2.2940 H     1 <1>   0.1500 
 38 H       -3.6810     2.1910     0.2200 H     1 <1>   0.1500 
 39 H       -4.3570     3.9320    -2.9220 H     1 <1>   0.0800 
 40 H       -3.7540     2.4750    -2.1400 H     1 <1>   0.0800 
 41 H       -3.7310     4.0250    -1.2790 H     1 <1>   0.0800 
@<TRIPOS>BOND
  1   1   2  1   
  2   1   3  1   
  3   2   4  2   
  4   2   5  1   
  5   3   6  2   
  6   3   7  1   
  7   4   6  1   
  8   5   8  1   
  9   5   9  1   
 10   5  21  1   
 11   6  22  1   
 12   7  10  1   
 13   7  23  1   
 14   7  24  1   
 15   8  11  1   
 16   8  25  1   
 17   8  26  1   
 18   9  12  1   
 19   9  27  1   
 20   9  28  1   
 21  10  13  ar  
 22  10  14  ar  
 23  11  15  1   
 24  11  29  1   
 25  11  30  1   
 26  12  15  1   
 27  12  31  1   
 28  12  32  1   
 29  13  16  ar  
 30  13  33  1   
 31  14  17  ar  
 32  14  34  1   
 33  15  35  1   
 34  15  36  1   
 35  16  18  1   
 36  16  19  ar  
 37  17  19  ar  
 38  17  37  1   
 39  18  20  1   
 40  19  38  1   
 41  20  39  1   
 42  20  40  1   
 43  20  41  1   
@<TRIPOS>SUBSTRUCTURE
  1 ****   6 GROUP 4 **** **** 0

# MOE 2024.06 (io_trps.svl 2023.06)
