@<TRIPOS>MOLECULE
NONAME
50 51 1 0 0 
SMALL
USER_CHARGES


@<TRIPOS>ATOM
  1 S        0.2500     0.3910     0.2450 S.o2  1 <1>   1.3330 
  2 O       -0.1940     1.3560     1.2250 O.2   1 <1>  -0.6500 
  3 O        0.1800    -1.0220     0.5500 O.2   1 <1>  -0.6500 
  4 N       -0.6130     0.6550    -1.1930 N.am  1 <1>  -0.8490 
  5 C        1.9320     0.8020    -0.2130 C.3   1 <1>  -0.0550 
  6 C       -0.5460    -0.4700    -2.1310 C.3   1 <1>   0.1160 
  7 C       -2.0110     1.0170    -0.9440 C.3   1 <1>   0.1160 
  8 C        2.9090     0.7830     0.9750 C.3   1 <1>  -0.0800 
  9 C        4.3320     1.1190     0.5560 C.3   1 <1>   0.2200 
 10 C        3.0690    -0.5720     1.6560 C.3   1 <1>   0.1200 
 11 N        4.6100     2.5470     0.8170 N.am  1 <1>  -0.7300 
 12 C        5.2030     0.1810     1.3950 C.3   1 <1>   0.1200 
 13 O        4.3360    -0.5280     2.2250 O.3   1 <1>  -0.5600 
 14 C        4.5190     3.5180    -0.1220 C.2   1 <1>   0.5690 
 15 O        4.2150     3.2740    -1.2640 O.2   1 <1>  -0.5700 
 16 C        4.8080     4.9450     0.2730 C.3   1 <1>  -0.0990 
 17 C        6.2320     5.3380    -0.1270 C.3   1 <1>   0.0210 
 18 C        6.5270     6.7580     0.3130 C.2   1 <1>   0.1080 
 19 N        6.9220     7.0310     1.5160 N.2   1 <1>  -0.7070 
 20 C        6.4060     7.9000    -0.4780 C.2   1 <1>  -0.1810 
 21 N        7.0740     8.3670     1.5260 N.pl3 1 <1>   0.3000 
 22 C        6.7670     8.9190     0.3330 C.2   1 <1>  -0.3320 
 23 C        5.9590     7.9380    -1.9290 C.3   1 <1>  -0.0590 
 24 C        6.8530    10.4140     0.0770 C.3   1 <1>  -0.0600 
 25 H        2.2720     0.1200    -0.9660 H     1 <1>   0.0800 
 26 H        1.9400     1.7870    -0.6400 H     1 <1>   0.0800 
 27 H       -1.0340    -0.2100    -3.0550 H     1 <1>   0.0800 
 28 H       -1.0280    -1.3390    -1.7120 H     1 <1>   0.0800 
 29 H        0.4800    -0.7140    -2.3470 H     1 <1>   0.0800 
 30 H       -2.5220     1.1960    -1.8740 H     1 <1>   0.0800 
 31 H       -2.0590     1.9190    -0.3560 H     1 <1>   0.0800 
 32 H       -2.5120     0.2280    -0.4070 H     1 <1>   0.0800 
 33 H        2.5710     1.4790     1.7240 H     1 <1>   0.0800 
 34 H        4.4960     0.9010    -0.4870 H     1 <1>   0.0800 
 35 H        3.0480    -1.3830     0.9470 H     1 <1>   0.0800 
 36 H        2.3380    -0.7380     2.4290 H     1 <1>   0.0800 
 37 H        4.8010     2.7920     1.7910 H     1 <1>   0.3700 
 38 H        5.9130     0.7090     2.0070 H     1 <1>   0.0800 
 39 H        5.7110    -0.5290     0.7670 H     1 <1>   0.0800 
 40 H        4.1040     5.5920    -0.2170 H     1 <1>   0.0800 
 41 H        4.6860     5.0650     1.3340 H     1 <1>   0.0800 
 42 H        6.3530     5.2490    -1.1910 H     1 <1>   0.0800 
 43 H        6.9380     4.6780     0.3450 H     1 <1>   0.0800 
 44 H        7.3880     8.8730     2.3610 H     1 <1>   0.2700 
 45 H        5.0130     7.4370    -2.0340 H     1 <1>   0.0800 
 46 H        6.6860     7.4430    -2.5470 H     1 <1>   0.0800 
 47 H        5.8470     8.9490    -2.2720 H     1 <1>   0.0800 
 48 H        6.5900    10.6450    -0.9390 H     1 <1>   0.0800 
 49 H        7.8550    10.7620     0.2530 H     1 <1>   0.0800 
 50 H        6.1790    10.9400     0.7300 H     1 <1>   0.0800 
@<TRIPOS>BOND
  1   1   2  2   
  2   1   3  2   
  3   1   4  am  
  4   1   5  1   
  5   4   6  1   
  6   4   7  1   
  7   5   8  1   
  8   5  25  1   
  9   5  26  1   
 10   6  27  1   
 11   6  28  1   
 12   6  29  1   
 13   7  30  1   
 14   7  31  1   
 15   7  32  1   
 16   8   9  1   
 17   8  10  1   
 18   8  33  1   
 19   9  11  1   
 20   9  12  1   
 21   9  34  1   
 22  10  13  1   
 23  10  35  1   
 24  10  36  1   
 25  11  14  am  
 26  11  37  1   
 27  12  13  1   
 28  12  38  1   
 29  12  39  1   
 30  14  15  2   
 31  14  16  1   
 32  16  17  1   
 33  16  40  1   
 34  16  41  1   
 35  17  18  1   
 36  17  42  1   
 37  17  43  1   
 38  18  19  2   
 39  18  20  1   
 40  19  21  1   
 41  20  22  2   
 42  20  23  1   
 43  21  22  1   
 44  21  44  1   
 45  22  24  1   
 46  23  45  1   
 47  23  46  1   
 48  23  47  1   
 49  24  48  1   
 50  24  49  1   
 51  24  50  1   
@<TRIPOS>SUBSTRUCTURE
  1 ****  14 GROUP 4 **** **** 0

# MOE 2024.06 (io_trps.svl 2023.06)
