@<TRIPOS>MOLECULE
NONAME
54 57 1 0 0 
SMALL
USER_CHARGES


@<TRIPOS>ATOM
  1 O       -0.6440    -0.2460     1.2860 O.2   1 <1>  -0.5700 
  2 C       -1.4570     0.3810     0.6470 C.2   1 <1>   0.5690 
  3 N       -2.2880    -0.2720    -0.2320 N.am  1 <1>  -0.6600 
  4 C       -1.5080     1.8970     0.8940 C.3   1 <1>  -0.0190 
  5 C       -3.2760     0.3030    -1.1810 C.3   1 <1>   0.1400 
  6 C       -2.3050    -1.7510    -0.3170 C.3   1 <1>   0.1400 
  7 C       -2.7510     2.2760     1.7270 C.3   1 <1>  -0.1600 
  8 C       -1.2970     2.7360    -0.3880 C.3   1 <1>  -0.1600 
  9 C       -4.0030    -0.8950    -1.7980 C.3   1 <1>   0.2000 
 10 C       -3.6650    -2.0970    -0.9190 C.3   1 <1>  -0.0800 
 11 C       -2.8530     3.7580     2.1190 C.3   1 <1>  -0.1600 
 12 C       -0.8430     4.1750    -0.0930 C.3   1 <1>  -0.1600 
 13 O       -5.3750    -0.7000    -1.8130 O.3   1 <1>  -0.6800 
 14 C       -3.6740    -3.4260    -1.6920 C.3   1 <1>  -0.0170 
 15 C       -3.2010     4.6610     0.9270 C.3   1 <1>  -0.1600 
 16 C       -1.9880     5.1740     0.1350 C.3   1 <1>  -0.1600 
 17 C       -3.3760    -4.6010    -0.7660 C.ar  1 <1>  -0.1440 
 18 C       -4.3510    -5.1440     0.1040 C.ar  1 <1>   0.0000 
 19 C       -2.1330    -5.1620    -0.7490 C.ar  1 <1>  -0.1500 
 20 C       -3.9600    -6.2190     0.9400 C.ar  1 <1>   0.3100 
 21 C       -5.6870    -4.6870     0.1950 C.ar  1 <1>  -0.1500 
 22 C       -1.8520    -6.2290     0.1130 C.ar  1 <1>   0.1600 
 23 N       -2.7110    -6.7490     0.9300 N.ar  1 <1>  -0.6200 
 24 C       -4.9010    -6.7700     1.8240 C.ar  1 <1>  -0.1500 
 25 C       -6.5800    -5.2480     1.0670 C.ar  1 <1>  -0.1500 
 26 C       -6.1850    -6.3010     1.8940 C.ar  1 <1>  -0.1500 
 27 H       -0.6590     2.0980     1.5250 H     1 <1>   0.0800 
 28 H       -3.9640     0.9450    -0.6630 H     1 <1>   0.0800 
 29 H       -2.7660     0.8480    -1.9540 H     1 <1>   0.0800 
 30 H       -1.5030    -2.0710    -0.9580 H     1 <1>   0.0800 
 31 H       -2.1820    -2.1980     0.6560 H     1 <1>   0.0800 
 32 H       -3.6460     1.9890     1.2090 H     1 <1>   0.0800 
 33 H       -2.7210     1.6950     2.6340 H     1 <1>   0.0800 
 34 H       -0.5220     2.2610    -0.9640 H     1 <1>   0.0800 
 35 H       -2.1840     2.7600    -0.9920 H     1 <1>   0.0800 
 36 H       -3.6700    -1.0390    -2.8120 H     1 <1>   0.0800 
 37 H       -4.3610    -2.1470    -0.1010 H     1 <1>   0.0800 
 38 H       -3.6460     3.8470     2.8420 H     1 <1>   0.0800 
 39 H       -1.9490     4.0910     2.5990 H     1 <1>   0.0800 
 40 H       -0.1870     4.1810     0.7600 H     1 <1>   0.0800 
 41 H       -0.2620     4.5300    -0.9270 H     1 <1>   0.0800 
 42 H       -5.7090    -0.5840    -0.9030 H     1 <1>   0.4000 
 43 H       -2.9380    -3.3870    -2.4760 H     1 <1>   0.0800 
 44 H       -4.6280    -3.5690    -2.1690 H     1 <1>   0.0800 
 45 H       -3.8690     4.1390     0.2640 H     1 <1>   0.0800 
 46 H       -3.7380     5.5190     1.2920 H     1 <1>   0.0800 
 47 H       -1.5810     6.0310     0.6440 H     1 <1>   0.0800 
 48 H       -2.3410     5.5200    -0.8210 H     1 <1>   0.0800 
 49 H       -1.3420    -4.8050    -1.3830 H     1 <1>   0.1500 
 50 H       -6.0140    -3.8820    -0.4340 H     1 <1>   0.1500 
 51 H       -0.8580    -6.6410     0.0950 H     1 <1>   0.1500 
 52 H       -4.5750    -7.5800     2.4490 H     1 <1>   0.1500 
 53 H       -7.5940    -4.8900     1.1260 H     1 <1>   0.1500 
 54 H       -6.8960    -6.7340     2.5770 H     1 <1>   0.1500 
@<TRIPOS>BOND
  1   1   2  2   
  2   2   3  am  
  3   2   4  1   
  4   3   5  1   
  5   3   6  1   
  6   4   7  1   
  7   4   8  1   
  8   4  27  1   
  9   5   9  1   
 10   5  28  1   
 11   5  29  1   
 12   6  10  1   
 13   6  30  1   
 14   6  31  1   
 15   7  11  1   
 16   7  32  1   
 17   7  33  1   
 18   8  12  1   
 19   8  34  1   
 20   8  35  1   
 21   9  10  1   
 22   9  13  1   
 23   9  36  1   
 24  10  14  1   
 25  10  37  1   
 26  11  15  1   
 27  11  38  1   
 28  11  39  1   
 29  12  16  1   
 30  12  40  1   
 31  12  41  1   
 32  13  42  1   
 33  14  17  1   
 34  14  43  1   
 35  14  44  1   
 36  15  16  1   
 37  15  45  1   
 38  15  46  1   
 39  16  47  1   
 40  16  48  1   
 41  17  18  ar  
 42  17  19  ar  
 43  18  20  ar  
 44  18  21  ar  
 45  19  22  ar  
 46  19  49  1   
 47  20  23  ar  
 48  20  24  ar  
 49  21  25  ar  
 50  21  50  1   
 51  22  23  ar  
 52  22  51  1   
 53  24  26  ar  
 54  24  52  1   
 55  25  26  ar  
 56  25  53  1   
 57  26  54  1   
@<TRIPOS>SUBSTRUCTURE
  1 ****   6 GROUP 4 **** **** 0

# MOE 2024.06 (io_trps.svl 2023.06)
