@<TRIPOS>MOLECULE
NONAME
63 67 1 0 0 
SMALL
USER_CHARGES


@<TRIPOS>ATOM
  1 O        0.0090     1.0200    -0.8190 O.2   1 <1>  -0.5700 
  2 C       -0.1240     2.1050    -0.2810 C.2   1 <1>   0.5440 
  3 N        0.9510     2.6250     0.4210 N.am  1 <1>  -0.6600 
  4 C       -1.3890     2.8080    -0.4270 C.ar  1 <1>   0.0860 
  5 C        0.9670     4.0010     1.0110 C.3   1 <1>   0.1400 
  6 C        2.2350     1.8650     0.4660 C.3   1 <1>   0.1400 
  7 C       -2.0480     3.4010     0.6480 C.ar  1 <1>  -0.1500 
  8 C       -1.9890     2.9250    -1.6800 C.ar  1 <1>  -0.1500 
  9 C        2.2850     4.7450     0.7360 C.3   1 <1>   0.0000 
 10 C        3.2030     2.4520     1.4990 C.3   1 <1>  -0.1600 
 11 C       -3.1980     4.1480     0.4700 C.ar  1 <1>   0.0820 
 12 C       -3.1720     3.6200    -1.8570 C.ar  1 <1>  -0.1500 
 13 C        3.5130     3.9390     1.2460 C.3   1 <1>  -0.1600 
 14 C        2.2320     6.1420     1.3840 C.3   1 <1>   0.1400 
 15 C        2.4140     5.0610    -0.7650 C.3   1 <1>  -0.1600 
 16 O       -3.7040     4.7820     1.5520 O.3   1 <1>  -0.3630 
 17 C       -3.7930     4.2390    -0.7860 C.ar  1 <1>  -0.1430 
 18 N        2.7660     7.0960     0.3910 N.am  1 <1>  -0.6600 
 19 C        3.1720     6.3780    -0.8350 C.3   1 <1>   0.1400 
 20 C       -3.5540     6.1900     1.6280 C.3   1 <1>   0.1200 
 21 C       -5.0980     4.9830    -1.0280 C.3   1 <1>  -0.0970 
 22 C        2.5420     8.4380     0.5350 C.2   1 <1>   0.5690 
 23 C       -2.1070     6.5750     1.9720 C.3   1 <1>   0.0960 
 24 O        2.1510     8.9030     1.5810 O.2   1 <1>  -0.5700 
 25 C        2.7880     9.4050    -0.6120 C.3   1 <1>  -0.0990 
 26 N       -1.4210     7.2000     0.8220 N.pl3 1 <1>   0.3140 
 27 C        1.6560     9.4820    -1.6610 C.3   1 <1>  -0.1600 
 28 N       -1.2150     6.5960    -0.3510 N.2   1 <1>  -0.4180 
 29 C       -0.9210     8.4350     0.7730 C.2   1 <1>  -0.3020 
 30 C        0.2590     9.7730    -1.0810 C.3   1 <1>   0.0210 
 31 N       -0.6110     7.4190    -1.1360 N.2   1 <1>  -0.2270 
 32 C       -0.4180     8.5590    -0.4630 C.2   1 <1>   0.0460 
 33 H        0.8160     3.9200     2.0730 H     1 <1>   0.0800 
 34 H        0.1670     4.5900     0.6020 H     1 <1>   0.0800 
 35 H        2.6840     1.8910    -0.5120 H     1 <1>   0.0800 
 36 H        2.0280     0.8360     0.7090 H     1 <1>   0.0800 
 37 H       -1.6460     3.2910     1.6370 H     1 <1>   0.1500 
 38 H       -1.5110     2.4600    -2.5250 H     1 <1>   0.1500 
 39 H        4.1190     1.8870     1.4890 H     1 <1>   0.0800 
 40 H        2.7660     2.3320     2.4740 H     1 <1>   0.0800 
 41 H       -3.6030     3.6800    -2.8410 H     1 <1>   0.1500 
 42 H        3.8830     4.3510     2.1690 H     1 <1>   0.0800 
 43 H        4.3170     4.0140     0.5360 H     1 <1>   0.0800 
 44 H        2.8000     6.2030     2.2950 H     1 <1>   0.0800 
 45 H        1.2150     6.4210     1.6000 H     1 <1>   0.0800 
 46 H        1.4410     5.2180    -1.1980 H     1 <1>   0.0800 
 47 H        2.9030     4.2820    -1.3210 H     1 <1>   0.0800 
 48 H        2.9220     6.9170    -1.7290 H     1 <1>   0.0800 
 49 H        4.2340     6.2020    -0.8020 H     1 <1>   0.0800 
 50 H       -4.2100     6.5230     2.4120 H     1 <1>   0.0800 
 51 H       -3.8690     6.6350     0.7010 H     1 <1>   0.0800 
 52 H       -5.7020     4.9910    -0.1380 H     1 <1>   0.0800 
 53 H       -5.6620     4.5030    -1.8070 H     1 <1>   0.0800 
 54 H       -4.8910     5.9950    -1.3250 H     1 <1>   0.0800 
 55 H       -1.5490     5.7150     2.2870 H     1 <1>   0.0800 
 56 H       -2.1150     7.2900     2.7730 H     1 <1>   0.0800 
 57 H        3.7100     9.1420    -1.0960 H     1 <1>   0.0800 
 58 H        2.9270    10.3830    -0.1870 H     1 <1>   0.0800 
 59 H        1.6110     8.5710    -2.2300 H     1 <1>   0.0800 
 60 H        1.9020    10.2690    -2.3520 H     1 <1>   0.0800 
 61 H       -0.9400     9.1340     1.5880 H     1 <1>   0.1500 
 62 H       -0.3750    10.1210    -1.8760 H     1 <1>   0.0800 
 63 H        0.3250    10.5590    -0.3490 H     1 <1>   0.0800 
@<TRIPOS>BOND
  1   1   2  2   
  2   2   3  am  
  3   2   4  1   
  4   3   5  1   
  5   3   6  1   
  6   4   7  ar  
  7   4   8  ar  
  8   5   9  1   
  9   5  33  1   
 10   5  34  1   
 11   6  10  1   
 12   6  35  1   
 13   6  36  1   
 14   7  11  ar  
 15   7  37  1   
 16   8  12  ar  
 17   8  38  1   
 18   9  13  1   
 19   9  14  1   
 20   9  15  1   
 21  10  13  1   
 22  10  39  1   
 23  10  40  1   
 24  11  16  1   
 25  11  17  ar  
 26  12  17  ar  
 27  12  41  1   
 28  13  42  1   
 29  13  43  1   
 30  14  18  1   
 31  14  44  1   
 32  14  45  1   
 33  15  19  1   
 34  15  46  1   
 35  15  47  1   
 36  16  20  1   
 37  17  21  1   
 38  18  19  1   
 39  18  22  am  
 40  19  48  1   
 41  19  49  1   
 42  20  23  1   
 43  20  50  1   
 44  20  51  1   
 45  21  52  1   
 46  21  53  1   
 47  21  54  1   
 48  22  24  2   
 49  22  25  1   
 50  23  26  1   
 51  23  55  1   
 52  23  56  1   
 53  25  27  1   
 54  25  57  1   
 55  25  58  1   
 56  26  28  1   
 57  26  29  1   
 58  27  30  1   
 59  27  59  1   
 60  27  60  1   
 61  28  31  2   
 62  29  32  2   
 63  29  61  1   
 64  30  32  1   
 65  30  62  1   
 66  30  63  1   
 67  31  32  1   
@<TRIPOS>SUBSTRUCTURE
  1 ****  28 GROUP 4 **** **** 0

# MOE 2024.06 (io_trps.svl 2023.06)
