@<TRIPOS>MOLECULE
NONAME
49 50 1 0 0 
SMALL
USER_CHARGES


@<TRIPOS>ATOM
  1 O       -2.0580     1.3690    -1.5890 O.2   1 <1>  -0.5700 
  2 C       -2.4980     1.2760    -0.4580 C.2   1 <1>   0.5440 
  3 N       -2.1080     2.2080     0.4870 N.am  1 <1>  -0.6600 
  4 C       -3.3980     0.1900    -0.1450 C.ar  1 <1>   0.0860 
  5 C       -1.4020     3.4590     0.0920 C.3   1 <1>   0.0600 
  6 C       -2.1530     1.9630     1.9550 C.3   1 <1>   0.0600 
  7 C       -3.1260    -1.0990    -0.5950 C.ar  1 <1>   0.1600 
  8 C       -4.5640     0.3610     0.5940 C.ar  1 <1>  -0.1500 
  9 N       -3.8580    -2.1760    -0.3620 N.ar  1 <1>  -0.6200 
 10 C       -5.3400    -0.7450     0.8430 C.ar  1 <1>  -0.1500 
 11 C       -4.9590    -1.9920     0.3570 C.ar  1 <1>   0.4100 
 12 N       -5.7410    -3.0830     0.6230 N.pl3 1 <1>  -0.8690 
 13 C       -5.6440    -4.3450    -0.1210 C.3   1 <1>   0.4330 
 14 C       -7.0560    -4.9060    -0.2690 C.ar  1 <1>  -0.1430 
 15 C       -4.7290    -5.2970     0.6430 C.3   1 <1>  -0.2400 
 16 C       -7.8210    -5.2400     0.8420 C.ar  1 <1>  -0.1500 
 17 C       -7.5980    -5.0810    -1.5340 C.ar  1 <1>  -0.1500 
 18 C       -9.1020    -5.7440     0.6940 C.ar  1 <1>  -0.1500 
 19 C       -8.8780    -5.5840    -1.6850 C.ar  1 <1>  -0.1500 
 20 C       -9.6390    -5.9200    -0.5780 C.ar  1 <1>   0.0830 
 21 O      -10.8820    -6.4070    -0.8150 O.3   1 <1>  -0.3630 
 22 C      -11.7320    -6.7910     0.2410 C.3   1 <1>   0.1200 
 23 C      -13.0460    -7.2920    -0.3600 C.3   1 <1>  -0.1600 
 24 C      -14.0290    -7.7290     0.7310 C.3   1 <1>  -0.2400 
 25 H       -1.5710     3.6760    -0.9490 H     1 <1>   0.0800 
 26 H       -0.3450     3.3440     0.2540 H     1 <1>   0.0800 
 27 H       -1.7660     4.2860     0.6760 H     1 <1>   0.0800 
 28 H       -2.3620     0.9290     2.1670 H     1 <1>   0.0800 
 29 H       -2.9150     2.5770     2.4020 H     1 <1>   0.0800 
 30 H       -1.2020     2.2090     2.3940 H     1 <1>   0.0800 
 31 H       -2.2370    -1.2370    -1.1860 H     1 <1>   0.1500 
 32 H       -4.8430     1.3370     0.9520 H     1 <1>   0.1500 
 33 H       -6.2450    -0.6620     1.4140 H     1 <1>   0.1500 
 34 H       -6.7060    -2.9010     0.8930 H     1 <1>   0.4000 
 35 H       -5.2280    -4.1630    -1.0990 H     1 <1>   0.0800 
 36 H       -5.0810    -5.4450     1.6460 H     1 <1>   0.0800 
 37 H       -3.7350    -4.8900     0.6740 H     1 <1>   0.0800 
 38 H       -4.6960    -6.2460     0.1400 H     1 <1>   0.0800 
 39 H       -7.4190    -5.1080     1.8310 H     1 <1>   0.1500 
 40 H       -7.0280    -4.8240    -2.4100 H     1 <1>   0.1500 
 41 H       -9.6610    -5.9930     1.5750 H     1 <1>   0.1500 
 42 H       -9.2980    -5.7190    -2.6660 H     1 <1>   0.1500 
 43 H      -11.9040    -5.9320     0.8670 H     1 <1>   0.0800 
 44 H      -11.2470    -7.5720     0.8010 H     1 <1>   0.0800 
 45 H      -12.8410    -8.1260    -1.0090 H     1 <1>   0.0800 
 46 H      -13.4890    -6.5040    -0.9440 H     1 <1>   0.0800 
 47 H      -13.6120    -8.5290     1.3170 H     1 <1>   0.0800 
 48 H      -14.9430    -8.0760     0.2820 H     1 <1>   0.0800 
 49 H      -14.2610    -6.9040     1.3820 H     1 <1>   0.0800 
@<TRIPOS>BOND
  1   1   2  2   
  2   2   3  am  
  3   2   4  1   
  4   3   5  1   
  5   3   6  1   
  6   4   7  ar  
  7   4   8  ar  
  8   5  25  1   
  9   5  26  1   
 10   5  27  1   
 11   6  28  1   
 12   6  29  1   
 13   6  30  1   
 14   7   9  ar  
 15   7  31  1   
 16   8  10  ar  
 17   8  32  1   
 18   9  11  ar  
 19  10  11  ar  
 20  10  33  1   
 21  11  12  1   
 22  12  13  1   
 23  12  34  1   
 24  13  14  1   
 25  13  15  1   
 26  13  35  1   
 27  14  16  ar  
 28  14  17  ar  
 29  15  36  1   
 30  15  37  1   
 31  15  38  1   
 32  16  18  ar  
 33  16  39  1   
 34  17  19  ar  
 35  17  40  1   
 36  18  20  ar  
 37  18  41  1   
 38  19  20  ar  
 39  19  42  1   
 40  20  21  1   
 41  21  22  1   
 42  22  23  1   
 43  22  43  1   
 44  22  44  1   
 45  23  24  1   
 46  23  45  1   
 47  23  46  1   
 48  24  47  1   
 49  24  48  1   
 50  24  49  1   
@<TRIPOS>SUBSTRUCTURE
  1 ****  12 GROUP 4 **** **** 0

# MOE 2024.06 (io_trps.svl 2023.06)
