@<TRIPOS>MOLECULE
NONAME
52 55 1 0 0 
SMALL
USER_CHARGES


@<TRIPOS>ATOM
  1 O       -1.4340     0.4780     1.9140 O.2   1 <1>  -0.5700 
  2 C       -1.6270     0.7560     0.7430 C.2   1 <1>   0.7160 
  3 N       -1.9560    -0.2500    -0.1430 N.am  1 <1>  -0.6600 
  4 C       -1.5130     2.1150     0.3260 C.2   1 <1>  -0.0860 
  5 C       -2.1780    -1.6610     0.3010 C.3   1 <1>   0.1400 
  6 C       -2.3390    -0.0020    -1.5590 C.3   1 <1>   0.1400 
  7 C       -2.5840     2.9870     0.1210 C.2   1 <1>   0.3720 
  8 C       -0.4260     2.8550    -0.0140 C.2   1 <1>   0.0870 
  9 C       -3.6570    -2.0370     0.1370 C.3   1 <1>   0.2000 
 10 C       -3.8230    -0.3410    -1.7450 C.3   1 <1>  -0.1600 
 11 N       -2.1740     4.1270    -0.3130 N.2   1 <1>  -0.4100 
 12 N       -3.9300     2.6640     0.3330 N.pl3 1 <1>  -0.8210 
 13 O       -0.8730     4.0300    -0.3820 O.3   1 <1>  -0.0190 
 14 C        0.9860     2.5640    -0.0520 C.ar  1 <1>   0.0530 
 15 O       -3.7870    -3.3980     0.4200 O.3   1 <1>  -0.5600 
 16 C       -4.1440    -1.7780    -1.3000 C.3   1 <1>  -0.1600 
 17 C       -4.9280     3.5560    -0.3330 C.3   1 <1>   0.2090 
 18 C       -4.3020     2.4580     1.7660 C.3   1 <1>   0.2090 
 19 C        1.5750     1.6380     0.8100 C.ar  1 <1>  -0.1500 
 20 C        1.8210     3.2060    -0.9680 C.ar  1 <1>  -0.1500 
 21 C       -5.0430    -3.7970     0.8700 C.3   1 <1>   0.0400 
 22 C       -6.3580     3.0240    -0.1260 C.3   1 <1>   0.1200 
 23 C       -5.7560     1.9690     1.8850 C.3   1 <1>   0.1200 
 24 C        2.9280     1.3570     0.7520 C.ar  1 <1>  -0.1500 
 25 C        3.1740     2.9310    -1.0300 C.ar  1 <1>  -0.1500 
 26 O       -6.6370     2.8460     1.2360 O.3   1 <1>  -0.5600 
 27 C        3.7310     2.0020    -0.1700 C.ar  1 <1>  -0.1500 
 28 H       -1.8930    -1.7900     1.3300 H     1 <1>   0.0800 
 29 H       -1.5740    -2.3140    -0.3030 H     1 <1>   0.0800 
 30 H       -1.7390    -0.6280    -2.1980 H     1 <1>   0.0800 
 31 H       -2.1640     1.0210    -1.8410 H     1 <1>   0.0800 
 32 H       -4.2350    -1.4710     0.8480 H     1 <1>   0.0800 
 33 H       -4.0860    -0.2170    -2.7800 H     1 <1>   0.0800 
 34 H       -4.4100     0.3570    -1.1740 H     1 <1>   0.0800 
 35 H       -5.2050    -1.9360    -1.3640 H     1 <1>   0.0800 
 36 H       -3.6520    -2.4680    -1.9630 H     1 <1>   0.0800 
 37 H       -4.7140     3.6090    -1.3860 H     1 <1>   0.0800 
 38 H       -4.8570     4.5510     0.0730 H     1 <1>   0.0800 
 39 H       -4.1920     3.3840     2.3050 H     1 <1>   0.0800 
 40 H       -3.6520     1.7320     2.2200 H     1 <1>   0.0800 
 41 H        0.9750     1.1320     1.5440 H     1 <1>   0.1500 
 42 H        1.4020     3.9300    -1.6450 H     1 <1>   0.1500 
 43 H       -5.0060    -4.8540     1.0660 H     1 <1>   0.0800 
 44 H       -5.7800    -3.5970     0.1130 H     1 <1>   0.0800 
 45 H       -5.2790    -3.2710     1.7790 H     1 <1>   0.0800 
 46 H       -6.4820     2.0810    -0.6280 H     1 <1>   0.0800 
 47 H       -7.0740     3.7230    -0.5190 H     1 <1>   0.0800 
 48 H       -6.0460     1.9180     2.9190 H     1 <1>   0.0800 
 49 H       -5.8580     0.9920     1.4460 H     1 <1>   0.0800 
 50 H        3.3550     0.6360     1.4280 H     1 <1>   0.1500 
 51 H        3.7960     3.4390    -1.7470 H     1 <1>   0.1500 
 52 H        4.7840     1.7850    -0.2160 H     1 <1>   0.1500 
@<TRIPOS>BOND
  1   1   2  2   
  2   2   3  am  
  3   2   4  1   
  4   3   5  1   
  5   3   6  1   
  6   4   7  1   
  7   4   8  2   
  8   5   9  1   
  9   5  28  1   
 10   5  29  1   
 11   6  10  1   
 12   6  30  1   
 13   6  31  1   
 14   7  11  2   
 15   7  12  1   
 16   8  13  1   
 17   8  14  1   
 18   9  15  1   
 19   9  16  1   
 20   9  32  1   
 21  10  16  1   
 22  10  33  1   
 23  10  34  1   
 24  11  13  1   
 25  12  17  1   
 26  12  18  1   
 27  14  19  ar  
 28  14  20  ar  
 29  15  21  1   
 30  16  35  1   
 31  16  36  1   
 32  17  22  1   
 33  17  37  1   
 34  17  38  1   
 35  18  23  1   
 36  18  39  1   
 37  18  40  1   
 38  19  24  ar  
 39  19  41  1   
 40  20  25  ar  
 41  20  42  1   
 42  21  43  1   
 43  21  44  1   
 44  21  45  1   
 45  22  26  1   
 46  22  46  1   
 47  22  47  1   
 48  23  26  1   
 49  23  48  1   
 50  23  49  1   
 51  24  27  ar  
 52  24  50  1   
 53  25  27  ar  
 54  25  51  1   
 55  27  52  1   
@<TRIPOS>SUBSTRUCTURE
  1 ****   2 GROUP 4 **** **** 0

# MOE 2024.06 (io_trps.svl 2023.06)
