@<TRIPOS>MOLECULE
NONAME
56 58 1 0 0 
SMALL
USER_CHARGES


@<TRIPOS>ATOM
  1 O        3.1770    -1.0870     1.3940 O.2   1 <1>  -0.5700 
  2 C        2.9350    -1.5410     0.2910 C.2   1 <1>   0.5440 
  3 N        3.3580    -2.8180    -0.0210 N.am  1 <1>  -0.6600 
  4 C        2.2040    -0.7350    -0.6690 C.ar  1 <1>   0.0860 
  5 C        4.1200    -3.6560     0.9440 C.3   1 <1>   0.1400 
  6 C        2.9750    -3.5310    -1.2680 C.3   1 <1>   0.1400 
  7 C        0.8110    -0.6050    -0.6320 C.ar  1 <1>  -0.1440 
  8 C        2.8980    -0.0740    -1.6810 C.ar  1 <1>  -0.1500 
  9 C        3.2520    -4.8420     1.3720 C.3   1 <1>  -0.1600 
 10 C        2.0630    -4.7040    -0.9050 C.3   1 <1>  -0.1600 
 11 C        0.1540     0.1510    -1.5890 C.ar  1 <1>  -0.1500 
 12 C        0.0030    -1.2890     0.4620 C.3   1 <1>  -0.0970 
 13 C        2.2400     0.6810    -2.6340 C.ar  1 <1>  -0.1500 
 14 C        2.7150    -5.6220     0.1520 C.3   1 <1>  -0.0190 
 15 C        0.8630     0.7920    -2.5890 C.ar  1 <1>  -0.1500 
 16 C        1.8760    -6.8520     0.5320 C.2   1 <1>   0.5690 
 17 O        2.4360    -7.9150     0.3960 O.2   1 <1>  -0.5700 
 18 N        0.5760    -6.8040     0.9910 N.am  1 <1>  -0.6600 
 19 C       -0.1610    -8.0850     1.1920 C.3   1 <1>   0.3200 
 20 C       -0.1680    -5.5810     1.4370 C.3   1 <1>   0.1400 
 21 C       -1.0200    -8.3870    -0.0220 C.2   1 <1>  -0.3320 
 22 C       -1.3530    -5.2430     0.5210 C.3   1 <1>   0.1200 
 23 N       -2.0760    -9.2220    -0.0060 N.pl3 1 <1>   0.0330 
 24 C       -0.9260    -7.9320    -1.2920 C.2   1 <1>   0.0770 
 25 O       -1.9290    -4.0520     0.9450 O.3   1 <1>  -0.6800 
 26 C       -2.5670    -9.2030    -1.2640 C.2   1 <1>   0.0060 
 27 N       -1.9060    -8.4350    -2.0640 N.2   1 <1>  -0.5650 
 28 C       -3.7750   -10.0100    -1.6870 C.3   1 <1>  -0.0600 
 29 H        4.4080    -3.0820     1.8090 H     1 <1>   0.0800 
 30 H        5.0190    -4.0080     0.4680 H     1 <1>   0.0800 
 31 H        3.8650    -3.8920    -1.7540 H     1 <1>   0.0800 
 32 H        2.4640    -2.8770    -1.9540 H     1 <1>   0.0800 
 33 H        3.9710    -0.1570    -1.7120 H     1 <1>   0.1500 
 34 H        2.4590    -4.4660     1.9860 H     1 <1>   0.0800 
 35 H        3.8420    -5.5020     1.9830 H     1 <1>   0.0800 
 36 H        1.8520    -5.2750    -1.7920 H     1 <1>   0.0800 
 37 H        1.1360    -4.2990    -0.5560 H     1 <1>   0.0800 
 38 H       -0.9180     0.2480    -1.5610 H     1 <1>   0.1500 
 39 H        0.2420    -2.3350     0.5060 H     1 <1>   0.0800 
 40 H       -1.0540    -1.1950     0.2860 H     1 <1>   0.0800 
 41 H        0.2320    -0.8460     1.4150 H     1 <1>   0.0800 
 42 H        2.7960     1.1840    -3.4060 H     1 <1>   0.1500 
 43 H        3.5910    -6.0210    -0.3320 H     1 <1>   0.0800 
 44 H        0.3440     1.3790    -3.3270 H     1 <1>   0.1500 
 45 H       -0.7810    -8.0020     2.0680 H     1 <1>   0.0800 
 46 H        0.5220    -8.9010     1.3580 H     1 <1>   0.0800 
 47 H        0.4830    -4.7320     1.4610 H     1 <1>   0.0800 
 48 H       -0.5280    -5.7410     2.4370 H     1 <1>   0.0800 
 49 H       -2.1100    -6.0080     0.5460 H     1 <1>   0.0800 
 50 H       -1.0210    -5.1020    -0.4920 H     1 <1>   0.0800 
 51 H       -2.4400    -9.7710     0.7780 H     1 <1>   0.2700 
 52 H       -0.1900    -7.2570    -1.6950 H     1 <1>   0.1500 
 53 H       -2.4770    -4.1910     1.7420 H     1 <1>   0.4000 
 54 H       -4.6350    -9.7170    -1.1140 H     1 <1>   0.0800 
 55 H       -3.5870   -11.0580    -1.5440 H     1 <1>   0.0800 
 56 H       -3.9790    -9.8360    -2.7280 H     1 <1>   0.0800 
@<TRIPOS>BOND
  1   1   2  2   
  2   2   3  am  
  3   2   4  1   
  4   3   5  1   
  5   3   6  1   
  6   4   7  ar  
  7   4   8  ar  
  8   5   9  1   
  9   5  29  1   
 10   5  30  1   
 11   6  10  1   
 12   6  31  1   
 13   6  32  1   
 14   7  11  ar  
 15   7  12  1   
 16   8  13  ar  
 17   8  33  1   
 18   9  14  1   
 19   9  34  1   
 20   9  35  1   
 21  10  14  1   
 22  10  36  1   
 23  10  37  1   
 24  11  15  ar  
 25  11  38  1   
 26  12  39  1   
 27  12  40  1   
 28  12  41  1   
 29  13  15  ar  
 30  13  42  1   
 31  14  16  1   
 32  14  43  1   
 33  15  44  1   
 34  16  17  2   
 35  16  18  am  
 36  18  19  1   
 37  18  20  1   
 38  19  21  1   
 39  19  45  1   
 40  19  46  1   
 41  20  22  1   
 42  20  47  1   
 43  20  48  1   
 44  21  23  1   
 45  21  24  2   
 46  22  25  1   
 47  22  49  1   
 48  22  50  1   
 49  23  26  1   
 50  23  51  1   
 51  24  27  1   
 52  24  52  1   
 53  25  53  1   
 54  26  27  2   
 55  26  28  1   
 56  28  54  1   
 57  28  55  1   
 58  28  56  1   
@<TRIPOS>SUBSTRUCTURE
  1 ****  10 GROUP 4 **** **** 0

# MOE 2024.06 (io_trps.svl 2023.06)
