@<TRIPOS>MOLECULE
NONAME
46 48 1 0 0 
SMALL
USER_CHARGES


@<TRIPOS>ATOM
  1 S        0.9460     0.4190     1.3490 S.o2  1 <1>   1.0900 
  2 O       -0.0930    -0.3980     0.7660 O.2   1 <1>  -0.6500 
  3 O        1.5320     0.1090     2.6320 O.2   1 <1>  -0.6500 
  4 C        0.4050     2.1070     1.3330 C.3   1 <1>  -0.0550 
  5 C        2.2230     0.6550     0.1280 C.3   1 <1>  -0.0550 
  6 C        0.7600     2.6600    -0.0480 C.3   1 <1>   0.1900 
  7 C        2.1650     2.1110    -0.3580 C.3   1 <1>  -0.1600 
  8 N        0.7460     4.1390    -0.0610 N.3   1 <1>  -0.8100 
  9 C        1.0630     4.7010    -1.4210 C.3   1 <1>   0.1710 
 10 C       -0.5610     4.6780     0.3770 C.3   1 <1>   0.0300 
 11 C        1.3770     6.2020    -1.4470 C.2   1 <1>   0.5690 
 12 O        1.1890     6.8280    -2.4630 O.2   1 <1>  -0.5700 
 13 N        1.8740     6.7810    -0.3240 N.am  1 <1>  -0.7300 
 14 C        2.1930     8.2190    -0.1560 C.3   1 <1>   0.1400 
 15 C        3.6950     8.4470    -0.3150 C.3   1 <1>   0.0200 
 16 C        4.0300     9.8970    -0.0510 C.2   1 <1>   0.1980 
 17 S        3.6900    11.0570    -1.3400 S.3   1 <1>  -0.0800 
 18 N        4.5330    10.4000     1.0110 N.2   1 <1>  -0.5650 
 19 C        4.3000    12.2940    -0.2960 C.2   1 <1>  -0.1400 
 20 C        4.6790    11.7620     0.8490 C.2   1 <1>   0.0460 
 21 C        4.4750    13.7720    -0.4330 C.3   1 <1>   0.0200 
 22 C        5.2180    12.8020     1.7870 C.3   1 <1>   0.0210 
 23 C        5.0820    14.1160     0.9570 C.3   1 <1>  -0.1600 
 24 H        0.9420     2.6600     2.0790 H     1 <1>   0.0800 
 25 H       -0.6480     2.1660     1.5250 H     1 <1>   0.0800 
 26 H        2.0480    -0.0090    -0.6980 H     1 <1>   0.0800 
 27 H        3.1910     0.4360     0.5390 H     1 <1>   0.0800 
 28 H        0.0570     2.2760    -0.7710 H     1 <1>   0.0800 
 29 H        2.3900     2.1490    -1.4090 H     1 <1>   0.0800 
 30 H        2.8960     2.6880     0.1840 H     1 <1>   0.0800 
 31 H        0.2420     4.5150    -2.0910 H     1 <1>   0.0800 
 32 H        1.9290     4.2210    -1.8300 H     1 <1>   0.0800 
 33 H       -0.7430     4.4430     1.4110 H     1 <1>   0.0800 
 34 H       -1.3580     4.2710    -0.2230 H     1 <1>   0.0800 
 35 H       -0.5810     5.7510     0.2870 H     1 <1>   0.0800 
 36 H        1.9510     6.1770     0.5010 H     1 <1>   0.3700 
 37 H        1.8760     8.5440     0.8200 H     1 <1>   0.0800 
 38 H        1.6610     8.7970    -0.8940 H     1 <1>   0.0800 
 39 H        4.0030     8.1860    -1.3110 H     1 <1>   0.0800 
 40 H        4.2300     7.8390     0.3900 H     1 <1>   0.0800 
 41 H        3.5260    14.2560    -0.5870 H     1 <1>   0.0800 
 42 H        5.1540    14.0030    -1.2350 H     1 <1>   0.0800 
 43 H        6.2440    12.5870     2.0260 H     1 <1>   0.0800 
 44 H        4.6260    12.8340     2.6840 H     1 <1>   0.0800 
 45 H        4.4410    14.8080     1.4740 H     1 <1>   0.0800 
 46 H        6.0480    14.5710     0.8320 H     1 <1>   0.0800 
@<TRIPOS>BOND
  1   1   2  2   
  2   1   3  2   
  3   1   4  1   
  4   1   5  1   
  5   4   6  1   
  6   4  24  1   
  7   4  25  1   
  8   5   7  1   
  9   5  26  1   
 10   5  27  1   
 11   6   7  1   
 12   6   8  1   
 13   6  28  1   
 14   7  29  1   
 15   7  30  1   
 16   8   9  1   
 17   8  10  1   
 18   9  11  1   
 19   9  31  1   
 20   9  32  1   
 21  10  33  1   
 22  10  34  1   
 23  10  35  1   
 24  11  12  2   
 25  11  13  am  
 26  13  14  1   
 27  13  36  1   
 28  14  15  1   
 29  14  37  1   
 30  14  38  1   
 31  15  16  1   
 32  15  39  1   
 33  15  40  1   
 34  16  17  1   
 35  16  18  2   
 36  17  19  1   
 37  18  20  1   
 38  19  20  2   
 39  19  21  1   
 40  20  22  1   
 41  21  23  1   
 42  21  41  1   
 43  21  42  1   
 44  22  23  1   
 45  22  43  1   
 46  22  44  1   
 47  23  45  1   
 48  23  46  1   
@<TRIPOS>SUBSTRUCTURE
  1 ****  13 GROUP 4 **** **** 0

# MOE 2024.06 (io_trps.svl 2023.06)
