@<TRIPOS>MOLECULE
NONAME
41 42 1 0 0 
SMALL
USER_CHARGES


@<TRIPOS>ATOM
  1 S        0.1780     0.5110     0.1120 S.3   1 <1>  -0.0800 
  2 C        1.2450    -0.8230    -0.3460 C.2   1 <1>  -0.0450 
  3 C        1.4570     1.3340     0.9750 C.2   1 <1>  -0.1100 
  4 C        2.4870    -0.5790     0.1540 C.2   1 <1>  -0.1810 
  5 C        0.7050    -1.8890    -1.1540 C.2   1 <1>   0.7150 
  6 C        2.6010     0.6310     0.9010 C.2   1 <1>  -0.1500 
  7 C        3.6980    -1.4760    -0.0350 C.3   1 <1>  -0.0590 
  8 O        1.2020    -2.1110    -2.2450 O.2   1 <1>  -0.5700 
  9 N       -0.3410    -2.6810    -0.7290 N.am  1 <1>  -0.6600 
 10 C       -1.0470    -3.5970    -1.6940 C.3   1 <1>   0.1400 
 11 C       -0.8110    -2.7380     0.6930 C.3   1 <1>   0.1400 
 12 C       -1.8650    -4.6660    -0.9560 C.3   1 <1>   0.2000 
 13 C       -2.3390    -2.7890     0.7070 C.3   1 <1>  -0.1600 
 14 O       -2.4890    -5.5270    -1.8430 O.3   1 <1>  -0.6800 
 15 C       -2.8930    -4.1010     0.0620 C.3   1 <1>  -0.1060 
 16 C       -3.0030    -5.2420     1.0900 C.2   1 <1>   0.9060 
 17 C       -4.3200    -3.8070    -0.5110 C.3   1 <1>  -0.1600 
 18 O       -2.5870    -5.0900     2.2440 O.co2 1 <1>  -0.9000 
 19 O       -3.4530    -6.3310     0.7010 O.co2 1 <1>  -0.9000 
 20 C       -4.4040    -2.9050    -1.7580 C.3   1 <1>  -0.1600 
 21 C       -5.8630    -2.6350    -2.1360 C.3   1 <1>  -0.2400 
 22 H        1.2170     2.2670     1.4520 H     1 <1>   0.1500 
 23 H        3.5350     0.9240     1.3480 H     1 <1>   0.1500 
 24 H        4.4760    -0.9360    -0.5450 H     1 <1>   0.0800 
 25 H        3.4450    -2.3420    -0.6200 H     1 <1>   0.0800 
 26 H        4.0660    -1.8020     0.9210 H     1 <1>   0.0800 
 27 H       -1.6930    -3.0070    -2.3170 H     1 <1>   0.0800 
 28 H       -0.3210    -4.0880    -2.3180 H     1 <1>   0.0800 
 29 H       -0.4160    -3.6190     1.1720 H     1 <1>   0.0800 
 30 H       -0.4750    -1.8840     1.2520 H     1 <1>   0.0800 
 31 H       -1.1500    -5.2720    -0.4230 H     1 <1>   0.0800 
 32 H       -2.6890    -2.7030     1.7210 H     1 <1>   0.0800 
 33 H       -2.6900    -1.9160     0.1940 H     1 <1>   0.0800 
 34 H       -3.0160    -6.1450    -1.2720 H     1 <1>   0.4000 
 35 H       -4.7920    -4.7430    -0.7580 H     1 <1>   0.0800 
 36 H       -4.9080    -3.3730     0.2790 H     1 <1>   0.0800 
 37 H       -3.9100    -1.9650    -1.5920 H     1 <1>   0.0800 
 38 H       -3.9220    -3.3930    -2.5860 H     1 <1>   0.0800 
 39 H       -6.3700    -2.1280    -1.3340 H     1 <1>   0.0800 
 40 H       -6.3720    -3.5610    -2.3380 H     1 <1>   0.0800 
 41 H       -5.9070    -2.0190    -3.0170 H     1 <1>   0.0800 
@<TRIPOS>BOND
  1   1   2  1   
  2   1   3  1   
  3   2   4  2   
  4   2   5  1   
  5   3   6  2   
  6   3  22  1   
  7   4   6  1   
  8   4   7  1   
  9   5   8  2   
 10   5   9  am  
 11   6  23  1   
 12   7  24  1   
 13   7  25  1   
 14   7  26  1   
 15   9  10  1   
 16   9  11  1   
 17  10  12  1   
 18  10  27  1   
 19  10  28  1   
 20  11  13  1   
 21  11  29  1   
 22  11  30  1   
 23  12  14  1   
 24  12  15  1   
 25  12  31  1   
 26  13  15  1   
 27  13  32  1   
 28  13  33  1   
 29  14  34  1   
 30  15  16  1   
 31  15  17  1   
 32  16  18  ar  
 33  16  19  ar  
 34  17  20  1   
 35  17  35  1   
 36  17  36  1   
 37  20  21  1   
 38  20  37  1   
 39  20  38  1   
 40  21  39  1   
 41  21  40  1   
 42  21  41  1   
@<TRIPOS>SUBSTRUCTURE
  1 ****   9 GROUP 4 **** **** 0

# MOE 2024.06 (io_trps.svl 2023.06)
