@<TRIPOS>MOLECULE
NONAME
26 27 1 0 0 
SMALL
USER_CHARGES


@<TRIPOS>ATOM
  1 CL       0.4380     0.1900     2.0020 Cl    1 <1>  -0.1770 
  2 C        1.4430    -0.8440     1.0000 C.ar  1 <1>   0.1770 
  3 C        1.0420    -2.1240     0.6270 C.ar  1 <1>   0.4100 
  4 C        2.6600    -0.3940     0.5660 C.ar  1 <1>   0.1600 
  5 N        1.8280    -2.8700    -0.1310 N.ar  1 <1>  -0.6200 
  6 N       -0.1720    -2.6740     0.9960 N.pl3 1 <1>  -0.8380 
  7 N        3.4500    -1.1360    -0.1920 N.ar  1 <1>  -0.6200 
  8 C        2.9800    -2.3350    -0.4930 C.ar  1 <1>   0.4770 
  9 C       -0.2610    -4.1580     1.3010 C.3   1 <1>   0.2700 
 10 C       -1.4110    -2.1210     0.3730 C.3   1 <1>   0.2090 
 11 C        3.8740    -3.1950    -1.3540 C.3   1 <1>  -0.0960 
 12 C       -1.0540    -4.9850     0.2730 C.2   1 <1>   0.5690 
 13 C       -1.7910    -2.8950    -0.9060 C.3   1 <1>   0.1400 
 14 O       -1.0400    -6.1910     0.3350 O.2   1 <1>  -0.5700 
 15 N       -1.7890    -4.3660    -0.6870 N.am  1 <1>  -0.7300 
 16 H        2.9960     0.5890     0.8410 H     1 <1>   0.1500 
 17 H       -0.7370    -4.2800     2.2560 H     1 <1>   0.0800 
 18 H        0.7240    -4.5790     1.3800 H     1 <1>   0.0800 
 19 H       -1.2700    -1.0830     0.1290 H     1 <1>   0.0800 
 20 H       -2.2180    -2.1830     1.0830 H     1 <1>   0.0800 
 21 H        3.3440    -4.0620    -1.7010 H     1 <1>   0.0800 
 22 H        4.7240    -3.5100    -0.7790 H     1 <1>   0.0800 
 23 H        4.2120    -2.6290    -2.2020 H     1 <1>   0.0800 
 24 H       -1.0830    -2.6570    -1.6820 H     1 <1>   0.0800 
 25 H       -2.7680    -2.5830    -1.2330 H     1 <1>   0.0800 
 26 H       -2.2360    -4.9650    -1.3840 H     1 <1>   0.3700 
@<TRIPOS>BOND
  1   1   2  1   
  2   2   3  ar  
  3   2   4  ar  
  4   3   5  ar  
  5   3   6  1   
  6   4   7  ar  
  7   4  16  1   
  8   5   8  ar  
  9   6   9  1   
 10   6  10  1   
 11   7   8  ar  
 12   8  11  1   
 13   9  12  1   
 14   9  17  1   
 15   9  18  1   
 16  10  13  1   
 17  10  19  1   
 18  10  20  1   
 19  11  21  1   
 20  11  22  1   
 21  11  23  1   
 22  12  14  2   
 23  12  15  am  
 24  13  15  1   
 25  13  24  1   
 26  13  25  1   
 27  15  26  1   
@<TRIPOS>SUBSTRUCTURE
  1 ****   3 GROUP 4 **** **** 0

# MOE 2024.06 (io_trps.svl 2023.06)
