@<TRIPOS>MOLECULE
NONAME
41 43 1 0 0 
SMALL
USER_CHARGES


@<TRIPOS>ATOM
  1 S        0.8970     1.6710     0.6560 S.3   1 <1>  -0.0800 
  2 C        2.4260     0.9140     0.2580 C.2   1 <1>   0.1980 
  3 C        0.7770     2.2330    -0.9860 C.2   1 <1>  -0.1100 
  4 N        2.7830     1.0730    -0.9590 N.2   1 <1>  -0.5650 
  5 C        3.1490     0.1760     1.3890 C.3   1 <1>   0.4690 
  6 C        1.8560     1.8170    -1.6660 C.2   1 <1>   0.0460 
  7 N        4.6080     0.3000     1.2130 N.pl3 1 <1>  -0.8690 
  8 C        2.8080    -1.3090     1.3920 C.3   1 <1>  -0.2400 
  9 C        2.1610     2.0780    -3.1240 C.3   1 <1>  -0.0590 
 10 C        5.2060     1.3240     1.8860 C.ar  1 <1>   0.4100 
 11 N        5.2520     2.4410     1.2010 N.ar  1 <1>  -0.6200 
 12 C        5.6970     1.2030     3.1930 C.ar  1 <1>   0.1600 
 13 C        5.7710     3.4790     1.8750 C.ar  1 <1>   0.3960 
 14 N        6.2300     2.1910     3.8830 N.ar  1 <1>  -0.6200 
 15 C        5.8420     4.8120     1.2670 C.2   1 <1>   0.5440 
 16 C        6.2490     3.3190     3.1820 C.ar  1 <1>   0.1600 
 17 O        6.6680     5.6080     1.6830 O.2   1 <1>  -0.5700 
 18 N        5.0050     5.2510     0.2530 N.am  1 <1>  -0.6600 
 19 C        3.8730     4.5030    -0.3460 C.3   1 <1>   0.1400 
 20 C        5.1320     6.5900    -0.3640 C.3   1 <1>   0.1400 
 21 C        3.1190     5.5320    -1.1780 C.3   1 <1>  -0.1600 
 22 C        4.1750     6.5690    -1.5510 C.3   1 <1>  -0.1600 
 23 H       -0.0860     2.8100    -1.2620 H     1 <1>   0.1500 
 24 H        2.8620     0.6120     2.3310 H     1 <1>   0.0800 
 25 H        4.7280     0.4630     0.2040 H     1 <1>   0.4000 
 26 H        3.0850    -1.7520     0.4520 H     1 <1>   0.0800 
 27 H        1.7510    -1.4400     1.5340 H     1 <1>   0.0800 
 28 H        3.3290    -1.8060     2.1890 H     1 <1>   0.0800 
 29 H        1.3820     2.6670    -3.5730 H     1 <1>   0.0800 
 30 H        2.2400     1.1430    -3.6480 H     1 <1>   0.0800 
 31 H        3.0940     2.6030    -3.2100 H     1 <1>   0.0800 
 32 H        5.6310     0.2380     3.6610 H     1 <1>   0.1500 
 33 H        6.6690     4.1800     3.6730 H     1 <1>   0.1500 
 34 H        3.2420     4.0720     0.4120 H     1 <1>   0.0800 
 35 H        4.2610     3.7210    -0.9780 H     1 <1>   0.0800 
 36 H        6.1470     6.7730    -0.6730 H     1 <1>   0.0800 
 37 H        4.8330     7.3350     0.3530 H     1 <1>   0.0800 
 38 H        2.3600     5.9860    -0.5660 H     1 <1>   0.0800 
 39 H        2.6560     5.0860    -2.0400 H     1 <1>   0.0800 
 40 H        4.7130     6.2450    -2.4250 H     1 <1>   0.0800 
 41 H        3.7520     7.5390    -1.7400 H     1 <1>   0.0800 
@<TRIPOS>BOND
  1   1   2  1   
  2   1   3  1   
  3   2   4  2   
  4   2   5  1   
  5   3   6  2   
  6   3  23  1   
  7   4   6  1   
  8   5   7  1   
  9   5   8  1   
 10   5  24  1   
 11   6   9  1   
 12   7  10  1   
 13   7  25  1   
 14   8  26  1   
 15   8  27  1   
 16   8  28  1   
 17   9  29  1   
 18   9  30  1   
 19   9  31  1   
 20  10  11  ar  
 21  10  12  ar  
 22  11  13  ar  
 23  12  14  ar  
 24  12  32  1   
 25  13  15  1   
 26  13  16  ar  
 27  14  16  ar  
 28  15  17  2   
 29  15  18  am  
 30  16  33  1   
 31  18  19  1   
 32  18  20  1   
 33  19  21  1   
 34  19  34  1   
 35  19  35  1   
 36  20  22  1   
 37  20  36  1   
 38  20  37  1   
 39  21  22  1   
 40  21  38  1   
 41  21  39  1   
 42  22  40  1   
 43  22  41  1   
@<TRIPOS>SUBSTRUCTURE
  1 ****  11 GROUP 4 **** **** 0

# MOE 2024.06 (io_trps.svl 2023.06)
