@<TRIPOS>MOLECULE
NONAME
49 51 1 0 0 
SMALL
USER_CHARGES


@<TRIPOS>ATOM
  1 CL       2.7010    -4.0690     1.1180 Cl    1 <1>  -0.1770 
  2 C        1.0860    -4.4720     0.5890 C.ar  1 <1>   0.1770 
  3 C        0.0290    -4.3250     1.4670 C.ar  1 <1>  -0.1500 
  4 C        0.8900    -4.9340    -0.6980 C.ar  1 <1>  -0.1500 
  5 C       -1.2560    -4.6440     1.0560 C.ar  1 <1>  -0.1440 
  6 C       -0.3900    -5.2530    -1.1150 C.ar  1 <1>  -0.1500 
  7 C       -1.4690    -5.1100    -0.2410 C.ar  1 <1>   0.0820 
  8 C       -2.4170    -4.4930     2.0280 C.3   1 <1>  -0.0960 
  9 O       -2.7490    -5.4100    -0.5900 O.3   1 <1>  -0.3630 
 10 C       -3.0780    -6.0710    -1.8050 C.3   1 <1>   0.1810 
 11 C       -2.6450    -7.5390    -1.8380 C.2   1 <1>   0.5690 
 12 O       -1.8160    -7.8290    -2.6720 O.2   1 <1>  -0.5700 
 13 N       -3.2230    -8.4830    -1.0180 N.am  1 <1>  -0.6600 
 14 C       -2.9950    -9.9510    -1.2550 C.3   1 <1>   0.1400 
 15 C       -4.2880    -8.1780    -0.0240 C.3   1 <1>   0.1400 
 16 C       -2.7980   -10.8010     0.0280 C.3   1 <1>  -0.1060 
 17 C       -3.9860    -8.8660     1.3010 C.3   1 <1>  -0.1600 
 18 C       -3.1280   -12.2600    -0.3140 C.2   1 <1>   0.9060 
 19 C       -3.8440   -10.3720     1.0840 C.3   1 <1>   0.2000 
 20 C       -1.3080   -10.8170     0.4930 C.3   1 <1>  -0.0650 
 21 O       -3.1960   -12.6270    -1.4920 O.co2 1 <1>  -0.9000 
 22 O       -3.3210   -13.0570     0.6170 O.co2 1 <1>  -0.9000 
 23 O       -3.5810   -10.9770     2.2950 O.3   1 <1>  -0.6800 
 24 C       -0.7230    -9.5710     1.1700 C.3   1 <1>  -0.1950 
 25 C       -0.1430    -8.4320     0.4000 C.3   1 <1>  -0.2000 
 26 C        0.7580    -9.3610     1.1570 C.3   1 <1>  -0.2000 
 27 H        0.2220    -3.9660     2.4610 H     1 <1>   0.1500 
 28 H        1.7290    -5.0450    -1.3600 H     1 <1>   0.1500 
 29 H       -0.5190    -5.6180    -2.1160 H     1 <1>   0.1500 
 30 H       -2.0830    -4.1170     2.9780 H     1 <1>   0.0800 
 31 H       -2.8860    -5.4480     2.1820 H     1 <1>   0.0800 
 32 H       -3.1430    -3.8100     1.6250 H     1 <1>   0.0800 
 33 H       -4.1440    -6.0230    -1.9160 H     1 <1>   0.0800 
 34 H       -2.6370    -5.5300    -2.6210 H     1 <1>   0.0800 
 35 H       -3.8600   -10.3180    -1.7810 H     1 <1>   0.0800 
 36 H       -2.1530   -10.1030    -1.9080 H     1 <1>   0.0800 
 37 H       -4.3720    -7.1220     0.1510 H     1 <1>   0.0800 
 38 H       -5.2300    -8.5320    -0.4070 H     1 <1>   0.0800 
 39 H       -4.7970    -8.6870     1.9820 H     1 <1>   0.0800 
 40 H       -3.0980    -8.4400     1.7200 H     1 <1>   0.0800 
 41 H       -4.8040   -10.7450     0.7640 H     1 <1>   0.0800 
 42 H       -1.1860   -11.6250     1.1940 H     1 <1>   0.0800 
 43 H       -0.6990   -11.0690    -0.3580 H     1 <1>   0.0800 
 44 H       -3.4480   -11.9400     2.0710 H     1 <1>   0.4000 
 45 H       -1.1870    -9.3780     2.1210 H     1 <1>   0.1000 
 46 H       -0.1480    -8.4770    -0.6750 H     1 <1>   0.1000 
 47 H       -0.3120    -7.4400     0.7750 H     1 <1>   0.1000 
 48 H        1.2370    -9.0010     2.0510 H     1 <1>   0.1000 
 49 H        1.3790   -10.0400     0.5990 H     1 <1>   0.1000 
@<TRIPOS>BOND
  1   1   2  1   
  2   2   3  ar  
  3   2   4  ar  
  4   3   5  ar  
  5   3  27  1   
  6   4   6  ar  
  7   4  28  1   
  8   5   7  ar  
  9   5   8  1   
 10   6   7  ar  
 11   6  29  1   
 12   7   9  1   
 13   8  30  1   
 14   8  31  1   
 15   8  32  1   
 16   9  10  1   
 17  10  11  1   
 18  10  33  1   
 19  10  34  1   
 20  11  12  2   
 21  11  13  am  
 22  13  14  1   
 23  13  15  1   
 24  14  16  1   
 25  14  35  1   
 26  14  36  1   
 27  15  17  1   
 28  15  37  1   
 29  15  38  1   
 30  16  18  1   
 31  16  19  1   
 32  16  20  1   
 33  17  19  1   
 34  17  39  1   
 35  17  40  1   
 36  18  21  ar  
 37  18  22  ar  
 38  19  23  1   
 39  19  41  1   
 40  20  24  1   
 41  20  42  1   
 42  20  43  1   
 43  23  44  1   
 44  24  25  1   
 45  24  26  1   
 46  24  45  1   
 47  25  26  1   
 48  25  46  1   
 49  25  47  1   
 50  26  48  1   
 51  26  49  1   
@<TRIPOS>SUBSTRUCTURE
  1 ****  25 GROUP 4 **** **** 0

# MOE 2024.06 (io_trps.svl 2023.06)
