@<TRIPOS>MOLECULE
NONAME
46 49 1 0 0 
SMALL
USER_CHARGES


@<TRIPOS>ATOM
  1 F       -2.6010    -0.8620    -2.5970 F     1 <1>  -0.1900 
  2 C       -2.8200     0.0240    -1.6590 C.ar  1 <1>   0.1900 
  3 C       -3.4480    -0.3990    -0.4670 C.ar  1 <1>   0.3100 
  4 C       -2.4280     1.3150    -1.8900 C.ar  1 <1>  -0.1500 
  5 N       -3.8180    -1.7010    -0.2800 N.ar  1 <1>  -0.6200 
  6 C       -3.6770     0.5910     0.5160 C.ar  1 <1>   0.0000 
  7 C       -2.6600     2.2780    -0.9040 C.ar  1 <1>  -0.1500 
  8 C       -4.3980    -2.0240     0.8410 C.ar  1 <1>   0.1670 
  9 C       -4.3080     0.2030     1.7100 C.ar  1 <1>  -0.1500 
 10 C       -3.2710     1.9200     0.2690 C.ar  1 <1>  -0.1500 
 11 C       -4.6650    -1.1020     1.8660 C.ar  1 <1>  -0.1500 
 12 C       -4.8030    -3.4870     1.0330 C.3   1 <1>   0.4870 
 13 N       -5.0850    -4.1110    -0.2970 N.4   1 <1>  -0.9590 
 14 C       -6.4180    -3.6730    -0.8080 C.3   1 <1>   0.3430 
 15 C       -5.0950    -5.6020    -0.2400 C.3   1 <1>   0.3430 
 16 C       -7.3770    -4.8120    -0.4520 C.3   1 <1>   0.2000 
 17 C       -6.5000    -6.0460    -0.6670 C.3   1 <1>  -0.0800 
 18 O       -7.7130    -4.7000     0.8960 O.3   1 <1>  -0.6800 
 19 C       -6.9590    -7.3480     0.0190 C.3   1 <1>   0.0200 
 20 C       -5.9040    -8.4260    -0.1340 C.2   1 <1>  -0.0400 
 21 O       -5.3870    -8.6670    -1.3090 O.3   1 <1>  -0.0190 
 22 C       -5.3210    -9.2490     0.7500 C.2   1 <1>  -0.1500 
 23 N       -4.4790    -9.5940    -1.2560 N.2   1 <1>  -0.4100 
 24 C       -4.4230    -9.9730    -0.0300 C.2   1 <1>   0.1080 
 25 C       -3.5020   -11.0590     0.4830 C.3   1 <1>  -0.0590 
 26 H       -1.9500     1.5900    -2.8140 H     1 <1>   0.1500 
 27 H       -2.3530     3.2950    -1.0810 H     1 <1>   0.1500 
 28 H       -4.4950     0.9380     2.4740 H     1 <1>   0.1500 
 29 H       -3.4500     2.6610     1.0290 H     1 <1>   0.1500 
 30 H       -5.1490    -1.4290     2.7700 H     1 <1>   0.1500 
 31 H       -5.6700    -3.5550     1.6680 H     1 <1>   0.0800 
 32 H       -3.9850    -4.0020     1.5080 H     1 <1>   0.0800 
 33 H       -4.3470    -3.7250    -0.9150 H     1 <1>   0.4500 
 34 H       -6.7360    -2.7360    -0.3790 H     1 <1>   0.0800 
 35 H       -6.3720    -3.5710    -1.8800 H     1 <1>   0.0800 
 36 H       -4.3500    -6.0250    -0.8960 H     1 <1>   0.0800 
 37 H       -4.9010    -5.9340     0.7670 H     1 <1>   0.0800 
 38 H       -8.2760    -4.7980    -1.0460 H     1 <1>   0.0800 
 39 H       -6.4560    -6.2340    -1.7270 H     1 <1>   0.0800 
 40 H       -8.5460    -5.1800     1.0930 H     1 <1>   0.4000 
 41 H       -7.8760    -7.6900    -0.4290 H     1 <1>   0.0800 
 42 H       -7.1350    -7.1940     1.0690 H     1 <1>   0.0800 
 43 H       -5.4760    -9.3600     1.8080 H     1 <1>   0.1500 
 44 H       -2.8560   -10.6640     1.2450 H     1 <1>   0.0800 
 45 H       -2.8990   -11.4400    -0.3210 H     1 <1>   0.0800 
 46 H       -4.0820   -11.8650     0.8930 H     1 <1>   0.0800 
@<TRIPOS>BOND
  1   1   2  1   
  2   2   3  ar  
  3   2   4  ar  
  4   3   5  ar  
  5   3   6  ar  
  6   4   7  ar  
  7   4  26  1   
  8   5   8  ar  
  9   6   9  ar  
 10   6  10  ar  
 11   7  10  ar  
 12   7  27  1   
 13   8  11  ar  
 14   8  12  1   
 15   9  11  ar  
 16   9  28  1   
 17  10  29  1   
 18  11  30  1   
 19  12  13  1   
 20  12  31  1   
 21  12  32  1   
 22  13  14  1   
 23  13  15  1   
 24  13  33  1   
 25  14  16  1   
 26  14  34  1   
 27  14  35  1   
 28  15  17  1   
 29  15  36  1   
 30  15  37  1   
 31  16  17  1   
 32  16  18  1   
 33  16  38  1   
 34  17  19  1   
 35  17  39  1   
 36  18  40  1   
 37  19  20  1   
 38  19  41  1   
 39  19  42  1   
 40  20  21  1   
 41  20  22  2   
 42  21  23  1   
 43  22  24  1   
 44  22  43  1   
 45  23  24  2   
 46  24  25  1   
 47  25  44  1   
 48  25  45  1   
 49  25  46  1   
@<TRIPOS>SUBSTRUCTURE
  1 ****  13 GROUP 4 **** **** 0

# MOE 2024.06 (io_trps.svl 2023.06)
