@<TRIPOS>MOLECULE
NONAME
48 50 1 0 0 
SMALL
USER_CHARGES


@<TRIPOS>ATOM
  1 CL      -0.1290    -0.3180     1.0270 Cl    1 <1>  -0.1770 
  2 C       -0.9030    -1.8340     0.6450 C.ar  1 <1>   0.1770 
  3 C       -0.1610    -2.8540     0.0810 C.ar  1 <1>  -0.1500 
  4 C       -2.2490    -2.0000     0.9110 C.ar  1 <1>  -0.1500 
  5 C       -0.7790    -4.0540    -0.2180 C.ar  1 <1>  -0.1500 
  6 C       -2.8540    -3.2070     0.6080 C.ar  1 <1>  -0.1500 
  7 C       -2.1380    -4.2610     0.0370 C.ar  1 <1>   0.0530 
  8 C       -2.7530    -5.5320    -0.2680 C.2   1 <1>   0.0870 
  9 O       -2.0350    -6.6260    -0.1520 O.3   1 <1>  -0.0190 
 10 C       -3.9970    -5.9200    -0.6610 C.2   1 <1>  -0.2330 
 11 N       -2.7070    -7.7110    -0.4300 N.2   1 <1>  -0.4100 
 12 C       -3.8850    -7.3060    -0.7450 C.2   1 <1>   0.3720 
 13 C       -5.1970    -5.1920    -0.9460 C.2   1 <1>   1.0330 
 14 N       -4.9210    -8.1490    -1.1130 N.pl3 1 <1>  -0.8520 
 15 O       -5.1730    -3.9720    -1.1760 O.co2 1 <1>  -0.9000 
 16 O       -6.3020    -5.7710    -0.9500 O.co2 1 <1>  -0.9000 
 17 C       -5.2100    -9.2270    -0.1510 C.3   1 <1>   0.2090 
 18 C       -6.5200    -9.9440    -0.5150 C.3   1 <1>  -0.0800 
 19 C       -7.7370    -8.9960    -0.4660 C.3   1 <1>  -0.1600 
 20 C       -6.7360   -11.1440     0.4260 C.3   1 <1>  -0.1600 
 21 C       -9.0470    -9.7380    -0.7720 C.3   1 <1>  -0.1600 
 22 C       -8.0430   -11.8850     0.1080 C.3   1 <1>  -0.1600 
 23 C       -9.2580   -10.9390     0.1680 C.3   1 <1>  -0.0190 
 24 C      -10.5570   -11.6800    -0.1550 C.2   1 <1>   0.5690 
 25 O      -10.6710   -12.2550    -1.2110 O.2   1 <1>  -0.5700 
 26 N      -11.5570   -11.6720     0.7690 N.am  1 <1>  -0.7300 
 27 C      -12.8700   -12.3460     0.6100 C.3   1 <1>   0.0600 
 28 H        0.8840    -2.7050    -0.1200 H     1 <1>   0.1500 
 29 H       -2.8170    -1.1970     1.3430 H     1 <1>   0.1500 
 30 H       -0.2060    -4.8500    -0.6620 H     1 <1>   0.1500 
 31 H       -3.9030    -3.3350     0.8130 H     1 <1>   0.1500 
 32 H       -5.7600    -7.5340    -1.2030 H     1 <1>   0.4000 
 33 H       -5.2810    -8.8090     0.8390 H     1 <1>   0.0800 
 34 H       -4.3940    -9.9290    -0.1680 H     1 <1>   0.0800 
 35 H       -6.4170   -10.3190    -1.5190 H     1 <1>   0.0800 
 36 H       -7.6140    -8.2040    -1.1860 H     1 <1>   0.0800 
 37 H       -7.8000    -8.5370     0.5050 H     1 <1>   0.0800 
 38 H       -6.7630   -10.8000     1.4460 H     1 <1>   0.0800 
 39 H       -5.9120   -11.8300     0.3290 H     1 <1>   0.0800 
 40 H       -9.0240   -10.0850    -1.7920 H     1 <1>   0.0800 
 41 H       -9.8730    -9.0550    -0.6800 H     1 <1>   0.0800 
 42 H       -8.1800   -12.6920     0.8060 H     1 <1>   0.0800 
 43 H       -7.9760   -12.3130    -0.8780 H     1 <1>   0.0800 
 44 H       -9.3310   -10.5610     1.1710 H     1 <1>   0.0800 
 45 H      -11.4210   -11.1610     1.6420 H     1 <1>   0.3700 
 46 H      -12.9190   -12.8550    -0.3380 H     1 <1>   0.0800 
 47 H      -13.6610   -11.6180     0.6530 H     1 <1>   0.0800 
 48 H      -13.0070   -13.0680     1.3970 H     1 <1>   0.0800 
@<TRIPOS>BOND
  1   1   2  1   
  2   2   3  ar  
  3   2   4  ar  
  4   3   5  ar  
  5   3  28  1   
  6   4   6  ar  
  7   4  29  1   
  8   5   7  ar  
  9   5  30  1   
 10   6   7  ar  
 11   6  31  1   
 12   7   8  1   
 13   8   9  1   
 14   8  10  2   
 15   9  11  1   
 16  10  12  1   
 17  10  13  1   
 18  11  12  2   
 19  12  14  1   
 20  13  15  ar  
 21  13  16  ar  
 22  14  17  1   
 23  14  32  1   
 24  17  18  1   
 25  17  33  1   
 26  17  34  1   
 27  18  19  1   
 28  18  20  1   
 29  18  35  1   
 30  19  21  1   
 31  19  36  1   
 32  19  37  1   
 33  20  22  1   
 34  20  38  1   
 35  20  39  1   
 36  21  23  1   
 37  21  40  1   
 38  21  41  1   
 39  22  23  1   
 40  22  42  1   
 41  22  43  1   
 42  23  24  1   
 43  23  44  1   
 44  24  25  2   
 45  24  26  am  
 46  26  27  1   
 47  26  45  1   
 48  27  46  1   
 49  27  47  1   
 50  27  48  1   
@<TRIPOS>SUBSTRUCTURE
  1 ****  14 GROUP 4 **** **** 0

# MOE 2024.06 (io_trps.svl 2023.06)
