@<TRIPOS>MOLECULE
NONAME
51 52 1 0 0 
SMALL
USER_CHARGES


@<TRIPOS>ATOM
  1 O       -0.9620    -0.7570     1.2550 O.2   1 <1>  -0.5700 
  2 C       -0.1500    -1.5860     0.9240 C.2   1 <1>   0.5690 
  3 N        1.1160    -1.2040     0.6460 N.am  1 <1>  -0.8000 
  4 C       -0.6190    -3.0630     0.8060 C.3   1 <1>   0.4840 
  5 N       -2.0840    -3.1540     0.4370 N.4   1 <1>  -0.9590 
  6 C       -0.3580    -3.7870     2.1330 C.3   1 <1>  -0.2400 
  7 C       -2.7080    -4.5250     0.5260 C.3   1 <1>   0.3430 
  8 C       -2.3220    -2.5450    -0.9090 C.3   1 <1>   0.3430 
  9 C       -4.2530    -4.5330     0.5260 C.3   1 <1>   0.1400 
 10 C       -3.5240    -1.6040    -0.8750 C.3   1 <1>  -0.1600 
 11 N       -4.8490    -3.6700    -0.5430 N.am  1 <1>  -0.6600 
 12 C       -4.7870    -2.2100    -0.2600 C.3   1 <1>   0.1400 
 13 C       -5.5190    -4.1160    -1.6630 C.2   1 <1>   0.5690 
 14 O       -5.7840    -3.3460    -2.5550 O.2   1 <1>  -0.5700 
 15 C       -5.9230    -5.5740    -1.8650 C.3   1 <1>   0.0440 
 16 C       -6.6710    -6.1980    -0.6820 C.ar  1 <1>  -0.1430 
 17 C       -6.4220    -7.4970    -0.2430 C.ar  1 <1>  -0.1430 
 18 C       -7.6240    -5.4310    -0.0240 C.ar  1 <1>  -0.1500 
 19 C       -7.1070    -7.9840     0.8600 C.ar  1 <1>  -0.1500 
 20 C       -5.4310    -8.4220    -0.9370 C.3   1 <1>  -0.0970 
 21 C       -8.3040    -5.9210     1.0770 C.ar  1 <1>  -0.1430 
 22 C       -8.0380    -7.2030     1.5190 C.ar  1 <1>  -0.1500 
 23 C       -9.3380    -5.0610     1.7810 C.3   1 <1>  -0.0970 
 24 H        1.3660    -0.2150     0.7550 H     1 <1>   0.3700 
 25 H        1.8980    -1.8130     0.3930 H     1 <1>   0.3700 
 26 H       -0.0310    -3.5340     0.0370 H     1 <1>   0.0800 
 27 H       -2.5500    -2.5200     1.1050 H     1 <1>   0.4500 
 28 H       -1.0140    -3.4210     2.9030 H     1 <1>   0.0800 
 29 H        0.6540    -3.5990     2.4490 H     1 <1>   0.0800 
 30 H       -0.4610    -4.8520     2.0320 H     1 <1>   0.0800 
 31 H       -2.3920    -5.0150     1.4300 H     1 <1>   0.0800 
 32 H       -2.3640    -5.1250    -0.3000 H     1 <1>   0.0800 
 33 H       -2.5040    -3.3220    -1.6350 H     1 <1>   0.0800 
 34 H       -1.4600    -1.9830    -1.2320 H     1 <1>   0.0800 
 35 H       -4.6140    -4.2040     1.4850 H     1 <1>   0.0800 
 36 H       -4.5670    -5.5520     0.4170 H     1 <1>   0.0800 
 37 H       -3.7510    -1.3230    -1.8880 H     1 <1>   0.0800 
 38 H       -3.2700    -0.6970    -0.3540 H     1 <1>   0.0800 
 39 H       -5.6570    -1.7180    -0.6660 H     1 <1>   0.0800 
 40 H       -4.7980    -2.0470     0.8040 H     1 <1>   0.0800 
 41 H       -5.0310    -6.1180    -2.0980 H     1 <1>   0.0800 
 42 H       -6.5630    -5.6320    -2.7270 H     1 <1>   0.0800 
 43 H       -7.8460    -4.4350    -0.3680 H     1 <1>   0.1500 
 44 H       -6.9270    -8.9830     1.2160 H     1 <1>   0.1500 
 45 H       -5.6490    -8.4740    -1.9890 H     1 <1>   0.0800 
 46 H       -5.4940    -9.4200    -0.5410 H     1 <1>   0.0800 
 47 H       -4.4270    -8.0670    -0.7980 H     1 <1>   0.0800 
 48 H       -8.5590    -7.6020     2.3700 H     1 <1>   0.1500 
 49 H       -9.0320    -4.0300     1.7800 H     1 <1>   0.0800 
 50 H       -9.4630    -5.3780     2.8010 H     1 <1>   0.0800 
 51 H      -10.2820    -5.1440     1.2740 H     1 <1>   0.0800 
@<TRIPOS>BOND
  1   1   2  2   
  2   2   3  am  
  3   2   4  1   
  4   3  24  1   
  5   3  25  1   
  6   4   5  1   
  7   4   6  1   
  8   4  26  1   
  9   5   7  1   
 10   5   8  1   
 11   5  27  1   
 12   6  28  1   
 13   6  29  1   
 14   6  30  1   
 15   7   9  1   
 16   7  31  1   
 17   7  32  1   
 18   8  10  1   
 19   8  33  1   
 20   8  34  1   
 21   9  11  1   
 22   9  35  1   
 23   9  36  1   
 24  10  12  1   
 25  10  37  1   
 26  10  38  1   
 27  11  12  1   
 28  11  13  am  
 29  12  39  1   
 30  12  40  1   
 31  13  14  2   
 32  13  15  1   
 33  15  16  1   
 34  15  41  1   
 35  15  42  1   
 36  16  17  ar  
 37  16  18  ar  
 38  17  19  ar  
 39  17  20  1   
 40  18  21  ar  
 41  18  43  1   
 42  19  22  ar  
 43  19  44  1   
 44  20  45  1   
 45  20  46  1   
 46  20  47  1   
 47  21  22  ar  
 48  21  23  1   
 49  22  48  1   
 50  23  49  1   
 51  23  50  1   
 52  23  51  1   
@<TRIPOS>SUBSTRUCTURE
  1 ****   9 GROUP 4 **** **** 0

# MOE 2024.06 (io_trps.svl 2023.06)
