@<TRIPOS>MOLECULE
NONAME
24 24 1 0 0 
SMALL
USER_CHARGES


@<TRIPOS>ATOM
  1 F        0.2630     0.9170    -1.0320 F     1 <1>  -0.3400 
  2 C       -0.0750     1.5700     0.0700 C.3   1 <1>   1.1640 
  3 F        0.6520     1.0670     1.0580 F     1 <1>  -0.3400 
  4 F       -1.3240     1.2080     0.3330 F     1 <1>  -0.3400 
  5 C        0.0840     3.0820    -0.0770 C.ar  1 <1>  -0.1440 
  6 C        1.3240     3.7250     0.0090 C.ar  1 <1>   0.0860 
  7 C       -1.0510     3.8450    -0.2930 C.ar  1 <1>   0.1600 
  8 C        2.6100     3.0800     0.1880 C.2   1 <1>   0.6340 
  9 C        1.2840     5.1070    -0.0910 C.ar  1 <1>  -0.1500 
 10 N       -1.0760     5.1590    -0.4060 N.ar  1 <1>  -0.6200 
 11 O        3.4650     3.5230     0.9230 O.2   1 <1>  -0.5700 
 12 O        2.8630     1.9800    -0.5200 O.3   1 <1>  -0.4300 
 13 C        0.0850     5.7750    -0.2940 C.ar  1 <1>   0.3930 
 14 C        4.0900     1.2850    -0.4110 C.3   1 <1>   0.0400 
 15 O        0.0110     7.1170    -0.3960 O.3   1 <1>  -0.3630 
 16 C        1.1210     7.9680    -0.2140 C.3   1 <1>   0.0400 
 17 H       -2.0140     3.3650    -0.3790 H     1 <1>   0.1500 
 18 H        2.2060     5.6500    -0.0100 H     1 <1>   0.1500 
 19 H        4.0590     0.4340    -1.0680 H     1 <1>   0.0800 
 20 H        4.2170     0.9620     0.6080 H     1 <1>   0.0800 
 21 H        4.8910     1.9450    -0.6950 H     1 <1>   0.0800 
 22 H        0.7800     8.9840    -0.3070 H     1 <1>   0.0800 
 23 H        1.8530     7.7590    -0.9740 H     1 <1>   0.0800 
 24 H        1.5280     7.8100     0.7700 H     1 <1>   0.0800 
@<TRIPOS>BOND
  1   1   2  1   
  2   2   3  1   
  3   2   4  1   
  4   2   5  1   
  5   5   6  ar  
  6   5   7  ar  
  7   6   8  1   
  8   6   9  ar  
  9   7  10  ar  
 10   7  17  1   
 11   8  11  2   
 12   8  12  1   
 13   9  13  ar  
 14   9  18  1   
 15  10  13  ar  
 16  12  14  1   
 17  13  15  1   
 18  14  19  1   
 19  14  20  1   
 20  14  21  1   
 21  15  16  1   
 22  16  22  1   
 23  16  23  1   
 24  16  24  1   
@<TRIPOS>SUBSTRUCTURE
  1 ****   6 GROUP 4 **** **** 0

# MOE 2024.06 (io_trps.svl 2023.06)
