@<TRIPOS>MOLECULE
NONAME
40 41 1 0 0 
SMALL
USER_CHARGES


@<TRIPOS>ATOM
  1 O       -1.0060     1.4860    -1.9920 O.3   1 <1>  -0.6800 
  2 C       -0.5750     2.6210    -1.3130 C.3   1 <1>   0.2000 
  3 C       -1.4160     2.8350    -0.0200 C.3   1 <1>   0.0000 
  4 C        0.9340     2.5010    -1.0370 C.3   1 <1>   0.2090 
  5 C       -0.8170     4.0560     0.7310 C.3   1 <1>  -0.1600 
  6 C       -1.3270     1.5570     0.8640 C.3   1 <1>   0.1200 
  7 C       -2.9170     3.0920    -0.3500 C.3   1 <1>  -0.1600 
  8 N        1.4030     3.6830    -0.2500 N.pl3 1 <1>  -0.8380 
  9 C        0.6800     3.9090     1.0260 C.3   1 <1>   0.2090 
 10 O       -2.0220     1.7100     2.0590 O.3   1 <1>  -0.6800 
 11 C       -3.2260     4.2150    -1.3600 C.3   1 <1>  -0.1600 
 12 C        2.7260     4.0850    -0.3570 C.ar  1 <1>   0.4100 
 13 C       -4.7380     4.3730    -1.5450 C.3   1 <1>  -0.2400 
 14 N        3.6110     3.0990    -0.2520 N.ar  1 <1>  -0.6200 
 15 C        3.1000     5.4370    -0.5590 C.ar  1 <1>   0.3830 
 16 C        4.8590     3.5120    -0.3510 C.ar  1 <1>   0.1600 
 17 N        4.3710     5.8350    -0.6510 N.ar  1 <1>  -0.6200 
 18 C        2.0600     6.4200    -0.6700 C.1   1 <1>   0.4840 
 19 C        5.2280     4.8350    -0.5430 C.ar  1 <1>   0.1600 
 20 N        1.2160     7.1910    -0.7330 N.1   1 <1>  -0.5570 
 21 H       -1.9510     1.5810    -2.2210 H     1 <1>   0.4000 
 22 H       -0.7030     3.4570    -1.9770 H     1 <1>   0.0800 
 23 H        1.4630     2.4630    -1.9730 H     1 <1>   0.0800 
 24 H        1.1500     1.6000    -0.4900 H     1 <1>   0.0800 
 25 H       -1.3440     4.2270     1.6520 H     1 <1>   0.0800 
 26 H       -0.9320     4.9460     0.1390 H     1 <1>   0.0800 
 27 H       -0.3110     1.3060     1.1090 H     1 <1>   0.0800 
 28 H       -1.7600     0.7150     0.3520 H     1 <1>   0.0800 
 29 H       -3.3500     2.1790    -0.7210 H     1 <1>   0.0800 
 30 H       -3.4340     3.3190     0.5660 H     1 <1>   0.0800 
 31 H        0.8630     3.0830     1.6920 H     1 <1>   0.0800 
 32 H        1.0440     4.8040     1.5030 H     1 <1>   0.0800 
 33 H       -1.6590     2.4520     2.5780 H     1 <1>   0.4000 
 34 H       -2.8260     5.1530    -1.0160 H     1 <1>   0.0800 
 35 H       -2.7910     3.9950    -2.3180 H     1 <1>   0.0800 
 36 H       -5.2080     4.6260    -0.6100 H     1 <1>   0.0800 
 37 H       -5.1720     3.4610    -1.9140 H     1 <1>   0.0800 
 38 H       -4.9420     5.1590    -2.2510 H     1 <1>   0.0800 
 39 H        5.6300     2.7660    -0.2760 H     1 <1>   0.1500 
 40 H        6.2750     5.0750    -0.6110 H     1 <1>   0.1500 
@<TRIPOS>BOND
  1   1   2  1   
  2   1  21  1   
  3   2   3  1   
  4   2   4  1   
  5   2  22  1   
  6   3   5  1   
  7   3   6  1   
  8   3   7  1   
  9   4   8  1   
 10   4  23  1   
 11   4  24  1   
 12   5   9  1   
 13   5  25  1   
 14   5  26  1   
 15   6  10  1   
 16   6  27  1   
 17   6  28  1   
 18   7  11  1   
 19   7  29  1   
 20   7  30  1   
 21   8   9  1   
 22   8  12  1   
 23   9  31  1   
 24   9  32  1   
 25  10  33  1   
 26  11  13  1   
 27  11  34  1   
 28  11  35  1   
 29  12  14  ar  
 30  12  15  ar  
 31  13  36  1   
 32  13  37  1   
 33  13  38  1   
 34  14  16  ar  
 35  15  17  ar  
 36  15  18  1   
 37  16  19  ar  
 38  16  39  1   
 39  17  19  ar  
 40  18  20  3   
 41  19  40  1   
@<TRIPOS>SUBSTRUCTURE
  1 ****   8 GROUP 4 **** **** 0

# MOE 2024.06 (io_trps.svl 2023.06)
