@<TRIPOS>MOLECULE
NONAME
50 53 1 0 0 
SMALL
USER_CHARGES


@<TRIPOS>ATOM
  1 F        0.2230    -1.7060    -1.7080 F     1 <1>  -0.1900 
  2 C       -0.6220    -2.5770    -1.2170 C.ar  1 <1>   0.1900 
  3 C       -0.1970    -3.7800    -0.6400 C.ar  1 <1>   0.0830 
  4 C       -1.9610    -2.2460    -1.2930 C.ar  1 <1>  -0.1500 
  5 O        1.0890    -4.2180    -0.5080 O.3   1 <1>  -0.3630 
  6 C       -1.1690    -4.6320    -0.1430 C.ar  1 <1>  -0.1500 
  7 C       -2.9030    -3.1200    -0.7850 C.ar  1 <1>  -0.1500 
  8 C        2.1950    -3.5250    -1.0440 C.3   1 <1>   0.0400 
  9 C       -2.5320    -4.3320    -0.2020 C.ar  1 <1>   0.0530 
 10 C       -3.5050    -5.2450     0.3480 C.2   1 <1>   0.0870 
 11 O       -3.2180    -5.8680     1.4690 O.3   1 <1>  -0.0190 
 12 C       -4.7430    -5.6650    -0.0300 C.2   1 <1>  -0.2330 
 13 N       -4.1740    -6.6600     1.8720 N.2   1 <1>  -0.4100 
 14 C       -5.1030    -6.5430     0.9920 C.2   1 <1>   0.3720 
 15 C       -5.5530    -5.3920    -1.1830 C.2   1 <1>   1.0330 
 16 N       -6.3120    -7.2190     1.0500 N.pl3 1 <1>  -0.8520 
 17 O       -5.2070    -4.5610    -2.0350 O.co2 1 <1>  -0.9000 
 18 O       -6.6270    -6.0030    -1.3630 O.co2 1 <1>  -0.9000 
 19 C       -6.2100    -8.6910     0.9490 C.3   1 <1>   0.2090 
 20 C       -6.1480    -9.1190    -0.5170 C.3   1 <1>   0.0210 
 21 C       -6.0370   -10.6260    -0.6130 C.2   1 <1>   0.3350 
 22 N       -5.0340   -11.2590    -1.0760 N.2   1 <1>  -0.4100 
 23 N       -7.0140   -11.4190    -0.1960 N.2   1 <1>  -0.5650 
 24 O       -5.3080   -12.5250    -0.9900 O.3   1 <1>  -0.0190 
 25 C       -6.5050   -12.5570    -0.4580 C.2   1 <1>   0.2980 
 26 C       -7.1370   -13.9240    -0.2080 C.3   1 <1>   0.1000 
 27 C       -7.3230   -14.7460    -1.4850 C.3   1 <1>  -0.1600 
 28 C       -8.5440   -13.8920     0.3910 C.3   1 <1>  -0.1600 
 29 C       -8.3940   -15.7890    -1.1490 C.3   1 <1>  -0.1600 
 30 C       -9.1300   -15.2730     0.0940 C.3   1 <1>  -0.1600 
 31 H       -2.2650    -1.3200    -1.7460 H     1 <1>   0.1500 
 32 H       -0.8610    -5.5600     0.3020 H     1 <1>   0.1500 
 33 H       -3.9480    -2.8650    -0.8440 H     1 <1>   0.1500 
 34 H        3.0780    -4.1060    -0.8500 H     1 <1>   0.0800 
 35 H        2.2760    -2.5670    -0.5620 H     1 <1>   0.0800 
 36 H        2.0570    -3.4140    -2.1050 H     1 <1>   0.0800 
 37 H       -6.8580    -6.8670     0.2310 H     1 <1>   0.4000 
 38 H       -7.0730    -9.1300     1.4200 H     1 <1>   0.0800 
 39 H       -5.3320    -9.0350     1.4690 H     1 <1>   0.0800 
 40 H       -5.2950    -8.6690    -0.9910 H     1 <1>   0.0800 
 41 H       -7.0360    -8.7970    -1.0300 H     1 <1>   0.0800 
 42 H       -6.4970   -14.4730     0.4610 H     1 <1>   0.0800 
 43 H       -6.4020   -15.2000    -1.8060 H     1 <1>   0.0800 
 44 H       -7.6880   -14.1030    -2.2680 H     1 <1>   0.0800 
 45 H       -9.1320   -13.1440    -0.1140 H     1 <1>   0.0800 
 46 H       -8.5270   -13.6710     1.4440 H     1 <1>   0.0800 
 47 H       -7.9340   -16.7380    -0.9310 H     1 <1>   0.0800 
 48 H       -9.0710   -15.9160    -1.9770 H     1 <1>   0.0800 
 49 H      -10.1930   -15.2170    -0.0690 H     1 <1>   0.0800 
 50 H       -8.9410   -15.9330     0.9230 H     1 <1>   0.0800 
@<TRIPOS>BOND
  1   1   2  1   
  2   2   3  ar  
  3   2   4  ar  
  4   3   5  1   
  5   3   6  ar  
  6   4   7  ar  
  7   4  31  1   
  8   5   8  1   
  9   6   9  ar  
 10   6  32  1   
 11   7   9  ar  
 12   7  33  1   
 13   8  34  1   
 14   8  35  1   
 15   8  36  1   
 16   9  10  1   
 17  10  11  1   
 18  10  12  2   
 19  11  13  1   
 20  12  14  1   
 21  12  15  1   
 22  13  14  2   
 23  14  16  1   
 24  15  17  ar  
 25  15  18  ar  
 26  16  19  1   
 27  16  37  1   
 28  19  20  1   
 29  19  38  1   
 30  19  39  1   
 31  20  21  1   
 32  20  40  1   
 33  20  41  1   
 34  21  22  2   
 35  21  23  1   
 36  22  24  1   
 37  23  25  2   
 38  24  25  1   
 39  25  26  1   
 40  26  27  1   
 41  26  28  1   
 42  26  42  1   
 43  27  29  1   
 44  27  43  1   
 45  27  44  1   
 46  28  30  1   
 47  28  45  1   
 48  28  46  1   
 49  29  30  1   
 50  29  47  1   
 51  29  48  1   
 52  30  49  1   
 53  30  50  1   
@<TRIPOS>SUBSTRUCTURE
  1 ****  14 GROUP 4 **** **** 0

# MOE 2024.06 (io_trps.svl 2023.06)
