@<TRIPOS>MOLECULE
NONAME
42 44 1 0 0 
SMALL
USER_CHARGES


@<TRIPOS>ATOM
  1 O       -2.2790     0.9930    -1.7340 O.2   1 <1>  -0.5700 
  2 C       -1.8120     0.9420    -0.6130 C.2   1 <1>   0.7160 
  3 N       -1.7640    -0.2680     0.0130 N.am  1 <1>  -0.7300 
  4 C       -1.3350     2.1300     0.0480 C.2   1 <1>  -0.0860 
  5 C       -2.2320    -1.5440    -0.5690 C.3   1 <1>   0.2200 
  6 C       -0.6890     2.2120     1.2850 C.2   1 <1>   0.1390 
  7 C       -1.3880     3.4310    -0.3510 C.2   1 <1>  -0.3020 
  8 C       -3.6380    -1.8350    -0.0710 C.3   1 <1>  -0.0800 
  9 C       -1.4450    -2.6990     0.0380 C.3   1 <1>   0.1200 
 10 N       -0.3810     3.4250     1.6190 N.2   1 <1>  -0.7070 
 11 N       -0.8140     4.1840     0.5980 N.pl3 1 <1>   0.3140 
 12 C       -3.3750    -2.5160     1.2790 C.3   1 <1>   0.1200 
 13 C       -4.4040    -2.7460    -1.0480 C.3   1 <1>  -0.0160 
 14 O       -2.0490    -2.9620     1.2680 O.3   1 <1>  -0.5600 
 15 C       -0.6460     5.6510     0.5870 C.3   1 <1>   0.0960 
 16 C       -5.8220    -3.0130    -0.5650 C.ar  1 <1>  -0.1430 
 17 C        0.5860     6.0600    -0.2290 C.3   1 <1>  -0.2400 
 18 C       -6.2000    -4.2280    -0.0290 C.ar  1 <1>  -0.1500 
 19 C       -6.8060    -2.0480    -0.6410 C.ar  1 <1>  -0.1500 
 20 C       -7.5050    -4.4110     0.3980 C.ar  1 <1>   0.1600 
 21 C       -8.0820    -2.3340    -0.1860 C.ar  1 <1>   0.1600 
 22 N       -8.4550    -3.4920     0.3340 N.ar  1 <1>  -0.6200 
 23 H       -1.4860    -0.3280     0.9930 H     1 <1>   0.3700 
 24 H       -2.1550    -1.5180    -1.6440 H     1 <1>   0.0800 
 25 H       -0.4600     1.3660     1.9090 H     1 <1>   0.1500 
 26 H       -1.8040     3.8300    -1.2580 H     1 <1>   0.1500 
 27 H       -4.1980    -0.9260     0.0600 H     1 <1>   0.0800 
 28 H       -0.4060    -2.4630     0.1860 H     1 <1>   0.0800 
 29 H       -1.5350    -3.5830    -0.5680 H     1 <1>   0.0800 
 30 H       -4.0220    -3.3560     1.4600 H     1 <1>   0.0800 
 31 H       -3.4740    -1.8120     2.0870 H     1 <1>   0.0800 
 32 H       -3.8850    -3.6800    -1.1760 H     1 <1>   0.0800 
 33 H       -4.4560    -2.2690    -2.0120 H     1 <1>   0.0800 
 34 H       -1.5330     6.0930     0.1710 H     1 <1>   0.0800 
 35 H       -0.5410     5.9840     1.6040 H     1 <1>   0.0800 
 36 H        0.4830     5.7400    -1.2510 H     1 <1>   0.0800 
 37 H        1.4710     5.6170     0.1950 H     1 <1>   0.0800 
 38 H        0.6970     7.1290    -0.2130 H     1 <1>   0.0800 
 39 H       -5.4960    -5.0340     0.0620 H     1 <1>   0.1500 
 40 H       -6.5930    -1.0780    -1.0510 H     1 <1>   0.1500 
 41 H       -7.7820    -5.3650     0.8140 H     1 <1>   0.1500 
 42 H       -8.8370    -1.5690    -0.2540 H     1 <1>   0.1500 
@<TRIPOS>BOND
  1   1   2  2   
  2   2   3  am  
  3   2   4  1   
  4   3   5  1   
  5   3  23  1   
  6   4   6  1   
  7   4   7  2   
  8   5   8  1   
  9   5   9  1   
 10   5  24  1   
 11   6  10  2   
 12   6  25  1   
 13   7  11  1   
 14   7  26  1   
 15   8  12  1   
 16   8  13  1   
 17   8  27  1   
 18   9  14  1   
 19   9  28  1   
 20   9  29  1   
 21  10  11  1   
 22  11  15  1   
 23  12  14  1   
 24  12  30  1   
 25  12  31  1   
 26  13  16  1   
 27  13  32  1   
 28  13  33  1   
 29  15  17  1   
 30  15  34  1   
 31  15  35  1   
 32  16  18  ar  
 33  16  19  ar  
 34  17  36  1   
 35  17  37  1   
 36  17  38  1   
 37  18  20  ar  
 38  18  39  1   
 39  19  21  ar  
 40  19  40  1   
 41  20  22  ar  
 42  20  41  1   
 43  21  22  ar  
 44  21  42  1   
@<TRIPOS>SUBSTRUCTURE
  1 ****   3 GROUP 4 **** **** 0

# MOE 2024.06 (io_trps.svl 2023.06)
