@<TRIPOS>MOLECULE
NONAME
40 42 1 0 0 
SMALL
USER_CHARGES


@<TRIPOS>ATOM
  1 CL      -0.7050     0.7510    -1.3660 Cl    1 <1>  -0.1770 
  2 C       -1.7630     1.6420    -0.2950 C.ar  1 <1>   0.1770 
  3 C       -1.2880     2.7210     0.4460 C.ar  1 <1>  -0.1440 
  4 C       -3.0790     1.2290    -0.2120 C.ar  1 <1>  -0.1500 
  5 C       -2.1670     3.3890     1.2930 C.ar  1 <1>  -0.1500 
  6 C        0.1610     3.1820     0.3580 C.3   1 <1>   0.3530 
  7 C       -3.9210     1.9180     0.6370 C.ar  1 <1>   0.1900 
  8 C       -3.4910     2.9910     1.3930 C.ar  1 <1>  -0.1500 
  9 N        0.1840     4.6230     0.0440 N.pl3 1 <1>  -0.8690 
 10 F       -5.1670     1.5410     0.7290 F     1 <1>  -0.1900 
 11 C        1.3460     5.3360    -0.1250 C.ar  1 <1>   0.4100 
 12 N        2.4530     4.7580     0.3380 N.ar  1 <1>  -0.6200 
 13 C        1.3220     6.5960    -0.7500 C.ar  1 <1>   0.0860 
 14 C        3.5790     5.4220     0.1700 C.ar  1 <1>   0.1600 
 15 C        0.0790     7.1760    -1.1980 C.2   1 <1>   0.5440 
 16 C        2.5300     7.2610    -0.9150 C.ar  1 <1>  -0.1500 
 17 C        3.6740     6.6590    -0.4440 C.ar  1 <1>  -0.1500 
 18 O       -0.6620     6.5470    -1.9340 O.2   1 <1>  -0.5700 
 19 N       -0.3040     8.4400    -0.8070 N.am  1 <1>  -0.6600 
 20 C        0.2320     9.1480     0.3770 C.3   1 <1>   0.1400 
 21 C       -1.5760     9.0500    -1.2560 C.3   1 <1>   0.1400 
 22 C       -0.9100    10.0450     0.8400 C.3   1 <1>  -0.1600 
 23 C       -1.7190    10.3200    -0.4240 C.3   1 <1>  -0.1600 
 24 H       -3.4370     0.3970    -0.7890 H     1 <1>   0.1500 
 25 H       -1.8160     4.2270     1.8740 H     1 <1>   0.1500 
 26 H        0.7090     2.6530    -0.4010 H     1 <1>   0.0800 
 27 H        0.6510     3.0160     1.3030 H     1 <1>   0.0800 
 28 H       -4.1770     3.5040     2.0430 H     1 <1>   0.1500 
 29 H       -0.5810     4.9090    -0.5850 H     1 <1>   0.4000 
 30 H        4.4780     4.9580     0.5380 H     1 <1>   0.1500 
 31 H        2.5610     8.2200    -1.4020 H     1 <1>   0.1500 
 32 H        4.6320     7.1360    -0.5490 H     1 <1>   0.1500 
 33 H        1.0760     9.7450     0.0770 H     1 <1>   0.0800 
 34 H        0.5260     8.4570     1.1490 H     1 <1>   0.0800 
 35 H       -2.3850     8.3690    -1.0500 H     1 <1>   0.0800 
 36 H       -1.5450     9.2620    -2.3110 H     1 <1>   0.0800 
 37 H       -0.5490    10.9470     1.3020 H     1 <1>   0.0800 
 38 H       -1.5120     9.5040     1.5490 H     1 <1>   0.0800 
 39 H       -2.7490    10.5440    -0.2130 H     1 <1>   0.0800 
 40 H       -1.2850    11.1420    -0.9660 H     1 <1>   0.0800 
@<TRIPOS>BOND
  1   1   2  1   
  2   2   3  ar  
  3   2   4  ar  
  4   3   5  ar  
  5   3   6  1   
  6   4   7  ar  
  7   4  24  1   
  8   5   8  ar  
  9   5  25  1   
 10   6   9  1   
 11   6  26  1   
 12   6  27  1   
 13   7   8  ar  
 14   7  10  1   
 15   8  28  1   
 16   9  11  1   
 17   9  29  1   
 18  11  12  ar  
 19  11  13  ar  
 20  12  14  ar  
 21  13  15  1   
 22  13  16  ar  
 23  14  17  ar  
 24  14  30  1   
 25  15  18  2   
 26  15  19  am  
 27  16  17  ar  
 28  16  31  1   
 29  17  32  1   
 30  19  20  1   
 31  19  21  1   
 32  20  22  1   
 33  20  33  1   
 34  20  34  1   
 35  21  23  1   
 36  21  35  1   
 37  21  36  1   
 38  22  23  1   
 39  22  37  1   
 40  22  38  1   
 41  23  39  1   
 42  23  40  1   
@<TRIPOS>SUBSTRUCTURE
  1 ****   9 GROUP 4 **** **** 0

# MOE 2024.06 (io_trps.svl 2023.06)
