@<TRIPOS>MOLECULE
NONAME
40 41 1 0 0 
SMALL
USER_CHARGES


@<TRIPOS>ATOM
  1 S        0.2110     0.6930    -0.8660 S.o2  1 <1>   1.3330 
  2 O       -0.2100    -0.6620    -1.1570 O.2   1 <1>  -0.6500 
  3 O        0.4470     1.5720    -1.9870 O.2   1 <1>  -0.6500 
  4 N        1.6030     0.5770     0.1060 N.am  1 <1>  -0.8490 
  5 C       -1.0930     1.3500     0.1910 C.3   1 <1>  -0.0550 
  6 C        2.5580     1.6840    -0.0880 C.3   1 <1>   0.1160 
  7 C        2.3200    -0.6890    -0.0680 C.3   1 <1>   0.1160 
  8 C       -1.1670     2.8530     0.5470 C.3   1 <1>  -0.0800 
  9 C       -1.0970     3.8240    -0.6470 C.3   1 <1>   0.2000 
 10 C       -0.1060     3.3270     1.5480 C.3   1 <1>   0.1400 
 11 O       -2.0630     4.7970    -0.4390 O.3   1 <1>  -0.6800 
 12 C        0.2690     4.5010    -0.5440 C.3   1 <1>   0.1400 
 13 N        0.5660     4.4720     0.9060 N.am  1 <1>  -0.6600 
 14 C        1.6470     5.1300     1.4840 C.2   1 <1>   0.5440 
 15 O        1.8290     4.9020     2.6820 O.2   1 <1>  -0.5700 
 16 C        2.4580     6.0890     0.7600 C.ar  1 <1>   0.3960 
 17 N        2.3720     7.3970     1.1070 N.ar  1 <1>  -0.6200 
 18 C        3.3010     5.6650    -0.3150 C.ar  1 <1>  -0.1710 
 19 C        3.1010     8.2510     0.4310 C.ar  1 <1>   0.1600 
 20 O        3.4160     4.4720    -0.6880 O.3   1 <1>  -0.8290 
 21 C        4.0530     6.6170    -1.0060 C.ar  1 <1>  -0.1500 
 22 C        3.9480     7.9200    -0.6240 C.ar  1 <1>  -0.1500 
 23 H       -2.0190     1.1180    -0.2970 H     1 <1>   0.0800 
 24 H       -1.0900     0.7900     1.1060 H     1 <1>   0.0800 
 25 H        3.4220     1.5630     0.5420 H     1 <1>   0.0800 
 26 H        2.1120     2.6170     0.1750 H     1 <1>   0.0800 
 27 H        2.8830     1.7480    -1.1130 H     1 <1>   0.0800 
 28 H        3.1860    -0.7150     0.5710 H     1 <1>   0.0800 
 29 H        2.6310    -0.8010    -1.0930 H     1 <1>   0.0800 
 30 H        1.6830    -1.5150     0.1970 H     1 <1>   0.0800 
 31 H       -2.1210     2.9750     1.0310 H     1 <1>   0.0800 
 32 H       -1.2750     3.3710    -1.6060 H     1 <1>   0.0800 
 33 H        0.6150     2.5600     1.7730 H     1 <1>   0.0800 
 34 H       -0.5600     3.6560     2.4680 H     1 <1>   0.0800 
 35 H       -1.7400     5.3760     0.2830 H     1 <1>   0.4000 
 36 H        0.2610     5.5050    -0.9300 H     1 <1>   0.0800 
 37 H        1.0100     3.9330    -1.0780 H     1 <1>   0.0800 
 38 H        3.0340     9.2850     0.7160 H     1 <1>   0.1500 
 39 H        4.6830     6.2820    -1.8080 H     1 <1>   0.1500 
 40 H        4.5070     8.6870    -1.1220 H     1 <1>   0.1500 
@<TRIPOS>BOND
  1   1   2  2   
  2   1   3  2   
  3   1   4  am  
  4   1   5  1   
  5   4   6  1   
  6   4   7  1   
  7   5   8  1   
  8   5  23  1   
  9   5  24  1   
 10   6  25  1   
 11   6  26  1   
 12   6  27  1   
 13   7  28  1   
 14   7  29  1   
 15   7  30  1   
 16   8   9  1   
 17   8  10  1   
 18   8  31  1   
 19   9  11  1   
 20   9  12  1   
 21   9  32  1   
 22  10  13  1   
 23  10  33  1   
 24  10  34  1   
 25  11  35  1   
 26  12  13  1   
 27  12  36  1   
 28  12  37  1   
 29  13  14  am  
 30  14  15  2   
 31  14  16  1   
 32  16  17  ar  
 33  16  18  ar  
 34  17  19  ar  
 35  18  20  1   
 36  18  21  ar  
 37  19  22  ar  
 38  19  38  1   
 39  21  22  ar  
 40  21  39  1   
 41  22  40  1   
@<TRIPOS>SUBSTRUCTURE
  1 ****  13 GROUP 4 **** **** 0

# MOE 2024.06 (io_trps.svl 2023.06)
