@<TRIPOS>MOLECULE
NONAME
50 54 1 0 0 
SMALL
USER_CHARGES


@<TRIPOS>ATOM
  1 O       -0.2810     4.9550    -1.9120 O.2   1 <1>  -0.5700 
  2 C       -0.0200     4.1510    -1.0350 C.2   1 <1>   0.5440 
  3 N       -1.0620     3.4720    -0.4360 N.am  1 <1>  -0.6600 
  4 C        1.3610     3.9880    -0.6330 C.ar  1 <1>   0.0860 
  5 C       -2.4340     3.4430    -1.0300 C.3   1 <1>   0.1400 
  6 C       -0.9710     2.7850     0.8810 C.3   1 <1>   0.1400 
  7 C        1.9670     2.7330    -0.5140 C.ar  1 <1>   0.1400 
  8 C        2.1680     5.0880    -0.3540 C.ar  1 <1>  -0.1500 
  9 C       -3.4410     4.1430    -0.0990 C.3   1 <1>   0.1440 
 10 C       -1.9470     3.4360     1.8680 C.3   1 <1>  -0.1600 
 11 O        1.4200     1.5360    -0.7380 O.3   1 <1>  -0.2800 
 12 C        3.2870     2.5770    -0.1230 C.ar  1 <1>   0.0000 
 13 C        3.4990     4.9470     0.0390 C.ar  1 <1>  -0.1500 
 14 C       -4.8500     4.0350    -0.6520 C.ar  1 <1>   0.1660 
 15 C       -3.3830     3.5090     1.3100 C.3   1 <1>  -0.1600 
 16 C       -3.2150     5.6800    -0.0570 C.3   1 <1>  -0.1600 
 17 C        2.3480     0.6170    -0.5000 C.2   1 <1>  -0.0400 
 18 C        4.0660     3.6960     0.1600 C.ar  1 <1>  -0.1500 
 19 C        3.5070     1.1850    -0.1210 C.2   1 <1>  -0.1500 
 20 N       -5.4250     2.9250    -1.0630 N.ar  1 <1>  -0.6200 
 21 C       -5.4790     5.2430    -0.6720 C.ar  1 <1>  -0.1430 
 22 C       -4.6000     6.3450    -0.1370 C.3   1 <1>  -0.0170 
 23 C        1.9690    -0.8350    -0.6880 C.3   1 <1>  -0.0600 
 24 C       -6.6650     3.0810    -1.5030 C.ar  1 <1>   0.4770 
 25 C       -6.7650     5.2890    -1.1490 C.ar  1 <1>   0.1600 
 26 N       -7.3740     4.2000    -1.5720 N.ar  1 <1>  -0.6200 
 27 C       -7.3490     1.8260    -1.9860 C.3   1 <1>  -0.0970 
 28 H       -2.7280     2.4180    -1.1660 H     1 <1>   0.0800 
 29 H       -2.4440     3.9110    -1.9990 H     1 <1>   0.0800 
 30 H        0.0250     2.8440     1.2800 H     1 <1>   0.0800 
 31 H       -1.2170     1.7450     0.7480 H     1 <1>   0.0800 
 32 H        1.7480     6.0740    -0.4510 H     1 <1>   0.1500 
 33 H       -1.5900     4.4230     2.1030 H     1 <1>   0.0800 
 34 H       -1.9490     2.8710     2.7830 H     1 <1>   0.0800 
 35 H        4.0840     5.8270     0.2470 H     1 <1>   0.1500 
 36 H       -3.7740     2.5080     1.2470 H     1 <1>   0.0800 
 37 H       -4.0130     4.0590     1.9870 H     1 <1>   0.0800 
 38 H       -2.6500     5.9790    -0.9230 H     1 <1>   0.0800 
 39 H       -2.6740     5.9990     0.8140 H     1 <1>   0.0800 
 40 H        5.0910     3.5720     0.4630 H     1 <1>   0.1500 
 41 H        4.4390     0.7170     0.1380 H     1 <1>   0.1500 
 42 H       -4.5890     7.1990    -0.7920 H     1 <1>   0.0800 
 43 H       -4.9390     6.6360     0.8420 H     1 <1>   0.0800 
 44 H        1.6600    -1.0000    -1.7050 H     1 <1>   0.0800 
 45 H        1.1560    -1.0870    -0.0320 H     1 <1>   0.0800 
 46 H        2.8070    -1.4710    -0.4690 H     1 <1>   0.0800 
 47 H       -7.3020     6.2210    -1.1850 H     1 <1>   0.1500 
 48 H       -6.9120     1.5210    -2.9180 H     1 <1>   0.0800 
 49 H       -8.3990     2.0010    -2.1300 H     1 <1>   0.0800 
 50 H       -7.2210     1.0430    -1.2630 H     1 <1>   0.0800 
@<TRIPOS>BOND
  1   1   2  2   
  2   2   3  am  
  3   2   4  1   
  4   3   5  1   
  5   3   6  1   
  6   4   7  ar  
  7   4   8  ar  
  8   5   9  1   
  9   5  28  1   
 10   5  29  1   
 11   6  10  1   
 12   6  30  1   
 13   6  31  1   
 14   7  11  1   
 15   7  12  ar  
 16   8  13  ar  
 17   8  32  1   
 18   9  14  1   
 19   9  15  1   
 20   9  16  1   
 21  10  15  1   
 22  10  33  1   
 23  10  34  1   
 24  11  17  1   
 25  12  18  ar  
 26  12  19  1   
 27  13  18  ar  
 28  13  35  1   
 29  14  20  ar  
 30  14  21  ar  
 31  15  36  1   
 32  15  37  1   
 33  16  22  1   
 34  16  38  1   
 35  16  39  1   
 36  17  19  2   
 37  17  23  1   
 38  18  40  1   
 39  19  41  1   
 40  20  24  ar  
 41  21  22  1   
 42  21  25  ar  
 43  22  42  1   
 44  22  43  1   
 45  23  44  1   
 46  23  45  1   
 47  23  46  1   
 48  24  26  ar  
 49  24  27  1   
 50  25  26  ar  
 51  25  47  1   
 52  27  48  1   
 53  27  49  1   
 54  27  50  1   
@<TRIPOS>SUBSTRUCTURE
  1 ****   3 GROUP 4 **** **** 0

# MOE 2024.06 (io_trps.svl 2023.06)
