@<TRIPOS>MOLECULE
NONAME
51 53 1 0 0 
SMALL
USER_CHARGES


@<TRIPOS>ATOM
  1 O        0.9120     1.5020    -0.5370 O.3   1 <1>  -0.3630 
  2 C        2.2080     1.6600    -0.1360 C.ar  1 <1>   0.0830 
  3 C        0.4820     0.2770    -1.0910 C.3   1 <1>   0.0400 
  4 C        3.1950     0.6970    -0.2310 C.ar  1 <1>   0.1600 
  5 C        2.5860     2.8660     0.4080 C.ar  1 <1>   0.1600 
  6 N        4.4260     0.9090     0.1750 N.ar  1 <1>  -0.6200 
  7 N        3.8110     3.1090     0.8190 N.ar  1 <1>  -0.6200 
  8 C        4.6850     2.1100     0.6910 C.ar  1 <1>   0.7200 
  9 N        5.9830     2.3410     1.1230 N.pl3 1 <1>  -0.8380 
 10 C        6.3380     3.5770     1.8730 C.3   1 <1>   0.2090 
 11 C        6.9380     1.2020     1.2700 C.3   1 <1>   0.1290 
 12 C        6.6030     4.7360     0.8930 C.3   1 <1>  -0.0800 
 13 C        7.7000     4.4080    -0.1350 C.3   1 <1>  -0.1600 
 14 C        6.9670     6.0260     1.6440 C.3   1 <1>  -0.1600 
 15 C        7.9410     5.5810    -1.0810 C.3   1 <1>   0.3430 
 16 C        7.2250     7.1780     0.6730 C.3   1 <1>   0.3430 
 17 N        8.2970     6.7960    -0.2950 N.4   1 <1>  -0.9590 
 18 C        8.6580     7.9300    -1.1860 C.3   1 <1>   0.4860 
 19 C        9.2500     9.0390    -0.3390 C.ar  1 <1>  -0.1430 
 20 C        8.5090    10.1800    -0.0640 C.ar  1 <1>  -0.1500 
 21 C       10.5350     8.9190     0.1730 C.ar  1 <1>  -0.1500 
 22 C        9.0430    11.1840     0.7250 C.ar  1 <1>  -0.1500 
 23 C       11.0660     9.9240     0.9620 C.ar  1 <1>  -0.1500 
 24 C       10.3200    11.0550     1.2400 C.ar  1 <1>  -0.1500 
 25 H       -0.5620     0.3670    -1.3300 H     1 <1>   0.0800 
 26 H        0.6220    -0.5060    -0.3660 H     1 <1>   0.0800 
 27 H        1.0440     0.0790    -1.9870 H     1 <1>   0.0800 
 28 H        2.9790    -0.2690    -0.6460 H     1 <1>   0.1500 
 29 H        1.8500     3.6450     0.5020 H     1 <1>   0.1500 
 30 H        7.2110     3.4000     2.4770 H     1 <1>   0.0800 
 31 H        5.5330     3.8360     2.5400 H     1 <1>   0.0800 
 32 H        6.9330     0.5930     0.3820 H     1 <1>   0.0800 
 33 H        6.6480     0.5940     2.1100 H     1 <1>   0.0800 
 34 H        7.9400     1.5640     1.4230 H     1 <1>   0.0800 
 35 H        5.6860     4.9190     0.3590 H     1 <1>   0.0800 
 36 H        7.3970     3.5610    -0.7260 H     1 <1>   0.0800 
 37 H        8.6160     4.1430     0.3620 H     1 <1>   0.0800 
 38 H        7.8370     5.8720     2.2580 H     1 <1>   0.0800 
 39 H        6.1540     6.3000     2.2950 H     1 <1>   0.0800 
 40 H        7.0450     5.7640    -1.6530 H     1 <1>   0.0800 
 41 H        8.7370     5.3320    -1.7640 H     1 <1>   0.0800 
 42 H        7.5220     8.0530     1.2310 H     1 <1>   0.0800 
 43 H        6.3160     7.4070     0.1400 H     1 <1>   0.0800 
 44 H        9.1330     6.5870     0.2640 H     1 <1>   0.4500 
 45 H        7.7850     8.2890    -1.7080 H     1 <1>   0.0800 
 46 H        9.3870     7.6140    -1.9140 H     1 <1>   0.0800 
 47 H        7.5150    10.3070    -0.4590 H     1 <1>   0.1500 
 48 H       11.1400     8.0540    -0.0360 H     1 <1>   0.1500 
 49 H        8.4690    12.0700     0.9390 H     1 <1>   0.1500 
 50 H       12.0640     9.8330     1.3600 H     1 <1>   0.1500 
 51 H       10.7350    11.8370     1.8540 H     1 <1>   0.1500 
@<TRIPOS>BOND
  1   1   2  1   
  2   1   3  1   
  3   2   4  ar  
  4   2   5  ar  
  5   3  25  1   
  6   3  26  1   
  7   3  27  1   
  8   4   6  ar  
  9   4  28  1   
 10   5   7  ar  
 11   5  29  1   
 12   6   8  ar  
 13   7   8  ar  
 14   8   9  1   
 15   9  10  1   
 16   9  11  1   
 17  10  12  1   
 18  10  30  1   
 19  10  31  1   
 20  11  32  1   
 21  11  33  1   
 22  11  34  1   
 23  12  13  1   
 24  12  14  1   
 25  12  35  1   
 26  13  15  1   
 27  13  36  1   
 28  13  37  1   
 29  14  16  1   
 30  14  38  1   
 31  14  39  1   
 32  15  17  1   
 33  15  40  1   
 34  15  41  1   
 35  16  17  1   
 36  16  42  1   
 37  16  43  1   
 38  17  18  1   
 39  17  44  1   
 40  18  19  1   
 41  18  45  1   
 42  18  46  1   
 43  19  20  ar  
 44  19  21  ar  
 45  20  22  ar  
 46  20  47  1   
 47  21  23  ar  
 48  21  48  1   
 49  22  24  ar  
 50  22  49  1   
 51  23  24  ar  
 52  23  50  1   
 53  24  51  1   
@<TRIPOS>SUBSTRUCTURE
  1 ****  12 GROUP 4 **** **** 0

# MOE 2024.06 (io_trps.svl 2023.06)
