@<TRIPOS>MOLECULE
NONAME
34 36 1 0 0 
SMALL
USER_CHARGES


@<TRIPOS>ATOM
  1 O        0.8990     0.4690    -0.1840 O.2   1 <1>  -0.5700 
  2 C        2.0710     0.1660    -0.1710 C.2   1 <1>   0.7800 
  3 O        2.4760    -1.0560     0.1490 O.3   1 <1>  -0.4300 
  4 N        3.1110     0.9920    -0.4130 N.am  1 <1>  -0.6600 
  5 C        3.8890    -1.1380     0.1230 C.3   1 <1>   0.1200 
  6 C        4.3700     0.3050    -0.0800 C.3   1 <1>   0.2200 
  7 C        3.0720     2.4820    -0.3980 C.3   1 <1>   0.1400 
  8 C        4.9930     0.9110     1.1940 C.3   1 <1>   0.2090 
  9 C        3.7720     3.0490     0.8530 C.3   1 <1>   0.2090 
 10 N        5.1050     2.3960     1.0590 N.pl3 1 <1>  -0.8380 
 11 C        6.2670     2.9970     0.6190 C.ar  1 <1>   0.7200 
 12 N        7.2560     2.1950     0.2270 N.ar  1 <1>  -0.6200 
 13 N        6.2920     4.3280     0.6160 N.ar  1 <1>  -0.6200 
 14 C        8.3530     2.7780    -0.1830 C.ar  1 <1>   0.1670 
 15 C        7.3990     4.8910     0.2040 C.ar  1 <1>   0.1670 
 16 C        8.4760     4.1470    -0.2120 C.ar  1 <1>  -0.1500 
 17 C        9.4870     1.8790    -0.6250 C.3   1 <1>  -0.0970 
 18 C        7.4410     6.4040     0.2060 C.3   1 <1>  -0.0970 
 19 H        4.1760    -1.7600    -0.7060 H     1 <1>   0.0800 
 20 H        4.2360    -1.5690     1.0460 H     1 <1>   0.0800 
 21 H        5.0690     0.3710    -0.8960 H     1 <1>   0.0800 
 22 H        2.0510     2.8200    -0.4260 H     1 <1>   0.0800 
 23 H        3.5720     2.8520    -1.2750 H     1 <1>   0.0800 
 24 H        5.9540     0.4660     1.3830 H     1 <1>   0.0800 
 25 H        4.3670     0.6890     2.0410 H     1 <1>   0.0800 
 26 H        3.1560     2.8640     1.7150 H     1 <1>   0.0800 
 27 H        3.8670     4.1160     0.7530 H     1 <1>   0.0800 
 28 H        9.3800     4.6170    -0.5480 H     1 <1>   0.1500 
 29 H        9.1610     1.2650    -1.4440 H     1 <1>   0.0800 
 30 H        9.7780     1.2420     0.1910 H     1 <1>   0.0800 
 31 H       10.3390     2.4540    -0.9370 H     1 <1>   0.0800 
 32 H        6.6570     6.7860    -0.4210 H     1 <1>   0.0800 
 33 H        8.3850     6.7660    -0.1560 H     1 <1>   0.0800 
 34 H        7.2900     6.7650     1.2070 H     1 <1>   0.0800 
@<TRIPOS>BOND
  1   1   2  2   
  2   2   3  1   
  3   2   4  am  
  4   3   5  1   
  5   4   6  1   
  6   4   7  1   
  7   5   6  1   
  8   5  19  1   
  9   5  20  1   
 10   6   8  1   
 11   6  21  1   
 12   7   9  1   
 13   7  22  1   
 14   7  23  1   
 15   8  10  1   
 16   8  24  1   
 17   8  25  1   
 18   9  10  1   
 19   9  26  1   
 20   9  27  1   
 21  10  11  1   
 22  11  12  ar  
 23  11  13  ar  
 24  12  14  ar  
 25  13  15  ar  
 26  14  16  ar  
 27  14  17  1   
 28  15  16  ar  
 29  15  18  1   
 30  16  28  1   
 31  17  29  1   
 32  17  30  1   
 33  17  31  1   
 34  18  32  1   
 35  18  33  1   
 36  18  34  1   
@<TRIPOS>SUBSTRUCTURE
  1 ****  10 GROUP 4 **** **** 0

# MOE 2024.06 (io_trps.svl 2023.06)
