@<TRIPOS>MOLECULE
NONAME
49 51 1 0 0 
SMALL
USER_CHARGES


@<TRIPOS>ATOM
  1 CL       0.0330     0.7800     2.7580 Cl    1 <1>  -0.1770 
  2 C       -0.2500     2.1410     1.7010 C.ar  1 <1>   0.1770 
  3 C       -1.5030     2.7180     1.6580 C.ar  1 <1>  -0.1500 
  4 C        0.7910     2.6180     0.9290 C.ar  1 <1>  -0.1500 
  5 C       -1.7400     3.8010     0.8190 C.ar  1 <1>   0.1170 
  6 C        0.5730     3.7000     0.0930 C.ar  1 <1>  -0.1500 
  7 N       -2.9890     4.4380     0.7240 N.am  1 <1>  -0.5470 
  8 C       -0.6860     4.2950     0.0360 C.ar  1 <1>   0.0830 
  9 C       -4.2480     4.1250     1.1470 C.2   1 <1>   0.6900 
 10 O       -0.9590     5.3700    -0.7660 O.3   1 <1>  -0.3630 
 11 O       -4.4800     3.0670     1.7030 O.2   1 <1>  -0.5700 
 12 N       -5.2610     5.0190     0.9130 N.am  1 <1>  -0.6600 
 13 C        0.0160     5.8970    -1.6410 C.3   1 <1>   0.0400 
 14 C       -6.6850     4.5980     1.1200 C.3   1 <1>   0.1400 
 15 C       -5.0250     6.4370     0.5060 C.3   1 <1>   0.1400 
 16 C       -7.6630     5.3460     0.1830 C.3   1 <1>   0.0000 
 17 C       -6.1780     7.3320     0.9660 C.3   1 <1>  -0.1600 
 18 C       -9.0920     4.8130     0.4170 C.3   1 <1>   0.2000 
 19 C       -7.5450     6.8780     0.4200 C.3   1 <1>  -0.1600 
 20 C       -7.4070     4.9460    -1.2850 C.3   1 <1>  -0.1600 
 21 O      -10.0200     5.7100    -0.1280 O.3   1 <1>  -0.5600 
 22 C       -9.1680     3.5010    -0.3750 C.3   1 <1>  -0.1600 
 23 C       -8.1180     3.6040    -1.4890 C.3   1 <1>  -0.1600 
 24 C      -11.2950     5.6500     0.4290 C.3   1 <1>   0.0400 
 25 H       -2.2800     2.3160     2.2800 H     1 <1>   0.1500 
 26 H        1.7560     2.1460     0.9850 H     1 <1>   0.1500 
 27 H        1.3930     4.0590    -0.4980 H     1 <1>   0.1500 
 28 H       -2.9640     5.2460     0.1090 H     1 <1>   0.3700 
 29 H       -0.4280     6.7100    -2.1860 H     1 <1>   0.0800 
 30 H        0.3250     5.1260    -2.3250 H     1 <1>   0.0800 
 31 H        0.8480     6.2570    -1.0620 H     1 <1>   0.0800 
 32 H       -6.7650     3.5370     0.9620 H     1 <1>   0.0800 
 33 H       -6.9490     4.7940     2.1440 H     1 <1>   0.0800 
 34 H       -4.1100     6.7950     0.9450 H     1 <1>   0.0800 
 35 H       -4.9350     6.4860    -0.5650 H     1 <1>   0.0800 
 36 H       -6.2000     7.3180     2.0420 H     1 <1>   0.0800 
 37 H       -5.9900     8.3460     0.6630 H     1 <1>   0.0800 
 38 H       -9.3000     4.6810     1.4650 H     1 <1>   0.0800 
 39 H       -7.7600     7.4000    -0.4950 H     1 <1>   0.0800 
 40 H       -8.2930     7.1880     1.1300 H     1 <1>   0.0800 
 41 H       -7.8670     5.6680    -1.9380 H     1 <1>   0.0800 
 42 H       -6.3630     4.8780    -1.5340 H     1 <1>   0.0800 
 43 H       -8.9130     2.6820     0.2720 H     1 <1>   0.0800 
 44 H      -10.1510     3.3270    -0.7750 H     1 <1>   0.0800 
 45 H       -7.4130     2.7950    -1.4040 H     1 <1>   0.0800 
 46 H       -8.5780     3.5650    -2.4620 H     1 <1>   0.0800 
 47 H      -11.9180     6.3570    -0.0900 H     1 <1>   0.0800 
 48 H      -11.2390     5.9140     1.4700 H     1 <1>   0.0800 
 49 H      -11.6960     4.6590     0.3090 H     1 <1>   0.0800 
@<TRIPOS>BOND
  1   1   2  1   
  2   2   3  ar  
  3   2   4  ar  
  4   3   5  ar  
  5   3  25  1   
  6   4   6  ar  
  7   4  26  1   
  8   5   7  1   
  9   5   8  ar  
 10   6   8  ar  
 11   6  27  1   
 12   7   9  am  
 13   7  28  1   
 14   8  10  1   
 15   9  11  2   
 16   9  12  am  
 17  10  13  1   
 18  12  14  1   
 19  12  15  1   
 20  13  29  1   
 21  13  30  1   
 22  13  31  1   
 23  14  16  1   
 24  14  32  1   
 25  14  33  1   
 26  15  17  1   
 27  15  34  1   
 28  15  35  1   
 29  16  18  1   
 30  16  19  1   
 31  16  20  1   
 32  17  19  1   
 33  17  36  1   
 34  17  37  1   
 35  18  21  1   
 36  18  22  1   
 37  18  38  1   
 38  19  39  1   
 39  19  40  1   
 40  20  23  1   
 41  20  41  1   
 42  20  42  1   
 43  21  24  1   
 44  22  23  1   
 45  22  43  1   
 46  22  44  1   
 47  23  45  1   
 48  23  46  1   
 49  24  47  1   
 50  24  48  1   
 51  24  49  1   
@<TRIPOS>SUBSTRUCTURE
  1 ****   9 GROUP 4 **** **** 0

# MOE 2024.06 (io_trps.svl 2023.06)
