@<TRIPOS>MOLECULE
NONAME
54 55 1 0 0 
SMALL
USER_CHARGES


@<TRIPOS>ATOM
  1 O        0.7110    -0.2540     1.9710 O.2   1 <1>  -0.5700 
  2 C        1.3180    -0.7850     1.0630 C.2   1 <1>   0.5440 
  3 N        1.9840    -0.0400     0.1210 N.am  1 <1>  -0.4940 
  4 C        1.3670    -2.2290     0.9530 C.ar  1 <1>   0.0860 
  5 C        2.2530     1.3470     0.0070 C.2   1 <1>  -0.0880 
  6 C        0.2340    -3.0230     0.7250 C.ar  1 <1>  -0.1430 
  7 C        2.6070    -2.8560     1.0720 C.ar  1 <1>  -0.1500 
  8 N        1.4870     2.4000     0.4170 N.pl3 1 <1>   0.3140 
  9 C        3.3550     1.8870    -0.5700 C.2   1 <1>  -0.1810 
 10 C        0.3530    -4.4120     0.6350 C.ar  1 <1>   0.1170 
 11 C       -1.1410    -2.3610     0.5720 C.3   1 <1>  -0.0960 
 12 C        2.7320    -4.2250     0.9690 C.ar  1 <1>  -0.1500 
 13 N        2.0740     3.5800     0.1190 N.2   1 <1>  -0.7070 
 14 C        0.1450     2.3960     1.0120 C.3   1 <1>   0.0160 
 15 C        3.1850     3.2640    -0.4600 C.2   1 <1>   0.1080 
 16 C        4.5360     1.1660    -1.1980 C.3   1 <1>   0.0210 
 17 N       -0.7850    -5.2140     0.4570 N.am  1 <1>  -0.5470 
 18 C        1.6090    -4.9960     0.7530 C.ar  1 <1>  -0.1500 
 19 C        4.1530     4.3190    -0.9480 C.3   1 <1>  -0.0590 
 20 C        5.5980     0.8610    -0.1400 C.3   1 <1>  -0.2400 
 21 C       -0.9540    -6.3940    -0.2180 C.2   1 <1>   0.5690 
 22 O       -0.0510    -6.9220    -0.8240 O.2   1 <1>  -0.5700 
 23 C       -2.3500    -7.0710    -0.2140 C.3   1 <1>   0.0610 
 24 C       -3.4300    -6.2320     0.5060 C.3   1 <1>  -0.2400 
 25 C       -2.2590    -8.4340     0.4970 C.3   1 <1>  -0.2400 
 26 C       -2.8260    -7.3040    -1.6600 C.3   1 <1>  -0.2400 
 27 H        2.4790    -0.6060    -0.5660 H     1 <1>   0.3700 
 28 H        3.4850    -2.2600     1.2570 H     1 <1>   0.1500 
 29 H       -1.0580    -1.3520     0.2110 H     1 <1>   0.0800 
 30 H       -1.6390    -2.3370     1.5240 H     1 <1>   0.0800 
 31 H       -1.7530    -2.8910    -0.1350 H     1 <1>   0.0800 
 32 H        3.6970    -4.6950     1.0610 H     1 <1>   0.1500 
 33 H       -0.4340     1.6020     0.5830 H     1 <1>   0.0800 
 34 H       -0.3310     3.3380     0.8140 H     1 <1>   0.0800 
 35 H        0.2350     2.2540     2.0720 H     1 <1>   0.0800 
 36 H        4.9610     1.7740    -1.9770 H     1 <1>   0.0800 
 37 H        4.2020     0.2490    -1.6480 H     1 <1>   0.0800 
 38 H       -1.6370    -4.8360     0.8630 H     1 <1>   0.3700 
 39 H        1.7110    -6.0650     0.6830 H     1 <1>   0.1500 
 40 H        5.1550     4.0620    -0.6630 H     1 <1>   0.0800 
 41 H        3.9010     5.2690    -0.5140 H     1 <1>   0.0800 
 42 H        4.0910     4.3980    -2.0170 H     1 <1>   0.0800 
 43 H        5.9510     1.7750     0.3030 H     1 <1>   0.0800 
 44 H        6.4300     0.3450    -0.5840 H     1 <1>   0.0800 
 45 H        5.1790     0.2460     0.6370 H     1 <1>   0.0800 
 46 H       -3.1720    -6.0810     1.5400 H     1 <1>   0.0800 
 47 H       -4.3790    -6.7400     0.4750 H     1 <1>   0.0800 
 48 H       -3.5520    -5.2760     0.0280 H     1 <1>   0.0800 
 49 H       -1.9340    -8.3050     1.5140 H     1 <1>   0.0800 
 50 H       -1.5470    -9.0670    -0.0030 H     1 <1>   0.0800 
 51 H       -3.2120    -8.9320     0.5000 H     1 <1>   0.0800 
 52 H       -2.8940    -6.3690    -2.1870 H     1 <1>   0.0800 
 53 H       -3.7890    -7.7810    -1.6780 H     1 <1>   0.0800 
 54 H       -2.1270    -7.9320    -2.1860 H     1 <1>   0.0800 
@<TRIPOS>BOND
  1   1   2  2   
  2   2   3  am  
  3   2   4  1   
  4   3   5  1   
  5   3  27  1   
  6   4   6  ar  
  7   4   7  ar  
  8   5   8  1   
  9   5   9  2   
 10   6  10  ar  
 11   6  11  1   
 12   7  12  ar  
 13   7  28  1   
 14   8  13  1   
 15   8  14  1   
 16   9  15  1   
 17   9  16  1   
 18  10  17  1   
 19  10  18  ar  
 20  11  29  1   
 21  11  30  1   
 22  11  31  1   
 23  12  18  ar  
 24  12  32  1   
 25  13  15  2   
 26  14  33  1   
 27  14  34  1   
 28  14  35  1   
 29  15  19  1   
 30  16  20  1   
 31  16  36  1   
 32  16  37  1   
 33  17  21  am  
 34  17  38  1   
 35  18  39  1   
 36  19  40  1   
 37  19  41  1   
 38  19  42  1   
 39  20  43  1   
 40  20  44  1   
 41  20  45  1   
 42  21  22  2   
 43  21  23  1   
 44  23  24  1   
 45  23  25  1   
 46  23  26  1   
 47  24  46  1   
 48  24  47  1   
 49  24  48  1   
 50  25  49  1   
 51  25  50  1   
 52  25  51  1   
 53  26  52  1   
 54  26  53  1   
 55  26  54  1   
@<TRIPOS>SUBSTRUCTURE
  1 ****   4 GROUP 4 **** **** 0

# MOE 2024.06 (io_trps.svl 2023.06)
