@<TRIPOS>MOLECULE
NONAME
57 59 1 0 0 
SMALL
USER_CHARGES


@<TRIPOS>ATOM
  1 S       -1.4970    -1.0710    -0.1670 S.3   1 <1>  -0.0800 
  2 C       -1.0670    -1.9170     1.3110 C.2   1 <1>  -0.1400 
  3 C       -1.0570     0.4770     0.5350 C.2   1 <1>  -0.1400 
  4 C       -0.6260    -1.0480     2.2410 C.2   1 <1>  -0.1500 
  5 C       -1.2580    -3.4140     1.3110 C.3   1 <1>   0.5230 
  6 C       -0.6250     0.3120     1.7980 C.2   1 <1>  -0.1500 
  7 C       -1.2240     1.7240    -0.3180 C.3   1 <1>   0.0200 
  8 N       -2.7010    -3.6910     1.0560 N.4   1 <1>  -0.9590 
  9 C        0.0630     2.1190    -1.0680 C.3   1 <1>  -0.0800 
 10 C       -3.0130    -5.1150     0.6960 C.3   1 <1>   0.3430 
 11 C       -3.5820    -3.1680     2.1390 C.3   1 <1>   0.3430 
 12 C       -0.1410     3.4510    -1.8000 C.3   1 <1>  -0.2400 
 13 C        0.5120     1.0480    -2.0720 C.3   1 <1>  -0.2400 
 14 C       -4.5560    -5.3700     0.7270 C.3   1 <1>   0.4230 
 15 C       -5.0630    -3.4950     1.8310 C.3   1 <1>  -0.1600 
 16 N       -5.0460    -6.6730     0.1180 N.4   1 <1>  -0.9590 
 17 C       -5.3050    -4.0100     0.3110 C.3   1 <1>   0.0000 
 18 C       -4.6490    -6.8630    -1.2950 C.3   1 <1>   0.3430 
 19 C       -4.7240    -7.8940     0.9290 C.3   1 <1>   0.2630 
 20 C       -5.5060    -4.4480    -1.2330 C.3   1 <1>  -0.1600 
 21 C       -6.0730    -2.6460    -0.0160 C.3   1 <1>   0.1200 
 22 C       -4.6330    -5.5000    -1.9580 C.3   1 <1>  -0.1600 
 23 O       -5.1010    -1.6630    -0.1990 O.3   1 <1>  -0.6800 
 24 H       -0.2910    -1.2870     3.2370 H     1 <1>   0.1500 
 25 H       -0.9520    -3.8260     2.2590 H     1 <1>   0.0800 
 26 H       -0.6500    -3.8430     0.5310 H     1 <1>   0.0800 
 27 H       -0.2960     1.1050     2.4490 H     1 <1>   0.1500 
 28 H       -2.0310     1.5790    -1.0150 H     1 <1>   0.0800 
 29 H       -1.5030     2.5340     0.3330 H     1 <1>   0.0800 
 30 H       -2.9370    -3.0780     0.2490 H     1 <1>   0.4500 
 31 H        0.8480     2.2520    -0.3420 H     1 <1>   0.0800 
 32 H       -2.6220    -5.3200    -0.2850 H     1 <1>   0.0800 
 33 H       -2.5380    -5.7780     1.4000 H     1 <1>   0.0800 
 34 H       -3.3010    -3.5820     3.0940 H     1 <1>   0.0800 
 35 H       -3.4680    -2.0940     2.1960 H     1 <1>   0.0800 
 36 H       -0.9150     3.3630    -2.5430 H     1 <1>   0.0800 
 37 H        0.7690     3.7520    -2.2890 H     1 <1>   0.0800 
 38 H       -0.4180     4.2250    -1.1050 H     1 <1>   0.0800 
 39 H       -0.2700     0.8380    -2.7800 H     1 <1>   0.0800 
 40 H        0.7750     0.1390    -1.5630 H     1 <1>   0.0800 
 41 H        1.3810     1.3840    -2.6110 H     1 <1>   0.0800 
 42 H       -4.7380    -5.5610     1.7670 H     1 <1>   0.0800 
 43 H       -5.4570    -4.1690     2.5750 H     1 <1>   0.0800 
 44 H       -5.5420    -2.5910     2.1700 H     1 <1>   0.0800 
 45 H       -6.0760    -6.5930     0.0990 H     1 <1>   0.4500 
 46 H       -3.6740    -7.3180    -1.3690 H     1 <1>   0.0800 
 47 H       -5.3630    -7.5050    -1.7890 H     1 <1>   0.0800 
 48 H       -3.6590    -8.0570     0.9700 H     1 <1>   0.0800 
 49 H       -5.1840    -8.7660     0.4900 H     1 <1>   0.0800 
 50 H       -5.0990    -7.7900     1.9360 H     1 <1>   0.0800 
 51 H       -6.5330    -4.7550    -1.3640 H     1 <1>   0.0800 
 52 H       -5.3430    -3.6180    -1.9100 H     1 <1>   0.0800 
 53 H       -6.7710    -2.3190     0.7390 H     1 <1>   0.0800 
 54 H       -6.7100    -2.6230    -0.8880 H     1 <1>   0.0800 
 55 H       -3.6210    -5.1470    -2.0460 H     1 <1>   0.0800 
 56 H       -4.9880    -5.6190    -2.9690 H     1 <1>   0.0800 
 57 H       -5.5100    -0.8080    -0.4610 H     1 <1>   0.4000 
@<TRIPOS>BOND
  1   1   2  1   
  2   1   3  1   
  3   2   4  2   
  4   2   5  1   
  5   3   6  2   
  6   3   7  1   
  7   4   6  1   
  8   4  24  1   
  9   5   8  1   
 10   5  25  1   
 11   5  26  1   
 12   6  27  1   
 13   7   9  1   
 14   7  28  1   
 15   7  29  1   
 16   8  10  1   
 17   8  11  1   
 18   8  30  1   
 19   9  12  1   
 20   9  13  1   
 21   9  31  1   
 22  10  14  1   
 23  10  32  1   
 24  10  33  1   
 25  11  15  1   
 26  11  34  1   
 27  11  35  1   
 28  12  36  1   
 29  12  37  1   
 30  12  38  1   
 31  13  39  1   
 32  13  40  1   
 33  13  41  1   
 34  14  16  1   
 35  14  17  1   
 36  14  42  1   
 37  15  17  1   
 38  15  43  1   
 39  15  44  1   
 40  16  18  1   
 41  16  19  1   
 42  16  45  1   
 43  17  20  1   
 44  17  21  1   
 45  18  22  1   
 46  18  46  1   
 47  18  47  1   
 48  19  48  1   
 49  19  49  1   
 50  19  50  1   
 51  20  22  1   
 52  20  51  1   
 53  20  52  1   
 54  21  23  1   
 55  21  53  1   
 56  21  54  1   
 57  22  55  1   
 58  22  56  1   
 59  23  57  1   
@<TRIPOS>SUBSTRUCTURE
  1 ****   8 GROUP 4 **** **** 0

# MOE 2024.06 (io_trps.svl 2023.06)
