@<TRIPOS>MOLECULE
NONAME
40 41 1 0 0 
SMALL
USER_CHARGES


@<TRIPOS>ATOM
  1 O        0.8890    -0.3430    -1.5310 O.2   1 <1>  -0.5700 
  2 C        1.7210    -0.6320    -0.7070 C.2   1 <1>   0.5690 
  3 N        2.5780     0.2770    -0.1510 N.am  1 <1>  -0.4940 
  4 C        1.8390    -2.0880    -0.2480 C.3   1 <1>  -0.0190 
  5 C        2.7070     1.6490    -0.4010 C.2   1 <1>   0.2040 
  6 C        2.3920    -2.9510    -1.4000 C.3   1 <1>  -0.1600 
  7 C        0.4910    -2.5840     0.3200 C.3   1 <1>  -0.1600 
  8 O        2.0130     2.2670    -1.3270 O.3   1 <1>  -0.0190 
  9 C        3.5070     2.5620     0.1860 C.2   1 <1>  -0.1810 
 10 C        2.5590    -4.4470    -1.0860 C.3   1 <1>  -0.1600 
 11 C        0.6220    -3.8700     1.1510 C.3   1 <1>  -0.1600 
 12 N        2.3090     3.5410    -1.3900 N.2   1 <1>  -0.4100 
 13 C        3.2040     3.7420    -0.4910 C.2   1 <1>   0.1080 
 14 C        4.5070     2.3810     1.3150 C.3   1 <1>   0.0210 
 15 C        1.2150    -5.1850    -1.0290 C.3   1 <1>  -0.1600 
 16 C        0.5280    -5.1740     0.3440 C.3   1 <1>  -0.1600 
 17 C        3.8220     5.1000    -0.2310 C.3   1 <1>  -0.0590 
 18 C        5.9130     2.1520     0.7580 C.3   1 <1>  -0.2400 
 19 H        3.2260    -0.0920     0.5360 H     1 <1>   0.3700 
 20 H        2.5580    -2.1180     0.5500 H     1 <1>   0.0800 
 21 H        3.3550    -2.5580    -1.6790 H     1 <1>   0.0800 
 22 H        1.7540    -2.8400    -2.2610 H     1 <1>   0.0800 
 23 H       -0.2270    -2.7110    -0.4720 H     1 <1>   0.0800 
 24 H        0.1060    -1.8150     0.9690 H     1 <1>   0.0800 
 25 H        3.1160    -4.5920    -0.1760 H     1 <1>   0.0800 
 26 H        3.1370    -4.8810    -1.8840 H     1 <1>   0.0800 
 27 H       -0.1660    -3.8850     1.8850 H     1 <1>   0.0800 
 28 H        1.5490    -3.8550     1.6980 H     1 <1>   0.0800 
 29 H        4.2200     1.5390     1.9200 H     1 <1>   0.0800 
 30 H        4.5010     3.2520     1.9480 H     1 <1>   0.0800 
 31 H        1.3740    -6.2130    -1.3070 H     1 <1>   0.0800 
 32 H        0.5470    -4.7690    -1.7650 H     1 <1>   0.0800 
 33 H       -0.5120    -5.4110     0.1930 H     1 <1>   0.0800 
 34 H        0.9430    -5.9650     0.9450 H     1 <1>   0.0800 
 35 H        4.8820     5.0580    -0.3970 H     1 <1>   0.0800 
 36 H        3.6290     5.4020     0.7810 H     1 <1>   0.0800 
 37 H        3.3960     5.8290    -0.8970 H     1 <1>   0.0800 
 38 H        5.9280     1.2770     0.1330 H     1 <1>   0.0800 
 39 H        6.6140     2.0150     1.5630 H     1 <1>   0.0800 
 40 H        6.2250     2.9970     0.1710 H     1 <1>   0.0800 
@<TRIPOS>BOND
  1   1   2  2   
  2   2   3  am  
  3   2   4  1   
  4   3   5  1   
  5   3  19  1   
  6   4   6  1   
  7   4   7  1   
  8   4  20  1   
  9   5   8  1   
 10   5   9  2   
 11   6  10  1   
 12   6  21  1   
 13   6  22  1   
 14   7  11  1   
 15   7  23  1   
 16   7  24  1   
 17   8  12  1   
 18   9  13  1   
 19   9  14  1   
 20  10  15  1   
 21  10  25  1   
 22  10  26  1   
 23  11  16  1   
 24  11  27  1   
 25  11  28  1   
 26  12  13  2   
 27  13  17  1   
 28  14  18  1   
 29  14  29  1   
 30  14  30  1   
 31  15  16  1   
 32  15  31  1   
 33  15  32  1   
 34  16  33  1   
 35  16  34  1   
 36  17  35  1   
 37  17  36  1   
 38  17  37  1   
 39  18  38  1   
 40  18  39  1   
 41  18  40  1   
@<TRIPOS>SUBSTRUCTURE
  1 ****   3 GROUP 4 **** **** 0

# MOE 2024.06 (io_trps.svl 2023.06)
