@<TRIPOS>MOLECULE
NONAME
58 61 1 0 0 
SMALL
USER_CHARGES


@<TRIPOS>ATOM
  1 O        0.8770     3.0870     2.4260 O.2   1 <1>  -0.5700 
  2 C        0.3230     3.2500     1.3510 C.2   1 <1>   0.5440 
  3 N       -0.9180     3.8700     1.3500 N.am  1 <1>  -0.6600 
  4 C        1.0100     2.8130     0.1320 C.ar  1 <1>   0.3960 
  5 C       -1.5820     4.4250     0.1420 C.3   1 <1>   0.1400 
  6 C       -1.7180     4.0480     2.5910 C.3   1 <1>   0.1400 
  7 N        0.3450     2.1200    -0.8130 N.ar  1 <1>  -0.6200 
  8 C        2.3640     3.1280    -0.0100 C.ar  1 <1>  -0.1500 
  9 C       -2.9200     3.7090    -0.0590 C.3   1 <1>  -0.1600 
 10 C       -3.0690     3.3480     2.4150 C.3   1 <1>  -0.1600 
 11 C        1.0470     1.7660    -1.8630 C.ar  1 <1>   0.3930 
 12 C        3.0760     2.7500    -1.1290 C.ar  1 <1>  -0.1500 
 13 C       -3.8410     3.8510     1.1760 C.3   1 <1>   0.2800 
 14 O        0.3620     1.0790    -2.7560 O.3   1 <1>  -0.5330 
 15 C        2.3840     2.0450    -2.0850 C.ar  1 <1>  -0.1500 
 16 O       -4.0690     5.2350     1.3200 O.3   1 <1>  -0.5600 
 17 C       -5.2070     3.1020     1.0320 C.3   1 <1>   0.2000 
 18 C       -5.1340     5.6380     2.1320 C.3   1 <1>   0.1200 
 19 O       -5.1220     1.9380     0.2500 O.3   1 <1>  -0.6800 
 20 C       -6.3680     4.0160     0.5520 C.3   1 <1>   0.3000 
 21 C       -6.4790     5.2060     1.5250 C.3   1 <1>  -0.1600 
 22 N       -7.6010     3.2000     0.5710 N.am  1 <1>  -0.7300 
 23 C       -6.1990     4.5150    -0.8940 C.3   1 <1>  -0.2400 
 24 C       -8.9010     3.5960     0.4920 C.2   1 <1>   0.5770 
 25 O       -9.2240     4.7600     0.4690 O.2   1 <1>  -0.5700 
 26 C       -9.9830     2.5250     0.4440 C.3   1 <1>   0.0530 
 27 C       -9.6700     1.3030    -0.4640 C.3   1 <1>   0.0000 
 28 C      -11.1710     2.8220    -0.5120 C.3   1 <1>   0.0000 
 29 C      -11.1700     1.3100    -0.8540 C.3   1 <1>   0.0000 
 30 H       -1.7490     5.4790     0.2860 H     1 <1>   0.0800 
 31 H       -0.9650     4.3090    -0.7310 H     1 <1>   0.0800 
 32 H       -1.2050     3.6310     3.4400 H     1 <1>   0.0800 
 33 H       -1.8630     5.1000     2.7690 H     1 <1>   0.0800 
 34 H        2.8530     3.6740     0.7770 H     1 <1>   0.1500 
 35 H       -2.7050     2.6710    -0.2410 H     1 <1>   0.0800 
 36 H       -3.3980     4.1010    -0.9340 H     1 <1>   0.0800 
 37 H       -3.6530     3.4770     3.3060 H     1 <1>   0.0800 
 38 H       -2.8880     2.2930     2.3100 H     1 <1>   0.0800 
 39 H        4.1190     2.9910    -1.2460 H     1 <1>   0.1500 
 40 H       -0.5340     0.9370    -2.4090 H     1 <1>   0.4500 
 41 H        2.8560     1.7060    -2.9890 H     1 <1>   0.1500 
 42 H       -5.4790     2.7600     2.0160 H     1 <1>   0.0800 
 43 H       -5.0020     5.2150     3.1120 H     1 <1>   0.0800 
 44 H       -5.0940     6.7100     2.2190 H     1 <1>   0.0800 
 45 H       -4.8580     2.1740    -0.6600 H     1 <1>   0.4000 
 46 H       -7.1340     4.9540     2.3400 H     1 <1>   0.0800 
 47 H       -6.9190     6.0490     1.0230 H     1 <1>   0.0800 
 48 H       -7.3850     2.2000     0.5210 H     1 <1>   0.3700 
 49 H       -5.3670     5.1890    -0.9700 H     1 <1>   0.0800 
 50 H       -7.0750     5.0590    -1.2010 H     1 <1>   0.0800 
 51 H       -6.0510     3.6970    -1.5730 H     1 <1>   0.0800 
 52 H      -10.3190     2.2250     1.4220 H     1 <1>   0.0000 
 53 H       -9.0300     1.5420    -1.2960 H     1 <1>   0.0000 
 54 H       -9.3650     0.4250     0.0770 H     1 <1>   0.0000 
 55 H      -12.0620     3.1550    -0.0100 H     1 <1>   0.0000 
 56 H      -10.8970     3.4330    -1.3560 H     1 <1>   0.0000 
 57 H      -11.7790     0.7300    -0.1810 H     1 <1>   0.0000 
 58 H      -11.3520     1.0970    -1.8930 H     1 <1>   0.0000 
@<TRIPOS>BOND
  1   1   2  2   
  2   2   3  am  
  3   2   4  1   
  4   3   5  1   
  5   3   6  1   
  6   4   7  ar  
  7   4   8  ar  
  8   5   9  1   
  9   5  30  1   
 10   5  31  1   
 11   6  10  1   
 12   6  32  1   
 13   6  33  1   
 14   7  11  ar  
 15   8  12  ar  
 16   8  34  1   
 17   9  13  1   
 18   9  35  1   
 19   9  36  1   
 20  10  13  1   
 21  10  37  1   
 22  10  38  1   
 23  11  14  1   
 24  11  15  ar  
 25  12  15  ar  
 26  12  39  1   
 27  13  16  1   
 28  13  17  1   
 29  14  40  1   
 30  15  41  1   
 31  16  18  1   
 32  17  19  1   
 33  17  20  1   
 34  17  42  1   
 35  18  21  1   
 36  18  43  1   
 37  18  44  1   
 38  19  45  1   
 39  20  21  1   
 40  20  22  1   
 41  20  23  1   
 42  21  46  1   
 43  21  47  1   
 44  22  24  am  
 45  22  48  1   
 46  23  49  1   
 47  23  50  1   
 48  23  51  1   
 49  24  25  2   
 50  24  26  1   
 51  26  27  1   
 52  26  28  1   
 53  26  52  1   
 54  27  29  1   
 55  27  53  1   
 56  27  54  1   
 57  28  29  1   
 58  28  55  1   
 59  28  56  1   
 60  29  57  1   
 61  29  58  1   
@<TRIPOS>SUBSTRUCTURE
  1 ****   9 GROUP 4 **** **** 0

# MOE 2024.06 (io_trps.svl 2023.06)
