@<TRIPOS>MOLECULE
NONAME
46 47 1 0 0 
SMALL
USER_CHARGES


@<TRIPOS>ATOM
  1 O       -0.6240     0.1280     1.2700 O.2   1 <1>  -0.5700 
  2 C       -1.5750     0.6530     0.7450 C.2   1 <1>   0.5690 
  3 N       -2.8100     0.1000     0.7900 N.am  1 <1>  -0.7300 
  4 C       -1.3780     1.9720     0.0040 C.3   1 <1>  -0.0190 
  5 C       -3.1140    -1.2380     1.3230 C.3   1 <1>   0.2840 
  6 C       -2.2370     3.1050     0.5980 C.3   1 <1>  -0.1600 
  7 C       -1.6190     1.8210    -1.5190 C.3   1 <1>  -0.1600 
  8 C       -4.0800    -1.9130     0.3610 C.ar  1 <1>  -0.1440 
  9 C       -1.9120     4.4720    -0.0400 C.3   1 <1>   0.2000 
 10 C       -1.9670     3.1460    -2.2250 C.3   1 <1>  -0.1600 
 11 C       -3.6390    -2.5860    -0.7750 C.ar  1 <1>  -0.1430 
 12 C       -5.4400    -1.8410     0.6290 C.ar  1 <1>  -0.1500 
 13 O       -3.0910     5.2390    -0.0490 O.3   1 <1>  -0.5600 
 14 C       -1.3700     4.3490    -1.4900 C.3   1 <1>   0.2000 
 15 C       -4.5680    -3.1780    -1.6160 C.ar  1 <1>  -0.1500 
 16 C       -2.1590    -2.6900    -1.1200 C.3   1 <1>  -0.0970 
 17 C       -6.3650    -2.4300    -0.2160 C.ar  1 <1>  -0.1430 
 18 C       -3.3920     5.8750     1.1540 C.3   1 <1>   0.0400 
 19 O       -1.7000     5.4870    -2.1960 O.3   1 <1>  -0.6800 
 20 C       -5.9210    -3.1010    -1.3400 C.ar  1 <1>  -0.1500 
 21 C       -7.8490    -2.3460     0.0900 C.3   1 <1>  -0.0970 
 22 H       -3.5770     0.5150     0.2600 H     1 <1>   0.3700 
 23 H       -0.3470     2.2500     0.1450 H     1 <1>   0.0800 
 24 H       -2.2120    -1.8160     1.4310 H     1 <1>   0.0800 
 25 H       -3.5630    -1.1380     2.2960 H     1 <1>   0.0800 
 26 H       -2.0680     3.1610     1.6590 H     1 <1>   0.0800 
 27 H       -3.2750     2.8730     0.4320 H     1 <1>   0.0800 
 28 H       -0.7280     1.4050    -1.9590 H     1 <1>   0.0800 
 29 H       -2.4170     1.1230    -1.7060 H     1 <1>   0.0800 
 30 H       -1.1660     4.9860     0.5430 H     1 <1>   0.0800 
 31 H       -3.0370     3.2590    -2.2490 H     1 <1>   0.0800 
 32 H       -1.6070     3.1210    -3.2390 H     1 <1>   0.0800 
 33 H       -5.7850    -1.3210     1.5050 H     1 <1>   0.1500 
 34 H       -0.2970     4.2650    -1.4820 H     1 <1>   0.0800 
 35 H       -4.2440    -3.7050    -2.4960 H     1 <1>   0.1500 
 36 H       -2.0180    -3.1620    -2.0750 H     1 <1>   0.0800 
 37 H       -1.6470    -3.2720    -0.3760 H     1 <1>   0.0800 
 38 H       -1.7160    -1.7110    -1.1630 H     1 <1>   0.0800 
 39 H       -4.3030     6.4310     1.0200 H     1 <1>   0.0800 
 40 H       -2.5930     6.5490     1.4100 H     1 <1>   0.0800 
 41 H       -3.5310     5.1390     1.9270 H     1 <1>   0.0800 
 42 H       -2.5410     5.8110    -1.8000 H     1 <1>   0.4000 
 43 H       -6.6250    -3.5690    -2.0050 H     1 <1>   0.1500 
 44 H       -8.4210    -2.3570    -0.8200 H     1 <1>   0.0800 
 45 H       -8.0740    -1.4380     0.6210 H     1 <1>   0.0800 
 46 H       -8.1430    -3.1840     0.6960 H     1 <1>   0.0800 
@<TRIPOS>BOND
  1   1   2  2   
  2   2   3  am  
  3   2   4  1   
  4   3   5  1   
  5   3  22  1   
  6   4   6  1   
  7   4   7  1   
  8   4  23  1   
  9   5   8  1   
 10   5  24  1   
 11   5  25  1   
 12   6   9  1   
 13   6  26  1   
 14   6  27  1   
 15   7  10  1   
 16   7  28  1   
 17   7  29  1   
 18   8  11  ar  
 19   8  12  ar  
 20   9  13  1   
 21   9  14  1   
 22   9  30  1   
 23  10  14  1   
 24  10  31  1   
 25  10  32  1   
 26  11  15  ar  
 27  11  16  1   
 28  12  17  ar  
 29  12  33  1   
 30  13  18  1   
 31  14  19  1   
 32  14  34  1   
 33  15  20  ar  
 34  15  35  1   
 35  16  36  1   
 36  16  37  1   
 37  16  38  1   
 38  17  20  ar  
 39  17  21  1   
 40  18  39  1   
 41  18  40  1   
 42  18  41  1   
 43  19  42  1   
 44  20  43  1   
 45  21  44  1   
 46  21  45  1   
 47  21  46  1   
@<TRIPOS>SUBSTRUCTURE
  1 ****   3 GROUP 4 **** **** 0

# MOE 2024.06 (io_trps.svl 2023.06)
