@<TRIPOS>MOLECULE
NONAME
41 43 1 0 0 
SMALL
USER_CHARGES


@<TRIPOS>ATOM
  1 CL       0.8020     0.3970     1.7360 Cl    1 <1>  -0.1770 
  2 C        1.7400    -0.7390     0.8040 C.ar  1 <1>   0.1770 
  3 C        2.6140    -0.2710    -0.1560 C.ar  1 <1>  -0.1500 
  4 C        1.5850    -2.0940     1.0440 C.ar  1 <1>  -0.1500 
  5 C        3.3400    -1.1960    -0.8790 C.ar  1 <1>   0.1770 
  6 C        2.3170    -3.0170     0.3060 C.ar  1 <1>  -0.1440 
  7 CL       4.4530    -0.6460    -2.1020 Cl    1 <1>  -0.1770 
  8 C        3.2040    -2.5570    -0.6600 C.ar  1 <1>  -0.1500 
  9 C        2.1450    -4.5050     0.5590 C.3   1 <1>   0.4870 
 10 N        1.3550    -5.1040    -0.5540 N.4   1 <1>  -0.9590 
 11 C       -0.0550    -4.5880    -0.5540 C.3   1 <1>   0.3430 
 12 C        1.2620    -6.5890    -0.3850 C.3   1 <1>   0.3430 
 13 C       -0.8750    -5.6260     0.2150 C.3   1 <1>   0.2000 
 14 C       -0.2250    -6.9330    -0.2330 C.3   1 <1>  -0.0800 
 15 O       -0.6610    -5.4330     1.5780 O.3   1 <1>  -0.6800 
 16 C       -0.4730    -8.1720     0.6520 C.3   1 <1>   0.0200 
 17 C        0.4040    -9.3230     0.1990 C.2   1 <1>  -0.0400 
 18 O        0.4790    -9.6220    -1.0700 O.3   1 <1>  -0.0190 
 19 C        1.2070   -10.1630     0.8690 C.2   1 <1>  -0.1500 
 20 N        1.3010   -10.6030    -1.2880 N.2   1 <1>  -0.4100 
 21 C        1.7480   -10.9590    -0.1370 C.2   1 <1>   0.1080 
 22 C        2.7270   -12.0920     0.0810 C.3   1 <1>  -0.0590 
 23 H        2.7270     0.7830    -0.3350 H     1 <1>   0.1500 
 24 H        0.8940    -2.4060     1.8090 H     1 <1>   0.1500 
 25 H        3.8030    -3.2320    -1.2470 H     1 <1>   0.1500 
 26 H        1.6380    -4.6610     1.4980 H     1 <1>   0.0800 
 27 H        3.1160    -4.9700     0.6160 H     1 <1>   0.0800 
 28 H        1.8140    -4.8600    -1.4400 H     1 <1>   0.4500 
 29 H       -0.1410    -3.6120    -0.1060 H     1 <1>   0.0800 
 30 H       -0.4170    -4.5400    -1.5680 H     1 <1>   0.0800 
 31 H        1.6820    -7.1100    -1.2320 H     1 <1>   0.0800 
 32 H        1.7910    -6.8950     0.5030 H     1 <1>   0.0800 
 33 H       -1.9310    -5.5610     0.0060 H     1 <1>   0.0800 
 34 H       -0.5940    -7.1600    -1.2190 H     1 <1>   0.0800 
 35 H       -1.3840    -5.8300     2.1100 H     1 <1>   0.4000 
 36 H       -1.5050    -8.4680     0.5800 H     1 <1>   0.0800 
 37 H       -0.2530    -7.9660     1.6850 H     1 <1>   0.0800 
 38 H        1.4130   -10.2420     1.9210 H     1 <1>   0.1500 
 39 H        3.5950   -11.7340     0.6030 H     1 <1>   0.0800 
 40 H        3.0350   -12.5000    -0.8660 H     1 <1>   0.0800 
 41 H        2.2620   -12.8700     0.6570 H     1 <1>   0.0800 
@<TRIPOS>BOND
  1   1   2  1   
  2   2   3  ar  
  3   2   4  ar  
  4   3   5  ar  
  5   3  23  1   
  6   4   6  ar  
  7   4  24  1   
  8   5   7  1   
  9   5   8  ar  
 10   6   8  ar  
 11   6   9  1   
 12   8  25  1   
 13   9  10  1   
 14   9  26  1   
 15   9  27  1   
 16  10  11  1   
 17  10  12  1   
 18  10  28  1   
 19  11  13  1   
 20  11  29  1   
 21  11  30  1   
 22  12  14  1   
 23  12  31  1   
 24  12  32  1   
 25  13  14  1   
 26  13  15  1   
 27  13  33  1   
 28  14  16  1   
 29  14  34  1   
 30  15  35  1   
 31  16  17  1   
 32  16  36  1   
 33  16  37  1   
 34  17  18  1   
 35  17  19  2   
 36  18  20  1   
 37  19  21  1   
 38  19  38  1   
 39  20  21  2   
 40  21  22  1   
 41  22  39  1   
 42  22  40  1   
 43  22  41  1   
@<TRIPOS>SUBSTRUCTURE
  1 ****  10 GROUP 4 **** **** 0

# MOE 2024.06 (io_trps.svl 2023.06)
