@<TRIPOS>MOLECULE
NONAME
51 53 1 0 0 
SMALL
USER_CHARGES


@<TRIPOS>ATOM
  1 O       -1.5490     0.1220    -2.1280 O.2   1 <1>  -0.5700 
  2 C       -1.4550     0.4070    -0.9490 C.2   1 <1>   0.5440 
  3 N       -1.6580    -0.5870    -0.0360 N.am  1 <1>  -0.7300 
  4 C       -1.1410     1.7630    -0.5260 C.ar  1 <1>   0.0860 
  5 C       -1.9420    -2.0060    -0.3570 C.3   1 <1>   0.2200 
  6 C       -0.5310     2.6610    -1.4020 C.ar  1 <1>  -0.1500 
  7 C       -1.4310     2.2300     0.7580 C.ar  1 <1>  -0.1500 
  8 C       -3.4120    -2.3380    -0.1390 C.3   1 <1>  -0.0800 
  9 C       -1.2990    -2.8840     0.7070 C.3   1 <1>   0.1200 
 10 C       -0.2160     3.9520    -1.0180 C.ar  1 <1>  -0.1500 
 11 C       -1.1170     3.5200     1.1480 C.ar  1 <1>  -0.1500 
 12 C       -3.4800    -2.6380     1.3630 C.3   1 <1>   0.1200 
 13 C       -4.4210    -1.2800    -0.6220 C.3   1 <1>  -0.0160 
 14 O       -2.1630    -2.8170     1.8010 O.3   1 <1>  -0.5600 
 15 C       -0.5050     4.3900     0.2630 C.ar  1 <1>  -0.1430 
 16 C       -5.8490    -1.7700    -0.4410 C.ar  1 <1>  -0.1430 
 17 C       -0.1600     5.8090     0.6880 C.3   1 <1>  -0.0170 
 18 C       -6.4430    -2.6210    -1.3510 C.ar  1 <1>  -0.1500 
 19 C       -6.6240    -1.3940     0.6380 C.ar  1 <1>  -0.1500 
 20 C       -1.3290     6.7570     0.3960 C.3   1 <1>  -0.1600 
 21 C       -7.7440    -3.0480    -1.1410 C.ar  1 <1>   0.1600 
 22 C       -7.9160    -1.8790     0.7540 C.ar  1 <1>   0.1600 
 23 C       -1.0050     8.1970     0.8150 C.3   1 <1>  -0.1600 
 24 N       -8.4940    -2.7000    -0.1080 N.ar  1 <1>  -0.6200 
 25 C       -2.1790     9.1330     0.5180 C.3   1 <1>  -0.2400 
 26 H       -1.5560    -0.4040     0.9640 H     1 <1>   0.3700 
 27 H       -1.6020    -2.2490    -1.3500 H     1 <1>   0.0800 
 28 H       -0.3010     2.3370    -2.4030 H     1 <1>   0.1500 
 29 H       -1.9140     1.5830     1.4660 H     1 <1>   0.1500 
 30 H       -3.6180    -3.2570    -0.6580 H     1 <1>   0.0800 
 31 H       -0.3190    -2.5460     0.9930 H     1 <1>   0.0800 
 32 H       -1.2550    -3.9090     0.3810 H     1 <1>   0.0800 
 33 H        0.2540     4.6160    -1.7230 H     1 <1>   0.1500 
 34 H       -1.3540     3.8480     2.1450 H     1 <1>   0.1500 
 35 H       -4.0420    -3.5330     1.5660 H     1 <1>   0.0800 
 36 H       -3.8960    -1.8140     1.9160 H     1 <1>   0.0800 
 37 H       -4.2440    -1.0690    -1.6640 H     1 <1>   0.0800 
 38 H       -4.2890    -0.3590    -0.0830 H     1 <1>   0.0800 
 39 H        0.0670     5.8240     1.7400 H     1 <1>   0.0800 
 40 H        0.7170     6.1390     0.1600 H     1 <1>   0.0800 
 41 H       -5.9070    -2.9550    -2.2200 H     1 <1>   0.1500 
 42 H       -6.2380    -0.7290     1.3880 H     1 <1>   0.1500 
 43 H       -1.5490     6.7300    -0.6580 H     1 <1>   0.0800 
 44 H       -2.2010     6.4150     0.9250 H     1 <1>   0.0800 
 45 H       -8.1900    -3.7120    -1.8610 H     1 <1>   0.1500 
 46 H       -8.5060    -1.5760     1.6020 H     1 <1>   0.1500 
 47 H       -0.7870     8.2280     1.8700 H     1 <1>   0.0800 
 48 H       -0.1340     8.5430     0.2840 H     1 <1>   0.0800 
 49 H       -3.0560     8.8200     1.0570 H     1 <1>   0.0800 
 50 H       -2.4020     9.1350    -0.5350 H     1 <1>   0.0800 
 51 H       -1.9340    10.1370     0.8170 H     1 <1>   0.0800 
@<TRIPOS>BOND
  1   1   2  2   
  2   2   3  am  
  3   2   4  1   
  4   3   5  1   
  5   3  26  1   
  6   4   6  ar  
  7   4   7  ar  
  8   5   8  1   
  9   5   9  1   
 10   5  27  1   
 11   6  10  ar  
 12   6  28  1   
 13   7  11  ar  
 14   7  29  1   
 15   8  12  1   
 16   8  13  1   
 17   8  30  1   
 18   9  14  1   
 19   9  31  1   
 20   9  32  1   
 21  10  15  ar  
 22  10  33  1   
 23  11  15  ar  
 24  11  34  1   
 25  12  14  1   
 26  12  35  1   
 27  12  36  1   
 28  13  16  1   
 29  13  37  1   
 30  13  38  1   
 31  15  17  1   
 32  16  18  ar  
 33  16  19  ar  
 34  17  20  1   
 35  17  39  1   
 36  17  40  1   
 37  18  21  ar  
 38  18  41  1   
 39  19  22  ar  
 40  19  42  1   
 41  20  23  1   
 42  20  43  1   
 43  20  44  1   
 44  21  24  ar  
 45  21  45  1   
 46  22  24  ar  
 47  22  46  1   
 48  23  25  1   
 49  23  47  1   
 50  23  48  1   
 51  25  49  1   
 52  25  50  1   
 53  25  51  1   
@<TRIPOS>SUBSTRUCTURE
  1 ****   2 GROUP 4 **** **** 0

# MOE 2024.06 (io_trps.svl 2023.06)
