@<TRIPOS>MOLECULE
NONAME
33 34 1 0 0 
SMALL
USER_CHARGES


@<TRIPOS>ATOM
  1 CL       0.0670    -0.0680    -0.2650 Cl    1 <1>  -0.1770 
  2 C        1.3280    -1.2640    -0.0850 C.ar  1 <1>   0.1770 
  3 C        1.1160    -2.4420     0.6180 C.ar  1 <1>  -0.0090 
  4 C        2.5440    -0.9770    -0.6810 C.ar  1 <1>  -0.1500 
  5 S       -0.4780    -2.8200     1.3810 S.o2  1 <1>   1.4470 
  6 C        2.1820    -3.3340     0.7050 C.ar  1 <1>  -0.1500 
  7 C        3.5880    -1.8790    -0.5810 C.ar  1 <1>  -0.1500 
  8 O       -0.4060    -4.1490     1.9480 O.2   1 <1>  -0.6500 
  9 O       -0.8550    -1.7170     2.2390 O.2   1 <1>  -0.6500 
 10 N       -1.5340    -2.8730     0.0540 N.am  1 <1>  -0.8490 
 11 C        3.4040    -3.0600     0.1150 C.ar  1 <1>  -0.1500 
 12 C       -1.3690    -4.0550    -0.8180 C.3   1 <1>   0.1960 
 13 C       -2.9400    -2.5210     0.3480 C.3   1 <1>   0.1960 
 14 C       -2.1040    -5.3280    -0.3360 C.3   1 <1>   0.2000 
 15 C       -3.9400    -3.6640     0.1060 C.3   1 <1>  -0.1600 
 16 O       -2.4830    -6.0090    -1.4780 O.3   1 <1>  -0.6800 
 17 C       -3.3440    -5.0170     0.5310 C.3   1 <1>  -0.1860 
 18 C       -4.3920    -6.1180     0.6260 C.2   1 <1>   0.9060 
 19 O       -5.1700    -6.0920     1.5830 O.co2 1 <1>  -0.9000 
 20 O       -4.4630    -6.9930    -0.2490 O.co2 1 <1>  -0.9000 
 21 H        2.6690    -0.0530    -1.2170 H     1 <1>   0.1500 
 22 H        2.0550    -4.2600     1.2440 H     1 <1>   0.1500 
 23 H        4.5370    -1.6630    -1.0420 H     1 <1>   0.1500 
 24 H        4.2140    -3.7660     0.1970 H     1 <1>   0.1500 
 25 H       -1.7630    -3.7900    -1.7840 H     1 <1>   0.0800 
 26 H       -0.3260    -4.2790    -0.9470 H     1 <1>   0.0800 
 27 H       -3.0360    -2.2120     1.3750 H     1 <1>   0.0800 
 28 H       -3.2190    -1.6790    -0.2620 H     1 <1>   0.0800 
 29 H       -1.4370    -5.9720     0.2110 H     1 <1>   0.0800 
 30 H       -4.8370    -3.4720     0.6700 H     1 <1>   0.0800 
 31 H       -4.2160    -3.7030    -0.9330 H     1 <1>   0.0800 
 32 H       -3.2810    -6.5700    -1.2060 H     1 <1>   0.4000 
 33 H       -2.9910    -4.8940     1.5380 H     1 <1>   0.0800 
@<TRIPOS>BOND
  1   1   2  1   
  2   2   3  ar  
  3   2   4  ar  
  4   3   5  1   
  5   3   6  ar  
  6   4   7  ar  
  7   4  21  1   
  8   5   8  2   
  9   5   9  2   
 10   5  10  am  
 11   6  11  ar  
 12   6  22  1   
 13   7  11  ar  
 14   7  23  1   
 15  10  12  1   
 16  10  13  1   
 17  11  24  1   
 18  12  14  1   
 19  12  25  1   
 20  12  26  1   
 21  13  15  1   
 22  13  27  1   
 23  13  28  1   
 24  14  16  1   
 25  14  17  1   
 26  14  29  1   
 27  15  17  1   
 28  15  30  1   
 29  15  31  1   
 30  16  32  1   
 31  17  18  1   
 32  17  33  1   
 33  18  19  ar  
 34  18  20  ar  
@<TRIPOS>SUBSTRUCTURE
  1 ****  10 GROUP 4 **** **** 0

# MOE 2024.06 (io_trps.svl 2023.06)
