@<TRIPOS>MOLECULE
NONAME
41 43 1 0 0 
SMALL
USER_CHARGES


@<TRIPOS>ATOM
  1 F        3.7590     0.7990     2.0660 F     1 <1>  -0.1900 
  2 C        3.8040    -0.3530     1.4570 C.ar  1 <1>   0.1900 
  3 C        4.9760    -1.0800     1.5010 C.ar  1 <1>  -0.1500 
  4 C        2.6790    -0.7970     0.7970 C.ar  1 <1>  -0.1500 
  5 C        5.0320    -2.3080     0.8540 C.ar  1 <1>   0.0730 
  6 C        2.7040    -2.0310     0.1490 C.ar  1 <1>   0.0860 
  7 C        6.2350    -3.0910     0.8730 C.1   1 <1>   0.4840 
  8 C        3.8960    -2.7580     0.1890 C.ar  1 <1>  -0.1500 
  9 C        1.5480    -2.5460    -0.5610 C.2   1 <1>   0.5440 
 10 N        7.1910    -3.7120     0.8970 N.1   1 <1>  -0.5570 
 11 O        1.7070    -2.9940    -1.6800 O.2   1 <1>  -0.5700 
 12 N        0.2830    -2.5540    -0.0040 N.am  1 <1>  -0.6600 
 13 C       -0.9000    -2.8060    -0.8830 C.3   1 <1>   0.2200 
 14 C        0.0650    -2.4880     1.4740 C.3   1 <1>   0.0600 
 15 C       -1.3540    -4.2600    -0.8410 C.3   1 <1>  -0.1600 
 16 C       -2.1520    -2.0060    -0.5250 C.3   1 <1>  -0.1600 
 17 C       -2.7820    -4.2310    -1.4010 C.3   1 <1>  -0.0800 
 18 C       -3.3010    -2.7870    -1.1790 C.3   1 <1>  -0.0800 
 19 C       -3.6680    -5.3570    -0.8350 C.3   1 <1>   0.1400 
 20 C       -4.6220    -2.7000    -0.3880 C.3   1 <1>  -0.0990 
 21 N       -5.0920    -5.0160    -1.0290 N.am  1 <1>  -0.7300 
 22 C       -5.5870    -3.7760    -0.8360 C.2   1 <1>   0.5690 
 23 O       -6.7540    -3.5300    -0.9990 O.2   1 <1>  -0.5700 
 24 H        5.8290    -0.6910     2.0300 H     1 <1>   0.1500 
 25 H        1.7910    -0.1910     0.7780 H     1 <1>   0.1500 
 26 H        3.9270    -3.7050    -0.3250 H     1 <1>   0.1500 
 27 H       -0.6460    -2.5660    -1.9030 H     1 <1>   0.0800 
 28 H       -0.6800    -3.2020     1.7750 H     1 <1>   0.0800 
 29 H       -0.2650    -1.5010     1.7480 H     1 <1>   0.0800 
 30 H        0.9730    -2.7140     2.0040 H     1 <1>   0.0800 
 31 H       -0.7060    -4.8820    -1.4340 H     1 <1>   0.0800 
 32 H       -1.3610    -4.6130     0.1740 H     1 <1>   0.0800 
 33 H       -2.3020    -1.9790     0.5370 H     1 <1>   0.0800 
 34 H       -2.0940    -1.0010    -0.9050 H     1 <1>   0.0800 
 35 H       -2.7150    -4.3840    -2.4660 H     1 <1>   0.0800 
 36 H       -3.4810    -2.3660    -2.1550 H     1 <1>   0.0800 
 37 H       -3.4910    -5.4790     0.2200 H     1 <1>   0.0800 
 38 H       -3.4420    -6.2870    -1.3290 H     1 <1>   0.0800 
 39 H       -5.0720    -1.7340    -0.5240 H     1 <1>   0.0800 
 40 H       -4.4440    -2.8460     0.6610 H     1 <1>   0.0800 
 41 H       -5.7470    -5.7510    -1.3030 H     1 <1>   0.3700 
@<TRIPOS>BOND
  1   1   2  1   
  2   2   3  ar  
  3   2   4  ar  
  4   3   5  ar  
  5   3  24  1   
  6   4   6  ar  
  7   4  25  1   
  8   5   7  1   
  9   5   8  ar  
 10   6   8  ar  
 11   6   9  1   
 12   7  10  3   
 13   8  26  1   
 14   9  11  2   
 15   9  12  am  
 16  12  13  1   
 17  12  14  1   
 18  13  15  1   
 19  13  16  1   
 20  13  27  1   
 21  14  28  1   
 22  14  29  1   
 23  14  30  1   
 24  15  17  1   
 25  15  31  1   
 26  15  32  1   
 27  16  18  1   
 28  16  33  1   
 29  16  34  1   
 30  17  18  1   
 31  17  19  1   
 32  17  35  1   
 33  18  20  1   
 34  18  36  1   
 35  19  21  1   
 36  19  37  1   
 37  19  38  1   
 38  20  22  1   
 39  20  39  1   
 40  20  40  1   
 41  21  22  am  
 42  21  41  1   
 43  22  23  2   
@<TRIPOS>SUBSTRUCTURE
  1 ****  12 GROUP 4 **** **** 0

# MOE 2024.06 (io_trps.svl 2023.06)
