@<TRIPOS>MOLECULE
NONAME
44 45 1 0 0 
SMALL
USER_CHARGES


@<TRIPOS>ATOM
  1 CL      -1.6470     0.3530    -1.5820 Cl    1 <1>  -0.1770 
  2 C       -2.7150     0.6550    -0.2330 C.ar  1 <1>   0.1770 
  3 C       -3.6280    -0.3170     0.1680 C.ar  1 <1>   0.0860 
  4 C       -2.6060     1.8710     0.4120 C.ar  1 <1>  -0.1500 
  5 C       -4.4450    -0.0280     1.2690 C.ar  1 <1>  -0.1440 
  6 C       -3.7070    -1.5730    -0.5380 C.2   1 <1>   0.5440 
  7 C       -3.4210     2.1410     1.4950 C.ar  1 <1>  -0.1500 
  8 C       -4.3350     1.1910     1.9190 C.ar  1 <1>  -0.1500 
  9 C       -5.4690    -1.0420     1.7670 C.3   1 <1>  -0.0960 
 10 O       -4.3660    -1.6790    -1.5540 O.2   1 <1>  -0.5700 
 11 N       -3.0860    -2.6790    -0.0370 N.am  1 <1>  -0.7300 
 12 C       -3.2840    -4.0430    -0.5700 C.3   1 <1>   0.2200 
 13 C       -4.6540    -4.5520    -0.1270 C.3   1 <1>  -0.0800 
 14 C       -2.3110    -5.0380     0.0590 C.3   1 <1>   0.1200 
 15 C       -4.3390    -5.7710     0.7410 C.3   1 <1>   0.1200 
 16 C       -5.5730    -4.8470    -1.3240 C.3   1 <1>  -0.0550 
 17 O       -3.0060    -5.6240     1.1100 O.3   1 <1>  -0.5600 
 18 S       -7.3000    -5.0170    -0.8720 S.o2  1 <1>   1.3330 
 19 O       -7.3890    -6.0080     0.1770 O.2   1 <1>  -0.6500 
 20 O       -8.0890    -5.1800    -2.0720 O.2   1 <1>  -0.6500 
 21 N       -7.7050    -3.5120    -0.1970 N.am  1 <1>  -0.8490 
 22 C       -8.9430    -3.5870     0.5820 C.3   1 <1>   0.1160 
 23 C       -7.8120    -2.4410    -1.1960 C.3   1 <1>   0.1160 
 24 H       -1.8900     2.5960     0.0690 H     1 <1>   0.1500 
 25 H       -3.3470     3.0850     2.0080 H     1 <1>   0.1500 
 26 H       -4.9630     1.4140     2.7650 H     1 <1>   0.1500 
 27 H       -6.1170    -0.6090     2.5080 H     1 <1>   0.0800 
 28 H       -4.9710    -1.8880     2.2050 H     1 <1>   0.0800 
 29 H       -6.0800    -1.3860     0.9520 H     1 <1>   0.0800 
 30 H       -2.6580    -2.6380     0.8910 H     1 <1>   0.3700 
 31 H       -3.1680    -4.0290    -1.6410 H     1 <1>   0.0800 
 32 H       -5.1310    -3.8200     0.5010 H     1 <1>   0.0800 
 33 H       -1.4150    -4.5740     0.4310 H     1 <1>   0.0800 
 34 H       -2.0600    -5.8160    -0.6410 H     1 <1>   0.0800 
 35 H       -4.4320    -6.6920     0.1900 H     1 <1>   0.0800 
 36 H       -4.9500    -5.8130     1.6270 H     1 <1>   0.0800 
 37 H       -5.2430    -5.7390    -1.8180 H     1 <1>   0.0800 
 38 H       -5.4880    -4.0420    -2.0280 H     1 <1>   0.0800 
 39 H       -9.1680    -2.6300     1.0190 H     1 <1>   0.0800 
 40 H       -8.8340    -4.3050     1.3780 H     1 <1>   0.0800 
 41 H       -9.7630    -3.8920    -0.0480 H     1 <1>   0.0800 
 42 H       -8.0280    -1.5030    -0.7130 H     1 <1>   0.0800 
 43 H       -8.5960    -2.6580    -1.9030 H     1 <1>   0.0800 
 44 H       -6.8840    -2.3310    -1.7310 H     1 <1>   0.0800 
@<TRIPOS>BOND
  1   1   2  1   
  2   2   3  ar  
  3   2   4  ar  
  4   3   5  ar  
  5   3   6  1   
  6   4   7  ar  
  7   4  24  1   
  8   5   8  ar  
  9   5   9  1   
 10   6  10  2   
 11   6  11  am  
 12   7   8  ar  
 13   7  25  1   
 14   8  26  1   
 15   9  27  1   
 16   9  28  1   
 17   9  29  1   
 18  11  12  1   
 19  11  30  1   
 20  12  13  1   
 21  12  14  1   
 22  12  31  1   
 23  13  15  1   
 24  13  16  1   
 25  13  32  1   
 26  14  17  1   
 27  14  33  1   
 28  14  34  1   
 29  15  17  1   
 30  15  35  1   
 31  15  36  1   
 32  16  18  1   
 33  16  37  1   
 34  16  38  1   
 35  18  19  2   
 36  18  20  2   
 37  18  21  am  
 38  21  22  1   
 39  21  23  1   
 40  22  39  1   
 41  22  40  1   
 42  22  41  1   
 43  23  42  1   
 44  23  43  1   
 45  23  44  1   
@<TRIPOS>SUBSTRUCTURE
  1 ****   6 GROUP 4 **** **** 0

# MOE 2024.06 (io_trps.svl 2023.06)
