@<TRIPOS>MOLECULE
NONAME
41 43 1 0 0 
SMALL
USER_CHARGES


@<TRIPOS>ATOM
  1 CL       0.2130    -0.7630    -2.3370 Cl    1 <1>  -0.1240 
  2 C       -0.8590    -1.7010    -1.3380 C.2   1 <1>   0.1640 
  3 S       -0.8040    -3.4350    -1.5310 S.3   1 <1>  -0.0800 
  4 C       -1.7570    -1.3290    -0.4100 C.2   1 <1>  -0.1500 
  5 C       -2.0590    -3.6610    -0.3000 C.2   1 <1>  -0.0450 
  6 C       -2.4310    -2.4400     0.1760 C.2   1 <1>  -0.1500 
  7 C       -2.4840    -5.0030     0.0150 C.2   1 <1>   0.7150 
  8 O       -1.7760    -5.9640    -0.2370 O.2   1 <1>  -0.5700 
  9 N       -3.7050    -5.2520     0.6000 N.am  1 <1>  -0.6600 
 10 C       -3.9550    -6.5610     1.2730 C.3   1 <1>   0.1400 
 11 C       -4.9530    -4.6030     0.1060 C.3   1 <1>   0.1400 
 12 C       -4.5870    -7.5340     0.2490 C.3   1 <1>   0.4230 
 13 C       -5.6470    -5.5550    -0.8810 C.3   1 <1>  -0.1600 
 14 N       -4.7810    -8.9340     0.7570 N.4   1 <1>  -0.9590 
 15 C       -5.9260    -6.9550    -0.2590 C.3   1 <1>  -0.1060 
 16 C       -5.2750    -9.8450    -0.3060 C.3   1 <1>   0.3430 
 17 C       -3.6240    -9.5040     1.4970 C.3   1 <1>   0.2630 
 18 C       -6.8930    -6.8380     0.9360 C.2   1 <1>   0.9060 
 19 C       -6.5100    -7.8780    -1.3540 C.3   1 <1>  -0.1600 
 20 C       -6.6020    -9.3350    -0.8730 C.3   1 <1>  -0.1600 
 21 O       -6.8290    -7.6830     1.8430 O.co2 1 <1>  -0.9000 
 22 O       -7.6860    -5.8990     0.9850 O.co2 1 <1>  -0.9000 
 23 H       -1.9640    -0.3140    -0.1200 H     1 <1>   0.1500 
 24 H       -3.1730    -2.2880     0.9420 H     1 <1>   0.1500 
 25 H       -3.0200    -6.9490     1.6350 H     1 <1>   0.0800 
 26 H       -4.6060    -6.4090     2.1160 H     1 <1>   0.0800 
 27 H       -5.6030    -4.3900     0.9400 H     1 <1>   0.0800 
 28 H       -4.7360    -3.6750    -0.3900 H     1 <1>   0.0800 
 29 H       -3.9070    -7.5800    -0.5850 H     1 <1>   0.0800 
 30 H       -6.5770    -5.1080    -1.1900 H     1 <1>   0.0800 
 31 H       -5.0300    -5.6490    -1.7580 H     1 <1>   0.0800 
 32 H       -5.5890    -8.7920     1.4220 H     1 <1>   0.4500 
 33 H       -4.5450    -9.9060    -1.0960 H     1 <1>   0.0800 
 34 H       -5.4230   -10.8320     0.1010 H     1 <1>   0.0800 
 35 H       -2.7550    -9.5410     0.8610 H     1 <1>   0.0800 
 36 H       -3.8560   -10.5010     1.8340 H     1 <1>   0.0800 
 37 H       -3.4000    -8.9000     2.3610 H     1 <1>   0.0800 
 38 H       -7.4930    -7.5290    -1.6280 H     1 <1>   0.0800 
 39 H       -5.8910    -7.8390    -2.2340 H     1 <1>   0.0800 
 40 H       -6.9000    -9.9630    -1.6930 H     1 <1>   0.0800 
 41 H       -7.3630    -9.4210    -0.1150 H     1 <1>   0.0800 
@<TRIPOS>BOND
  1   1   2  1   
  2   2   3  1   
  3   2   4  2   
  4   3   5  1   
  5   4   6  1   
  6   4  23  1   
  7   5   6  2   
  8   5   7  1   
  9   6  24  1   
 10   7   8  2   
 11   7   9  am  
 12   9  10  1   
 13   9  11  1   
 14  10  12  1   
 15  10  25  1   
 16  10  26  1   
 17  11  13  1   
 18  11  27  1   
 19  11  28  1   
 20  12  14  1   
 21  12  15  1   
 22  12  29  1   
 23  13  15  1   
 24  13  30  1   
 25  13  31  1   
 26  14  16  1   
 27  14  17  1   
 28  14  32  1   
 29  15  18  1   
 30  15  19  1   
 31  16  20  1   
 32  16  33  1   
 33  16  34  1   
 34  17  35  1   
 35  17  36  1   
 36  17  37  1   
 37  18  21  ar  
 38  18  22  ar  
 39  19  20  1   
 40  19  38  1   
 41  19  39  1   
 42  20  40  1   
 43  20  41  1   
@<TRIPOS>SUBSTRUCTURE
  1 ****   9 GROUP 4 **** **** 0

# MOE 2024.06 (io_trps.svl 2023.06)
