@<TRIPOS>MOLECULE
NONAME
48 49 1 0 0 
SMALL
USER_CHARGES


@<TRIPOS>ATOM
  1 O       -0.3230     0.0090    -0.6550 O.2   1 <1>  -0.5700 
  2 C       -1.2550     0.5290    -0.0870 C.2   1 <1>   0.5690 
  3 N       -2.3060    -0.2120     0.3920 N.am  1 <1>  -0.6600 
  4 C       -1.2260     2.0410     0.1020 C.3   1 <1>  -0.0990 
  5 C       -2.3090    -1.6940     0.2060 C.3   1 <1>   0.3200 
  6 C       -3.4000     0.3530     1.2450 C.3   1 <1>   0.1400 
  7 C       -0.1370     2.7510    -0.7150 C.3   1 <1>  -0.0170 
  8 C       -3.6430    -2.1590    -0.3420 C.2   1 <1>  -0.3320 
  9 C       -4.5830     0.8490     0.4030 C.3   1 <1>   0.1200 
 10 C       -0.2280     4.2540    -0.5090 C.ar  1 <1>  -0.1440 
 11 N       -4.6690    -2.6090     0.4060 N.pl3 1 <1>   0.0330 
 12 C       -4.0600    -2.2140    -1.6250 C.2   1 <1>   0.0770 
 13 O       -5.5770     1.2890     1.2640 O.3   1 <1>  -0.6800 
 14 C       -0.9870     5.0340    -1.3670 C.ar  1 <1>  -0.1500 
 15 C        0.4410     4.8590     0.5420 C.ar  1 <1>  -0.1500 
 16 C       -5.6510    -2.8970    -0.4740 C.2   1 <1>   0.0070 
 17 N       -5.3240    -2.6720    -1.7030 N.2   1 <1>  -0.5650 
 18 C       -1.0780     6.4020    -1.1740 C.ar  1 <1>  -0.1500 
 19 C        0.3490     6.2270     0.7350 C.ar  1 <1>  -0.1500 
 20 C       -7.0020    -3.4290    -0.0490 C.3   1 <1>  -0.0600 
 21 C       -0.4120     7.0070    -0.1210 C.ar  1 <1>  -0.1440 
 22 C       -0.5110     8.5080     0.0910 C.3   1 <1>  -0.0170 
 23 C        0.5990     9.2330    -0.6720 C.3   1 <1>  -0.2400 
 24 H       -1.0690     2.2520     1.1440 H     1 <1>   0.0800 
 25 H       -2.1750     2.4480    -0.1850 H     1 <1>   0.0800 
 26 H       -2.1010    -2.1740     1.1460 H     1 <1>   0.0800 
 27 H       -1.5390    -1.9890    -0.4860 H     1 <1>   0.0800 
 28 H       -3.0220     1.1700     1.8330 H     1 <1>   0.0800 
 29 H       -3.7450    -0.4030     1.9270 H     1 <1>   0.0800 
 30 H       -0.2550     2.5180    -1.7590 H     1 <1>   0.0800 
 31 H        0.8350     2.4010    -0.4120 H     1 <1>   0.0800 
 32 H       -4.9940     0.0630    -0.2040 H     1 <1>   0.0800 
 33 H       -4.2930     1.6730    -0.2240 H     1 <1>   0.0800 
 34 H       -4.7150    -2.7080     1.4240 H     1 <1>   0.2700 
 35 H       -3.5110    -1.9380    -2.5110 H     1 <1>   0.1500 
 36 H       -6.3540     1.5980     0.7560 H     1 <1>   0.4000 
 37 H       -1.5110     4.5800    -2.1900 H     1 <1>   0.1500 
 38 H        1.0360     4.2690     1.2160 H     1 <1>   0.1500 
 39 H       -1.6680     6.9940    -1.8500 H     1 <1>   0.1500 
 40 H        0.8760     6.6820     1.5550 H     1 <1>   0.1500 
 41 H       -7.4860    -2.7290     0.6070 H     1 <1>   0.0800 
 42 H       -6.8860    -4.3710     0.4540 H     1 <1>   0.0800 
 43 H       -7.6220    -3.5760    -0.9150 H     1 <1>   0.0800 
 44 H       -0.4340     8.7320     1.1410 H     1 <1>   0.0800 
 45 H       -1.4710     8.8600    -0.2470 H     1 <1>   0.0800 
 46 H        1.5630     8.9000    -0.3290 H     1 <1>   0.0800 
 47 H        0.5240    10.2950    -0.5180 H     1 <1>   0.0800 
 48 H        0.5200     9.0280    -1.7250 H     1 <1>   0.0800 
@<TRIPOS>BOND
  1   1   2  2   
  2   2   3  am  
  3   2   4  1   
  4   3   5  1   
  5   3   6  1   
  6   4   7  1   
  7   4  24  1   
  8   4  25  1   
  9   5   8  1   
 10   5  26  1   
 11   5  27  1   
 12   6   9  1   
 13   6  28  1   
 14   6  29  1   
 15   7  10  1   
 16   7  30  1   
 17   7  31  1   
 18   8  11  1   
 19   8  12  2   
 20   9  13  1   
 21   9  32  1   
 22   9  33  1   
 23  10  14  ar  
 24  10  15  ar  
 25  11  16  1   
 26  11  34  1   
 27  12  17  1   
 28  12  35  1   
 29  13  36  1   
 30  14  18  ar  
 31  14  37  1   
 32  15  19  ar  
 33  15  38  1   
 34  16  17  2   
 35  16  20  1   
 36  18  21  ar  
 37  18  39  1   
 38  19  21  ar  
 39  19  40  1   
 40  20  41  1   
 41  20  42  1   
 42  20  43  1   
 43  21  22  1   
 44  22  23  1   
 45  22  44  1   
 46  22  45  1   
 47  23  46  1   
 48  23  47  1   
 49  23  48  1   
@<TRIPOS>SUBSTRUCTURE
  1 ****   4 GROUP 4 **** **** 0

# MOE 2024.06 (io_trps.svl 2023.06)
