@<TRIPOS>MOLECULE
NONAME
27 26 1 0 0 
SMALL
USER_CHARGES


@<TRIPOS>ATOM
  1 O       -2.3300     1.4560    -0.9650 O.co2 1 <1>  -0.9000 
  2 C       -1.3880     1.3900    -0.1710 C.2   1 <1>   0.9060 
  3 O       -1.3160     0.5330     0.7150 O.co2 1 <1>  -0.9000 
  4 C       -0.2780     2.4030    -0.2850 C.3   1 <1>  -0.2660 
  5 C       -0.7070     3.7560     0.2860 C.3   1 <1>  -0.0220 
  6 C        0.3030     4.9060     0.2300 C.2   1 <1>  -0.2880 
  7 C        1.5600     5.0370    -0.2210 C.2   1 <1>  -0.2880 
  8 C        2.5190     4.0530    -0.8770 C.3   1 <1>   0.1160 
  9 C        3.8420     4.0400    -0.1240 C.2   1 <1>  -0.2880 
 10 C        4.4120     3.0290     0.5470 C.2   1 <1>  -0.2880 
 11 C        3.8790     1.6200     0.7530 C.3   1 <1>  -0.0220 
 12 C        4.8010     0.6060     0.0760 C.3   1 <1>  -0.2400 
 13 H        0.5620     2.0250     0.2610 H     1 <1>   0.0800 
 14 H       -0.0340     2.4970    -1.3240 H     1 <1>   0.0800 
 15 H       -0.9890     3.6030     1.3140 H     1 <1>   0.0800 
 16 H       -1.5960     4.0650    -0.2390 H     1 <1>   0.0800 
 17 H       -0.1650     5.7720     0.6650 H     1 <1>   0.1500 
 18 H        2.0430     5.9940    -0.1340 H     1 <1>   0.1500 
 19 H        2.1110     3.0700    -0.9360 H     1 <1>   0.0800 
 20 H        2.7020     4.3730    -1.8870 H     1 <1>   0.0800 
 21 H        4.3250     5.0000    -0.1810 H     1 <1>   0.1500 
 22 H        5.3640     3.1600     1.0330 H     1 <1>   0.1500 
 23 H        3.8260     1.4140     1.8080 H     1 <1>   0.0800 
 24 H        2.8860     1.5120     0.3580 H     1 <1>   0.0800 
 25 H        5.7910     0.6640     0.4910 H     1 <1>   0.0800 
 26 H        4.8530     0.8050    -0.9800 H     1 <1>   0.0800 
 27 H        4.4200    -0.3890     0.2210 H     1 <1>   0.0800 
@<TRIPOS>BOND
  1   1   2  ar  
  2   2   3  ar  
  3   2   4  1   
  4   4   5  1   
  5   4  13  1   
  6   4  14  1   
  7   5   6  1   
  8   5  15  1   
  9   5  16  1   
 10   6   7  2   
 11   6  17  1   
 12   7   8  1   
 13   7  18  1   
 14   8   9  1   
 15   8  19  1   
 16   8  20  1   
 17   9  10  2   
 18   9  21  1   
 19  10  11  1   
 20  10  22  1   
 21  11  12  1   
 22  11  23  1   
 23  11  24  1   
 24  12  25  1   
 25  12  26  1   
 26  12  27  1   
@<TRIPOS>SUBSTRUCTURE
  1 ****   4 GROUP 4 **** **** 0

# MOE 2024.06 (io_trps.svl 2023.06)
