@<TRIPOS>MOLECULE
NONAME
37 39 1 0 0 
SMALL
USER_CHARGES


@<TRIPOS>ATOM
  1 CL      -0.1720     0.1110    -0.5290 Cl    1 <1>  -0.1230 
  2 C       -1.7340     0.6640     0.0550 C.2   1 <1>   0.1230 
  3 C       -2.8500    -0.1190     0.3820 C.2   1 <1>   0.2030 
  4 C       -2.0650     1.9500     0.2490 C.2   1 <1>  -0.3020 
  5 N       -3.8360     0.6910     0.7570 N.2   1 <1>  -0.7070 
  6 C       -2.8810    -1.5780     0.3140 C.2   1 <1>   0.7160 
  7 N       -3.3400     1.9380     0.6760 N.pl3 1 <1>   0.3000 
  8 O       -1.8480    -2.2220     0.3980 O.2   1 <1>  -0.5700 
  9 N       -4.0510    -2.2980     0.1520 N.am  1 <1>  -0.6600 
 10 C       -5.4020    -1.7260    -0.0690 C.3   1 <1>   0.1400 
 11 C       -4.0920    -3.7800     0.1040 C.3   1 <1>   0.1400 
 12 C       -6.2640    -2.9140    -0.4940 C.3   1 <1>   0.2000 
 13 C       -5.5780    -4.1420     0.1010 C.3   1 <1>  -0.0800 
 14 O       -7.5590    -2.8070    -0.0150 O.3   1 <1>  -0.6800 
 15 C       -5.8950    -5.4380    -0.6610 C.3   1 <1>   0.0210 
 16 C       -5.1030    -6.6050    -0.1060 C.2   1 <1>   0.1080 
 17 N       -5.2450    -7.0390     1.1080 N.2   1 <1>  -0.7070 
 18 C       -4.1450    -7.3250    -0.8120 C.2   1 <1>  -0.1500 
 19 N       -4.3730    -8.0590     1.2090 N.pl3 1 <1>   0.3000 
 20 C       -3.6940    -8.2510     0.0590 C.2   1 <1>  -0.3320 
 21 C       -2.6390    -9.3240    -0.1390 C.3   1 <1>  -0.0600 
 22 H       -1.4830     2.8420     0.1090 H     1 <1>   0.1500 
 23 H       -3.8970     2.7690     0.9200 H     1 <1>   0.2700 
 24 H       -5.7580    -1.3020     0.8540 H     1 <1>   0.0800 
 25 H       -5.3760    -0.9740    -0.8380 H     1 <1>   0.0800 
 26 H       -3.6090    -4.1140    -0.7980 H     1 <1>   0.0800 
 27 H       -3.5880    -4.2070     0.9550 H     1 <1>   0.0800 
 28 H       -6.3020    -2.9650    -1.5680 H     1 <1>   0.0800 
 29 H       -5.8740    -4.2590     1.1290 H     1 <1>   0.0800 
 30 H       -7.5620    -2.8620     0.9610 H     1 <1>   0.4000 
 31 H       -5.6690    -5.3180    -1.7050 H     1 <1>   0.0800 
 32 H       -6.9440    -5.6590    -0.5700 H     1 <1>   0.0800 
 33 H       -3.8470    -7.1570    -1.8320 H     1 <1>   0.1500 
 34 H       -4.2670    -8.6030     2.0730 H     1 <1>   0.2700 
 35 H       -2.2440    -9.2740    -1.1390 H     1 <1>   0.0800 
 36 H       -3.0670   -10.2990     0.0110 H     1 <1>   0.0800 
 37 H       -1.8300    -9.1840     0.5560 H     1 <1>   0.0800 
@<TRIPOS>BOND
  1   1   2  1   
  2   2   3  1   
  3   2   4  2   
  4   3   5  2   
  5   3   6  1   
  6   4   7  1   
  7   4  22  1   
  8   5   7  1   
  9   6   8  2   
 10   6   9  am  
 11   7  23  1   
 12   9  10  1   
 13   9  11  1   
 14  10  12  1   
 15  10  24  1   
 16  10  25  1   
 17  11  13  1   
 18  11  26  1   
 19  11  27  1   
 20  12  13  1   
 21  12  14  1   
 22  12  28  1   
 23  13  15  1   
 24  13  29  1   
 25  14  30  1   
 26  15  16  1   
 27  15  31  1   
 28  15  32  1   
 29  16  17  2   
 30  16  18  1   
 31  17  19  1   
 32  18  20  2   
 33  18  33  1   
 34  19  20  1   
 35  19  34  1   
 36  20  21  1   
 37  21  35  1   
 38  21  36  1   
 39  21  37  1   
@<TRIPOS>SUBSTRUCTURE
  1 ****  11 GROUP 4 **** **** 0

# MOE 2024.06 (io_trps.svl 2023.06)
