@<TRIPOS>MOLECULE
NONAME
40 42 1 0 0 
SMALL
USER_CHARGES


@<TRIPOS>ATOM
  1 O       -2.1140     0.2670    -1.8890 O.2   1 <1>  -0.5700 
  2 C       -1.8860     0.3570    -0.6960 C.2   1 <1>   0.7150 
  3 N       -1.8280    -0.7990     0.0280 N.am  1 <1>  -0.7300 
  4 C       -1.6990     1.6310    -0.0360 C.2   1 <1>   0.0550 
  5 C       -1.9740    -2.1680    -0.5160 C.3   1 <1>   0.2200 
  6 O       -1.7840     2.7750    -0.7100 O.3   1 <1>  -0.2800 
  7 C       -1.4270     1.9270     1.2670 C.2   1 <1>  -0.1500 
  8 C       -3.3510    -2.7420    -0.2040 C.3   1 <1>  -0.0800 
  9 C       -1.0940    -3.1070     0.2950 C.3   1 <1>   0.1200 
 10 C       -1.5770     3.7800     0.1100 C.2   1 <1>  -0.0400 
 11 C       -1.3480     3.3170     1.3590 C.2   1 <1>  -0.1500 
 12 C       -3.1800    -3.3090     1.2110 C.3   1 <1>   0.1200 
 13 C       -4.5380    -1.7740    -0.3610 C.3   1 <1>  -0.0160 
 14 O       -1.8060    -3.3300     1.4730 O.3   1 <1>  -0.5600 
 15 C       -1.6250     5.1910    -0.4510 C.3   1 <1>   0.3000 
 16 C       -5.8580    -2.4910    -0.1240 C.ar  1 <1>  -0.1440 
 17 O       -1.6750     6.1040     0.5910 O.3   1 <1>  -0.6800 
 18 C       -6.4630    -3.2380    -1.1140 C.ar  1 <1>  -0.1500 
 19 C       -6.5180    -2.4350     1.0870 C.ar  1 <1>  -0.1500 
 20 C       -7.6620    -3.8800    -0.8510 C.ar  1 <1>   0.1600 
 21 C       -7.7140    -3.1150     1.2470 C.ar  1 <1>   0.1600 
 22 N       -8.3010    -3.8390     0.3070 N.ar  1 <1>  -0.6200 
 23 H       -1.6810    -0.7650     1.0370 H     1 <1>   0.3700 
 24 H       -1.7390    -2.1920    -1.5670 H     1 <1>   0.0800 
 25 H       -1.2890     1.2500     2.0910 H     1 <1>   0.1500 
 26 H       -3.5130    -3.5760    -0.8650 H     1 <1>   0.0800 
 27 H       -0.1300    -2.6880     0.5240 H     1 <1>   0.0800 
 28 H       -0.9750    -4.0530    -0.2060 H     1 <1>   0.0800 
 29 H       -1.1380     3.8800     2.2520 H     1 <1>   0.1500 
 30 H       -3.5670    -4.3110     1.2870 H     1 <1>   0.0800 
 31 H       -3.6440    -2.6830     1.9530 H     1 <1>   0.0800 
 32 H       -4.5320    -1.3590    -1.3550 H     1 <1>   0.0800 
 33 H       -4.4510    -0.9540     0.3290 H     1 <1>   0.0800 
 34 H       -2.5050     5.3230    -1.0560 H     1 <1>   0.0800 
 35 H       -0.7490     5.3940    -1.0420 H     1 <1>   0.0800 
 36 H       -2.4290     5.8860     1.1700 H     1 <1>   0.4000 
 37 H       -6.0150    -3.3260    -2.0860 H     1 <1>   0.1500 
 38 H       -6.1170    -1.8700     1.9080 H     1 <1>   0.1500 
 39 H       -8.1200    -4.4590    -1.6350 H     1 <1>   0.1500 
 40 H       -8.2150    -3.0600     2.1980 H     1 <1>   0.1500 
@<TRIPOS>BOND
  1   1   2  2   
  2   2   3  am  
  3   2   4  1   
  4   3   5  1   
  5   3  23  1   
  6   4   6  1   
  7   4   7  2   
  8   5   8  1   
  9   5   9  1   
 10   5  24  1   
 11   6  10  1   
 12   7  11  1   
 13   7  25  1   
 14   8  12  1   
 15   8  13  1   
 16   8  26  1   
 17   9  14  1   
 18   9  27  1   
 19   9  28  1   
 20  10  11  2   
 21  10  15  1   
 22  11  29  1   
 23  12  14  1   
 24  12  30  1   
 25  12  31  1   
 26  13  16  1   
 27  13  32  1   
 28  13  33  1   
 29  15  17  1   
 30  15  34  1   
 31  15  35  1   
 32  16  18  ar  
 33  16  19  ar  
 34  17  36  1   
 35  18  20  ar  
 36  18  37  1   
 37  19  21  ar  
 38  19  38  1   
 39  20  22  ar  
 40  20  39  1   
 41  21  22  ar  
 42  21  40  1   
@<TRIPOS>SUBSTRUCTURE
  1 ****   3 GROUP 4 **** **** 0

# MOE 2024.06 (io_trps.svl 2023.06)
