@<TRIPOS>MOLECULE
NONAME
50 52 1 0 0 
SMALL
USER_CHARGES


@<TRIPOS>ATOM
  1 S       -5.9260    -3.1600     3.5160 S.3   1 <1>  -0.0800 
  2 C       -4.8840    -3.5750     2.1700 C.2   1 <1>  -0.1100 
  3 C       -5.9800    -1.4810     3.0110 C.2   1 <1>  -0.1100 
  4 C       -4.6280    -2.4920     1.4090 C.2   1 <1>  -0.1810 
  5 C       -5.2500    -1.2940     1.8970 C.2   1 <1>  -0.1500 
  6 C       -3.7920    -2.5100     0.1490 C.3   1 <1>   0.5240 
  7 N       -4.6700    -3.0480    -0.9110 N.4   1 <1>  -0.9590 
  8 C       -3.9470    -3.7480    -2.0130 C.3   1 <1>   0.3430 
  9 C       -5.7330    -2.1140    -1.3730 C.3   1 <1>   0.3430 
 10 C       -4.8840    -4.7250    -2.7600 C.3   1 <1>   0.1400 
 11 C       -7.1020    -2.8080    -1.3390 C.3   1 <1>  -0.1600 
 12 N       -6.1610    -4.9960    -2.0120 N.am  1 <1>  -0.6600 
 13 C       -7.2510    -4.0190    -2.2740 C.3   1 <1>   0.1400 
 14 C       -6.1580    -5.8180    -0.9150 C.2   1 <1>   0.5690 
 15 O       -5.1360    -5.9450    -0.2830 O.2   1 <1>  -0.5700 
 16 C       -7.4380    -6.4910    -0.4290 C.3   1 <1>  -0.0190 
 17 C       -7.2280    -7.4660     0.7440 C.3   1 <1>   0.1400 
 18 C       -8.1520    -7.3200    -1.5160 C.3   1 <1>  -0.0990 
 19 N       -8.2370    -8.5120     0.5050 N.am  1 <1>  -0.6600 
 20 C       -8.7460    -8.4620    -0.7430 C.2   1 <1>   0.5690 
 21 C       -8.5620    -9.5500     1.5060 C.3   1 <1>   0.2780 
 22 O       -9.5560    -9.2190    -1.2160 O.2   1 <1>  -0.5700 
 23 C       -9.1320    -8.8980     2.7520 C.2   1 <1>  -0.2880 
 24 C      -10.3980    -9.0120     3.1670 C.2   1 <1>  -0.3000 
 25 H       -4.5790    -4.6060     2.0930 H     1 <1>   0.1500 
 26 H       -6.5570    -0.8040     3.6180 H     1 <1>   0.1500 
 27 H       -5.1250    -0.3430     1.4060 H     1 <1>   0.1500 
 28 H       -2.9490    -3.1650     0.2980 H     1 <1>   0.0800 
 29 H       -3.4340    -1.5240    -0.0990 H     1 <1>   0.0800 
 30 H       -5.1650    -3.8290    -0.4420 H     1 <1>   0.4500 
 31 H       -3.1410    -4.3280    -1.5930 H     1 <1>   0.0800 
 32 H       -3.5190    -3.0400    -2.7040 H     1 <1>   0.0800 
 33 H       -5.5170    -1.7670    -2.3710 H     1 <1>   0.0800 
 34 H       -5.7700    -1.2550    -0.7220 H     1 <1>   0.0800 
 35 H       -4.3610    -5.6550    -2.9120 H     1 <1>   0.0800 
 36 H       -5.1100    -4.3310    -3.7350 H     1 <1>   0.0800 
 37 H       -7.8470    -2.0840    -1.6190 H     1 <1>   0.0800 
 38 H       -7.3270    -3.0990    -0.3280 H     1 <1>   0.0800 
 39 H       -7.2160    -3.7020    -3.3030 H     1 <1>   0.0800 
 40 H       -8.2120    -4.4810    -2.1160 H     1 <1>   0.0800 
 41 H       -8.1120    -5.7300    -0.0810 H     1 <1>   0.0800 
 42 H       -7.3860    -6.9760     1.6890 H     1 <1>   0.0800 
 43 H       -6.2500    -7.9160     0.7230 H     1 <1>   0.0800 
 44 H       -7.4560    -7.7190    -2.2310 H     1 <1>   0.0800 
 45 H       -8.9220    -6.7640    -2.0170 H     1 <1>   0.0800 
 46 H       -7.6760   -10.1090     1.7490 H     1 <1>   0.0800 
 47 H       -9.2860   -10.2310     1.0890 H     1 <1>   0.0800 
 48 H       -8.4010    -8.3200     3.2890 H     1 <1>   0.1500 
 49 H      -10.7850    -8.5440     4.0560 H     1 <1>   0.1500 
 50 H      -11.1540    -9.5800     2.6510 H     1 <1>   0.1500 
@<TRIPOS>BOND
  1   1   2  1   
  2   1   3  1   
  3   2   4  2   
  4   2  25  1   
  5   3   5  2   
  6   3  26  1   
  7   4   5  1   
  8   4   6  1   
  9   5  27  1   
 10   6   7  1   
 11   6  28  1   
 12   6  29  1   
 13   7   8  1   
 14   7   9  1   
 15   7  30  1   
 16   8  10  1   
 17   8  31  1   
 18   8  32  1   
 19   9  11  1   
 20   9  33  1   
 21   9  34  1   
 22  10  12  1   
 23  10  35  1   
 24  10  36  1   
 25  11  13  1   
 26  11  37  1   
 27  11  38  1   
 28  12  13  1   
 29  12  14  am  
 30  13  39  1   
 31  13  40  1   
 32  14  15  2   
 33  14  16  1   
 34  16  17  1   
 35  16  18  1   
 36  16  41  1   
 37  17  19  1   
 38  17  42  1   
 39  17  43  1   
 40  18  20  1   
 41  18  44  1   
 42  18  45  1   
 43  19  20  am  
 44  19  21  1   
 45  20  22  2   
 46  21  23  1   
 47  21  46  1   
 48  21  47  1   
 49  23  24  2   
 50  23  48  1   
 51  24  49  1   
 52  24  50  1   
@<TRIPOS>SUBSTRUCTURE
  1 ****  14 GROUP 4 **** **** 0

# MOE 2024.06 (io_trps.svl 2023.06)
