@<TRIPOS>MOLECULE
NONAME
54 56 1 0 0 
SMALL
USER_CHARGES


@<TRIPOS>ATOM
  1 CL      -1.6420    -0.7590    -2.6850 Cl    1 <1>  -0.1770 
  2 C       -2.2710     0.4030    -1.5410 C.ar  1 <1>   0.1770 
  3 C       -2.8280    -0.0360    -0.3490 C.ar  1 <1>  -0.1440 
  4 C       -2.2080     1.7450    -1.8610 C.ar  1 <1>  -0.1500 
  5 C       -3.3440     0.9060     0.5300 C.ar  1 <1>  -0.1500 
  6 C       -2.8790    -1.5130    -0.0060 C.3   1 <1>   0.4870 
  7 C       -2.7130     2.6800    -0.9750 C.ar  1 <1>   0.0820 
  8 C       -3.3090     2.2570     0.2220 C.ar  1 <1>   0.0820 
  9 N       -3.8210    -2.2090    -0.9250 N.4   1 <1>  -0.9590 
 10 O       -2.5970     3.9830    -1.3140 O.3   1 <1>  -0.3620 
 11 O       -3.8760     3.0890     1.1330 O.3   1 <1>  -0.3620 
 12 C       -3.8630    -3.6800    -0.6360 C.3   1 <1>   0.5660 
 13 C       -5.2000    -1.6180    -0.9170 C.3   1 <1>   0.3430 
 14 C       -1.5610     4.6930    -0.6690 C.3   1 <1>   0.0400 
 15 C       -4.7300     4.1210     0.6880 C.3   1 <1>   0.1200 
 16 C       -2.4740    -4.2580    -0.8770 C.ar  1 <1>  -0.1440 
 17 C       -4.9410    -4.4350    -1.4600 C.3   1 <1>   0.2000 
 18 C       -6.1570    -2.4240    -1.8130 C.3   1 <1>   0.1200 
 19 C       -5.6650     4.4860     1.8370 C.3   1 <1>  -0.2400 
 20 C       -1.8470    -4.1680    -2.1150 C.ar  1 <1>  -0.1500 
 21 C       -1.8170    -4.8860     0.1710 C.ar  1 <1>  -0.1500 
 22 O       -6.1780    -3.7630    -1.4130 O.3   1 <1>  -0.5600 
 23 C       -5.1390    -5.8570    -0.9090 C.3   1 <1>   0.1200 
 24 C       -0.5760    -4.6860    -2.2920 C.ar  1 <1>  -0.1500 
 25 C       -0.5470    -5.4040    -0.0080 C.ar  1 <1>  -0.1500 
 26 O       -5.2660    -5.8220     0.4780 O.3   1 <1>  -0.6800 
 27 C        0.0740    -5.3020    -1.2390 C.ar  1 <1>  -0.1500 
 28 H       -1.7660     2.0670    -2.7870 H     1 <1>   0.1500 
 29 H       -3.7840     0.6150     1.4690 H     1 <1>   0.1500 
 30 H       -3.2010    -1.6370     1.0160 H     1 <1>   0.0800 
 31 H       -1.8900    -1.9330    -0.1020 H     1 <1>   0.0800 
 32 H       -3.4210    -2.1080    -1.8650 H     1 <1>   0.4500 
 33 H       -4.1090    -3.8180     0.4040 H     1 <1>   0.0800 
 34 H       -5.5940    -1.6160     0.0860 H     1 <1>   0.0800 
 35 H       -5.1670    -0.5970    -1.2620 H     1 <1>   0.0800 
 36 H       -1.5900     5.7130    -1.0080 H     1 <1>   0.0800 
 37 H       -0.6180     4.2450    -0.9280 H     1 <1>   0.0800 
 38 H       -1.7140     4.6530     0.3950 H     1 <1>   0.0800 
 39 H       -4.1310     4.9690     0.4080 H     1 <1>   0.0800 
 40 H       -5.2880     3.7710    -0.1640 H     1 <1>   0.0800 
 41 H       -4.6480    -4.5010    -2.4930 H     1 <1>   0.0800 
 42 H       -5.8640    -2.3720    -2.8480 H     1 <1>   0.0800 
 43 H       -7.1590    -2.0420    -1.7210 H     1 <1>   0.0800 
 44 H       -5.0960     4.8280     2.6830 H     1 <1>   0.0800 
 45 H       -6.2560     3.6340     2.1210 H     1 <1>   0.0800 
 46 H       -6.3260     5.2760     1.5290 H     1 <1>   0.0800 
 47 H       -2.3250    -3.7000    -2.9580 H     1 <1>   0.1500 
 48 H       -2.2860    -4.9860     1.1370 H     1 <1>   0.1500 
 49 H       -4.2910    -6.4770    -1.1460 H     1 <1>   0.0800 
 50 H       -6.0270    -6.2970    -1.3300 H     1 <1>   0.0800 
 51 H       -0.0890    -4.6130    -3.2500 H     1 <1>   0.1500 
 52 H       -0.0400    -5.8920     0.8080 H     1 <1>   0.1500 
 53 H       -5.6240    -6.6720     0.8120 H     1 <1>   0.4000 
 54 H        1.0640    -5.7060    -1.3780 H     1 <1>   0.1500 
@<TRIPOS>BOND
  1   1   2  1   
  2   2   3  ar  
  3   2   4  ar  
  4   3   5  ar  
  5   3   6  1   
  6   4   7  ar  
  7   4  28  1   
  8   5   8  ar  
  9   5  29  1   
 10   6   9  1   
 11   6  30  1   
 12   6  31  1   
 13   7   8  ar  
 14   7  10  1   
 15   8  11  1   
 16   9  12  1   
 17   9  13  1   
 18   9  32  1   
 19  10  14  1   
 20  11  15  1   
 21  12  16  1   
 22  12  17  1   
 23  12  33  1   
 24  13  18  1   
 25  13  34  1   
 26  13  35  1   
 27  14  36  1   
 28  14  37  1   
 29  14  38  1   
 30  15  19  1   
 31  15  39  1   
 32  15  40  1   
 33  16  20  ar  
 34  16  21  ar  
 35  17  22  1   
 36  17  23  1   
 37  17  41  1   
 38  18  22  1   
 39  18  42  1   
 40  18  43  1   
 41  19  44  1   
 42  19  45  1   
 43  19  46  1   
 44  20  24  ar  
 45  20  47  1   
 46  21  25  ar  
 47  21  48  1   
 48  23  26  1   
 49  23  49  1   
 50  23  50  1   
 51  24  27  ar  
 52  24  51  1   
 53  25  27  ar  
 54  25  52  1   
 55  26  53  1   
 56  27  54  1   
@<TRIPOS>SUBSTRUCTURE
  1 ****   6 GROUP 4 **** **** 0

# MOE 2024.06 (io_trps.svl 2023.06)
