@<TRIPOS>MOLECULE
NONAME
47 49 1 0 0 
SMALL
USER_CHARGES


@<TRIPOS>ATOM
  1 S       -2.1620    -0.8020    -0.0590 S.o2  1 <1>   1.2040 
  2 O       -2.2380    -2.0750     0.6280 O.2   1 <1>  -0.6500 
  3 O       -3.3890    -0.0740    -0.2940 O.2   1 <1>  -0.6500 
  4 C       -0.9670     0.2630     0.7800 C.ar  1 <1>  -0.0090 
  5 C       -1.3880    -1.0210    -1.6630 C.3   1 <1>  -0.0550 
  6 C       -1.1190     1.6450     0.7930 C.ar  1 <1>  -0.1500 
  7 C        0.1520    -0.2750     1.4050 C.ar  1 <1>  -0.1500 
  8 C       -2.2080    -1.8760    -2.6450 C.3   1 <1>  -0.0990 
  9 C       -0.1860     2.4640     1.4050 C.ar  1 <1>  -0.1500 
 10 C        1.0900     0.5370     2.0200 C.ar  1 <1>  -0.1500 
 11 C       -2.1200    -3.3460    -2.2850 C.2   1 <1>   0.5690 
 12 C        0.9220     1.9090     2.0190 C.ar  1 <1>  -0.1500 
 13 O       -1.0550    -3.8770    -2.4900 O.2   1 <1>  -0.5700 
 14 N       -3.1770    -4.0280    -1.7480 N.am  1 <1>  -0.6600 
 15 C       -4.4560    -3.4700    -1.2370 C.3   1 <1>   0.1400 
 16 C       -3.0280    -5.3970    -1.2080 C.3   1 <1>   0.1400 
 17 C       -4.7330    -4.2250     0.0690 C.3   1 <1>   0.2000 
 18 C       -3.6680    -5.3220     0.1780 C.3   1 <1>  -0.0800 
 19 O       -4.5970    -3.3760     1.1520 O.3   1 <1>  -0.6800 
 20 C       -4.2410    -6.6570     0.6790 C.3   1 <1>  -0.0160 
 21 C       -3.1630    -7.7220     0.7780 C.ar  1 <1>   0.1670 
 22 N       -2.9750    -8.4770    -0.2930 N.ar  1 <1>  -0.6200 
 23 C       -2.4270    -7.8560     1.9540 C.ar  1 <1>   0.1600 
 24 C       -2.0090    -9.3620    -0.1110 C.ar  1 <1>   0.1600 
 25 N       -1.4630    -8.7420     2.1380 N.ar  1 <1>  -0.6200 
 26 C       -1.2780    -9.4900     1.0640 C.ar  1 <1>   0.1600 
 27 H       -1.2420    -0.0550    -2.1060 H     1 <1>   0.0800 
 28 H       -0.4180    -1.4680    -1.5400 H     1 <1>   0.0800 
 29 H       -1.9810     2.0890     0.3220 H     1 <1>   0.1500 
 30 H        0.2930    -1.3430     1.4170 H     1 <1>   0.1500 
 31 H       -3.2250    -1.5380    -2.6920 H     1 <1>   0.0800 
 32 H       -1.7900    -1.7660    -3.6290 H     1 <1>   0.0800 
 33 H       -0.3230     3.5320     1.4060 H     1 <1>   0.1500 
 34 H        1.9500     0.1010     2.5000 H     1 <1>   0.1500 
 35 H        1.6490     2.5430     2.4970 H     1 <1>   0.1500 
 36 H       -4.4100    -2.4100    -1.0680 H     1 <1>   0.0800 
 37 H       -5.2330    -3.6840    -1.9500 H     1 <1>   0.0800 
 38 H       -3.5580    -6.0870    -1.8430 H     1 <1>   0.0800 
 39 H       -1.9950    -5.6980    -1.1440 H     1 <1>   0.0800 
 40 H       -5.7370    -4.6150     0.0750 H     1 <1>   0.0800 
 41 H       -2.8930    -5.0030     0.8550 H     1 <1>   0.0800 
 42 H       -3.7110    -2.9290     1.1010 H     1 <1>   0.4000 
 43 H       -5.0160    -6.9990     0.0150 H     1 <1>   0.0800 
 44 H       -4.6860    -6.5070     1.6470 H     1 <1>   0.0800 
 45 H       -2.6440    -7.1970     2.7770 H     1 <1>   0.1500 
 46 H       -1.7830   -10.0180    -0.9330 H     1 <1>   0.1500 
 47 H       -0.5090   -10.2400     1.1140 H     1 <1>   0.1500 
@<TRIPOS>BOND
  1   1   2  2   
  2   1   3  2   
  3   1   4  1   
  4   1   5  1   
  5   4   6  ar  
  6   4   7  ar  
  7   5   8  1   
  8   5  27  1   
  9   5  28  1   
 10   6   9  ar  
 11   6  29  1   
 12   7  10  ar  
 13   7  30  1   
 14   8  11  1   
 15   8  31  1   
 16   8  32  1   
 17   9  12  ar  
 18   9  33  1   
 19  10  12  ar  
 20  10  34  1   
 21  11  13  2   
 22  11  14  am  
 23  12  35  1   
 24  14  15  1   
 25  14  16  1   
 26  15  17  1   
 27  15  36  1   
 28  15  37  1   
 29  16  18  1   
 30  16  38  1   
 31  16  39  1   
 32  17  18  1   
 33  17  19  1   
 34  17  40  1   
 35  18  20  1   
 36  18  41  1   
 37  19  42  1   
 38  20  21  1   
 39  20  43  1   
 40  20  44  1   
 41  21  22  ar  
 42  21  23  ar  
 43  22  24  ar  
 44  23  25  ar  
 45  23  45  1   
 46  24  26  ar  
 47  24  46  1   
 48  25  26  ar  
 49  26  47  1   
@<TRIPOS>SUBSTRUCTURE
  1 ****   2 GROUP 4 **** **** 0

# MOE 2024.06 (io_trps.svl 2023.06)
