@<TRIPOS>MOLECULE
NONAME
47 50 1 0 0 
SMALL
USER_CHARGES


@<TRIPOS>ATOM
  1 O       -0.5760    -3.7090     1.7710 O.2   1 <1>  -0.5700 
  2 C        0.2930    -3.2600     1.0520 C.2   1 <1>   0.7800 
  3 O        1.5190    -3.0230     1.4890 O.3   1 <1>  -0.4300 
  4 N        0.1740    -3.0240    -0.2720 N.am  1 <1>  -0.6600 
  5 C        2.3650    -2.6340     0.4230 C.3   1 <1>   0.1200 
  6 C        1.4850    -2.6960    -0.8330 C.3   1 <1>   0.1400 
  7 C       -0.9700    -3.4760    -1.1240 C.3   1 <1>   0.2010 
  8 C       -1.0620    -4.9970    -1.2620 C.2   1 <1>   0.5690 
  9 O       -1.0370    -5.4910    -2.3640 O.2   1 <1>  -0.5700 
 10 N       -1.1800    -5.7550    -0.1420 N.am  1 <1>  -0.7300 
 11 C       -1.2260    -7.2320    -0.1080 C.3   1 <1>   0.2200 
 12 C       -2.6250    -7.7240     0.1910 C.3   1 <1>  -0.0800 
 13 C       -0.4140    -7.8240     1.0380 C.3   1 <1>   0.1200 
 14 C       -2.3580    -9.0650     0.8690 C.3   1 <1>   0.1200 
 15 C       -3.5070    -7.8190    -1.0650 C.3   1 <1>  -0.0160 
 16 O       -1.0900    -8.9780     1.4470 O.3   1 <1>  -0.5600 
 17 C       -4.8920    -8.3650    -0.7320 C.ar  1 <1>  -0.1440 
 18 C       -5.8880    -7.5780    -0.1060 C.ar  1 <1>   0.0000 
 19 C       -5.2080    -9.6570    -1.0340 C.ar  1 <1>  -0.1500 
 20 C       -7.1310    -8.1930     0.1770 C.ar  1 <1>   0.3100 
 21 C       -5.7240    -6.2190     0.2530 C.ar  1 <1>  -0.1500 
 22 C       -6.4730   -10.1670    -0.7160 C.ar  1 <1>   0.1600 
 23 N       -7.4070    -9.4850    -0.1330 N.ar  1 <1>  -0.6200 
 24 C       -8.1340    -7.4400     0.8090 C.ar  1 <1>  -0.1500 
 25 C       -6.7230    -5.5130     0.8670 C.ar  1 <1>  -0.1500 
 26 C       -7.9440    -6.1290     1.1510 C.ar  1 <1>  -0.1500 
 27 H        2.7170    -1.6350     0.6120 H     1 <1>   0.0800 
 28 H        3.1940    -3.3180     0.3670 H     1 <1>   0.0800 
 29 H        1.8190    -3.4710    -1.5030 H     1 <1>   0.0800 
 30 H        1.4620    -1.7490    -1.3440 H     1 <1>   0.0800 
 31 H       -1.8870    -3.1230    -0.6870 H     1 <1>   0.0800 
 32 H       -0.8800    -3.0420    -2.1030 H     1 <1>   0.0800 
 33 H       -1.1590    -5.2770     0.7730 H     1 <1>   0.3700 
 34 H       -0.8670    -7.6410    -1.0380 H     1 <1>   0.0800 
 35 H       -3.0830    -7.0820     0.9220 H     1 <1>   0.0800 
 36 H       -0.3790    -7.1540     1.8790 H     1 <1>   0.0800 
 37 H        0.5800    -8.0940     0.7290 H     1 <1>   0.0800 
 38 H       -2.3310    -9.8680     0.1530 H     1 <1>   0.0800 
 39 H       -3.0820    -9.2830     1.6350 H     1 <1>   0.0800 
 40 H       -3.0300    -8.4590    -1.7870 H     1 <1>   0.0800 
 41 H       -3.5980    -6.8510    -1.5260 H     1 <1>   0.0800 
 42 H       -4.5050   -10.3130    -1.5150 H     1 <1>   0.1500 
 43 H       -4.7960    -5.7250     0.0390 H     1 <1>   0.1500 
 44 H       -6.6810   -11.1920    -0.9720 H     1 <1>   0.1500 
 45 H       -9.0660    -7.9340     1.0150 H     1 <1>   0.1500 
 46 H       -6.5830    -4.4800     1.1370 H     1 <1>   0.1500 
 47 H       -8.7210    -5.5640     1.6350 H     1 <1>   0.1500 
@<TRIPOS>BOND
  1   1   2  2   
  2   2   3  1   
  3   2   4  am  
  4   3   5  1   
  5   4   6  1   
  6   4   7  1   
  7   5   6  1   
  8   5  27  1   
  9   5  28  1   
 10   6  29  1   
 11   6  30  1   
 12   7   8  1   
 13   7  31  1   
 14   7  32  1   
 15   8   9  2   
 16   8  10  am  
 17  10  11  1   
 18  10  33  1   
 19  11  12  1   
 20  11  13  1   
 21  11  34  1   
 22  12  14  1   
 23  12  15  1   
 24  12  35  1   
 25  13  16  1   
 26  13  36  1   
 27  13  37  1   
 28  14  16  1   
 29  14  38  1   
 30  14  39  1   
 31  15  17  1   
 32  15  40  1   
 33  15  41  1   
 34  17  18  ar  
 35  17  19  ar  
 36  18  20  ar  
 37  18  21  ar  
 38  19  22  ar  
 39  19  42  1   
 40  20  23  ar  
 41  20  24  ar  
 42  21  25  ar  
 43  21  43  1   
 44  22  23  ar  
 45  22  44  1   
 46  24  26  ar  
 47  24  45  1   
 48  25  26  ar  
 49  25  46  1   
 50  26  47  1   
@<TRIPOS>SUBSTRUCTURE
  1 ****  12 GROUP 4 **** **** 0

# MOE 2024.06 (io_trps.svl 2023.06)
