@<TRIPOS>MOLECULE
NONAME
43 44 1 0 0 
SMALL
USER_CHARGES


@<TRIPOS>ATOM
  1 O        0.6370    -0.6070     1.9840 O.2   1 <1>  -0.5700 
  2 C        1.4340    -1.0520     1.1950 C.2   1 <1>   0.5690 
  3 N        2.1990    -0.2760     0.3650 N.am  1 <1>  -0.5470 
  4 C        1.5940    -2.5760     1.1060 C.3   1 <1>   0.1710 
  5 C        2.2830     1.1180     0.2160 C.ar  1 <1>   0.1170 
  6 N        0.7980    -3.2620     0.0480 N.3   1 <1>  -0.8100 
  7 C        2.7990     1.6240    -0.9700 C.ar  1 <1>  -0.1500 
  8 C        1.8920     2.0180     1.2000 C.ar  1 <1>  -0.1500 
  9 C       -0.6560    -3.0050     0.2280 C.3   1 <1>   0.2530 
 10 C        1.2330    -2.9180    -1.3150 C.3   1 <1>   0.0300 
 11 C        2.9220     2.9860    -1.1780 C.ar  1 <1>   0.0820 
 12 C        2.0080     3.3840     1.0100 C.ar  1 <1>   0.0820 
 13 C       -1.5300    -3.9450    -0.5970 C.ar  1 <1>   0.1670 
 14 O        3.4380     3.3690    -2.3740 O.3   1 <1>  -0.3630 
 15 C        2.5240     3.8750    -0.1850 C.ar  1 <1>  -0.1500 
 16 O        1.5990     4.1760     2.0340 O.3   1 <1>  -0.3630 
 17 N       -2.5860    -3.4180    -1.2030 N.ar  1 <1>  -0.6200 
 18 C       -1.1960    -5.2960    -0.6770 C.ar  1 <1>   0.1600 
 19 C        3.6000     4.7320    -2.7020 C.3   1 <1>   0.0400 
 20 C        1.6360     5.5830     1.9430 C.3   1 <1>   0.0400 
 21 C       -3.2720    -4.3220    -1.8820 C.ar  1 <1>   0.1600 
 22 N       -1.8820    -6.2020    -1.3570 N.ar  1 <1>  -0.6200 
 23 C       -2.9310    -5.6670    -1.9560 C.ar  1 <1>   0.1600 
 24 H        2.7580    -0.8000    -0.3040 H     1 <1>   0.3700 
 25 H        1.3140    -2.9860     2.0600 H     1 <1>   0.0800 
 26 H        2.6350    -2.8060     0.9640 H     1 <1>   0.0800 
 27 H        3.1100     0.9590    -1.7520 H     1 <1>   0.1500 
 28 H        1.4940     1.6660     2.1330 H     1 <1>   0.1500 
 29 H       -0.8820    -1.9860    -0.0400 H     1 <1>   0.0800 
 30 H       -0.9200    -3.1330     1.2640 H     1 <1>   0.0800 
 31 H        2.2890    -3.0910    -1.4210 H     1 <1>   0.0800 
 32 H        1.0120    -1.8870    -1.5380 H     1 <1>   0.0800 
 33 H        0.7200    -3.5370    -2.0320 H     1 <1>   0.0800 
 34 H        2.6160     4.9290    -0.3380 H     1 <1>   0.1500 
 35 H       -0.3190    -5.6360    -0.1550 H     1 <1>   0.1500 
 36 H        4.0180     4.7890    -3.6920 H     1 <1>   0.0800 
 37 H        4.2730     5.1840    -1.9960 H     1 <1>   0.0800 
 38 H        2.6390     5.2130    -2.6840 H     1 <1>   0.0800 
 39 H        1.2520     5.9870     2.8620 H     1 <1>   0.0800 
 40 H        1.0180     5.8960     1.1200 H     1 <1>   0.0800 
 41 H        2.6550     5.8970     1.8040 H     1 <1>   0.0800 
 42 H       -4.1480    -3.9830    -2.4060 H     1 <1>   0.1500 
 43 H       -3.5540    -6.3260    -2.5350 H     1 <1>   0.1500 
@<TRIPOS>BOND
  1   1   2  2   
  2   2   3  am  
  3   2   4  1   
  4   3   5  1   
  5   3  24  1   
  6   4   6  1   
  7   4  25  1   
  8   4  26  1   
  9   5   7  ar  
 10   5   8  ar  
 11   6   9  1   
 12   6  10  1   
 13   7  11  ar  
 14   7  27  1   
 15   8  12  ar  
 16   8  28  1   
 17   9  13  1   
 18   9  29  1   
 19   9  30  1   
 20  10  31  1   
 21  10  32  1   
 22  10  33  1   
 23  11  14  1   
 24  11  15  ar  
 25  12  15  ar  
 26  12  16  1   
 27  13  17  ar  
 28  13  18  ar  
 29  14  19  1   
 30  15  34  1   
 31  16  20  1   
 32  17  21  ar  
 33  18  22  ar  
 34  18  35  1   
 35  19  36  1   
 36  19  37  1   
 37  19  38  1   
 38  20  39  1   
 39  20  40  1   
 40  20  41  1   
 41  21  23  ar  
 42  21  42  1   
 43  22  23  ar  
 44  23  43  1   
@<TRIPOS>SUBSTRUCTURE
  1 ****   3 GROUP 4 **** **** 0

# MOE 2024.06 (io_trps.svl 2023.06)
