@<TRIPOS>MOLECULE
NONAME
56 58 1 0 0 
SMALL
USER_CHARGES


@<TRIPOS>ATOM
  1 O       -0.7210     0.3850    -0.3130 O.2   1 <1>  -0.5700 
  2 C       -0.8220     1.1130     0.6520 C.2   1 <1>   0.5690 
  3 N       -1.9160     1.0850     1.4780 N.am  1 <1>  -0.6600 
  4 C        0.3280     2.1090     0.8810 C.3   1 <1>   0.4040 
  5 C       -2.0830     1.9400     2.6980 C.3   1 <1>   0.1400 
  6 C       -3.2090     0.6260     0.9190 C.3   1 <1>   0.1400 
  7 N        1.5440     1.8340     0.0250 N.4   1 <1>  -0.9590 
  8 C       -3.3330     2.8310     2.5930 C.3   1 <1>  -0.1600 
  9 C       -3.9600     1.8490     0.3640 C.3   1 <1>  -0.1600 
 10 C        2.2640     0.6260     0.5180 C.3   1 <1>   0.3430 
 11 C        2.3730     3.0530    -0.1620 C.3   1 <1>   0.3430 
 12 C       -3.7040     3.1690     1.1380 C.3   1 <1>   0.2800 
 13 C        3.3440     0.1540    -0.4570 C.3   1 <1>  -0.1600 
 14 C        3.0970     2.9860    -1.5060 C.3   1 <1>  -0.1600 
 15 O       -2.5610     3.7950     0.5800 O.3   1 <1>  -0.5600 
 16 C       -4.9380     4.1000     1.1100 C.3   1 <1>  -0.1600 
 17 C        4.5700     1.0780    -0.4990 C.3   1 <1>  -0.1600 
 18 C        4.4470     2.2490    -1.4830 C.3   1 <1>  -0.1600 
 19 C       -2.7010     4.9850    -0.1490 C.3   1 <1>   0.1200 
 20 C       -5.2010     4.7370    -0.2670 C.3   1 <1>   0.2800 
 21 C       -3.9110     4.9000    -1.0780 C.3   1 <1>  -0.1600 
 22 O       -5.6990     5.9960    -0.0300 O.3   1 <1>  -0.6800 
 23 C       -6.2810     4.0160    -1.0740 C.3   1 <1>  -0.2400 
 24 H        0.6030     2.0930     1.9210 H     1 <1>   0.0800 
 25 H       -0.0620     3.0860     0.6520 H     1 <1>   0.0800 
 26 H       -1.2270     2.5740     2.8370 H     1 <1>   0.0800 
 27 H       -2.1650     1.3060     3.5650 H     1 <1>   0.0800 
 28 H       -3.7830     0.1620     1.7040 H     1 <1>   0.0800 
 29 H       -3.0620    -0.1070     0.1430 H     1 <1>   0.0800 
 30 H        1.1460     1.5590    -0.8890 H     1 <1>   0.4500 
 31 H       -3.1750     3.7330     3.1560 H     1 <1>   0.0800 
 32 H       -4.1600     2.3190     3.0520 H     1 <1>   0.0800 
 33 H       -5.0060     1.6050     0.3940 H     1 <1>   0.0800 
 34 H       -3.6980     1.9780    -0.6700 H     1 <1>   0.0800 
 35 H        1.5550    -0.1770     0.6450 H     1 <1>   0.0800 
 36 H        2.7110     0.8290     1.4770 H     1 <1>   0.0800 
 37 H        3.0800     3.1660     0.6450 H     1 <1>   0.0800 
 38 H        1.7300     3.9180    -0.1720 H     1 <1>   0.0800 
 39 H        2.9340     0.0010    -1.4400 H     1 <1>   0.0800 
 40 H        3.6770    -0.8090    -0.1080 H     1 <1>   0.0800 
 41 H        3.2870     3.9940    -1.8330 H     1 <1>   0.0800 
 42 H        2.4510     2.5430    -2.2430 H     1 <1>   0.0800 
 43 H       -4.7740     4.8750     1.8370 H     1 <1>   0.0800 
 44 H       -5.8080     3.5590     1.4340 H     1 <1>   0.0800 
 45 H        5.4280     0.4960    -0.7940 H     1 <1>   0.0800 
 46 H        4.7780     1.4500     0.4900 H     1 <1>   0.0800 
 47 H        5.2270     2.9560    -1.2500 H     1 <1>   0.0800 
 48 H        4.6490     1.8900    -2.4790 H     1 <1>   0.0800 
 49 H       -1.8000     5.1290    -0.7190 H     1 <1>   0.0800 
 50 H       -2.8040     5.8000     0.5470 H     1 <1>   0.0800 
 51 H       -3.7690     4.0570    -1.7290 H     1 <1>   0.0800 
 52 H       -3.9700     5.7730    -1.7040 H     1 <1>   0.0800 
 53 H       -5.0550     6.5240     0.4740 H     1 <1>   0.4000 
 54 H       -5.9730     3.0170    -1.3190 H     1 <1>   0.0800 
 55 H       -6.4680     4.5430    -1.9930 H     1 <1>   0.0800 
 56 H       -7.1960     3.9630    -0.5120 H     1 <1>   0.0800 
@<TRIPOS>BOND
  1   1   2  2   
  2   2   3  am  
  3   2   4  1   
  4   3   5  1   
  5   3   6  1   
  6   4   7  1   
  7   4  24  1   
  8   4  25  1   
  9   5   8  1   
 10   5  26  1   
 11   5  27  1   
 12   6   9  1   
 13   6  28  1   
 14   6  29  1   
 15   7  10  1   
 16   7  11  1   
 17   7  30  1   
 18   8  12  1   
 19   8  31  1   
 20   8  32  1   
 21   9  12  1   
 22   9  33  1   
 23   9  34  1   
 24  10  13  1   
 25  10  35  1   
 26  10  36  1   
 27  11  14  1   
 28  11  37  1   
 29  11  38  1   
 30  12  15  1   
 31  12  16  1   
 32  13  17  1   
 33  13  39  1   
 34  13  40  1   
 35  14  18  1   
 36  14  41  1   
 37  14  42  1   
 38  15  19  1   
 39  16  20  1   
 40  16  43  1   
 41  16  44  1   
 42  17  18  1   
 43  17  45  1   
 44  17  46  1   
 45  18  47  1   
 46  18  48  1   
 47  19  21  1   
 48  19  49  1   
 49  19  50  1   
 50  20  21  1   
 51  20  22  1   
 52  20  23  1   
 53  21  51  1   
 54  21  52  1   
 55  22  53  1   
 56  23  54  1   
 57  23  55  1   
 58  23  56  1   
@<TRIPOS>SUBSTRUCTURE
  1 ****   2 GROUP 4 **** **** 0

# MOE 2024.06 (io_trps.svl 2023.06)
