@<TRIPOS>MOLECULE
NONAME
51 53 1 0 0 
SMALL
USER_CHARGES


@<TRIPOS>ATOM
  1 CL      -1.1280    -3.6620     4.4390 Cl    1 <1>  -0.1770 
  2 C       -0.8900    -3.7560     2.7140 C.ar  1 <1>   0.1770 
  3 C       -1.8420    -4.3780     1.9320 C.ar  1 <1>  -0.1500 
  4 C        0.2500    -3.2060     2.1600 C.ar  1 <1>  -0.1500 
  5 C       -1.6710    -4.4740     0.5530 C.ar  1 <1>   0.0860 
  6 C        0.4330    -3.2810     0.7900 C.ar  1 <1>  -0.1500 
  7 C       -2.6650    -5.1340    -0.2730 C.2   1 <1>   0.5440 
  8 C       -0.5190    -3.9060     0.0020 C.ar  1 <1>  -0.1500 
  9 O       -3.8380    -4.8500    -0.1260 O.2   1 <1>  -0.5700 
 10 N       -2.3220    -6.0880    -1.2100 N.am  1 <1>  -0.6600 
 11 C       -1.1030    -6.9340    -1.1120 C.3   1 <1>   0.1400 
 12 C       -3.2870    -6.5350    -2.2520 C.3   1 <1>   0.1400 
 13 C       -1.5190    -8.3600    -0.7430 C.3   1 <1>  -0.1600 
 14 C       -3.7570    -7.9560    -1.9340 C.3   1 <1>  -0.1600 
 15 C       -2.5650    -8.9160    -1.7350 C.3   1 <1>  -0.0190 
 16 C       -2.9990   -10.3670    -1.4730 C.2   1 <1>   0.5690 
 17 O       -2.8960   -11.1140    -2.4190 O.2   1 <1>  -0.5700 
 18 N       -3.4840   -10.8300    -0.2660 N.am  1 <1>  -0.6600 
 19 C       -3.8430   -12.2730    -0.1120 C.3   1 <1>   0.1400 
 20 C       -3.8080   -10.0060     0.9390 C.3   1 <1>   0.1400 
 21 C       -5.3750   -12.4290    -0.0210 C.3   1 <1>  -0.0800 
 22 C       -5.0410   -10.5440     1.6830 C.3   1 <1>  -0.1600 
 23 C       -6.0110   -11.2180     0.7090 C.3   1 <1>   0.2000 
 24 C       -5.7390   -13.7900     0.6010 C.3   1 <1>   0.1200 
 25 O       -7.1440   -11.5790     1.4160 O.3   1 <1>  -0.6800 
 26 O       -5.0780   -14.8110    -0.0620 O.3   1 <1>  -0.6800 
 27 H       -2.7260    -4.7880     2.3890 H     1 <1>   0.1500 
 28 H        0.9760    -2.7260     2.7920 H     1 <1>   0.1500 
 29 H        1.3130    -2.8510     0.3400 H     1 <1>   0.1500 
 30 H       -0.3780    -3.9540    -1.0640 H     1 <1>   0.1500 
 31 H       -0.5930    -6.9300    -2.0610 H     1 <1>   0.0800 
 32 H       -0.4270    -6.5570    -0.3650 H     1 <1>   0.0800 
 33 H       -4.1330    -5.8700    -2.2960 H     1 <1>   0.0800 
 34 H       -2.8000    -6.5150    -3.2120 H     1 <1>   0.0800 
 35 H       -0.6520    -8.9960    -0.7480 H     1 <1>   0.0800 
 36 H       -1.9010    -8.3390     0.2580 H     1 <1>   0.0800 
 37 H       -4.3820    -7.9110    -1.0640 H     1 <1>   0.0800 
 38 H       -4.3670    -8.3120    -2.7450 H     1 <1>   0.0800 
 39 H       -2.0620    -8.9440    -2.6860 H     1 <1>   0.0800 
 40 H       -3.4640   -12.8610    -0.9300 H     1 <1>   0.0800 
 41 H       -3.3810   -12.6460     0.7860 H     1 <1>   0.0800 
 42 H       -2.9610   -10.0020     1.6050 H     1 <1>   0.0800 
 43 H       -4.0060    -8.9930     0.6510 H     1 <1>   0.0800 
 44 H       -5.7590   -12.4180    -1.0250 H     1 <1>   0.0800 
 45 H       -5.5270    -9.7250     2.1840 H     1 <1>   0.0800 
 46 H       -4.7180   -11.2510     2.4250 H     1 <1>   0.0800 
 47 H       -6.3190   -10.4940    -0.0280 H     1 <1>   0.0800 
 48 H       -6.7970   -13.9770     0.5310 H     1 <1>   0.0800 
 49 H       -5.4400   -13.8290     1.6350 H     1 <1>   0.0800 
 50 H       -6.9010   -12.0620     2.2270 H     1 <1>   0.4000 
 51 H       -5.3610   -14.8540    -0.9980 H     1 <1>   0.4000 
@<TRIPOS>BOND
  1   1   2  1   
  2   2   3  ar  
  3   2   4  ar  
  4   3   5  ar  
  5   3  27  1   
  6   4   6  ar  
  7   4  28  1   
  8   5   7  1   
  9   5   8  ar  
 10   6   8  ar  
 11   6  29  1   
 12   7   9  2   
 13   7  10  am  
 14   8  30  1   
 15  10  11  1   
 16  10  12  1   
 17  11  13  1   
 18  11  31  1   
 19  11  32  1   
 20  12  14  1   
 21  12  33  1   
 22  12  34  1   
 23  13  15  1   
 24  13  35  1   
 25  13  36  1   
 26  14  15  1   
 27  14  37  1   
 28  14  38  1   
 29  15  16  1   
 30  15  39  1   
 31  16  17  2   
 32  16  18  am  
 33  18  19  1   
 34  18  20  1   
 35  19  21  1   
 36  19  40  1   
 37  19  41  1   
 38  20  22  1   
 39  20  42  1   
 40  20  43  1   
 41  21  23  1   
 42  21  24  1   
 43  21  44  1   
 44  22  23  1   
 45  22  45  1   
 46  22  46  1   
 47  23  25  1   
 48  23  47  1   
 49  24  26  1   
 50  24  48  1   
 51  24  49  1   
 52  25  50  1   
 53  26  51  1   
@<TRIPOS>SUBSTRUCTURE
  1 ****  13 GROUP 4 **** **** 0

# MOE 2024.06 (io_trps.svl 2023.06)
