@<TRIPOS>MOLECULE
NONAME
44 47 1 0 0 
SMALL
USER_CHARGES


@<TRIPOS>ATOM
  1 N        0.3220     0.8930     0.0430 N.2   1 <1>  -0.6210 
  2 C       -0.9240     0.7200    -0.2630 C.2   1 <1>   0.9190 
  3 C        0.6300     1.8660     0.9020 C.2   1 <1>   0.2710 
  4 N       -1.9260     1.4830     0.2280 N.pl3 1 <1>  -0.6690 
  5 N       -1.2260    -0.2650    -1.1050 N.pl3 1 <1>  -0.8500 
  6 N        1.9560     2.0330     1.0940 N.pl3 1 <1>  -0.8690 
  7 C       -0.3310     2.6500     1.4920 C.2   1 <1>  -0.1410 
  8 C       -1.6270     2.4480     1.0950 C.cat 1 <1>   0.7910 
  9 C       -3.2800     1.5720     0.0260 C.2   1 <1>   0.5030 
 10 C        2.6510     3.2610     1.5690 C.3   1 <1>   0.3040 
 11 N       -2.7820     3.0640     1.3900 N.pl3 1 <1>  -0.3930 
 12 N       -3.8220     2.5090     0.7110 N.2   1 <1>  -0.2600 
 13 C        2.7110     4.3420     0.4650 C.3   1 <1>  -0.0630 
 14 C        1.3230     4.8950     0.1360 C.ar  1 <1>  -0.0320 
 15 C        3.8850     5.2790     0.3420 C.3   1 <1>  -0.1900 
 16 C        3.7170     4.1740    -0.6490 C.3   1 <1>  -0.2000 
 17 C        0.6300     4.4620    -0.9850 C.ar  1 <1>  -0.1500 
 18 C        0.7320     5.8300     0.9730 C.ar  1 <1>  -0.1500 
 19 C        3.6900     6.7140    -0.1750 C.3   1 <1>  -0.1450 
 20 C        5.0860     5.2090     1.2980 C.3   1 <1>  -0.1450 
 21 C       -0.6360     4.9500    -1.2630 C.ar  1 <1>  -0.1500 
 22 C       -0.5340     6.3200     0.7000 C.ar  1 <1>  -0.1500 
 23 C       -1.2190     5.8780    -0.4190 C.ar  1 <1>  -0.1500 
 24 H       -0.4510    -0.8350    -1.4480 H     1 <1>   0.4000 
 25 H       -2.1560    -0.6070    -1.3210 H     1 <1>   0.4000 
 26 H        2.5560     1.4270     0.5250 H     1 <1>   0.4000 
 27 H       -0.0860     3.4100     2.2030 H     1 <1>   0.1500 
 28 H       -3.8110     0.9150    -0.6450 H     1 <1>   0.1500 
 29 H        3.6420     2.9780     1.8710 H     1 <1>   0.0800 
 30 H        2.1530     3.6560     2.4350 H     1 <1>   0.0800 
 31 H       -2.8780     3.8740     2.0130 H     1 <1>   0.4500 
 32 H        3.4350     4.4260    -1.6560 H     1 <1>   0.1000 
 33 H        4.3900     3.3350    -0.6180 H     1 <1>   0.1000 
 34 H        1.0820     3.7380    -1.6400 H     1 <1>   0.1500 
 35 H        1.2690     6.1840     1.8360 H     1 <1>   0.1500 
 36 H        2.9200     6.7600    -0.9240 H     1 <1>   0.0800 
 37 H        4.6000     7.0780    -0.6180 H     1 <1>   0.0800 
 38 H        3.4170     7.3660     0.6340 H     1 <1>   0.0800 
 39 H        5.3710     4.1970     1.5150 H     1 <1>   0.0800 
 40 H        4.8530     5.7100     2.2200 H     1 <1>   0.0800 
 41 H        5.9390     5.6930     0.8540 H     1 <1>   0.0800 
 42 H       -1.1580     4.6160    -2.1430 H     1 <1>   0.1500 
 43 H       -0.9770     7.0570     1.3490 H     1 <1>   0.1500 
 44 H       -2.1980     6.2700    -0.6420 H     1 <1>   0.1500 
@<TRIPOS>BOND
  1   1   2  2   
  2   1   3  1   
  3   2   4  1   
  4   2   5  1   
  5   3   6  1   
  6   3   7  2   
  7   4   8  ar  
  8   4   9  1   
  9   5  24  1   
 10   5  25  1   
 11   6  10  1   
 12   6  26  1   
 13   7   8  1   
 14   7  27  1   
 15   8  11  ar  
 16   9  12  2   
 17   9  28  1   
 18  10  13  1   
 19  10  29  1   
 20  10  30  1   
 21  11  12  1   
 22  11  31  1   
 23  13  14  1   
 24  13  15  1   
 25  13  16  1   
 26  14  17  ar  
 27  14  18  ar  
 28  15  16  1   
 29  15  19  1   
 30  15  20  1   
 31  16  32  1   
 32  16  33  1   
 33  17  21  ar  
 34  17  34  1   
 35  18  22  ar  
 36  18  35  1   
 37  19  36  1   
 38  19  37  1   
 39  19  38  1   
 40  20  39  1   
 41  20  40  1   
 42  20  41  1   
 43  21  23  ar  
 44  21  42  1   
 45  22  23  ar  
 46  22  43  1   
 47  23  44  1   
@<TRIPOS>SUBSTRUCTURE
  1 ****   7 GROUP 4 **** **** 0

# MOE 2024.06 (io_trps.svl 2023.06)
