@<TRIPOS>MOLECULE
NONAME
17 17 1 0 0 
SMALL
USER_CHARGES


@<TRIPOS>ATOM
  1 F       -0.3410    -1.0820     0.1660 F     1 <1>  -0.3400 
  2 C       -1.5210    -0.6990    -0.2990 C.3   1 <1>   1.0200 
  3 F       -1.7260     0.5300     0.1450 F     1 <1>  -0.3400 
  4 F       -1.3930    -0.6160    -1.6150 F     1 <1>  -0.3400 
  5 C       -2.6440    -1.6480     0.1040 C.3   1 <1>  -0.1600 
  6 C       -2.4520    -3.0560    -0.4710 C.3   1 <1>   0.2200 
  7 N       -3.6490    -3.8390    -0.1990 N.am  1 <1>  -0.7300 
  8 C       -1.3750    -3.9070     0.2390 C.3   1 <1>   0.1200 
  9 C       -3.3580    -4.9460     0.4940 C.2   1 <1>   0.7800 
 10 O       -2.0730    -5.0040     0.8010 O.3   1 <1>  -0.4300 
 11 O       -4.1440    -5.8150     0.7860 O.2   1 <1>  -0.5700 
 12 H       -3.5620    -1.2350    -0.2710 H     1 <1>   0.0800 
 13 H       -2.6980    -1.6880     1.1760 H     1 <1>   0.0800 
 14 H       -2.2710    -3.0260    -1.5330 H     1 <1>   0.0800 
 15 H       -4.5370    -3.7440    -0.6900 H     1 <1>   0.3700 
 16 H       -0.8810    -3.3800     1.0360 H     1 <1>   0.0800 
 17 H       -0.6470    -4.2840    -0.4570 H     1 <1>   0.0800 
@<TRIPOS>BOND
  1   1   2  1   
  2   2   3  1   
  3   2   4  1   
  4   2   5  1   
  5   5   6  1   
  6   5  12  1   
  7   5  13  1   
  8   6   7  1   
  9   6   8  1   
 10   6  14  1   
 11   7   9  am  
 12   7  15  1   
 13   8  10  1   
 14   8  16  1   
 15   8  17  1   
 16   9  10  1   
 17   9  11  2   
@<TRIPOS>SUBSTRUCTURE
  1 ****   6 GROUP 4 **** **** 0

# MOE 2024.06 (io_trps.svl 2023.06)
