@<TRIPOS>MOLECULE
NONAME
44 45 1 0 0 
SMALL
USER_CHARGES


@<TRIPOS>ATOM
  1 O        0.6450    -0.2800    -1.0430 O.co2 1 <1>  -0.9000 
  2 C        1.8590    -0.3560    -1.2040 C.2   1 <1>   0.9060 
  3 O        2.4120    -0.7530    -2.2270 O.co2 1 <1>  -0.9000 
  4 C        2.7330     0.2530    -0.1730 C.3   1 <1>  -0.2660 
  5 C        2.9970     1.6150    -0.7580 C.3   1 <1>   0.3430 
  6 N        4.0010     2.3250     0.0710 N.4   1 <1>  -0.9590 
  7 C        3.9580     3.7980    -0.2020 C.3   1 <1>   0.3430 
  8 C        5.3780     1.7840    -0.1860 C.3   1 <1>   0.3430 
  9 C        5.0380     4.5540     0.5990 C.3   1 <1>   0.1100 
 10 C        6.4500     2.5550     0.6120 C.3   1 <1>   0.1100 
 11 N        6.3930     4.0070     0.3440 N.3   1 <1>  -0.8100 
 12 C        7.4460     4.7360     1.0780 C.3   1 <1>   0.2530 
 13 C        7.4960     6.1860     0.6370 C.ar  1 <1>  -0.1430 
 14 C        7.3950     7.2240     1.5330 C.ar  1 <1>   0.1600 
 15 C        7.6410     6.5290    -0.6860 C.ar  1 <1>   0.1600 
 16 N        7.4230     8.4780     1.1610 N.ar  1 <1>  -0.6200 
 17 N        7.6750     7.7740    -1.0900 N.ar  1 <1>  -0.6200 
 18 C        7.5680     8.7070    -0.1450 C.ar  1 <1>   0.7200 
 19 N        7.6080    10.0260    -0.5520 N.pl3 1 <1>  -0.8380 
 20 C        7.2520    11.1500     0.3580 C.3   1 <1>   0.1290 
 21 C        8.0580    10.4180    -1.9170 C.3   1 <1>   0.1290 
 22 H        3.6120    -0.3540    -0.0880 H     1 <1>   0.0800 
 23 H        2.1990     0.3050     0.7560 H     1 <1>   0.0800 
 24 H        2.0660     2.1610    -0.7840 H     1 <1>   0.0800 
 25 H        3.3510     1.5090    -1.7730 H     1 <1>   0.0800 
 26 H        3.7550     2.1610     1.0530 H     1 <1>   0.4500 
 27 H        2.9860     4.1890     0.0490 H     1 <1>   0.0800 
 28 H        4.1260     3.9750    -1.2520 H     1 <1>   0.0800 
 29 H        5.6060     1.8660    -1.2360 H     1 <1>   0.0800 
 30 H        5.4180     0.7400     0.0780 H     1 <1>   0.0800 
 31 H        4.8090     4.5020     1.6490 H     1 <1>   0.0800 
 32 H        5.0030     5.5900     0.3050 H     1 <1>   0.0800 
 33 H        7.4200     2.1800     0.3290 H     1 <1>   0.0800 
 34 H        6.3160     2.3670     1.6640 H     1 <1>   0.0800 
 35 H        8.4030     4.2860     0.8730 H     1 <1>   0.0800 
 36 H        7.2660     4.6740     2.1380 H     1 <1>   0.0800 
 37 H        7.2850     7.0240     2.5850 H     1 <1>   0.1500 
 38 H        7.7250     5.7560    -1.4320 H     1 <1>   0.1500 
 39 H        6.5190    10.8330     1.0800 H     1 <1>   0.0800 
 40 H        6.8380    11.9670    -0.2060 H     1 <1>   0.0800 
 41 H        8.1330    11.4840     0.8770 H     1 <1>   0.0800 
 42 H        8.7560     9.6970    -2.3070 H     1 <1>   0.0800 
 43 H        8.5450    11.3760    -1.8870 H     1 <1>   0.0800 
 44 H        7.2070    10.4710    -2.5740 H     1 <1>   0.0800 
@<TRIPOS>BOND
  1   1   2  ar  
  2   2   3  ar  
  3   2   4  1   
  4   4   5  1   
  5   4  22  1   
  6   4  23  1   
  7   5   6  1   
  8   5  24  1   
  9   5  25  1   
 10   6   7  1   
 11   6   8  1   
 12   6  26  1   
 13   7   9  1   
 14   7  27  1   
 15   7  28  1   
 16   8  10  1   
 17   8  29  1   
 18   8  30  1   
 19   9  11  1   
 20   9  31  1   
 21   9  32  1   
 22  10  11  1   
 23  10  33  1   
 24  10  34  1   
 25  11  12  1   
 26  12  13  1   
 27  12  35  1   
 28  12  36  1   
 29  13  14  ar  
 30  13  15  ar  
 31  14  16  ar  
 32  14  37  1   
 33  15  17  ar  
 34  15  38  1   
 35  16  18  ar  
 36  17  18  ar  
 37  18  19  1   
 38  19  20  1   
 39  19  21  1   
 40  20  39  1   
 41  20  40  1   
 42  20  41  1   
 43  21  42  1   
 44  21  43  1   
 45  21  44  1   
@<TRIPOS>SUBSTRUCTURE
  1 ****   9 GROUP 4 **** **** 0

# MOE 2024.06 (io_trps.svl 2023.06)
