@<TRIPOS>MOLECULE
NONAME
49 51 1 0 0 
SMALL
USER_CHARGES


@<TRIPOS>ATOM
  1 O        0.7140    -0.3340    -1.1380 O.2   1 <1>  -0.5700 
  2 C        1.4350    -0.8940    -0.3360 C.2   1 <1>   0.5440 
  3 N        2.2510    -0.1580     0.4920 N.am  1 <1>  -0.4940 
  4 C        1.4400    -2.3380    -0.2370 C.ar  1 <1>   0.0860 
  5 C        2.3650     1.2480     0.6010 C.2   1 <1>  -0.0880 
  6 C        0.2570    -3.0640    -0.3400 C.ar  1 <1>  -0.1500 
  7 C        2.6160    -3.0610    -0.0340 C.ar  1 <1>  -0.1500 
  8 N        3.5390     1.9390     0.5720 N.pl3 1 <1>   0.3140 
  9 C        1.3850     2.1680     0.7650 C.2   1 <1>  -0.1810 
 10 C        0.2230    -4.4420    -0.2300 C.ar  1 <1>   0.0830 
 11 C        2.6060    -4.4390     0.0850 C.ar  1 <1>  -0.1500 
 12 N        3.3290     3.2690     0.7360 N.2   1 <1>  -0.7070 
 13 C        4.8940     1.3610     0.3420 C.3   1 <1>   0.1760 
 14 C        2.0430     3.3900     0.8400 C.2   1 <1>   0.1390 
 15 C       -0.1160     1.9650     0.8530 C.3   1 <1>  -0.0590 
 16 O       -1.0130    -4.9980    -0.3520 O.3   1 <1>  -0.3620 
 17 C        1.4130    -5.1520    -0.0010 C.ar  1 <1>   0.0830 
 18 C        5.8350     1.5420     1.5340 C.3   1 <1>  -0.1600 
 19 C        5.6450     2.0080    -0.8220 C.3   1 <1>  -0.1600 
 20 C       -1.1840    -6.2640    -0.9500 C.3   1 <1>   0.3200 
 21 O        1.3800    -6.5040     0.1460 O.3   1 <1>  -0.3620 
 22 C        7.2520     1.4810     0.9510 C.3   1 <1>  -0.1600 
 23 C        7.1130     1.6650    -0.5660 C.3   1 <1>  -0.1600 
 24 C       -2.5860    -6.3680    -1.4470 C.1   1 <1>  -0.2000 
 25 C        2.5220    -7.2660     0.4740 C.3   1 <1>   0.0400 
 26 C       -3.7050    -6.4510    -1.8440 C.1   1 <1>  -0.1770 
 27 H        2.7630    -0.6980     1.1880 H     1 <1>   0.3700 
 28 H       -0.6650    -2.5360    -0.5130 H     1 <1>   0.1500 
 29 H        3.5550    -2.5410     0.0240 H     1 <1>   0.1500 
 30 H        3.5420    -4.9410     0.2430 H     1 <1>   0.1500 
 31 H        4.7960     0.3120     0.1340 H     1 <1>   0.0800 
 32 H        1.5500     4.3380     0.9700 H     1 <1>   0.1500 
 33 H       -0.3410     0.9510     1.1290 H     1 <1>   0.0800 
 34 H       -0.5630     2.1660    -0.1040 H     1 <1>   0.0800 
 35 H       -0.5400     2.6250     1.5870 H     1 <1>   0.0800 
 36 H        5.6790     0.7880     2.2840 H     1 <1>   0.0800 
 37 H        5.6800     2.5160     1.9680 H     1 <1>   0.0800 
 38 H        5.5240     3.0780    -0.7840 H     1 <1>   0.0800 
 39 H        5.3030     1.6410    -1.7730 H     1 <1>   0.0800 
 40 H       -0.9960    -7.0180    -0.2080 H     1 <1>   0.0800 
 41 H       -0.4890    -6.3590    -1.7660 H     1 <1>   0.0800 
 42 H        7.7090     0.5290     1.1650 H     1 <1>   0.0800 
 43 H        7.8630     2.2600     1.3760 H     1 <1>   0.0800 
 44 H        7.7630     2.4420    -0.9330 H     1 <1>   0.0800 
 45 H        7.3610     0.7430    -1.0640 H     1 <1>   0.0800 
 46 H        2.2210    -8.2940     0.5710 H     1 <1>   0.0800 
 47 H        2.9210    -6.9150     1.4090 H     1 <1>   0.0800 
 48 H        3.2450    -7.1720    -0.3170 H     1 <1>   0.0800 
 49 H       -4.7180    -6.5170    -2.2000 H     1 <1>   0.1770 
@<TRIPOS>BOND
  1   1   2  2   
  2   2   3  am  
  3   2   4  1   
  4   3   5  1   
  5   3  27  1   
  6   4   6  ar  
  7   4   7  ar  
  8   5   8  1   
  9   5   9  2   
 10   6  10  ar  
 11   6  28  1   
 12   7  11  ar  
 13   7  29  1   
 14   8  12  1   
 15   8  13  1   
 16   9  14  1   
 17   9  15  1   
 18  10  16  1   
 19  10  17  ar  
 20  11  17  ar  
 21  11  30  1   
 22  12  14  2   
 23  13  18  1   
 24  13  19  1   
 25  13  31  1   
 26  14  32  1   
 27  15  33  1   
 28  15  34  1   
 29  15  35  1   
 30  16  20  1   
 31  17  21  1   
 32  18  22  1   
 33  18  36  1   
 34  18  37  1   
 35  19  23  1   
 36  19  38  1   
 37  19  39  1   
 38  20  24  1   
 39  20  40  1   
 40  20  41  1   
 41  21  25  1   
 42  22  23  1   
 43  22  42  1   
 44  22  43  1   
 45  23  44  1   
 46  23  45  1   
 47  24  26  3   
 48  25  46  1   
 49  25  47  1   
 50  25  48  1   
 51  26  49  1   
@<TRIPOS>SUBSTRUCTURE
  1 ****   2 GROUP 4 **** **** 0

# MOE 2024.06 (io_trps.svl 2023.06)
