@<TRIPOS>MOLECULE
NONAME
44 46 1 0 0 
SMALL
USER_CHARGES


@<TRIPOS>ATOM
  1 O       -1.1310     0.6920    -1.8690 O.co2 1 <1>  -0.9000 
  2 C       -1.4420     0.7770    -0.6770 C.2   1 <1>   0.9060 
  3 O       -2.0930    -0.0880    -0.0860 O.co2 1 <1>  -0.9000 
  4 C       -1.0430     2.0200     0.0910 C.3   1 <1>  -0.1060 
  5 C       -2.3250     2.5610     0.7570 C.3   1 <1>   0.2000 
  6 C       -0.6300     3.0430    -0.9710 C.3   1 <1>   0.3430 
  7 C        0.0850     1.6370     1.1050 C.3   1 <1>  -0.0170 
  8 O       -2.6060     1.8020     1.8710 O.3   1 <1>  -0.6800 
  9 C       -2.2610     4.0430     1.1630 C.3   1 <1>  -0.1600 
 10 N       -0.4160     4.4370    -0.4470 N.4   1 <1>  -0.9590 
 11 C        1.5160     1.8810     0.6290 C.ar  1 <1>  -0.1440 
 12 C       -0.8770     4.6540     0.9570 C.3   1 <1>   0.3430 
 13 C        1.0100     4.8260    -0.6120 C.3   1 <1>   0.5230 
 14 C        2.3740     2.6650     1.3880 C.ar  1 <1>  -0.1500 
 15 C        1.9820     1.3180    -0.5500 C.ar  1 <1>  -0.1500 
 16 C        1.0910     6.3220    -0.8560 C.2   1 <1>  -0.0400 
 17 C        3.6630     2.9200     0.9520 C.ar  1 <1>  -0.1500 
 18 C        3.2690     1.5740    -0.9880 C.ar  1 <1>  -0.1500 
 19 O        0.6410     7.1550     0.0650 O.3   1 <1>  -0.2800 
 20 C        1.5700     7.0080    -1.9180 C.2   1 <1>  -0.1500 
 21 C        4.1090     2.3800    -0.2410 C.ar  1 <1>  -0.1500 
 22 C        0.8250     8.3820    -0.3820 C.2   1 <1>  -0.0100 
 23 C        1.3950     8.3610    -1.6050 C.2   1 <1>  -0.1500 
 24 H       -3.1590     2.4290     0.0840 H     1 <1>   0.0800 
 25 H       -1.4160     3.0700    -1.7090 H     1 <1>   0.0800 
 26 H        0.2480     2.6880    -1.4840 H     1 <1>   0.0800 
 27 H       -0.0610     2.1680     2.0270 H     1 <1>   0.0800 
 28 H       -0.0070     0.5950     1.3620 H     1 <1>   0.0800 
 29 H       -2.6440     0.8570     1.5580 H     1 <1>   0.4000 
 30 H       -2.9660     4.5960     0.5700 H     1 <1>   0.0800 
 31 H       -2.5490     4.1610     2.1930 H     1 <1>   0.0800 
 32 H       -0.9430     5.0790    -1.0500 H     1 <1>   0.4500 
 33 H       -0.1840     4.1920     1.6400 H     1 <1>   0.0800 
 34 H       -0.9070     5.7090     1.1770 H     1 <1>   0.0800 
 35 H        1.5730     4.5750     0.2690 H     1 <1>   0.0800 
 36 H        1.4440     4.3060    -1.4500 H     1 <1>   0.0800 
 37 H        2.0480     3.0780     2.3270 H     1 <1>   0.1500 
 38 H        1.3460     0.6710    -1.1360 H     1 <1>   0.1500 
 39 H        4.3240     3.5290     1.5450 H     1 <1>   0.1500 
 40 H        3.6170     1.1330    -1.9080 H     1 <1>   0.1500 
 41 H        2.0070     6.6400    -2.8310 H     1 <1>   0.1500 
 42 H        5.1120     2.5740    -0.5810 H     1 <1>   0.1500 
 43 H        0.5240     9.2150     0.2310 H     1 <1>   0.1500 
 44 H        1.6720     9.1920    -2.2320 H     1 <1>   0.1500 
@<TRIPOS>BOND
  1   1   2  ar  
  2   2   3  ar  
  3   2   4  1   
  4   4   5  1   
  5   4   6  1   
  6   4   7  1   
  7   5   8  1   
  8   5   9  1   
  9   5  24  1   
 10   6  10  1   
 11   6  25  1   
 12   6  26  1   
 13   7  11  1   
 14   7  27  1   
 15   7  28  1   
 16   8  29  1   
 17   9  12  1   
 18   9  30  1   
 19   9  31  1   
 20  10  12  1   
 21  10  13  1   
 22  10  32  1   
 23  11  14  ar  
 24  11  15  ar  
 25  12  33  1   
 26  12  34  1   
 27  13  16  1   
 28  13  35  1   
 29  13  36  1   
 30  14  17  ar  
 31  14  37  1   
 32  15  18  ar  
 33  15  38  1   
 34  16  19  1   
 35  16  20  2   
 36  17  21  ar  
 37  17  39  1   
 38  18  21  ar  
 39  18  40  1   
 40  19  22  1   
 41  20  23  1   
 42  20  41  1   
 43  21  42  1   
 44  22  23  2   
 45  22  43  1   
 46  23  44  1   
@<TRIPOS>SUBSTRUCTURE
  1 ****  10 GROUP 4 **** **** 0

# MOE 2024.06 (io_trps.svl 2023.06)
