@<TRIPOS>MOLECULE
NONAME
54 56 1 0 0 
SMALL
USER_CHARGES


@<TRIPOS>ATOM
  1 O        3.8960     0.0920     2.5420 O.co2 1 <1>  -0.9000 
  2 C        3.5430     1.1540     2.0020 C.2   1 <1>   0.9060 
  3 O        3.4970     2.2110     2.6290 O.co2 1 <1>  -0.9000 
  4 C        3.1530     1.1390     0.5110 C.3   1 <1>  -0.1060 
  5 C        3.9650     0.0390    -0.2080 C.3   1 <1>   0.4230 
  6 C        3.4820     2.5070    -0.1530 C.3   1 <1>  -0.1600 
  7 C        1.6410     0.8520     0.3470 C.3   1 <1>  -0.1600 
  8 N        3.6070    -1.3150     0.3370 N.4   1 <1>  -0.9590 
  9 C        5.4730     0.3730    -0.1550 C.3   1 <1>   0.1400 
 10 C        4.9870     2.8120    -0.1370 C.3   1 <1>   0.1400 
 11 C        1.2880    -0.5730     0.8010 C.3   1 <1>  -0.1600 
 12 C        2.1700    -1.6340     0.1390 C.3   1 <1>   0.3430 
 13 C        4.5020    -2.4290    -0.0780 C.3   1 <1>   0.2630 
 14 N        5.7030     1.6920    -0.8150 N.am  1 <1>  -0.6600 
 15 C        6.4440     1.7960    -1.9670 C.2   1 <1>   0.5690 
 16 O        6.8320     0.8050    -2.5430 O.2   1 <1>  -0.5700 
 17 C        6.7820     3.1450    -2.5910 C.3   1 <1>   0.0440 
 18 C        7.6430     4.0290    -1.6930 C.ar  1 <1>  -0.1430 
 19 C        8.7950     3.5190    -1.1120 C.ar  1 <1>  -0.1500 
 20 C        7.2880     5.3480    -1.4490 C.ar  1 <1>  -0.1500 
 21 C        9.5730     4.3140    -0.2900 C.ar  1 <1>  -0.1500 
 22 C        8.0640     6.1450    -0.6260 C.ar  1 <1>  -0.1500 
 23 C        9.2150     5.6280    -0.0380 C.ar  1 <1>   0.0830 
 24 O       10.0290     6.3360     0.7850 O.3   1 <1>  -0.3630 
 25 C        9.7110     7.6520     1.1710 C.3   1 <1>   0.1200 
 26 C       10.7970     8.1380     2.1260 C.3   1 <1>  -0.2400 
 27 H        3.6890     0.0540    -1.2480 H     1 <1>   0.0800 
 28 H        2.9690     3.2950     0.3730 H     1 <1>   0.0800 
 29 H        3.1380     2.5250    -1.1720 H     1 <1>   0.0800 
 30 H        1.0790     1.5630     0.9300 H     1 <1>   0.0800 
 31 H        1.3560     0.9730    -0.6840 H     1 <1>   0.0800 
 32 H        3.7290    -1.1440     1.3730 H     1 <1>   0.4500 
 33 H        6.0400    -0.3860    -0.6600 H     1 <1>   0.0800 
 34 H        5.8170     0.4260     0.8640 H     1 <1>   0.0800 
 35 H        5.3410     2.9010     0.8780 H     1 <1>   0.0800 
 36 H        5.1670     3.7500    -0.6270 H     1 <1>   0.0800 
 37 H        0.2570    -0.7760     0.5710 H     1 <1>   0.0800 
 38 H        1.3930    -0.6490     1.8710 H     1 <1>   0.0800 
 39 H        1.9530    -1.6760    -0.9150 H     1 <1>   0.0800 
 40 H        1.9480    -2.5960     0.5730 H     1 <1>   0.0800 
 41 H        4.4820    -2.5460    -1.1490 H     1 <1>   0.0800 
 42 H        4.1840    -3.3490     0.3830 H     1 <1>   0.0800 
 43 H        5.5140    -2.2280     0.2340 H     1 <1>   0.0800 
 44 H        7.3170     2.9730    -3.5070 H     1 <1>   0.0800 
 45 H        5.8660     3.6420    -2.8460 H     1 <1>   0.0800 
 46 H        9.0900     2.5000    -1.2930 H     1 <1>   0.1500 
 47 H        6.4030     5.7640    -1.8970 H     1 <1>   0.1500 
 48 H       10.4630     3.9180     0.1650 H     1 <1>   0.1500 
 49 H        7.7590     7.1590    -0.4550 H     1 <1>   0.1500 
 50 H        9.6770     8.2670     0.2880 H     1 <1>   0.0800 
 51 H        8.7520     7.6410     1.6590 H     1 <1>   0.0800 
 52 H       11.7530     8.1270     1.6340 H     1 <1>   0.0800 
 53 H       10.8330     7.5060     2.9950 H     1 <1>   0.0800 
 54 H       10.5830     9.1440     2.4400 H     1 <1>   0.0800 
@<TRIPOS>BOND
  1   1   2  ar  
  2   2   3  ar  
  3   2   4  1   
  4   4   5  1   
  5   4   6  1   
  6   4   7  1   
  7   5   8  1   
  8   5   9  1   
  9   5  27  1   
 10   6  10  1   
 11   6  28  1   
 12   6  29  1   
 13   7  11  1   
 14   7  30  1   
 15   7  31  1   
 16   8  12  1   
 17   8  13  1   
 18   8  32  1   
 19   9  14  1   
 20   9  33  1   
 21   9  34  1   
 22  10  14  1   
 23  10  35  1   
 24  10  36  1   
 25  11  12  1   
 26  11  37  1   
 27  11  38  1   
 28  12  39  1   
 29  12  40  1   
 30  13  41  1   
 31  13  42  1   
 32  13  43  1   
 33  14  15  am  
 34  15  16  2   
 35  15  17  1   
 36  17  18  1   
 37  17  44  1   
 38  17  45  1   
 39  18  19  ar  
 40  18  20  ar  
 41  19  21  ar  
 42  19  46  1   
 43  20  22  ar  
 44  20  47  1   
 45  21  23  ar  
 46  21  48  1   
 47  22  23  ar  
 48  22  49  1   
 49  23  24  1   
 50  24  25  1   
 51  25  26  1   
 52  25  50  1   
 53  25  51  1   
 54  26  52  1   
 55  26  53  1   
 56  26  54  1   
@<TRIPOS>SUBSTRUCTURE
  1 ****  10 GROUP 4 **** **** 0

# MOE 2024.06 (io_trps.svl 2023.06)
