@<TRIPOS>MOLECULE
NONAME
48 50 1 0 0 
SMALL
USER_CHARGES


@<TRIPOS>ATOM
  1 S        0.5850     0.1770    -0.2470 S.o2  1 <1>   1.3330 
  2 O       -0.0120    -0.1810    -1.5100 O.2   1 <1>  -0.6500 
  3 O        1.9980     0.4800    -0.1890 O.2   1 <1>  -0.6500 
  4 N        0.1980    -0.9770     0.9290 N.am  1 <1>  -0.8490 
  5 C       -0.2460     1.6540     0.3320 C.3   1 <1>  -0.0550 
  6 C       -1.0570    -1.6900     0.6570 C.3   1 <1>   0.1160 
  7 C        1.2780    -1.9480     1.1440 C.3   1 <1>   0.1160 
  8 C       -0.1300     2.8220    -0.6750 C.3   1 <1>  -0.0800 
  9 C       -0.7370     4.1500    -0.2190 C.3   1 <1>   0.2000 
 10 C        1.3240     3.1530    -1.0660 C.3   1 <1>   0.3430 
 11 O       -0.4530     4.3620     1.1290 O.3   1 <1>  -0.6800 
 12 C        0.0480     5.1710    -1.0460 C.3   1 <1>   0.3430 
 13 N        1.4510     4.6400    -1.1090 N.4   1 <1>  -0.9590 
 14 C        2.2880     5.0940     0.0470 C.3   1 <1>   0.4860 
 15 C        2.3140     6.6020     0.1130 C.ar  1 <1>  -0.1440 
 16 C        1.5680     7.2790     1.0470 C.ar  1 <1>   0.1600 
 17 C        3.0680     7.3580    -0.7500 C.ar  1 <1>   0.1600 
 18 N        1.5470     8.5860     1.1050 N.ar  1 <1>  -0.6200 
 19 N        3.0630     8.6640    -0.7110 N.ar  1 <1>  -0.6200 
 20 C        2.3020     9.2530     0.2200 C.ar  1 <1>   0.6730 
 21 C        2.2770    10.7010     0.2870 C.2   1 <1>   0.0870 
 22 O        2.9440    11.4550    -0.5860 O.3   1 <1>  -0.2800 
 23 C        1.6370    11.5330     1.1590 C.2   1 <1>  -0.1500 
 24 C        2.7490    12.7220    -0.2960 C.2   1 <1>  -0.0100 
 25 C        1.9430    12.8400     0.7800 C.2   1 <1>  -0.1500 
 26 H       -1.2830     1.4320     0.4930 H     1 <1>   0.0800 
 27 H        0.1830     1.9300     1.2760 H     1 <1>   0.0800 
 28 H       -1.2950    -2.3470     1.4760 H     1 <1>   0.0800 
 29 H       -0.9710    -2.2730    -0.2460 H     1 <1>   0.0800 
 30 H       -1.8660    -0.9900     0.5390 H     1 <1>   0.0800 
 31 H        1.0040    -2.6480     1.9140 H     1 <1>   0.0800 
 32 H        2.1760    -1.4410     1.4570 H     1 <1>   0.0800 
 33 H        1.4860    -2.4860     0.2330 H     1 <1>   0.0800 
 34 H       -0.6310     2.5240    -1.5810 H     1 <1>   0.0800 
 35 H       -1.8010     4.2250    -0.3720 H     1 <1>   0.0800 
 36 H        1.5550     2.7180    -2.0260 H     1 <1>   0.0800 
 37 H        2.0090     2.7480    -0.3380 H     1 <1>   0.0800 
 38 H       -1.1680     4.0070     1.7020 H     1 <1>   0.4000 
 39 H       -0.0100     6.1570    -0.6150 H     1 <1>   0.0800 
 40 H       -0.3650     5.2040    -2.0400 H     1 <1>   0.0800 
 41 H        1.9000     4.9430    -1.9830 H     1 <1>   0.4500 
 42 H        1.8830     4.7050     0.9680 H     1 <1>   0.0800 
 43 H        3.2940     4.7210    -0.0580 H     1 <1>   0.0800 
 44 H        0.9650     6.7420     1.7640 H     1 <1>   0.1500 
 45 H        3.6920     6.8930    -1.4950 H     1 <1>   0.1500 
 46 H        1.0110    11.2510     1.9870 H     1 <1>   0.1500 
 47 H        3.2190    13.4750    -0.9050 H     1 <1>   0.1500 
 48 H        1.5950    13.7360     1.2640 H     1 <1>   0.1500 
@<TRIPOS>BOND
  1   1   2  2   
  2   1   3  2   
  3   1   4  am  
  4   1   5  1   
  5   4   6  1   
  6   4   7  1   
  7   5   8  1   
  8   5  26  1   
  9   5  27  1   
 10   6  28  1   
 11   6  29  1   
 12   6  30  1   
 13   7  31  1   
 14   7  32  1   
 15   7  33  1   
 16   8   9  1   
 17   8  10  1   
 18   8  34  1   
 19   9  11  1   
 20   9  12  1   
 21   9  35  1   
 22  10  13  1   
 23  10  36  1   
 24  10  37  1   
 25  11  38  1   
 26  12  13  1   
 27  12  39  1   
 28  12  40  1   
 29  13  14  1   
 30  13  41  1   
 31  14  15  1   
 32  14  42  1   
 33  14  43  1   
 34  15  16  ar  
 35  15  17  ar  
 36  16  18  ar  
 37  16  44  1   
 38  17  19  ar  
 39  17  45  1   
 40  18  20  ar  
 41  19  20  ar  
 42  20  21  1   
 43  21  22  1   
 44  21  23  2   
 45  22  24  1   
 46  23  25  1   
 47  23  46  1   
 48  24  25  2   
 49  24  47  1   
 50  25  48  1   
@<TRIPOS>SUBSTRUCTURE
  1 ****  14 GROUP 4 **** **** 0

# MOE 2024.06 (io_trps.svl 2023.06)
