@<TRIPOS>MOLECULE
NONAME
49 51 1 0 0 
SMALL
USER_CHARGES


@<TRIPOS>ATOM
  1 O        1.7620    -1.5820     2.5920 O.2   1 <1>  -0.5700 
  2 C        1.9880    -1.6110     1.3980 C.2   1 <1>   0.5440 
  3 N        2.4030    -0.4600     0.7660 N.am  1 <1>  -0.6600 
  4 C        1.8040    -2.8490     0.6690 C.ar  1 <1>   0.0860 
  5 C        2.5700     0.8240     1.4840 C.3   1 <1>   0.1400 
  6 C        2.3530    -0.2430    -0.6980 C.3   1 <1>   0.1400 
  7 C        0.6130    -3.5480     0.7030 C.ar  1 <1>  -0.1500 
  8 C        2.8020    -3.4250    -0.1050 C.ar  1 <1>  -0.1500 
  9 C        2.3170     1.8950     0.4300 C.3   1 <1>  -0.1600 
 10 C        2.6940     1.2310    -0.8910 C.3   1 <1>  -0.1600 
 11 C        0.4550    -4.7250    -0.0130 C.ar  1 <1>   0.4100 
 12 C        2.5570    -4.6000    -0.7850 C.ar  1 <1>   0.1600 
 13 N        1.4120    -5.2570    -0.7620 N.ar  1 <1>  -0.6200 
 14 N       -0.7490    -5.3870     0.0450 N.pl3 1 <1>  -0.8690 
 15 C       -0.9090    -6.7570    -0.4830 C.3   1 <1>   0.2090 
 16 C       -2.3200    -7.2470    -0.1690 C.3   1 <1>  -0.1600 
 17 C       -2.5580    -8.6520    -0.7290 C.3   1 <1>   0.0210 
 18 C       -3.9610    -9.1220    -0.3840 C.2   1 <1>  -0.1810 
 19 C       -4.3460    -9.8380     0.7490 C.2   1 <1>   0.1080 
 20 C       -5.1030    -8.9460    -1.0840 C.2   1 <1>  -0.3320 
 21 N       -5.6150   -10.0940     0.7600 N.2   1 <1>  -0.7070 
 22 C       -3.4320   -10.2930     1.8640 C.3   1 <1>  -0.0590 
 23 N       -6.0830    -9.5430    -0.3730 N.pl3 1 <1>   0.3000 
 24 C       -5.3500    -8.2360    -2.4040 C.3   1 <1>  -0.0600 
 25 H        3.5790     0.8860     1.8550 H     1 <1>   0.0800 
 26 H        1.8790     0.9080     2.3060 H     1 <1>   0.0800 
 27 H        1.3560    -0.4470    -1.0520 H     1 <1>   0.0800 
 28 H        3.0590    -0.8730    -1.2100 H     1 <1>   0.0800 
 29 H       -0.2020    -3.1730     1.2910 H     1 <1>   0.1500 
 30 H        3.7650    -2.9530    -0.1650 H     1 <1>   0.1500 
 31 H        2.8870     2.7860     0.6210 H     1 <1>   0.0800 
 32 H        1.2690     2.1410     0.4300 H     1 <1>   0.0800 
 33 H        2.1710     1.6560    -1.7280 H     1 <1>   0.0800 
 34 H        3.7540     1.3250    -1.0560 H     1 <1>   0.0800 
 35 H        3.3460    -5.0270    -1.3810 H     1 <1>   0.1500 
 36 H       -1.3240    -5.1890     0.8660 H     1 <1>   0.4000 
 37 H       -0.1760    -7.4030    -0.0300 H     1 <1>   0.0800 
 38 H       -0.7440    -6.7440    -1.5480 H     1 <1>   0.0800 
 39 H       -3.0360    -6.5730    -0.6060 H     1 <1>   0.0800 
 40 H       -2.4660    -7.2620     0.8960 H     1 <1>   0.0800 
 41 H       -1.8390    -9.3420    -0.3240 H     1 <1>   0.0800 
 42 H       -2.4380    -8.6460    -1.7980 H     1 <1>   0.0800 
 43 H       -2.7840    -9.4910     2.1620 H     1 <1>   0.0800 
 44 H       -2.8430   -11.1260     1.5290 H     1 <1>   0.0800 
 45 H       -4.0180   -10.5980     2.7110 H     1 <1>   0.0800 
 46 H       -7.0750    -9.5910    -0.6310 H     1 <1>   0.2700 
 47 H       -4.4430    -7.7950    -2.7740 H     1 <1>   0.0800 
 48 H       -6.0770    -7.4540    -2.2730 H     1 <1>   0.0800 
 49 H       -5.7140    -8.9340    -3.1370 H     1 <1>   0.0800 
@<TRIPOS>BOND
  1   1   2  2   
  2   2   3  am  
  3   2   4  1   
  4   3   5  1   
  5   3   6  1   
  6   4   7  ar  
  7   4   8  ar  
  8   5   9  1   
  9   5  25  1   
 10   5  26  1   
 11   6  10  1   
 12   6  27  1   
 13   6  28  1   
 14   7  11  ar  
 15   7  29  1   
 16   8  12  ar  
 17   8  30  1   
 18   9  10  1   
 19   9  31  1   
 20   9  32  1   
 21  10  33  1   
 22  10  34  1   
 23  11  13  ar  
 24  11  14  1   
 25  12  13  ar  
 26  12  35  1   
 27  14  15  1   
 28  14  36  1   
 29  15  16  1   
 30  15  37  1   
 31  15  38  1   
 32  16  17  1   
 33  16  39  1   
 34  16  40  1   
 35  17  18  1   
 36  17  41  1   
 37  17  42  1   
 38  18  19  1   
 39  18  20  2   
 40  19  21  2   
 41  19  22  1   
 42  20  23  1   
 43  20  24  1   
 44  21  23  1   
 45  22  43  1   
 46  22  44  1   
 47  22  45  1   
 48  23  46  1   
 49  24  47  1   
 50  24  48  1   
 51  24  49  1   
@<TRIPOS>SUBSTRUCTURE
  1 ****  14 GROUP 4 **** **** 0

# MOE 2024.06 (io_trps.svl 2023.06)
