@<TRIPOS>MOLECULE
NONAME
42 44 1 0 0 
SMALL
USER_CHARGES


@<TRIPOS>ATOM
  1 O        0.8470     0.5370     0.1970 O.3   1 <1>  -0.2800 
  2 C        0.8590    -0.6860    -0.2290 C.2   1 <1>   0.2980 
  3 C        0.8580     1.2440    -0.8890 C.2   1 <1>   0.2980 
  4 N        0.8650    -0.7490    -1.5080 N.2   1 <1>  -0.3380 
  5 C        0.8650    -1.8310     0.7820 C.3   1 <1>   0.1000 
  6 N        0.8610     0.5130    -1.9390 N.2   1 <1>  -0.3380 
  7 C        0.8250     2.7700    -0.8310 C.3   1 <1>   0.2900 
  8 C        1.1580    -3.1900     0.1260 C.3   1 <1>  -0.2400 
  9 C       -0.4690    -1.8950     1.5380 C.3   1 <1>  -0.2400 
 10 N        2.1130     3.4050    -0.4500 N.3   1 <1>  -0.8100 
 11 C        2.0910     4.8500    -0.7340 C.3   1 <1>   0.2530 
 12 C        2.4850     3.1280     0.9490 C.3   1 <1>   0.0300 
 13 C        3.4780     5.4630    -0.5900 C.ar  1 <1>  -0.1440 
 14 C        3.7060     6.5330     0.2370 C.ar  1 <1>  -0.1500 
 15 C        4.5450     4.9230    -1.3210 C.ar  1 <1>  -0.1500 
 16 C        4.9890     7.1010     0.3660 C.ar  1 <1>   0.0000 
 17 C        5.8000     5.4580    -1.2110 C.ar  1 <1>  -0.1500 
 18 C        6.0610     6.5530    -0.3740 C.ar  1 <1>   0.3100 
 19 C        5.2600     8.1960     1.2040 C.ar  1 <1>  -0.1500 
 20 N        7.3260     7.0430    -0.3060 N.ar  1 <1>  -0.6200 
 21 C        6.5360     8.6680     1.2550 C.ar  1 <1>  -0.1500 
 22 C        7.5310     8.0550     0.4800 C.ar  1 <1>   0.1600 
 23 H        1.6500    -1.6290     1.4900 H     1 <1>   0.0800 
 24 H        0.0520     3.0750    -0.1480 H     1 <1>   0.0800 
 25 H        0.5500     3.1110    -1.8130 H     1 <1>   0.0800 
 26 H        0.3900    -3.4350    -0.5880 H     1 <1>   0.0800 
 27 H        1.2030    -3.9660     0.8680 H     1 <1>   0.0800 
 28 H        2.1010    -3.1520    -0.3900 H     1 <1>   0.0800 
 29 H       -1.2770    -2.0810     0.8520 H     1 <1>   0.0800 
 30 H       -0.6550    -0.9630     2.0410 H     1 <1>   0.0800 
 31 H       -0.4490    -2.6810     2.2720 H     1 <1>   0.0800 
 32 H        1.3960     5.3410    -0.0750 H     1 <1>   0.0800 
 33 H        1.7640     5.0090    -1.7480 H     1 <1>   0.0800 
 34 H        2.6040     2.0690     1.1000 H     1 <1>   0.0800 
 35 H        1.7330     3.4990     1.6230 H     1 <1>   0.0800 
 36 H        3.4270     3.5920     1.1850 H     1 <1>   0.0800 
 37 H        2.9040     6.9640     0.8080 H     1 <1>   0.1500 
 38 H        4.3610     4.0760    -1.9610 H     1 <1>   0.1500 
 39 H        6.6250     5.0500    -1.7650 H     1 <1>   0.1500 
 40 H        4.4670     8.6370     1.7810 H     1 <1>   0.1500 
 41 H        6.8020     9.5030     1.8770 H     1 <1>   0.1500 
 42 H        8.5310     8.4510     0.5430 H     1 <1>   0.1500 
@<TRIPOS>BOND
  1   1   2  1   
  2   1   3  1   
  3   2   4  2   
  4   2   5  1   
  5   3   6  2   
  6   3   7  1   
  7   4   6  1   
  8   5   8  1   
  9   5   9  1   
 10   5  23  1   
 11   7  10  1   
 12   7  24  1   
 13   7  25  1   
 14   8  26  1   
 15   8  27  1   
 16   8  28  1   
 17   9  29  1   
 18   9  30  1   
 19   9  31  1   
 20  10  11  1   
 21  10  12  1   
 22  11  13  1   
 23  11  32  1   
 24  11  33  1   
 25  12  34  1   
 26  12  35  1   
 27  12  36  1   
 28  13  14  ar  
 29  13  15  ar  
 30  14  16  ar  
 31  14  37  1   
 32  15  17  ar  
 33  15  38  1   
 34  16  18  ar  
 35  16  19  ar  
 36  17  18  ar  
 37  17  39  1   
 38  18  20  ar  
 39  19  21  ar  
 40  19  40  1   
 41  20  22  ar  
 42  21  22  ar  
 43  21  41  1   
 44  22  42  1   
@<TRIPOS>SUBSTRUCTURE
  1 ****  10 GROUP 4 **** **** 0

# MOE 2024.06 (io_trps.svl 2023.06)
