@<TRIPOS>MOLECULE
NONAME
48 50 1 0 0 
SMALL
USER_CHARGES


@<TRIPOS>ATOM
  1 O       -2.3640     1.1880     2.8890 O.co2 1 <1>  -0.9000 
  2 C       -3.5410     0.9530     2.5780 C.2   1 <1>   0.9790 
  3 O       -4.4300     0.9970     3.4500 O.co2 1 <1>  -0.9000 
  4 C       -3.9140     0.6630     1.2010 C.ar  1 <1>  -0.1790 
  5 C       -5.1830     0.1720     0.9150 C.ar  1 <1>  -0.1500 
  6 C       -3.0610     0.8900     0.1220 C.ar  1 <1>  -0.1500 
  7 C       -5.6260    -0.0060    -0.3810 C.ar  1 <1>  -0.1440 
  8 C       -3.4750     0.6740    -1.1800 C.ar  1 <1>  -0.1500 
  9 C       -4.7620     0.2350    -1.4380 C.ar  1 <1>  -0.1500 
 10 C       -7.0620    -0.4220    -0.5970 C.3   1 <1>   0.4870 
 11 N       -7.8980     0.8110    -0.6930 N.4   1 <1>  -0.9590 
 12 C       -7.8540     1.6150     0.5730 C.3   1 <1>   0.3430 
 13 C       -9.2840     0.4930    -1.1270 C.3   1 <1>   0.3430 
 14 C       -8.6550     2.9010     0.4020 C.3   1 <1>  -0.1600 
 15 C      -10.0870     1.7790    -1.2960 C.3   1 <1>  -0.1600 
 16 C      -10.1030     2.6210    -0.0110 C.3   1 <1>   0.2800 
 17 O      -10.6290     3.8610    -0.3800 O.3   1 <1>  -0.5600 
 18 C      -10.8930     1.9670     1.1520 C.3   1 <1>  -0.1600 
 19 C      -11.8500     4.3070     0.1400 C.3   1 <1>   0.1200 
 20 C      -12.4240     2.0100     0.9840 C.3   1 <1>   0.2800 
 21 C      -12.8740     3.1740     0.0960 C.3   1 <1>  -0.1600 
 22 O      -12.9460     2.2250     2.2360 O.3   1 <1>  -0.6800 
 23 C      -13.0220     0.6800     0.5240 C.3   1 <1>  -0.2400 
 24 H       -5.8270    -0.0430     1.7530 H     1 <1>   0.1500 
 25 H       -2.0630     1.2470     0.3270 H     1 <1>   0.1500 
 26 H       -2.7890     0.8580    -1.9890 H     1 <1>   0.1500 
 27 H       -5.0700     0.0890    -2.4590 H     1 <1>   0.1500 
 28 H       -7.3900    -1.0350     0.2270 H     1 <1>   0.0800 
 29 H       -7.1340    -0.9960    -1.5050 H     1 <1>   0.0800 
 30 H       -7.4460     1.3970    -1.4080 H     1 <1>   0.4500 
 31 H       -6.8360     1.8790     0.8160 H     1 <1>   0.0800 
 32 H       -8.2530     1.0400     1.3930 H     1 <1>   0.0800 
 33 H       -9.7620    -0.1360    -0.3930 H     1 <1>   0.0800 
 34 H       -9.2630    -0.0390    -2.0650 H     1 <1>   0.0800 
 35 H       -8.1730     3.5110    -0.3410 H     1 <1>   0.0800 
 36 H       -8.6360     3.4480     1.3280 H     1 <1>   0.0800 
 37 H      -11.0870     1.5330    -1.5940 H     1 <1>   0.0800 
 38 H       -9.6510     2.3540    -2.0930 H     1 <1>   0.0800 
 39 H      -10.6280     2.4980     2.0500 H     1 <1>   0.0800 
 40 H      -10.5780     0.9520     1.3040 H     1 <1>   0.0800 
 41 H      -12.1760     5.1380    -0.4620 H     1 <1>   0.0800 
 42 H      -11.6870     4.6520     1.1470 H     1 <1>   0.0800 
 43 H      -12.9660     2.8550    -0.9260 H     1 <1>   0.0800 
 44 H      -13.8430     3.5290     0.4020 H     1 <1>   0.0800 
 45 H      -12.6930     3.1070     2.5630 H     1 <1>   0.4000 
 46 H      -12.6750     0.4130    -0.4550 H     1 <1>   0.0800 
 47 H      -14.0950     0.7560     0.4860 H     1 <1>   0.0800 
 48 H      -12.7580    -0.1060     1.2080 H     1 <1>   0.0800 
@<TRIPOS>BOND
  1   1   2  ar  
  2   2   3  ar  
  3   2   4  1   
  4   4   5  ar  
  5   4   6  ar  
  6   5   7  ar  
  7   5  24  1   
  8   6   8  ar  
  9   6  25  1   
 10   7   9  ar  
 11   7  10  1   
 12   8   9  ar  
 13   8  26  1   
 14   9  27  1   
 15  10  11  1   
 16  10  28  1   
 17  10  29  1   
 18  11  12  1   
 19  11  13  1   
 20  11  30  1   
 21  12  14  1   
 22  12  31  1   
 23  12  32  1   
 24  13  15  1   
 25  13  33  1   
 26  13  34  1   
 27  14  16  1   
 28  14  35  1   
 29  14  36  1   
 30  15  16  1   
 31  15  37  1   
 32  15  38  1   
 33  16  17  1   
 34  16  18  1   
 35  17  19  1   
 36  18  20  1   
 37  18  39  1   
 38  18  40  1   
 39  19  21  1   
 40  19  41  1   
 41  19  42  1   
 42  20  21  1   
 43  20  22  1   
 44  20  23  1   
 45  21  43  1   
 46  21  44  1   
 47  22  45  1   
 48  23  46  1   
 49  23  47  1   
 50  23  48  1   
@<TRIPOS>SUBSTRUCTURE
  1 ****  12 GROUP 4 **** **** 0

# MOE 2024.06 (io_trps.svl 2023.06)
