@<TRIPOS>MOLECULE
NONAME
45 47 1 0 0 
SMALL
USER_CHARGES


@<TRIPOS>ATOM
  1 S       -0.0200    -0.0690    -1.0720 S.o2  1 <1>   1.3330 
  2 O        0.6580     0.0790    -2.3400 O.2   1 <1>  -0.6500 
  3 O       -0.8870    -1.2040    -0.8500 O.2   1 <1>  -0.6500 
  4 N        1.1540    -0.0760     0.1560 N.am  1 <1>  -0.8490 
  5 C       -0.9410     1.4410    -0.7660 C.3   1 <1>  -0.0550 
  6 C        2.3850    -0.7610    -0.2470 C.3   1 <1>   0.1160 
  7 C        0.6690    -0.6260     1.4270 C.3   1 <1>   0.1160 
  8 C       -0.1350     2.7360    -1.0090 C.3   1 <1>  -0.0800 
  9 C       -0.9710     4.0170    -0.9460 C.3   1 <1>   0.2000 
 10 C        1.0040     2.9810    -0.0100 C.3   1 <1>   0.1400 
 11 O       -1.7960     3.9630     0.1680 O.3   1 <1>  -0.6800 
 12 C        0.0660     5.1140    -0.7140 C.3   1 <1>   0.1400 
 13 N        1.1090     4.4580     0.1150 N.am  1 <1>  -0.6600 
 14 C        2.2200     5.0710     0.6450 C.2   1 <1>   0.5440 
 15 O        3.1030     4.3770     1.1100 O.2   1 <1>  -0.5700 
 16 C        2.3660     6.5120     0.6500 C.ar  1 <1>   0.0860 
 17 C        3.4260     7.1270     0.0170 C.ar  1 <1>  -0.1500 
 18 C        1.4320     7.3340     1.3090 C.ar  1 <1>  -0.1500 
 19 C        3.5850     8.5170    -0.0070 C.ar  1 <1>   0.3100 
 20 C        1.5590     8.6980     1.3080 C.ar  1 <1>  -0.1500 
 21 N        4.6480     9.0520    -0.6670 N.ar  1 <1>  -0.6200 
 22 C        2.6270     9.3290     0.6530 C.ar  1 <1>   0.3100 
 23 C        4.6940    10.3460    -0.6250 C.ar  1 <1>   0.1600 
 24 N        2.7110    10.6840     0.6680 N.ar  1 <1>  -0.6200 
 25 C        3.7400    11.1510     0.0320 C.ar  1 <1>   0.1600 
 26 H       -1.7890     1.4510    -1.4220 H     1 <1>   0.0800 
 27 H       -1.3170     1.4290     0.2380 H     1 <1>   0.0800 
 28 H        3.1100    -0.7260     0.5480 H     1 <1>   0.0800 
 29 H        2.8120    -0.2770    -1.1100 H     1 <1>   0.0800 
 30 H        2.1780    -1.7890    -0.4950 H     1 <1>   0.0800 
 31 H        1.4210    -0.5120     2.1890 H     1 <1>   0.0800 
 32 H        0.4340    -1.6720     1.3190 H     1 <1>   0.0800 
 33 H       -0.2180    -0.1040     1.7440 H     1 <1>   0.0800 
 34 H        0.3050     2.6860    -1.9910 H     1 <1>   0.0800 
 35 H       -1.5780     4.1800    -1.8190 H     1 <1>   0.0800 
 36 H        1.9320     2.5590    -0.3610 H     1 <1>   0.0800 
 37 H        0.7730     2.5660     0.9560 H     1 <1>   0.0800 
 38 H       -1.2350     3.9890     0.9700 H     1 <1>   0.4000 
 39 H       -0.3680     5.9690    -0.2280 H     1 <1>   0.0800 
 40 H        0.5010     5.4120    -1.6530 H     1 <1>   0.0800 
 41 H        4.1700     6.5300    -0.4800 H     1 <1>   0.1500 
 42 H        0.6120     6.8640     1.8250 H     1 <1>   0.1500 
 43 H        0.8460     9.3250     1.8120 H     1 <1>   0.1500 
 44 H        5.5080    10.8450    -1.1220 H     1 <1>   0.1500 
 45 H        3.8810    12.2170    -0.0010 H     1 <1>   0.1500 
@<TRIPOS>BOND
  1   1   2  2   
  2   1   3  2   
  3   1   4  am  
  4   1   5  1   
  5   4   6  1   
  6   4   7  1   
  7   5   8  1   
  8   5  26  1   
  9   5  27  1   
 10   6  28  1   
 11   6  29  1   
 12   6  30  1   
 13   7  31  1   
 14   7  32  1   
 15   7  33  1   
 16   8   9  1   
 17   8  10  1   
 18   8  34  1   
 19   9  11  1   
 20   9  12  1   
 21   9  35  1   
 22  10  13  1   
 23  10  36  1   
 24  10  37  1   
 25  11  38  1   
 26  12  13  1   
 27  12  39  1   
 28  12  40  1   
 29  13  14  am  
 30  14  15  2   
 31  14  16  1   
 32  16  17  ar  
 33  16  18  ar  
 34  17  19  ar  
 35  17  41  1   
 36  18  20  ar  
 37  18  42  1   
 38  19  21  ar  
 39  19  22  ar  
 40  20  22  ar  
 41  20  43  1   
 42  21  23  ar  
 43  22  24  ar  
 44  23  25  ar  
 45  23  44  1   
 46  24  25  ar  
 47  25  45  1   
@<TRIPOS>SUBSTRUCTURE
  1 ****  13 GROUP 4 **** **** 0

# MOE 2024.06 (io_trps.svl 2023.06)
