@<TRIPOS>MOLECULE
NONAME
54 56 1 0 0 
SMALL
USER_CHARGES


@<TRIPOS>ATOM
  1 F        0.4450     0.9490    -0.6120 F     1 <1>  -0.1900 
  2 C        1.3880     1.6320    -0.0190 C.ar  1 <1>   0.1900 
  3 C        1.4840     2.9880    -0.2690 C.ar  1 <1>  -0.1500 
  4 C        2.2470     0.9710     0.8330 C.ar  1 <1>  -0.1500 
  5 C        2.4890     3.7380     0.3410 C.ar  1 <1>  -0.1440 
  6 C        3.2340     1.7060     1.4600 C.ar  1 <1>  -0.1500 
  7 C        3.3450     3.0670     1.2180 C.ar  1 <1>  -0.1500 
  8 C        2.6750     5.2630     0.1070 C.3   1 <1>   0.1440 
  9 C        1.7210     5.8590    -0.9690 C.3   1 <1>  -0.1600 
 10 C        2.3510     5.9920     1.4270 C.3   1 <1>  -0.1600 
 11 C        4.1480     5.4980    -0.3310 C.3   1 <1>   0.1400 
 12 C        0.3450     6.2790    -0.4180 C.3   1 <1>   0.1200 
 13 C        0.8810     5.7870     1.8380 C.3   1 <1>   0.1200 
 14 N        4.5130     6.9340    -0.4960 N.am  1 <1>  -0.7300 
 15 O        0.0480     5.5620     0.7340 O.3   1 <1>  -0.5600 
 16 C        5.1800     7.6760     0.4260 C.2   1 <1>   0.5690 
 17 O        5.5380     7.2110     1.4800 O.2   1 <1>  -0.5700 
 18 C        5.4510     9.1500     0.1360 C.3   1 <1>  -0.0190 
 19 C        4.1390     9.9440    -0.0240 C.3   1 <1>  -0.1600 
 20 C        6.3880     9.3450    -1.0820 C.3   1 <1>  -0.1600 
 21 C        4.3890    11.4600    -0.1660 C.3   1 <1>   0.2000 
 22 C        6.2520    10.7270    -1.7530 C.3   1 <1>  -0.1600 
 23 O        3.3900    11.9790    -1.0090 O.3   1 <1>  -0.5600 
 24 C        5.7840    11.7920    -0.7590 C.3   1 <1>   0.2000 
 25 C        2.1890    12.2930    -0.3760 C.3   1 <1>   0.0400 
 26 O        5.7190    12.9980    -1.4260 O.3   1 <1>  -0.6800 
 27 H        0.7540     3.4210    -0.9230 H     1 <1>   0.1500 
 28 H        2.1390    -0.0850     1.0010 H     1 <1>   0.1500 
 29 H        3.9150     1.2230     2.1390 H     1 <1>   0.1500 
 30 H        4.1180     3.6010     1.7410 H     1 <1>   0.1500 
 31 H        1.6060     5.1840    -1.7960 H     1 <1>   0.0800 
 32 H        2.1420     6.7490    -1.3940 H     1 <1>   0.0800 
 33 H        2.5200     7.0470     1.3130 H     1 <1>   0.0800 
 34 H        2.9960     5.6620     2.2210 H     1 <1>   0.0800 
 35 H        4.3230     4.9850    -1.2610 H     1 <1>   0.0800 
 36 H        4.8180     5.0720     0.3930 H     1 <1>   0.0800 
 37 H       -0.4300     6.0850    -1.1390 H     1 <1>   0.0800 
 38 H        0.3320     7.3260    -0.1670 H     1 <1>   0.0800 
 39 H        0.5120     6.6440     2.3740 H     1 <1>   0.0800 
 40 H        0.7940     4.9210     2.4710 H     1 <1>   0.0800 
 41 H        4.2280     7.3720    -1.3730 H     1 <1>   0.3700 
 42 H        5.9560     9.5440     1.0010 H     1 <1>   0.0800 
 43 H        3.5110     9.7700     0.8310 H     1 <1>   0.0800 
 44 H        3.6260     9.5870    -0.9000 H     1 <1>   0.0800 
 45 H        7.4020     9.2100    -0.7470 H     1 <1>   0.0800 
 46 H        6.2010     8.5920    -1.8280 H     1 <1>   0.0800 
 47 H        4.3220    11.9400     0.7950 H     1 <1>   0.0800 
 48 H        5.5280    10.6620    -2.5480 H     1 <1>   0.0800 
 49 H        7.1970    11.0150    -2.1800 H     1 <1>   0.0800 
 50 H        6.5120    11.8890     0.0280 H     1 <1>   0.0800 
 51 H        1.5080    12.6720    -1.1180 H     1 <1>   0.0800 
 52 H        2.3670    13.0510     0.3680 H     1 <1>   0.0800 
 53 H        1.7760    11.4080     0.0750 H     1 <1>   0.0800 
 54 H        4.7980    13.0680    -1.7670 H     1 <1>   0.4000 
@<TRIPOS>BOND
  1   1   2  1   
  2   2   3  ar  
  3   2   4  ar  
  4   3   5  ar  
  5   3  27  1   
  6   4   6  ar  
  7   4  28  1   
  8   5   7  ar  
  9   5   8  1   
 10   6   7  ar  
 11   6  29  1   
 12   7  30  1   
 13   8   9  1   
 14   8  10  1   
 15   8  11  1   
 16   9  12  1   
 17   9  31  1   
 18   9  32  1   
 19  10  13  1   
 20  10  33  1   
 21  10  34  1   
 22  11  14  1   
 23  11  35  1   
 24  11  36  1   
 25  12  15  1   
 26  12  37  1   
 27  12  38  1   
 28  13  15  1   
 29  13  39  1   
 30  13  40  1   
 31  14  16  am  
 32  14  41  1   
 33  16  17  2   
 34  16  18  1   
 35  18  19  1   
 36  18  20  1   
 37  18  42  1   
 38  19  21  1   
 39  19  43  1   
 40  19  44  1   
 41  20  22  1   
 42  20  45  1   
 43  20  46  1   
 44  21  23  1   
 45  21  24  1   
 46  21  47  1   
 47  22  24  1   
 48  22  48  1   
 49  22  49  1   
 50  23  25  1   
 51  24  26  1   
 52  24  50  1   
 53  25  51  1   
 54  25  52  1   
 55  25  53  1   
 56  26  54  1   
@<TRIPOS>SUBSTRUCTURE
  1 ****  14 GROUP 4 **** **** 0

# MOE 2024.06 (io_trps.svl 2023.06)
