@<TRIPOS>MOLECULE
NONAME
42 44 1 0 0 
SMALL
USER_CHARGES


@<TRIPOS>ATOM
  1 S       -2.9740    -1.6750     3.2860 S.3   1 <1>  -0.0800 
  2 C       -3.3200    -2.8150     2.0000 C.2   1 <1>  -0.1100 
  3 C       -2.2870    -0.5330     2.1480 C.2   1 <1>  -0.1100 
  4 C       -2.9340    -2.3230     0.8060 C.2   1 <1>  -0.1810 
  5 C       -2.3390    -1.0190     0.8940 C.2   1 <1>  -0.1500 
  6 C       -3.0900    -3.0270    -0.5260 C.3   1 <1>   0.5240 
  7 N       -4.5240    -2.9870    -0.9140 N.4   1 <1>  -0.9590 
  8 C       -4.8400    -3.8590    -2.0890 C.3   1 <1>   0.3430 
  9 C       -5.0540    -1.6090    -1.0930 C.3   1 <1>   0.3430 
 10 C       -6.1400    -4.6500    -1.8550 C.3   1 <1>   0.1400 
 11 C       -6.5110    -1.5390    -0.6360 C.3   1 <1>  -0.1600 
 12 N       -7.0860    -3.9430    -0.9340 N.am  1 <1>  -0.6600 
 13 C       -7.4580    -2.5460    -1.3000 C.3   1 <1>   0.1400 
 14 C       -7.7290    -4.5710     0.1250 C.2   1 <1>   0.7160 
 15 O       -8.0410    -3.8550     1.0620 O.2   1 <1>  -0.5700 
 16 C       -8.0210    -6.0040     0.1830 C.2   1 <1>   0.2030 
 17 N       -7.7830    -6.9180    -0.7470 N.2   1 <1>  -0.7070 
 18 C       -8.6340    -6.6090     1.2890 C.2   1 <1>  -0.1500 
 19 N       -8.2450    -8.0760    -0.2460 N.pl3 1 <1>   0.3000 
 20 C       -8.7600    -7.9170     0.9830 C.2   1 <1>  -0.3320 
 21 C       -9.3400    -9.0830     1.7510 C.3   1 <1>   0.7800 
 22 F       -8.4040   -10.0090     1.8990 F     1 <1>  -0.3400 
 23 F      -10.2710    -9.6660     1.0100 F     1 <1>  -0.3400 
 24 H       -3.7840    -3.7410     2.2950 H     1 <1>   0.1500 
 25 H       -1.9090     0.3930     2.5480 H     1 <1>   0.1500 
 26 H       -1.9690    -0.4980     0.0270 H     1 <1>   0.1500 
 27 H       -2.7680    -4.0500    -0.4200 H     1 <1>   0.0800 
 28 H       -2.4800    -2.5480    -1.2740 H     1 <1>   0.0800 
 29 H       -5.0650    -3.3690    -0.1200 H     1 <1>   0.4500 
 30 H       -4.0420    -4.5600    -2.2680 H     1 <1>   0.0800 
 31 H       -4.9470    -3.2540    -2.9740 H     1 <1>   0.0800 
 32 H       -4.9730    -1.3110    -2.1260 H     1 <1>   0.0800 
 33 H       -4.4850    -0.9110    -0.5000 H     1 <1>   0.0800 
 34 H       -5.8550    -5.5940    -1.4280 H     1 <1>   0.0800 
 35 H       -6.6270    -4.8550    -2.7930 H     1 <1>   0.0800 
 36 H       -6.8760    -0.5500    -0.8500 H     1 <1>   0.0800 
 37 H       -6.5600    -1.6550     0.4330 H     1 <1>   0.0800 
 38 H       -7.4490    -2.4310    -2.3710 H     1 <1>   0.0800 
 39 H       -8.4650    -2.3520    -0.9640 H     1 <1>   0.0800 
 40 H       -8.9320    -6.0870     2.1830 H     1 <1>   0.1500 
 41 H       -8.2050    -8.9680    -0.7600 H     1 <1>   0.2700 
 42 H       -9.7550    -8.8450     2.7150 H     1 <1>   0.0800 
@<TRIPOS>BOND
  1   1   2  1   
  2   1   3  1   
  3   2   4  2   
  4   2  24  1   
  5   3   5  2   
  6   3  25  1   
  7   4   5  1   
  8   4   6  1   
  9   5  26  1   
 10   6   7  1   
 11   6  27  1   
 12   6  28  1   
 13   7   8  1   
 14   7   9  1   
 15   7  29  1   
 16   8  10  1   
 17   8  30  1   
 18   8  31  1   
 19   9  11  1   
 20   9  32  1   
 21   9  33  1   
 22  10  12  1   
 23  10  34  1   
 24  10  35  1   
 25  11  13  1   
 26  11  36  1   
 27  11  37  1   
 28  12  13  1   
 29  12  14  am  
 30  13  38  1   
 31  13  39  1   
 32  14  15  2   
 33  14  16  1   
 34  16  17  2   
 35  16  18  1   
 36  17  19  1   
 37  18  20  2   
 38  18  40  1   
 39  19  20  1   
 40  19  41  1   
 41  20  21  1   
 42  21  22  1   
 43  21  23  1   
 44  21  42  1   
@<TRIPOS>SUBSTRUCTURE
  1 ****  14 GROUP 4 **** **** 0

# MOE 2024.06 (io_trps.svl 2023.06)
