@<TRIPOS>MOLECULE
NONAME
56 60 1 0 0 
SMALL
USER_CHARGES


@<TRIPOS>ATOM
  1 O       -1.0770     0.4440     1.7590 O.2   1 <1>  -0.5700 
  2 C       -1.8420     1.0020     0.9940 C.2   1 <1>   0.6900 
  3 N       -3.1850     0.7410     1.0300 N.am  1 <1>  -0.6600 
  4 N       -1.3720     1.8970     0.0940 N.am  1 <1>  -0.7300 
  5 C       -4.0650     0.8020    -0.1660 C.3   1 <1>   0.1400 
  6 C       -3.7900     0.0080     2.1750 C.3   1 <1>   0.1400 
  7 C        0.0310     2.3120    -0.0400 C.3   1 <1>   0.2200 
  8 C       -4.3520    -0.6260    -0.6330 C.3   1 <1>  -0.1600 
  9 C       -4.0840    -1.4290     1.7460 C.3   1 <1>  -0.1600 
 10 C        0.1940     3.7140     0.5540 C.3   1 <1>  -0.1600 
 11 C        0.4120     2.2870    -1.5240 C.3   1 <1>  -0.1600 
 12 C       -4.9620    -1.4760     0.4910 C.3   1 <1>   0.4600 
 13 C        1.6190     4.2450     0.3420 C.3   1 <1>  -0.1600 
 14 C        1.8390     2.8150    -1.7390 C.3   1 <1>  -0.1600 
 15 O       -6.2100    -0.9260     0.8580 O.3   1 <1>  -0.5600 
 16 C       -5.1580    -2.9180     0.0410 C.2   1 <1>  -0.3320 
 17 C        2.0060     4.2200    -1.1430 C.3   1 <1>  -0.1600 
 18 C       -7.3350    -1.2470     0.0730 C.3   1 <1>   0.1200 
 19 N       -4.1700    -3.8160    -0.2530 N.pl3 1 <1>   0.0330 
 20 C       -6.3590    -3.5070    -0.1240 C.2   1 <1>  -0.1810 
 21 C       -7.6410    -2.7530     0.1250 C.3   1 <1>   0.0210 
 22 C       -4.7670    -5.0010    -0.6090 C.ar  1 <1>  -0.1520 
 23 C       -6.1490    -4.8390    -0.5360 C.ar  1 <1>   0.0000 
 24 C       -4.2090    -6.2230    -0.9940 C.ar  1 <1>  -0.1500 
 25 C       -6.9890    -5.9120    -0.8500 C.ar  1 <1>  -0.1500 
 26 C       -5.0480    -7.2700    -1.3020 C.ar  1 <1>  -0.1500 
 27 C       -6.4380    -7.1140    -1.2290 C.ar  1 <1>  -0.1500 
 28 H       -2.0550     2.5060    -0.3440 H     1 <1>   0.3700 
 29 H       -3.5980     1.3520    -0.9630 H     1 <1>   0.0800 
 30 H       -4.9840     1.2980     0.0960 H     1 <1>   0.0800 
 31 H       -4.7020     0.5000     2.4680 H     1 <1>   0.0800 
 32 H       -3.1230     0.0110     3.0200 H     1 <1>   0.0800 
 33 H        0.6660     1.6250     0.4970 H     1 <1>   0.0800 
 34 H       -3.4270    -1.0710    -0.9480 H     1 <1>   0.0800 
 35 H       -5.0050    -0.6150    -1.4850 H     1 <1>   0.0800 
 36 H       -4.5750    -1.9580     2.5410 H     1 <1>   0.0800 
 37 H       -3.1480    -1.9200     1.5570 H     1 <1>   0.0800 
 38 H       -0.0180     3.6770     1.6080 H     1 <1>   0.0800 
 39 H       -0.5030     4.3880     0.0880 H     1 <1>   0.0800 
 40 H       -0.2740     2.8980    -2.0820 H     1 <1>   0.0800 
 41 H        0.3480     1.2770    -1.8890 H     1 <1>   0.0800 
 42 H        2.3110     3.6370     0.9010 H     1 <1>   0.0800 
 43 H        1.6890     5.2520     0.7170 H     1 <1>   0.0800 
 44 H        2.0590     2.8410    -2.7930 H     1 <1>   0.0800 
 45 H        2.5400     2.1450    -1.2720 H     1 <1>   0.0800 
 46 H        3.0280     4.5380    -1.2540 H     1 <1>   0.0800 
 47 H        1.3850     4.9130    -1.6850 H     1 <1>   0.0800 
 48 H       -7.1440    -0.9400    -0.9390 H     1 <1>   0.0800 
 49 H       -8.1700    -0.6860     0.4530 H     1 <1>   0.0800 
 50 H       -3.1600    -3.6540    -0.2020 H     1 <1>   0.2700 
 51 H       -8.3690    -3.0010    -0.6250 H     1 <1>   0.0800 
 52 H       -8.0340    -3.0160     1.0900 H     1 <1>   0.0800 
 53 H       -3.1410    -6.3340    -1.0460 H     1 <1>   0.1500 
 54 H       -8.0530    -5.7780    -0.7880 H     1 <1>   0.1500 
 55 H       -4.6430    -8.2200    -1.6010 H     1 <1>   0.1500 
 56 H       -7.0710    -7.9480    -1.4740 H     1 <1>   0.1500 
@<TRIPOS>BOND
  1   1   2  2   
  2   2   3  am  
  3   2   4  am  
  4   3   5  1   
  5   3   6  1   
  6   4   7  1   
  7   4  28  1   
  8   5   8  1   
  9   5  29  1   
 10   5  30  1   
 11   6   9  1   
 12   6  31  1   
 13   6  32  1   
 14   7  10  1   
 15   7  11  1   
 16   7  33  1   
 17   8  12  1   
 18   8  34  1   
 19   8  35  1   
 20   9  12  1   
 21   9  36  1   
 22   9  37  1   
 23  10  13  1   
 24  10  38  1   
 25  10  39  1   
 26  11  14  1   
 27  11  40  1   
 28  11  41  1   
 29  12  15  1   
 30  12  16  1   
 31  13  17  1   
 32  13  42  1   
 33  13  43  1   
 34  14  17  1   
 35  14  44  1   
 36  14  45  1   
 37  15  18  1   
 38  16  19  1   
 39  16  20  2   
 40  17  46  1   
 41  17  47  1   
 42  18  21  1   
 43  18  48  1   
 44  18  49  1   
 45  19  22  1   
 46  19  50  1   
 47  20  21  1   
 48  20  23  1   
 49  21  51  1   
 50  21  52  1   
 51  22  23  ar  
 52  22  24  ar  
 53  23  25  ar  
 54  24  26  ar  
 55  24  53  1   
 56  25  27  ar  
 57  25  54  1   
 58  26  27  ar  
 59  26  55  1   
 60  27  56  1   
@<TRIPOS>SUBSTRUCTURE
  1 ****   8 GROUP 4 **** **** 0

# MOE 2024.06 (io_trps.svl 2023.06)
