@<TRIPOS>MOLECULE
NONAME
52 54 1 0 0 
SMALL
USER_CHARGES


@<TRIPOS>ATOM
  1 O        3.8030    -1.1120     1.5780 O.co2 1 <1>  -0.9000 
  2 C        3.0350    -0.1890     1.8700 C.2   1 <1>   0.9060 
  3 O        2.9980     0.2890     3.0010 O.co2 1 <1>  -0.9000 
  4 C        2.3240     0.5270     0.7100 C.3   1 <1>  -0.1060 
  5 C        3.4490     0.9220    -0.2640 C.3   1 <1>   0.4230 
  6 C        1.6430     1.8520     1.1620 C.3   1 <1>  -0.1600 
  7 C        1.2830    -0.4170     0.0400 C.3   1 <1>  -0.1600 
  8 N        3.9860    -0.3160    -0.9310 N.4   1 <1>  -0.9590 
  9 C        4.4800     1.7860     0.5140 C.3   1 <1>   0.3430 
 10 C        2.6060     2.8200     1.8730 C.3   1 <1>   0.3430 
 11 C        1.5360    -0.5940    -1.4660 C.3   1 <1>  -0.1600 
 12 C        2.9770    -1.0310    -1.7730 C.3   1 <1>   0.3430 
 13 C        5.3060    -0.1960    -1.6120 C.3   1 <1>   0.2630 
 14 N        3.8570     3.0370     1.0820 N.4   1 <1>  -0.9590 
 15 C        4.8690     3.7590     1.8960 C.3   1 <1>   0.5240 
 16 C        5.9280     4.2900     0.9360 C.2   1 <1>   0.0460 
 17 N        5.5710     4.6860    -0.3080 N.2   1 <1>  -0.5650 
 18 C        7.2600     4.4310     1.1240 C.2   1 <1>  -0.3320 
 19 C        6.6830     5.0810    -0.8400 C.2   1 <1>   0.0060 
 20 N        7.7470     4.9490    -0.0200 N.pl3 1 <1>   0.0330 
 21 C        8.1440     4.1250     2.3230 C.3   1 <1>  -0.0600 
 22 C        6.8010     5.6470    -2.2440 C.3   1 <1>   0.0200 
 23 C        7.1440     7.1390    -2.2160 C.3   1 <1>  -0.2400 
 24 H        3.0310     1.5480    -1.0330 H     1 <1>   0.0800 
 25 H        0.8530     1.6180     1.8560 H     1 <1>   0.0800 
 26 H        1.1940     2.3510     0.3220 H     1 <1>   0.0800 
 27 H        1.3350    -1.3890     0.5050 H     1 <1>   0.0800 
 28 H        0.2800    -0.0590     0.1970 H     1 <1>   0.0800 
 29 H        4.1180    -0.9470    -0.0910 H     1 <1>   0.4500 
 30 H        5.2800     2.0670    -0.1510 H     1 <1>   0.0800 
 31 H        4.8970     1.1990     1.3180 H     1 <1>   0.0800 
 32 H        2.8610     2.4160     2.8400 H     1 <1>   0.0800 
 33 H        2.1090     3.7610     2.0430 H     1 <1>   0.0800 
 34 H        1.3270     0.3280    -1.9820 H     1 <1>   0.0800 
 35 H        0.8580    -1.3320    -1.8590 H     1 <1>   0.0800 
 36 H        3.1770    -0.8580    -2.8180 H     1 <1>   0.0800 
 37 H        3.0670    -2.0900    -1.5900 H     1 <1>   0.0800 
 38 H        5.2410     0.4890    -2.4420 H     1 <1>   0.0800 
 39 H        5.6180    -1.1600    -1.9810 H     1 <1>   0.0800 
 40 H        6.0550     0.1560    -0.9210 H     1 <1>   0.0800 
 41 H        3.7000     3.6960     0.3010 H     1 <1>   0.4500 
 42 H        4.4090     4.5940     2.3980 H     1 <1>   0.0800 
 43 H        5.3100     3.1060     2.6320 H     1 <1>   0.0800 
 44 H        8.7160     5.2110    -0.2290 H     1 <1>   0.2700 
 45 H        7.5680     3.7210     3.1350 H     1 <1>   0.0800 
 46 H        8.6270     5.0240     2.6650 H     1 <1>   0.0800 
 47 H        8.9020     3.4100     2.0550 H     1 <1>   0.0800 
 48 H        7.5570     5.1090    -2.7880 H     1 <1>   0.0800 
 49 H        5.8650     5.5120    -2.7580 H     1 <1>   0.0800 
 50 H        8.0960     7.3040    -1.7450 H     1 <1>   0.0800 
 51 H        6.3900     7.6790    -1.6710 H     1 <1>   0.0800 
 52 H        7.1850     7.5270    -3.2180 H     1 <1>   0.0800 
@<TRIPOS>BOND
  1   1   2  ar  
  2   2   3  ar  
  3   2   4  1   
  4   4   5  1   
  5   4   6  1   
  6   4   7  1   
  7   5   8  1   
  8   5   9  1   
  9   5  24  1   
 10   6  10  1   
 11   6  25  1   
 12   6  26  1   
 13   7  11  1   
 14   7  27  1   
 15   7  28  1   
 16   8  12  1   
 17   8  13  1   
 18   8  29  1   
 19   9  14  1   
 20   9  30  1   
 21   9  31  1   
 22  10  14  1   
 23  10  32  1   
 24  10  33  1   
 25  11  12  1   
 26  11  34  1   
 27  11  35  1   
 28  12  36  1   
 29  12  37  1   
 30  13  38  1   
 31  13  39  1   
 32  13  40  1   
 33  14  15  1   
 34  14  41  1   
 35  15  16  1   
 36  15  42  1   
 37  15  43  1   
 38  16  17  1   
 39  16  18  2   
 40  17  19  2   
 41  18  20  1   
 42  18  21  1   
 43  19  20  1   
 44  19  22  1   
 45  20  44  1   
 46  21  45  1   
 47  21  46  1   
 48  21  47  1   
 49  22  23  1   
 50  22  48  1   
 51  22  49  1   
 52  23  50  1   
 53  23  51  1   
 54  23  52  1   
@<TRIPOS>SUBSTRUCTURE
  1 ****   9 GROUP 4 **** **** 0

# MOE 2024.06 (io_trps.svl 2023.06)
