@<TRIPOS>MOLECULE
NONAME
50 52 1 0 0 
SMALL
USER_CHARGES


@<TRIPOS>ATOM
  1 S        0.9010     0.1460    -1.8900 S.3   1 <1>  -0.0800 
  2 C       -0.3580    -0.3570    -0.8200 C.2   1 <1>   0.1980 
  3 C        1.6100     0.9520    -0.5340 C.2   1 <1>   0.1980 
  4 N       -0.1990     0.0630     0.3710 N.2   1 <1>  -0.3380 
  5 C       -1.4880    -1.2130    -1.3690 C.3   1 <1>   0.5230 
  6 N        0.9310     0.8110     0.5330 N.2   1 <1>  -0.3380 
  7 C        2.9030     1.7080    -0.7440 C.3   1 <1>  -0.0600 
  8 N       -2.3390    -1.7430    -0.2520 N.4   1 <1>  -0.9590 
  9 C       -1.5780    -2.8210     0.4860 C.3   1 <1>   0.3430 
 10 C       -3.6890    -2.1500    -0.7450 C.3   1 <1>   0.3430 
 11 C       -2.3550    -3.4920     1.6340 C.3   1 <1>   0.1400 
 12 C       -4.7060    -2.1490     0.4030 C.3   1 <1>  -0.1600 
 13 N       -3.5480    -4.2340     1.1280 N.am  1 <1>  -0.6600 
 14 C       -4.8390    -3.5000     1.1170 C.3   1 <1>   0.1400 
 15 C       -3.3820    -5.4400     0.4750 C.2   1 <1>   0.5440 
 16 O       -2.3310    -5.6070    -0.1170 O.2   1 <1>  -0.5700 
 17 C       -4.4110    -6.4540     0.4360 C.ar  1 <1>   0.0860 
 18 C       -4.5760    -7.2530    -0.6920 C.ar  1 <1>   0.1600 
 19 C       -5.2820    -6.6860     1.4970 C.ar  1 <1>  -0.1500 
 20 N       -5.5000    -8.1800    -0.8610 N.ar  1 <1>  -0.6200 
 21 C       -6.2440    -7.6540     1.3420 C.ar  1 <1>  -0.1500 
 22 C       -6.3320    -8.3820     0.1570 C.ar  1 <1>   0.4100 
 23 N       -7.3000    -9.3530     0.0050 N.pl3 1 <1>  -0.8380 
 24 C       -7.7700    -9.7320    -1.3560 C.3   1 <1>   0.1290 
 25 C       -7.4840   -10.4040     1.0410 C.3   1 <1>   0.1290 
 26 H       -1.0800    -2.0290    -1.9420 H     1 <1>   0.0800 
 27 H       -2.0840    -0.6010    -2.0260 H     1 <1>   0.0800 
 28 H        2.7610     2.4840    -1.4730 H     1 <1>   0.0800 
 29 H        3.6690     1.0360    -1.0850 H     1 <1>   0.0800 
 30 H        3.2190     2.1540     0.1820 H     1 <1>   0.0800 
 31 H       -2.4450    -0.9540     0.4040 H     1 <1>   0.4500 
 32 H       -0.6780    -2.3950     0.9000 H     1 <1>   0.0800 
 33 H       -1.2770    -3.5900    -0.2070 H     1 <1>   0.0800 
 34 H       -3.6460    -3.1250    -1.2070 H     1 <1>   0.0800 
 35 H       -4.0220    -1.4410    -1.4870 H     1 <1>   0.0800 
 36 H       -2.6460    -2.7640     2.3700 H     1 <1>   0.0800 
 37 H       -1.6980    -4.1970     2.1180 H     1 <1>   0.0800 
 38 H       -5.6730    -1.9110    -0.0030 H     1 <1>   0.0800 
 39 H       -4.4750    -1.3760     1.1130 H     1 <1>   0.0800 
 40 H       -5.5810    -4.0890     0.6030 H     1 <1>   0.0800 
 41 H       -5.1820    -3.3550     2.1290 H     1 <1>   0.0800 
 42 H       -3.8940    -7.1070    -1.5130 H     1 <1>   0.1500 
 43 H       -5.2020    -6.1260     2.4110 H     1 <1>   0.1500 
 44 H       -6.9480    -7.8600     2.1260 H     1 <1>   0.1500 
 45 H       -7.7670    -8.8690    -2.0000 H     1 <1>   0.0800 
 46 H       -8.7710   -10.1220    -1.3070 H     1 <1>   0.0800 
 47 H       -7.1130   -10.4770    -1.7720 H     1 <1>   0.0800 
 48 H       -6.8240   -10.2360     1.8740 H     1 <1>   0.0800 
 49 H       -7.2630   -11.3710     0.6240 H     1 <1>   0.0800 
 50 H       -8.5010   -10.3930     1.3900 H     1 <1>   0.0800 
@<TRIPOS>BOND
  1   1   2  1   
  2   1   3  1   
  3   2   4  2   
  4   2   5  1   
  5   3   6  2   
  6   3   7  1   
  7   4   6  1   
  8   5   8  1   
  9   5  26  1   
 10   5  27  1   
 11   7  28  1   
 12   7  29  1   
 13   7  30  1   
 14   8   9  1   
 15   8  10  1   
 16   8  31  1   
 17   9  11  1   
 18   9  32  1   
 19   9  33  1   
 20  10  12  1   
 21  10  34  1   
 22  10  35  1   
 23  11  13  1   
 24  11  36  1   
 25  11  37  1   
 26  12  14  1   
 27  12  38  1   
 28  12  39  1   
 29  13  14  1   
 30  13  15  am  
 31  14  40  1   
 32  14  41  1   
 33  15  16  2   
 34  15  17  1   
 35  17  18  ar  
 36  17  19  ar  
 37  18  20  ar  
 38  18  42  1   
 39  19  21  ar  
 40  19  43  1   
 41  20  22  ar  
 42  21  22  ar  
 43  21  44  1   
 44  22  23  1   
 45  23  24  1   
 46  23  25  1   
 47  24  45  1   
 48  24  46  1   
 49  24  47  1   
 50  25  48  1   
 51  25  49  1   
 52  25  50  1   
@<TRIPOS>SUBSTRUCTURE
  1 ****  13 GROUP 4 **** **** 0

# MOE 2024.06 (io_trps.svl 2023.06)
