@<TRIPOS>MOLECULE
NONAME
53 56 1 0 0 
SMALL
USER_CHARGES


@<TRIPOS>ATOM
  1 O        0.3260     1.5720    -0.9910 O.2   1 <1>  -0.5700 
  2 C       -0.0040     2.7240    -0.8340 C.2   1 <1>   0.5690 
  3 N       -1.0070     3.1190     0.0130 N.am  1 <1>  -0.5090 
  4 C        0.7420     3.8000    -1.6130 C.3   1 <1>   0.1810 
  5 C       -1.3520     4.5700     0.1740 C.3   1 <1>   0.3640 
  6 C       -1.6010     2.1900     1.0070 C.3   1 <1>   0.0490 
  7 O        0.9050     4.9520    -0.8310 O.3   1 <1>  -0.5600 
  8 C       -2.7150     4.8590    -0.4540 C.ar  1 <1>  -0.1440 
  9 C       -0.3090     5.5640    -0.4180 C.3   1 <1>   0.2610 
 10 C       -2.2600     0.9380     0.5180 C.3   1 <1>  -0.2000 
 11 C       -3.0880     2.0270     1.1170 C.3   1 <1>  -0.2000 
 12 C       -3.1010     4.2760    -1.6560 C.ar  1 <1>   0.1600 
 13 C       -3.5940     5.7280     0.1650 C.ar  1 <1>  -0.1500 
 14 C       -0.0280     6.6780     0.5970 C.2   1 <1>   0.5690 
 15 N       -4.2510     4.4950    -2.2730 N.ar  1 <1>  -0.6200 
 16 C       -4.7990     5.9610    -0.4610 C.ar  1 <1>  -0.1500 
 17 O       -0.9530     7.2950     1.0710 O.2   1 <1>  -0.5700 
 18 N        1.2530     6.9550     0.9430 N.am  1 <1>  -0.7300 
 19 C       -5.0730     5.3300    -1.6610 C.ar  1 <1>   0.1600 
 20 C        1.7030     8.0760     1.7840 C.3   1 <1>   0.2840 
 21 C        2.8920     8.7320     1.0990 C.ar  1 <1>  -0.1440 
 22 C        2.7360     9.7230     0.1340 C.ar  1 <1>  -0.1440 
 23 C        4.1690     8.3170     1.4490 C.ar  1 <1>  -0.1500 
 24 C        3.8600    10.2800    -0.4590 C.ar  1 <1>  -0.1500 
 25 C        1.3600    10.2140    -0.2940 C.3   1 <1>  -0.0970 
 26 C        5.2820     8.8780     0.8510 C.ar  1 <1>  -0.1500 
 27 C        5.1330     9.8650    -0.1070 C.ar  1 <1>  -0.1440 
 28 C        6.3490    10.4850    -0.7700 C.3   1 <1>  -0.0970 
 29 H        0.2070     4.0540    -2.5100 H     1 <1>   0.0800 
 30 H        1.7200     3.4390    -1.8750 H     1 <1>   0.0800 
 31 H       -1.4300     4.7580     1.2320 H     1 <1>   0.0800 
 32 H       -1.0100     2.1220     1.9060 H     1 <1>   0.1000 
 33 H       -0.7280     6.0340    -1.2890 H     1 <1>   0.0800 
 34 H       -2.3100     0.7650    -0.5430 H     1 <1>   0.1000 
 35 H       -2.1170     0.0310     1.0780 H     1 <1>   0.1000 
 36 H       -3.5210     1.8520     2.0860 H     1 <1>   0.1000 
 37 H       -3.7610     2.5430     0.4570 H     1 <1>   0.1000 
 38 H       -2.4340     3.5870    -2.1440 H     1 <1>   0.1500 
 39 H       -3.3560     6.2140     1.0970 H     1 <1>   0.1500 
 40 H       -5.5200     6.6280    -0.0250 H     1 <1>   0.1500 
 41 H        2.0020     6.4580     0.4480 H     1 <1>   0.3700 
 42 H       -6.0180     5.5210    -2.1420 H     1 <1>   0.1500 
 43 H        0.9040     8.7830     1.9280 H     1 <1>   0.0800 
 44 H        1.9920     7.7010     2.7500 H     1 <1>   0.0800 
 45 H        4.3060     7.5500     2.1900 H     1 <1>   0.1500 
 46 H        3.7460    11.0460    -1.2050 H     1 <1>   0.1500 
 47 H        1.4330    10.8960    -1.1220 H     1 <1>   0.0800 
 48 H        0.8810    10.7240     0.5220 H     1 <1>   0.0800 
 49 H        0.7460     9.3860    -0.5970 H     1 <1>   0.0800 
 50 H        6.2640     8.5430     1.1340 H     1 <1>   0.1500 
 51 H        7.2120    10.3970    -0.1350 H     1 <1>   0.0800 
 52 H        6.1760    11.5280    -0.9650 H     1 <1>   0.0800 
 53 H        6.5490     9.9850    -1.7000 H     1 <1>   0.0800 
@<TRIPOS>BOND
  1   1   2  2   
  2   2   3  am  
  3   2   4  1   
  4   3   5  1   
  5   3   6  1   
  6   4   7  1   
  7   4  29  1   
  8   4  30  1   
  9   5   8  1   
 10   5   9  1   
 11   5  31  1   
 12   6  10  1   
 13   6  11  1   
 14   6  32  1   
 15   7   9  1   
 16   8  12  ar  
 17   8  13  ar  
 18   9  14  1   
 19   9  33  1   
 20  10  11  1   
 21  10  34  1   
 22  10  35  1   
 23  11  36  1   
 24  11  37  1   
 25  12  15  ar  
 26  12  38  1   
 27  13  16  ar  
 28  13  39  1   
 29  14  17  2   
 30  14  18  am  
 31  15  19  ar  
 32  16  19  ar  
 33  16  40  1   
 34  18  20  1   
 35  18  41  1   
 36  19  42  1   
 37  20  21  1   
 38  20  43  1   
 39  20  44  1   
 40  21  22  ar  
 41  21  23  ar  
 42  22  24  ar  
 43  22  25  1   
 44  23  26  ar  
 45  23  45  1   
 46  24  27  ar  
 47  24  46  1   
 48  25  47  1   
 49  25  48  1   
 50  25  49  1   
 51  26  27  ar  
 52  26  50  1   
 53  27  28  1   
 54  28  51  1   
 55  28  52  1   
 56  28  53  1   
@<TRIPOS>SUBSTRUCTURE
  1 ****   9 GROUP 4 **** **** 0

# MOE 2024.06 (io_trps.svl 2023.06)
