@<TRIPOS>MOLECULE
NONAME
58 60 1 0 0 
SMALL
USER_CHARGES


@<TRIPOS>ATOM
  1 O       -1.2740    -2.1270     2.2040 O.2   1 <1>  -0.5700 
  2 C       -1.6970    -1.6230     1.1840 C.2   1 <1>   0.6160 
  3 N       -1.2780    -2.1130    -0.0330 N.am  1 <1>  -0.6600 
  4 C       -2.6370    -0.5420     1.2900 C.2   1 <1>  -0.1360 
  5 C        0.0880    -2.6770    -0.3030 C.3   1 <1>   0.2200 
  6 C       -2.2520    -2.3970    -1.1220 C.3   1 <1>   0.1400 
  7 C       -2.9750     0.3850     0.3630 C.2   1 <1>  -0.1780 
  8 C        0.0350    -4.2200    -0.4510 C.3   1 <1>   0.0000 
  9 C        1.1960    -2.2160     0.6670 C.3   1 <1>   0.1400 
 10 C       -2.3480    -3.9090    -1.3620 C.3   1 <1>  -0.1600 
 11 C       -3.9270     1.4630     0.4740 C.ar  1 <1>   0.0280 
 12 C        1.4470    -4.7100    -0.8640 C.3   1 <1>  -0.1600 
 13 C       -0.9670    -4.5550    -1.5870 C.3   1 <1>  -0.1600 
 14 C       -0.3980    -4.8750     0.8910 C.3   1 <1>   0.1200 
 15 N        2.5170    -2.7500     0.2060 N.am  1 <1>  -0.6600 
 16 C       -4.0000     2.4300    -0.5280 C.ar  1 <1>  -0.1500 
 17 C       -4.8020     1.5900     1.5530 C.ar  1 <1>  -0.1500 
 18 C        2.5520    -4.2380     0.0900 C.3   1 <1>   0.1400 
 19 O       -0.4310    -6.2600     0.7840 O.3   1 <1>  -0.6800 
 20 C        3.6140    -1.9850    -0.1030 C.2   1 <1>   0.5690 
 21 C       -4.9010     3.4770    -0.4580 C.ar  1 <1>  -0.1500 
 22 C       -5.7050     2.6350     1.6290 C.ar  1 <1>  -0.1500 
 23 O        4.6420    -2.4840    -0.4990 O.2   1 <1>  -0.5700 
 24 C        3.5550    -0.4730     0.0390 C.3   1 <1>  -0.0990 
 25 C       -5.7570     3.5820     0.6230 C.ar  1 <1>  -0.1500 
 26 C        4.8730     0.2080    -0.3200 C.3   1 <1>   0.1200 
 27 O        4.6990     1.5800    -0.1720 O.3   1 <1>  -0.5600 
 28 C        5.8370     2.3220    -0.4680 C.3   1 <1>   0.0400 
 29 H       -3.0830    -0.5100     2.2650 H     1 <1>   0.1500 
 30 H        0.3820    -2.2820    -1.2610 H     1 <1>   0.0800 
 31 H       -3.2280    -2.0200    -0.8660 H     1 <1>   0.0800 
 32 H       -1.9260    -1.9030    -2.0220 H     1 <1>   0.0800 
 33 H       -2.4820     0.3500    -0.5920 H     1 <1>   0.1500 
 34 H        1.0170    -2.5830     1.6600 H     1 <1>   0.0800 
 35 H        1.1980    -1.1430     0.7040 H     1 <1>   0.0800 
 36 H       -2.8390    -4.3640    -0.5210 H     1 <1>   0.0800 
 37 H       -2.9670    -4.0870    -2.2240 H     1 <1>   0.0800 
 38 H        1.6910    -4.3480    -1.8470 H     1 <1>   0.0800 
 39 H        1.4690    -5.7840    -0.9120 H     1 <1>   0.0800 
 40 H       -0.5760    -4.1860    -2.5200 H     1 <1>   0.0800 
 41 H       -1.0760    -5.6200    -1.6920 H     1 <1>   0.0800 
 42 H       -1.3750    -4.5440     1.1940 H     1 <1>   0.0800 
 43 H        0.2870    -4.6340     1.6840 H     1 <1>   0.0800 
 44 H       -3.3410     2.3670    -1.3750 H     1 <1>   0.1500 
 45 H       -4.7870     0.8680     2.3470 H     1 <1>   0.1500 
 46 H        3.5070    -4.5680    -0.2820 H     1 <1>   0.0800 
 47 H        2.4180    -4.6730     1.0660 H     1 <1>   0.0800 
 48 H       -1.1330    -6.5320     0.1630 H     1 <1>   0.4000 
 49 H       -4.9380     4.2110    -1.2440 H     1 <1>   0.1500 
 50 H       -6.3690     2.7120     2.4720 H     1 <1>   0.1500 
 51 H        2.7880    -0.0970    -0.6110 H     1 <1>   0.0800 
 52 H        3.3120    -0.2330     1.0570 H     1 <1>   0.0800 
 53 H       -6.4590     4.3950     0.6800 H     1 <1>   0.1500 
 54 H        5.1410    -0.0030    -1.3420 H     1 <1>   0.0800 
 55 H        5.6600    -0.1200     0.3390 H     1 <1>   0.0800 
 56 H        5.6050     3.3620    -0.3260 H     1 <1>   0.0800 
 57 H        6.1170     2.1490    -1.4930 H     1 <1>   0.0800 
 58 H        6.6330     2.0330     0.1960 H     1 <1>   0.0800 
@<TRIPOS>BOND
  1   1   2  2   
  2   2   3  am  
  3   2   4  1   
  4   3   5  1   
  5   3   6  1   
  6   4   7  2   
  7   4  29  1   
  8   5   8  1   
  9   5   9  1   
 10   5  30  1   
 11   6  10  1   
 12   6  31  1   
 13   6  32  1   
 14   7  11  1   
 15   7  33  1   
 16   8  12  1   
 17   8  13  1   
 18   8  14  1   
 19   9  15  1   
 20   9  34  1   
 21   9  35  1   
 22  10  13  1   
 23  10  36  1   
 24  10  37  1   
 25  11  16  ar  
 26  11  17  ar  
 27  12  18  1   
 28  12  38  1   
 29  12  39  1   
 30  13  40  1   
 31  13  41  1   
 32  14  19  1   
 33  14  42  1   
 34  14  43  1   
 35  15  18  1   
 36  15  20  am  
 37  16  21  ar  
 38  16  44  1   
 39  17  22  ar  
 40  17  45  1   
 41  18  46  1   
 42  18  47  1   
 43  19  48  1   
 44  20  23  2   
 45  20  24  1   
 46  21  25  ar  
 47  21  49  1   
 48  22  25  ar  
 49  22  50  1   
 50  24  26  1   
 51  24  51  1   
 52  24  52  1   
 53  25  53  1   
 54  26  27  1   
 55  26  54  1   
 56  26  55  1   
 57  27  28  1   
 58  28  56  1   
 59  28  57  1   
 60  28  58  1   
@<TRIPOS>SUBSTRUCTURE
  1 ****   3 GROUP 4 **** **** 0

# MOE 2024.06 (io_trps.svl 2023.06)
