@<TRIPOS>MOLECULE
NONAME
62 64 1 0 0 
SMALL
USER_CHARGES


@<TRIPOS>ATOM
  1 O       -0.5820     0.6520     2.4510 O.2   1 <1>  -0.5700 
  2 C       -1.3240     1.4790     1.9690 C.2   1 <1>   0.5690 
  3 N       -2.5190     1.0960     1.3840 N.am  1 <1>  -0.6600 
  4 C       -0.8870     2.9530     2.0980 C.3   1 <1>   0.1710 
  5 C       -3.5100     2.0500     0.7970 C.3   1 <1>   0.2200 
  6 C       -2.8470    -0.3660     1.3360 C.3   1 <1>   0.0600 
  7 N        0.0230     3.4750     1.0350 N.3   1 <1>  -0.8100 
  8 C       -4.7680     2.1750     1.6550 C.3   1 <1>  -0.1600 
  9 C       -4.0170     1.6590    -0.5940 C.3   1 <1>  -0.1600 
 10 C        0.5130     4.8250     1.3690 C.3   1 <1>   0.2530 
 11 C       -0.5460     3.4040    -0.3180 C.3   1 <1>   0.0300 
 12 C       -5.8580     2.6700     0.6930 C.3   1 <1>  -0.0800 
 13 C       -5.3730     2.3670    -0.7290 C.3   1 <1>  -0.0800 
 14 C        1.6100     5.2870     0.4180 C.ar  1 <1>  -0.1430 
 15 C       -7.2180     1.9690     0.8290 C.3   1 <1>  -0.1600 
 16 C       -6.4850     1.5320    -1.3850 C.3   1 <1>  -0.1600 
 17 C        2.7150     4.4850     0.1820 C.ar  1 <1>  -0.1500 
 18 C        1.5230     6.5170    -0.2170 C.ar  1 <1>  -0.1500 
 19 C       -7.7630     1.8440    -0.5980 C.3   1 <1>   0.4230 
 20 C        3.7190     4.9040    -0.6750 C.ar  1 <1>  -0.1500 
 21 C        2.5260     6.9370    -1.0740 C.ar  1 <1>  -0.1500 
 22 N       -8.3770     3.1330    -1.0560 N.4   1 <1>  -0.9590 
 23 C        3.6290     6.1320    -1.3080 C.ar  1 <1>  -0.1430 
 24 C       -9.5540     3.5430    -0.2210 C.3   1 <1>   0.2630 
 25 C       -8.8140     3.0880    -2.4890 C.3   1 <1>   0.2630 
 26 C        4.7300     6.5930    -2.2470 C.3   1 <1>  -0.0970 
 27 H       -0.3660     3.0210     3.0360 H     1 <1>   0.0800 
 28 H       -1.7500     3.5850     2.1830 H     1 <1>   0.0800 
 29 H       -3.0800     3.0290     0.7070 H     1 <1>   0.0800 
 30 H       -3.9090    -0.5280     1.3360 H     1 <1>   0.0800 
 31 H       -2.4340    -0.8730     2.1910 H     1 <1>   0.0800 
 32 H       -2.4220    -0.7980     0.4470 H     1 <1>   0.0800 
 33 H       -5.0310     1.2190     2.0690 H     1 <1>   0.0800 
 34 H       -4.6140     2.8690     2.4620 H     1 <1>   0.0800 
 35 H       -3.3290     1.9810    -1.3560 H     1 <1>   0.0800 
 36 H       -4.1460     0.5970    -0.6710 H     1 <1>   0.0800 
 37 H       -0.3080     5.5210     1.3510 H     1 <1>   0.0800 
 38 H        0.9210     4.8150     2.3650 H     1 <1>   0.0800 
 39 H        0.1970     3.6820    -1.0460 H     1 <1>   0.0800 
 40 H       -1.3880     4.0670    -0.4110 H     1 <1>   0.0800 
 41 H       -0.8520     2.3950    -0.5370 H     1 <1>   0.0800 
 42 H       -5.9770     3.7360     0.8020 H     1 <1>   0.0800 
 43 H       -5.2420     3.2970    -1.2570 H     1 <1>   0.0800 
 44 H       -7.8680     2.4670     1.5230 H     1 <1>   0.0800 
 45 H       -7.0690     0.9680     1.1970 H     1 <1>   0.0800 
 46 H       -6.2790     0.4860    -1.2440 H     1 <1>   0.0800 
 47 H       -6.5510     1.7010    -2.4430 H     1 <1>   0.0800 
 48 H        2.7860     3.5260     0.6660 H     1 <1>   0.1500 
 49 H        0.6750     7.1560    -0.0480 H     1 <1>   0.1500 
 50 H       -8.4790     1.0410    -0.6760 H     1 <1>   0.0800 
 51 H        4.5670     4.2660    -0.8440 H     1 <1>   0.1500 
 52 H        2.4450     7.8940    -1.5570 H     1 <1>   0.1500 
 53 H       -7.6450     3.8510    -0.9610 H     1 <1>   0.4500 
 54 H      -10.3040     2.7690    -0.2260 H     1 <1>   0.0800 
 55 H       -9.9910     4.4480    -0.6110 H     1 <1>   0.0800 
 56 H       -9.2560     3.7290     0.7970 H     1 <1>   0.0800 
 57 H       -9.5170     2.2850    -2.6420 H     1 <1>   0.0800 
 58 H       -7.9710     2.9380    -3.1430 H     1 <1>   0.0800 
 59 H       -9.2880     4.0170    -2.7640 H     1 <1>   0.0800 
 60 H        5.2040     5.7480    -2.7130 H     1 <1>   0.0800 
 61 H        5.4680     7.1460    -1.6950 H     1 <1>   0.0800 
 62 H        4.3260     7.2230    -3.0180 H     1 <1>   0.0800 
@<TRIPOS>BOND
  1   1   2  2   
  2   2   3  am  
  3   2   4  1   
  4   3   5  1   
  5   3   6  1   
  6   4   7  1   
  7   4  27  1   
  8   4  28  1   
  9   5   8  1   
 10   5   9  1   
 11   5  29  1   
 12   6  30  1   
 13   6  31  1   
 14   6  32  1   
 15   7  10  1   
 16   7  11  1   
 17   8  12  1   
 18   8  33  1   
 19   8  34  1   
 20   9  13  1   
 21   9  35  1   
 22   9  36  1   
 23  10  14  1   
 24  10  37  1   
 25  10  38  1   
 26  11  39  1   
 27  11  40  1   
 28  11  41  1   
 29  12  13  1   
 30  12  15  1   
 31  12  42  1   
 32  13  16  1   
 33  13  43  1   
 34  14  17  ar  
 35  14  18  ar  
 36  15  19  1   
 37  15  44  1   
 38  15  45  1   
 39  16  19  1   
 40  16  46  1   
 41  16  47  1   
 42  17  20  ar  
 43  17  48  1   
 44  18  21  ar  
 45  18  49  1   
 46  19  22  1   
 47  19  50  1   
 48  20  23  ar  
 49  20  51  1   
 50  21  23  ar  
 51  21  52  1   
 52  22  24  1   
 53  22  25  1   
 54  22  53  1   
 55  23  26  1   
 56  24  54  1   
 57  24  55  1   
 58  24  56  1   
 59  25  57  1   
 60  25  58  1   
 61  25  59  1   
 62  26  60  1   
 63  26  61  1   
 64  26  62  1   
@<TRIPOS>SUBSTRUCTURE
  1 ****  11 GROUP 4 **** **** 0

# MOE 2024.06 (io_trps.svl 2023.06)
