@<TRIPOS>MOLECULE
NONAME
43 46 1 0 0 
SMALL
USER_CHARGES


@<TRIPOS>ATOM
  1 O        0.0930    -0.3760     0.1840 O.3   1 <1>  -0.6800 
  2 C        1.3590    -0.3500    -0.3860 C.3   1 <1>   0.2000 
  3 C        2.2420    -1.4360     0.2160 C.3   1 <1>  -0.0800 
  4 C        2.0790     0.9570    -0.0650 C.3   1 <1>   0.2090 
  5 C        3.6610    -0.8820     0.0820 C.3   1 <1>   0.2090 
  6 C        2.0660    -2.8050    -0.4590 C.3   1 <1>   0.0210 
  7 N        3.5270     0.6040     0.0210 N.pl3 1 <1>  -0.8220 
  8 C        3.0150    -3.8260     0.1340 C.2   1 <1>   0.1080 
  9 C        4.4460     1.3560    -0.7380 C.2   1 <1>   0.2700 
 10 N        2.8870    -4.2770     1.3420 N.2   1 <1>  -0.7070 
 11 C        4.1080    -4.3810    -0.5230 C.2   1 <1>  -0.1500 
 12 N        5.2710     0.8450    -1.5850 N.2   1 <1>  -0.3380 
 13 N        4.6070     2.6970    -0.7190 N.pl3 1 <1>   0.5930 
 14 N        3.9060    -5.1450     1.4910 N.pl3 1 <1>   0.3000 
 15 C        4.6610    -5.2230     0.3750 C.2   1 <1>  -0.3320 
 16 N        5.9370     1.8660    -2.1140 N.2   1 <1>   0.0000 
 17 N        5.5520     2.9790    -1.6170 N.2   1 <1>  -0.4180 
 18 C        3.9410     3.6860     0.0620 C.ar  1 <1>  -0.0230 
 19 C        5.8830    -6.1120     0.2320 C.3   1 <1>  -0.0600 
 20 C        3.7000     3.4860     1.4190 C.ar  1 <1>  -0.1500 
 21 C        3.5170     4.8790    -0.5180 C.ar  1 <1>  -0.1500 
 22 C        3.0430     4.4430     2.1720 C.ar  1 <1>  -0.1500 
 23 C        2.8610     5.8380     0.2340 C.ar  1 <1>  -0.1500 
 24 C        2.6220     5.6200     1.5790 C.ar  1 <1>  -0.1500 
 25 H       -0.2850    -1.2760     0.1440 H     1 <1>   0.4000 
 26 H        1.2650    -0.4620    -1.4520 H     1 <1>   0.0800 
 27 H        2.0330    -1.5240     1.2690 H     1 <1>   0.0800 
 28 H        1.7530     1.3350     0.8890 H     1 <1>   0.0800 
 29 H        1.8960     1.6890    -0.8330 H     1 <1>   0.0800 
 30 H        4.1200    -1.2510    -0.8200 H     1 <1>   0.0800 
 31 H        4.2660    -1.1720     0.9240 H     1 <1>   0.0800 
 32 H        2.2460    -2.7250    -1.5160 H     1 <1>   0.0800 
 33 H        1.0610    -3.1560    -0.3150 H     1 <1>   0.0800 
 34 H        4.4240    -4.1660    -1.5280 H     1 <1>   0.1500 
 35 H        4.0570    -5.6670     2.3630 H     1 <1>   0.2700 
 36 H        6.3130    -5.9960    -0.7470 H     1 <1>   0.0800 
 37 H        5.6110    -7.1440     0.3660 H     1 <1>   0.0800 
 38 H        6.6250    -5.8460     0.9650 H     1 <1>   0.0800 
 39 H        4.0240     2.5730     1.8920 H     1 <1>   0.1500 
 40 H        3.7010     5.0620    -1.5640 H     1 <1>   0.1500 
 41 H        2.8610     4.2730     3.2190 H     1 <1>   0.1500 
 42 H        2.5370     6.7560    -0.2270 H     1 <1>   0.1500 
 43 H        2.1110     6.3660     2.1640 H     1 <1>   0.1500 
@<TRIPOS>BOND
  1   1   2  1   
  2   1  25  1   
  3   2   3  1   
  4   2   4  1   
  5   2  26  1   
  6   3   5  1   
  7   3   6  1   
  8   3  27  1   
  9   4   7  1   
 10   4  28  1   
 11   4  29  1   
 12   5   7  1   
 13   5  30  1   
 14   5  31  1   
 15   6   8  1   
 16   6  32  1   
 17   6  33  1   
 18   7   9  1   
 19   8  10  2   
 20   8  11  1   
 21   9  12  2   
 22   9  13  1   
 23  10  14  1   
 24  11  15  2   
 25  11  34  1   
 26  12  16  1   
 27  13  17  1   
 28  13  18  1   
 29  14  15  1   
 30  14  35  1   
 31  15  19  1   
 32  16  17  2   
 33  18  20  ar  
 34  18  21  ar  
 35  19  36  1   
 36  19  37  1   
 37  19  38  1   
 38  20  22  ar  
 39  20  39  1   
 40  21  23  ar  
 41  21  40  1   
 42  22  24  ar  
 43  22  41  1   
 44  23  24  ar  
 45  23  42  1   
 46  24  43  1   
@<TRIPOS>SUBSTRUCTURE
  1 ****   7 GROUP 4 **** **** 0

# MOE 2024.06 (io_trps.svl 2023.06)
