@<TRIPOS>MOLECULE
NONAME
58 62 1 0 0 
SMALL
USER_CHARGES


@<TRIPOS>ATOM
  1 O       -0.0370     1.1560    -1.7260 O.2   1 <1>  -0.5700 
  2 C       -0.6370     1.8960    -0.9800 C.2   1 <1>   0.5770 
  3 N       -2.0170     1.9420    -1.0060 N.am  1 <1>  -0.6600 
  4 C        0.1950     2.7090     0.0240 C.3   1 <1>   0.0530 
  5 C       -2.8880     2.6960    -0.0440 C.3   1 <1>   0.1400 
  6 C       -2.7860     1.0360    -1.9150 C.3   1 <1>   0.1400 
  7 C        1.6800     2.9330    -0.4170 C.3   1 <1>   0.0000 
  8 C        0.0170     4.2570    -0.0850 C.3   1 <1>   0.0000 
  9 C        0.0800     2.0720     1.4280 C.3   1 <1>   0.1200 
 10 C       -3.9940     3.4950    -0.7620 C.3   1 <1>   0.1440 
 11 C       -3.8930     1.8030    -2.6480 C.3   1 <1>  -0.1600 
 12 C        1.5550     4.4150     0.0150 C.3   1 <1>   0.0000 
 13 O        0.5540     2.9200     2.4280 O.3   1 <1>  -0.5600 
 14 C       -4.8410     4.1740     0.2980 C.ar  1 <1>   0.1670 
 15 C       -4.8100     2.5540    -1.6700 C.3   1 <1>  -0.1600 
 16 C       -3.4270     4.7050    -1.5510 C.3   1 <1>  -0.1600 
 17 C        0.5220     2.3660     3.7030 C.3   1 <1>   0.0400 
 18 N       -5.7090     3.5750     1.0770 N.ar  1 <1>  -0.6200 
 19 C       -4.5760     5.5070     0.3710 C.ar  1 <1>  -0.1440 
 20 C       -3.5220     5.9270    -0.6220 C.3   1 <1>  -0.0170 
 21 C       -6.3470     4.3610     1.9550 C.ar  1 <1>   0.6200 
 22 C       -5.2660     6.2430     1.2980 C.ar  1 <1>   0.1600 
 23 N       -6.1510     5.6810     2.0900 N.ar  1 <1>  -0.6200 
 24 C       -7.3270     3.7310     2.8320 C.ar  1 <1>   0.0000 
 25 C       -8.3970     4.4510     3.3730 C.ar  1 <1>  -0.1500 
 26 C       -7.2450     2.3770     3.1740 C.ar  1 <1>  -0.1500 
 27 C       -9.3290     3.8580     4.2060 C.ar  1 <1>  -0.1500 
 28 C       -8.1730     1.7770     4.0050 C.ar  1 <1>  -0.1500 
 29 C       -9.2190     2.5170     4.5250 C.ar  1 <1>  -0.1500 
 30 H       -2.3160     3.3640     0.5690 H     1 <1>   0.0800 
 31 H       -3.3570     1.9840     0.6150 H     1 <1>   0.0800 
 32 H       -3.2220     0.2470    -1.3270 H     1 <1>   0.0800 
 33 H       -2.1360     0.5810    -2.6430 H     1 <1>   0.0800 
 34 H        1.8380     2.8550    -1.4790 H     1 <1>   0.0000 
 35 H        2.4040     2.3800     0.1560 H     1 <1>   0.0000 
 36 H       -0.5110     4.7140     0.7330 H     1 <1>   0.0000 
 37 H       -0.3400     4.5700    -1.0490 H     1 <1>   0.0000 
 38 H        0.6480     1.1580     1.4520 H     1 <1>   0.0800 
 39 H       -0.9470     1.8450     1.6530 H     1 <1>   0.0800 
 40 H       -4.4780     1.1070    -3.2230 H     1 <1>   0.0800 
 41 H       -3.4400     2.4910    -3.3400 H     1 <1>   0.0800 
 42 H        1.9620     5.1060    -0.7020 H     1 <1>   0.0000 
 43 H        1.9010     4.5930     1.0170 H     1 <1>   0.0000 
 44 H       -5.5560     3.1110    -2.2090 H     1 <1>   0.0800 
 45 H       -5.3270     1.8360    -1.0560 H     1 <1>   0.0800 
 46 H       -4.0540     4.8950    -2.4050 H     1 <1>   0.0800 
 47 H       -2.4290     4.5370    -1.9080 H     1 <1>   0.0800 
 48 H        0.9050     3.0970     4.3940 H     1 <1>   0.0800 
 49 H        1.1430     1.4870     3.7250 H     1 <1>   0.0800 
 50 H       -0.4940     2.1220     3.9600 H     1 <1>   0.0800 
 51 H       -3.8090     6.8130    -1.1610 H     1 <1>   0.0800 
 52 H       -2.5880     6.0940    -0.1130 H     1 <1>   0.0800 
 53 H       -5.0920     7.3010     1.3950 H     1 <1>   0.1500 
 54 H       -8.5020     5.4950     3.1370 H     1 <1>   0.1500 
 55 H       -6.4390     1.7830     2.7810 H     1 <1>   0.1500 
 56 H      -10.1400     4.4400     4.6070 H     1 <1>   0.1500 
 57 H       -8.0810     0.7330     4.2490 H     1 <1>   0.1500 
 58 H       -9.9420     2.0530     5.1730 H     1 <1>   0.1500 
@<TRIPOS>BOND
  1   1   2  2   
  2   2   3  am  
  3   2   4  1   
  4   3   5  1   
  5   3   6  1   
  6   4   7  1   
  7   4   8  1   
  8   4   9  1   
  9   5  10  1   
 10   5  30  1   
 11   5  31  1   
 12   6  11  1   
 13   6  32  1   
 14   6  33  1   
 15   7  12  1   
 16   7  34  1   
 17   7  35  1   
 18   8  12  1   
 19   8  36  1   
 20   8  37  1   
 21   9  13  1   
 22   9  38  1   
 23   9  39  1   
 24  10  14  1   
 25  10  15  1   
 26  10  16  1   
 27  11  15  1   
 28  11  40  1   
 29  11  41  1   
 30  12  42  1   
 31  12  43  1   
 32  13  17  1   
 33  14  18  ar  
 34  14  19  ar  
 35  15  44  1   
 36  15  45  1   
 37  16  20  1   
 38  16  46  1   
 39  16  47  1   
 40  17  48  1   
 41  17  49  1   
 42  17  50  1   
 43  18  21  ar  
 44  19  20  1   
 45  19  22  ar  
 46  20  51  1   
 47  20  52  1   
 48  21  23  ar  
 49  21  24  1   
 50  22  23  ar  
 51  22  53  1   
 52  24  25  ar  
 53  24  26  ar  
 54  25  27  ar  
 55  25  54  1   
 56  26  28  ar  
 57  26  55  1   
 58  27  29  ar  
 59  27  56  1   
 60  28  29  ar  
 61  28  57  1   
 62  29  58  1   
@<TRIPOS>SUBSTRUCTURE
  1 ****   5 GROUP 4 **** **** 0

# MOE 2024.06 (io_trps.svl 2023.06)
