@<TRIPOS>MOLECULE
NONAME
46 48 1 0 0 
SMALL
USER_CHARGES


@<TRIPOS>ATOM
  1 O        1.1730    -1.5450     1.1180 O.co2 1 <1>  -0.9000 
  2 C        2.0160    -1.4480     0.2020 C.2   1 <1>   0.9790 
  3 O        2.0230    -2.3620    -0.6520 O.co2 1 <1>  -0.9000 
  4 C        2.9810    -0.3430     0.1040 C.ar  1 <1>   0.1310 
  5 N        2.9500     0.7490     0.9050 N.ar  1 <1>  -0.6200 
  6 C        3.9720    -0.4550    -0.8760 C.ar  1 <1>   0.1600 
  7 C        3.9070     1.6140     0.6580 C.ar  1 <1>   0.1600 
  8 N        4.9380     0.4170    -1.1200 N.ar  1 <1>  -0.6200 
  9 C        4.9080     1.4760    -0.3220 C.ar  1 <1>   0.4100 
 10 N        5.9130     2.4230    -0.5240 N.pl3 1 <1>  -0.8380 
 11 C        6.1840     3.5480     0.4030 C.3   1 <1>   0.4330 
 12 C        7.1240     2.1050    -1.3240 C.3   1 <1>   0.2090 
 13 C        5.1300     4.6580     0.3330 C.ar  1 <1>  -0.1430 
 14 C        7.5560     4.0750    -0.0140 C.3   1 <1>  -0.1600 
 15 C        8.2520     2.8860    -0.6660 C.3   1 <1>  -0.1600 
 16 C        4.9290     5.4800     1.4320 C.ar  1 <1>  -0.1500 
 17 C        4.3650     4.8670    -0.8060 C.ar  1 <1>  -0.1500 
 18 C        3.9870     6.4930     1.3930 C.ar  1 <1>  -0.1500 
 19 C        3.4200     5.8770    -0.8480 C.ar  1 <1>  -0.1500 
 20 C        3.2300     6.7030     0.2500 C.ar  1 <1>  -0.1430 
 21 C        2.2050     7.8180     0.1980 C.3   1 <1>   0.4860 
 22 N        2.7440     8.9220    -0.6500 N.4   1 <1>  -0.9590 
 23 C        3.9490     9.5550    -0.0280 C.3   1 <1>   0.2630 
 24 C        1.6950     9.9370    -0.9660 C.3   1 <1>   0.2630 
 25 H        3.9580    -1.3330    -1.4990 H     1 <1>   0.1500 
 26 H        3.9110     2.4960     1.2630 H     1 <1>   0.1500 
 27 H        6.2440     3.1530     1.4040 H     1 <1>   0.0800 
 28 H        6.9680     2.4370    -2.3370 H     1 <1>   0.0800 
 29 H        7.3400     1.0490    -1.3240 H     1 <1>   0.0800 
 30 H        8.1030     4.4630     0.8260 H     1 <1>   0.0800 
 31 H        7.4300     4.8580    -0.7410 H     1 <1>   0.0800 
 32 H        9.0000     3.1840    -1.3790 H     1 <1>   0.0800 
 33 H        8.7080     2.2670     0.0870 H     1 <1>   0.0800 
 34 H        5.5070     5.3300     2.3290 H     1 <1>   0.1500 
 35 H        4.5010     4.2310    -1.6660 H     1 <1>   0.1500 
 36 H        3.8530     7.1090     2.2670 H     1 <1>   0.1500 
 37 H        2.8380     5.9950    -1.7460 H     1 <1>   0.1500 
 38 H        1.9960     8.1760     1.1930 H     1 <1>   0.0800 
 39 H        1.2910     7.4360    -0.2270 H     1 <1>   0.0800 
 40 H        3.0540     8.4690    -1.5230 H     1 <1>   0.4500 
 41 H        3.6930    10.0080     0.9160 H     1 <1>   0.0800 
 42 H        4.3500    10.3160    -0.6790 H     1 <1>   0.0800 
 43 H        4.7150     8.8150     0.1400 H     1 <1>   0.0800 
 44 H        1.3500    10.4150    -0.0630 H     1 <1>   0.0800 
 45 H        0.8550     9.4710    -1.4540 H     1 <1>   0.0800 
 46 H        2.0940    10.6940    -1.6230 H     1 <1>   0.0800 
@<TRIPOS>BOND
  1   1   2  ar  
  2   2   3  ar  
  3   2   4  1   
  4   4   5  ar  
  5   4   6  ar  
  6   5   7  ar  
  7   6   8  ar  
  8   6  25  1   
  9   7   9  ar  
 10   7  26  1   
 11   8   9  ar  
 12   9  10  1   
 13  10  11  1   
 14  10  12  1   
 15  11  13  1   
 16  11  14  1   
 17  11  27  1   
 18  12  15  1   
 19  12  28  1   
 20  12  29  1   
 21  13  16  ar  
 22  13  17  ar  
 23  14  15  1   
 24  14  30  1   
 25  14  31  1   
 26  15  32  1   
 27  15  33  1   
 28  16  18  ar  
 29  16  34  1   
 30  17  19  ar  
 31  17  35  1   
 32  18  20  ar  
 33  18  36  1   
 34  19  20  ar  
 35  19  37  1   
 36  20  21  1   
 37  21  22  1   
 38  21  38  1   
 39  21  39  1   
 40  22  23  1   
 41  22  24  1   
 42  22  40  1   
 43  23  41  1   
 44  23  42  1   
 45  23  43  1   
 46  24  44  1   
 47  24  45  1   
 48  24  46  1   
@<TRIPOS>SUBSTRUCTURE
  1 ****  17 GROUP 4 **** **** 0

# MOE 2024.06 (io_trps.svl 2023.06)
