@<TRIPOS>MOLECULE
NONAME
60 64 1 0 0 
SMALL
USER_CHARGES


@<TRIPOS>ATOM
  1 O        0.1250    -0.6380    -2.3230 O.2   1 <1>  -0.5700 
  2 C       -0.6720     0.1980    -1.9610 C.2   1 <1>   0.5690 
  3 N       -1.8730    -0.1560    -1.4040 N.am  1 <1>  -0.6600 
  4 C       -0.2990     1.6770    -2.1510 C.3   1 <1>   0.1710 
  5 C       -2.8600     0.7870    -0.8220 C.3   1 <1>   0.1400 
  6 C       -2.2470    -1.5580    -1.1080 C.3   1 <1>   0.1400 
  7 N       -0.1340     2.4600    -0.8930 N.3   1 <1>  -0.8100 
  8 C       -3.9290    -0.1040    -0.1870 C.3   1 <1>   0.2000 
  9 C       -3.2570    -1.4570     0.0360 C.3   1 <1>  -0.0800 
 10 C        0.9730     1.9050    -0.0760 C.3   1 <1>   0.1100 
 11 C        0.1440     3.8820    -1.1930 C.3   1 <1>   0.1100 
 12 O       -4.3720     0.4120     1.0210 O.3   1 <1>  -0.6800 
 13 C       -4.2600    -2.6220     0.0870 C.3   1 <1>  -0.0170 
 14 C        1.1910     2.6870     1.2330 C.3   1 <1>   0.2090 
 15 C        0.3200     4.7250     0.0840 C.3   1 <1>   0.2090 
 16 C       -3.5540    -3.9450     0.3270 C.ar  1 <1>   0.1670 
 17 N        1.3800     4.1490     0.9690 N.pl3 1 <1>  -0.8380 
 18 N       -3.0810    -4.5660    -0.7100 N.ar  1 <1>  -0.6200 
 19 C       -3.4360    -4.4240     1.6410 C.ar  1 <1>  -0.1500 
 20 C        2.3570     4.9110     1.5800 C.ar  1 <1>   0.7200 
 21 C       -2.4300    -5.7390    -0.5020 C.ar  1 <1>   0.3100 
 22 C       -2.7930    -5.6010     1.8780 C.ar  1 <1>  -0.1500 
 23 N        2.3860     6.2120     1.2890 N.ar  1 <1>  -0.6200 
 24 N        3.1890     4.2840     2.4120 N.ar  1 <1>  -0.6200 
 25 C       -2.2610    -6.3000     0.7820 C.ar  1 <1>   0.0000 
 26 C       -1.8980    -6.4240    -1.6060 C.ar  1 <1>  -0.1500 
 27 C        3.3160     6.9230     1.8770 C.ar  1 <1>   0.1600 
 28 C        4.1090     5.0190     2.9860 C.ar  1 <1>   0.1600 
 29 C       -1.5700    -7.5220     0.9100 C.ar  1 <1>  -0.1500 
 30 C       -1.2290    -7.6110    -1.4610 C.ar  1 <1>  -0.1500 
 31 C        4.2180     6.3670     2.7490 C.ar  1 <1>  -0.1500 
 32 C       -1.0650    -8.1650    -0.1870 C.ar  1 <1>  -0.1500 
 33 H       -1.0710     2.1300    -2.7460 H     1 <1>   0.0800 
 34 H        0.6150     1.7190    -2.7180 H     1 <1>   0.0800 
 35 H       -2.3760     1.3950    -0.0770 H     1 <1>   0.0800 
 36 H       -3.2840     1.4080    -1.5900 H     1 <1>   0.0800 
 37 H       -2.6980    -1.9940    -1.9840 H     1 <1>   0.0800 
 38 H       -1.3860    -2.1420    -0.8270 H     1 <1>   0.0800 
 39 H       -4.7730    -0.1910    -0.8500 H     1 <1>   0.0800 
 40 H       -2.6940    -1.4310     0.9530 H     1 <1>   0.0800 
 41 H        0.7590     0.8800     0.1740 H     1 <1>   0.0800 
 42 H        1.8890     1.9220    -0.6410 H     1 <1>   0.0800 
 43 H        1.0420     3.9640    -1.7810 H     1 <1>   0.0800 
 44 H       -0.6700     4.2910    -1.7640 H     1 <1>   0.0800 
 45 H       -3.6150     0.5530     1.6230 H     1 <1>   0.4000 
 46 H       -4.8040    -2.6790    -0.8400 H     1 <1>   0.0800 
 47 H       -4.9750    -2.4460     0.8710 H     1 <1>   0.0800 
 48 H        2.0410     2.2670     1.7390 H     1 <1>   0.0800 
 49 H        0.3330     2.5560     1.8680 H     1 <1>   0.0800 
 50 H       -0.6110     4.7480     0.6230 H     1 <1>   0.0800 
 51 H        0.5550     5.7330    -0.2050 H     1 <1>   0.0800 
 52 H       -3.8560    -3.8540     2.4490 H     1 <1>   0.1500 
 53 H       -2.6830    -6.0010     2.8700 H     1 <1>   0.1500 
 54 H       -2.0340    -5.9800    -2.5750 H     1 <1>   0.1500 
 55 H        3.3600     7.9760     1.6580 H     1 <1>   0.1500 
 56 H        4.7920     4.5350     3.6620 H     1 <1>   0.1500 
 57 H       -1.4460    -7.9420     1.8920 H     1 <1>   0.1500 
 58 H       -0.8260    -8.1250    -2.3160 H     1 <1>   0.1500 
 59 H        4.9760     6.9590     3.2250 H     1 <1>   0.1500 
 60 H       -0.5370    -9.0980    -0.0870 H     1 <1>   0.1500 
@<TRIPOS>BOND
  1   1   2  2   
  2   2   3  am  
  3   2   4  1   
  4   3   5  1   
  5   3   6  1   
  6   4   7  1   
  7   4  33  1   
  8   4  34  1   
  9   5   8  1   
 10   5  35  1   
 11   5  36  1   
 12   6   9  1   
 13   6  37  1   
 14   6  38  1   
 15   7  10  1   
 16   7  11  1   
 17   8   9  1   
 18   8  12  1   
 19   8  39  1   
 20   9  13  1   
 21   9  40  1   
 22  10  14  1   
 23  10  41  1   
 24  10  42  1   
 25  11  15  1   
 26  11  43  1   
 27  11  44  1   
 28  12  45  1   
 29  13  16  1   
 30  13  46  1   
 31  13  47  1   
 32  14  17  1   
 33  14  48  1   
 34  14  49  1   
 35  15  17  1   
 36  15  50  1   
 37  15  51  1   
 38  16  18  ar  
 39  16  19  ar  
 40  17  20  1   
 41  18  21  ar  
 42  19  22  ar  
 43  19  52  1   
 44  20  23  ar  
 45  20  24  ar  
 46  21  25  ar  
 47  21  26  ar  
 48  22  25  ar  
 49  22  53  1   
 50  23  27  ar  
 51  24  28  ar  
 52  25  29  ar  
 53  26  30  ar  
 54  26  54  1   
 55  27  31  ar  
 56  27  55  1   
 57  28  31  ar  
 58  28  56  1   
 59  29  32  ar  
 60  29  57  1   
 61  30  32  ar  
 62  30  58  1   
 63  31  59  1   
 64  32  60  1   
@<TRIPOS>SUBSTRUCTURE
  1 ****   3 GROUP 4 **** **** 0

# MOE 2024.06 (io_trps.svl 2023.06)
