@<TRIPOS>MOLECULE
NONAME
50 52 1 0 0 
SMALL
USER_CHARGES


@<TRIPOS>ATOM
  1 O       -1.1470     6.8130     0.9800 O.co2 1 <1>  -0.9000 
  2 C       -1.2420     5.5950     0.7330 C.2   1 <1>   1.0330 
  3 O       -2.2930     5.0010     1.0280 O.co2 1 <1>  -0.9000 
  4 C       -0.1310     4.8610     0.1330 C.2   1 <1>  -0.0060 
  5 N        1.0390     5.4010    -0.3430 N.2   1 <1>  -0.5650 
  6 C       -0.0500     3.5290    -0.0390 C.2   1 <1>  -0.0100 
  7 C        1.7260     4.3870    -0.7230 C.2   1 <1>   0.5620 
  8 O        1.1090     3.2340    -0.5720 O.3   1 <1>  -0.2800 
  9 N        3.0150     4.4480    -1.2240 N.pl3 1 <1>  -0.8220 
 10 C        3.6260     5.7510    -1.6740 C.3   1 <1>   0.2090 
 11 C        3.6500     3.2050    -1.7480 C.3   1 <1>   0.1290 
 12 C        3.9850     6.8000    -0.5540 C.3   1 <1>   0.5030 
 13 N        2.7650     7.5900    -0.1230 N.4   1 <1>  -0.9590 
 14 C        5.0240     7.8050    -1.1270 C.3   1 <1>  -0.1600 
 15 C        4.6000     6.0320     0.6550 C.3   1 <1>  -0.1600 
 16 C        2.1650     8.4340    -1.2040 C.3   1 <1>   0.3430 
 17 C        2.8810     8.3330     1.1680 C.3   1 <1>   0.3430 
 18 C        6.4750     7.3050    -1.0170 C.3   1 <1>  -0.1600 
 19 C        5.7290     6.7760     1.3930 C.3   1 <1>  -0.1600 
 20 C        0.8150     9.0110    -0.7850 C.3   1 <1>  -0.1600 
 21 C        1.5330     8.8980     1.6080 C.3   1 <1>  -0.1600 
 22 C        6.8980     7.1000     0.4480 C.3   1 <1>  -0.1600 
 23 C        0.9010     9.7840     0.5330 C.3   1 <1>  -0.1600 
 24 H       -0.7590     2.7560     0.1990 H     1 <1>   0.1500 
 25 H        2.9810     6.1930    -2.4090 H     1 <1>   0.0800 
 26 H        4.5390     5.5090    -2.1890 H     1 <1>   0.0800 
 27 H        3.3020     2.3430    -1.2040 H     1 <1>   0.0800 
 28 H        4.7190     3.2590    -1.6400 H     1 <1>   0.0800 
 29 H        3.4030     3.0800    -2.7890 H     1 <1>   0.0800 
 30 H        2.0360     6.8640     0.0540 H     1 <1>   0.4500 
 31 H        4.9740     8.7370    -0.5950 H     1 <1>   0.0800 
 32 H        4.8080     8.0100    -2.1610 H     1 <1>   0.0800 
 33 H        5.0460     5.1210     0.2940 H     1 <1>   0.0800 
 34 H        3.8250     5.7240     1.3350 H     1 <1>   0.0800 
 35 H        2.0130     7.8440    -2.0920 H     1 <1>   0.0800 
 36 H        2.8330     9.2440    -1.4420 H     1 <1>   0.0800 
 37 H        3.5870     9.1380     1.0600 H     1 <1>   0.0800 
 38 H        3.2330     7.6720     1.9410 H     1 <1>   0.0800 
 39 H        7.1430     8.0110    -1.4820 H     1 <1>   0.0800 
 40 H        6.5790     6.3740    -1.5470 H     1 <1>   0.0800 
 41 H        6.0890     6.1690     2.2070 H     1 <1>   0.0800 
 42 H        5.3640     7.6900     1.8210 H     1 <1>   0.0800 
 43 H        0.1070     8.2070    -0.6880 H     1 <1>   0.0800 
 44 H        0.4490     9.6610    -1.5580 H     1 <1>   0.0800 
 45 H        1.6620     9.4660     2.5110 H     1 <1>   0.0800 
 46 H        0.8700     8.0810     1.8390 H     1 <1>   0.0800 
 47 H        7.3920     7.9870     0.8080 H     1 <1>   0.0800 
 48 H        7.6210     6.3020     0.4860 H     1 <1>   0.0800 
 49 H       -0.0910    10.0700     0.8440 H     1 <1>   0.0800 
 50 H        1.4860    10.6780     0.4000 H     1 <1>   0.0800 
@<TRIPOS>BOND
  1   1   2  ar  
  2   2   3  ar  
  3   2   4  1   
  4   4   5  1   
  5   4   6  2   
  6   5   7  2   
  7   6   8  1   
  8   6  24  1   
  9   7   8  1   
 10   7   9  1   
 11   9  10  1   
 12   9  11  1   
 13  10  12  1   
 14  10  25  1   
 15  10  26  1   
 16  11  27  1   
 17  11  28  1   
 18  11  29  1   
 19  12  13  1   
 20  12  14  1   
 21  12  15  1   
 22  13  16  1   
 23  13  17  1   
 24  13  30  1   
 25  14  18  1   
 26  14  31  1   
 27  14  32  1   
 28  15  19  1   
 29  15  33  1   
 30  15  34  1   
 31  16  20  1   
 32  16  35  1   
 33  16  36  1   
 34  17  21  1   
 35  17  37  1   
 36  17  38  1   
 37  18  22  1   
 38  18  39  1   
 39  18  40  1   
 40  19  22  1   
 41  19  41  1   
 42  19  42  1   
 43  20  23  1   
 44  20  43  1   
 45  20  44  1   
 46  21  23  1   
 47  21  45  1   
 48  21  46  1   
 49  22  47  1   
 50  22  48  1   
 51  23  49  1   
 52  23  50  1   
@<TRIPOS>SUBSTRUCTURE
  1 ****  13 GROUP 4 **** **** 0

# MOE 2024.06 (io_trps.svl 2023.06)
