@<TRIPOS>MOLECULE
NONAME
45 46 1 0 0 
SMALL
USER_CHARGES


@<TRIPOS>ATOM
  1 O        0.0460     0.0830     1.3740 O.2   1 <1>  -0.5700 
  2 C        0.8480     0.5320     0.5830 C.2   1 <1>   0.7800 
  3 O        0.9380     1.8400     0.3480 O.3   1 <1>  -0.4300 
  4 N        1.7200    -0.2200    -0.1400 N.am  1 <1>  -0.5470 
  5 C        0.1700     2.8700     0.9360 C.3   1 <1>   0.2800 
  6 C        1.9670    -1.5980    -0.2120 C.ar  1 <1>   0.1170 
  7 C       -1.3120     2.6950     0.5820 C.3   1 <1>  -0.2400 
  8 C        0.4100     2.9120     2.4490 C.3   1 <1>  -0.2400 
  9 C        0.6890     4.1640     0.3070 C.3   1 <1>  -0.2400 
 10 C        2.8040    -2.0650    -1.2160 C.ar  1 <1>  -0.1500 
 11 C        1.4290    -2.5280     0.6690 C.ar  1 <1>  -0.1500 
 12 C        3.0930    -3.4110    -1.3390 C.ar  1 <1>  -0.1500 
 13 C        1.7190    -3.8750     0.5450 C.ar  1 <1>  -0.1500 
 14 C        2.5590    -4.3460    -0.4590 C.ar  1 <1>  -0.1440 
 15 C        2.8700    -5.8610    -0.6000 C.3   1 <1>   0.0370 
 16 C        4.0410    -6.1230    -1.5970 C.2   1 <1>   0.9060 
 17 C        1.5660    -6.5510    -1.0840 C.3   1 <1>  -0.1600 
 18 C        3.2750    -6.4800     0.7730 C.3   1 <1>  -0.1600 
 19 O        5.2030    -5.8470    -1.2620 O.co2 1 <1>  -0.9000 
 20 O        3.8140    -6.5940    -2.7230 O.co2 1 <1>  -0.9000 
 21 C        1.6260    -8.0510    -0.7850 C.3   1 <1>   0.1200 
 22 C        2.1590    -7.2950     1.4440 C.3   1 <1>   0.1200 
 23 O        1.6630    -8.2990     0.5990 O.3   1 <1>  -0.5600 
 24 H        2.2820     0.3510    -0.7620 H     1 <1>   0.3700 
 25 H       -1.7280     1.8310     1.0660 H     1 <1>   0.0800 
 26 H       -1.4350     2.5990    -0.4810 H     1 <1>   0.0800 
 27 H       -1.8700     3.5510     0.9130 H     1 <1>   0.0800 
 28 H       -0.0070     2.0490     2.9340 H     1 <1>   0.0800 
 29 H       -0.0650     3.7800     2.8710 H     1 <1>   0.0800 
 30 H        1.4620     2.9630     2.6610 H     1 <1>   0.0800 
 31 H        0.5510     4.1420    -0.7590 H     1 <1>   0.0800 
 32 H        1.7340     4.2910     0.5240 H     1 <1>   0.0800 
 33 H        0.1560     5.0100     0.7000 H     1 <1>   0.0800 
 34 H        3.2400    -1.3790    -1.9160 H     1 <1>   0.1500 
 35 H        0.7800    -2.2110     1.4620 H     1 <1>   0.1500 
 36 H        3.7470    -3.7200    -2.1380 H     1 <1>   0.1500 
 37 H        1.2780    -4.5580     1.2430 H     1 <1>   0.1500 
 38 H        1.4380    -6.3940    -2.1400 H     1 <1>   0.0800 
 39 H        0.6990    -6.1390    -0.6020 H     1 <1>   0.0800 
 40 H        3.6230    -5.7080     1.4340 H     1 <1>   0.0800 
 41 H        4.1050    -7.1520     0.6360 H     1 <1>   0.0800 
 42 H        2.5110    -8.4810    -1.2240 H     1 <1>   0.0800 
 43 H        0.7640    -8.5540    -1.1850 H     1 <1>   0.0800 
 44 H        1.3330    -6.6650     1.7150 H     1 <1>   0.0800 
 45 H        2.5290    -7.7740     2.3330 H     1 <1>   0.0800 
@<TRIPOS>BOND
  1   1   2  2   
  2   2   3  1   
  3   2   4  am  
  4   3   5  1   
  5   4   6  1   
  6   4  24  1   
  7   5   7  1   
  8   5   8  1   
  9   5   9  1   
 10   6  10  ar  
 11   6  11  ar  
 12   7  25  1   
 13   7  26  1   
 14   7  27  1   
 15   8  28  1   
 16   8  29  1   
 17   8  30  1   
 18   9  31  1   
 19   9  32  1   
 20   9  33  1   
 21  10  12  ar  
 22  10  34  1   
 23  11  13  ar  
 24  11  35  1   
 25  12  14  ar  
 26  12  36  1   
 27  13  14  ar  
 28  13  37  1   
 29  14  15  1   
 30  15  16  1   
 31  15  17  1   
 32  15  18  1   
 33  16  19  ar  
 34  16  20  ar  
 35  17  21  1   
 36  17  38  1   
 37  17  39  1   
 38  18  22  1   
 39  18  40  1   
 40  18  41  1   
 41  21  23  1   
 42  21  42  1   
 43  21  43  1   
 44  22  23  1   
 45  22  44  1   
 46  22  45  1   
@<TRIPOS>SUBSTRUCTURE
  1 ****  11 GROUP 4 **** **** 0

# MOE 2024.06 (io_trps.svl 2023.06)
