@<TRIPOS>MOLECULE
NONAME
48 50 1 0 0 
SMALL
USER_CHARGES


@<TRIPOS>ATOM
  1 O       -0.7060     0.1250     0.7160 O.2   1 <1>  -0.5700 
  2 C       -1.7420     0.7500     0.5910 C.2   1 <1>   0.5440 
  3 N       -1.6760     2.1230     0.4720 N.am  1 <1>  -0.6600 
  4 C       -2.9950     0.0330     0.5590 C.ar  1 <1>   0.0860 
  5 C       -0.4350     2.8860     0.8120 C.3   1 <1>   0.1400 
  6 C       -2.6740     2.9420    -0.2820 C.3   1 <1>   0.1400 
  7 C       -3.1000    -1.1700    -0.1340 C.ar  1 <1>   0.1600 
  8 C       -4.1410     0.4800     1.2110 C.ar  1 <1>  -0.1500 
  9 C        0.1090     3.6160    -0.4260 C.3   1 <1>   0.1200 
 10 C       -1.9990     3.6830    -1.4500 C.3   1 <1>   0.1200 
 11 N       -4.1890    -1.9110    -0.2490 N.ar  1 <1>  -0.6200 
 12 C       -5.2820    -0.2800     1.1070 C.ar  1 <1>  -0.1500 
 13 O       -0.8890     4.4100    -1.0050 O.3   1 <1>  -0.5600 
 14 C       -5.2720    -1.4610     0.3720 C.ar  1 <1>   0.4100 
 15 N       -6.4110    -2.2100     0.2770 N.pl3 1 <1>  -0.8690 
 16 C       -6.4160    -3.5730    -0.3070 C.3   1 <1>   0.3890 
 17 C       -7.8400    -4.0960    -0.4110 C.2   1 <1>  -0.0400 
 18 O       -8.0260    -5.3830    -0.6030 O.3   1 <1>  -0.2800 
 19 C       -9.0320    -3.4620    -0.3490 C.2   1 <1>  -0.1500 
 20 C       -9.3310    -5.6370    -0.6680 C.2   1 <1>   0.0550 
 21 C       -9.9960    -4.4560    -0.5160 C.2   1 <1>  -0.1500 
 22 C       -9.8200    -6.9850    -0.8790 C.2   1 <1>   0.7150 
 23 O       -9.1970    -7.7600    -1.5850 O.2   1 <1>  -0.5700 
 24 N      -11.0020    -7.4310    -0.3040 N.am  1 <1>  -0.6600 
 25 C      -11.6500    -8.6980    -0.7460 C.3   1 <1>   0.0600 
 26 C      -11.6000    -6.8250     0.9170 C.3   1 <1>   0.0600 
 27 H        0.3240     2.2280     1.2000 H     1 <1>   0.0800 
 28 H       -0.6630     3.6080     1.5750 H     1 <1>   0.0800 
 29 H       -3.1170     3.6620     0.3830 H     1 <1>   0.0800 
 30 H       -3.4580     2.3200    -0.6750 H     1 <1>   0.0800 
 31 H       -2.2130    -1.5360    -0.6250 H     1 <1>   0.1500 
 32 H       -4.1230     1.3910     1.7820 H     1 <1>   0.1500 
 33 H        0.4590     2.9070    -1.1570 H     1 <1>   0.0800 
 34 H        0.9240     4.2600    -0.1500 H     1 <1>   0.0800 
 35 H       -2.6880     4.3780    -1.8970 H     1 <1>   0.0800 
 36 H       -1.6740     2.9860    -2.2030 H     1 <1>   0.0800 
 37 H       -6.1900     0.0270     1.5900 H     1 <1>   0.1500 
 38 H       -7.1130    -2.0920     1.0050 H     1 <1>   0.4000 
 39 H       -5.8390    -4.2280     0.3220 H     1 <1>   0.0800 
 40 H       -5.9670    -3.5580    -1.2860 H     1 <1>   0.0800 
 41 H       -9.2260    -2.4130    -0.2120 H     1 <1>   0.1500 
 42 H      -11.0590    -4.2940    -0.5310 H     1 <1>   0.1500 
 43 H      -11.3130    -8.9720    -1.7310 H     1 <1>   0.0800 
 44 H      -12.7180    -8.5750    -0.7740 H     1 <1>   0.0800 
 45 H      -11.3990    -9.4900    -0.0620 H     1 <1>   0.0800 
 46 H      -10.8940    -6.1770     1.4070 H     1 <1>   0.0800 
 47 H      -11.8800    -7.6000     1.6090 H     1 <1>   0.0800 
 48 H      -12.4760    -6.2590     0.6500 H     1 <1>   0.0800 
@<TRIPOS>BOND
  1   1   2  2   
  2   2   3  am  
  3   2   4  1   
  4   3   5  1   
  5   3   6  1   
  6   4   7  ar  
  7   4   8  ar  
  8   5   9  1   
  9   5  27  1   
 10   5  28  1   
 11   6  10  1   
 12   6  29  1   
 13   6  30  1   
 14   7  11  ar  
 15   7  31  1   
 16   8  12  ar  
 17   8  32  1   
 18   9  13  1   
 19   9  33  1   
 20   9  34  1   
 21  10  13  1   
 22  10  35  1   
 23  10  36  1   
 24  11  14  ar  
 25  12  14  ar  
 26  12  37  1   
 27  14  15  1   
 28  15  16  1   
 29  15  38  1   
 30  16  17  1   
 31  16  39  1   
 32  16  40  1   
 33  17  18  1   
 34  17  19  2   
 35  18  20  1   
 36  19  21  1   
 37  19  41  1   
 38  20  21  2   
 39  20  22  1   
 40  21  42  1   
 41  22  23  2   
 42  22  24  am  
 43  24  25  1   
 44  24  26  1   
 45  25  43  1   
 46  25  44  1   
 47  25  45  1   
 48  26  46  1   
 49  26  47  1   
 50  26  48  1   
@<TRIPOS>SUBSTRUCTURE
  1 ****  14 GROUP 4 **** **** 0

# MOE 2024.06 (io_trps.svl 2023.06)
