@<TRIPOS>MOLECULE
NONAME
51 54 1 0 0 
SMALL
USER_CHARGES


@<TRIPOS>ATOM
  1 O        0.6210    -1.0640     2.5720 O.2   1 <1>  -0.5700 
  2 C        1.0250    -1.4110     1.4760 C.2   1 <1>   0.5440 
  3 N        1.1260    -0.4760     0.4710 N.am  1 <1>  -0.6600 
  4 C        1.3970    -2.7940     1.2730 C.ar  1 <1>   0.0860 
  5 C        0.6070     0.9150     0.6030 C.3   1 <1>   0.1400 
  6 C        1.6130    -0.7560    -0.9070 C.3   1 <1>   0.1400 
  7 C        0.6870    -3.6520     0.4200 C.ar  1 <1>   0.0830 
  8 C        2.5100    -3.3150     1.9330 C.ar  1 <1>  -0.1500 
  9 C        1.6400     1.9530     0.1120 C.3   1 <1>   0.2800 
 10 C        2.6150     0.3210    -1.3520 C.3   1 <1>   0.1200 
 11 O       -0.4190    -3.2510    -0.2400 O.3   1 <1>  -0.3630 
 12 C        1.1140    -4.9530     0.2080 C.ar  1 <1>  -0.1500 
 13 C        2.9250    -4.6180     1.7320 C.ar  1 <1>  -0.1500 
 14 O        2.1080     1.6190    -1.1750 O.3   1 <1>  -0.5600 
 15 C        2.8230     2.1700     1.0630 C.3   1 <1>  -0.1600 
 16 C        1.0520     3.3580     0.0040 C.3   1 <1>  -0.1600 
 17 C       -1.5650    -2.8920     0.5140 C.3   1 <1>   0.2630 
 18 C        2.2290    -5.4390     0.8620 C.ar  1 <1>  -0.1500 
 19 C        3.4000     3.5390     0.6920 C.3   1 <1>  -0.1600 
 20 C        2.2490     4.3170     0.0410 C.3   1 <1>  -0.1600 
 21 C       -2.1080    -1.5540     0.0300 C.ar  1 <1>  -0.1430 
 22 C       -2.2630    -1.2940    -1.3230 C.ar  1 <1>  -0.1500 
 23 C       -2.4610    -0.5790     0.9510 C.ar  1 <1>  -0.1500 
 24 C       -2.7650    -0.0770    -1.7510 C.ar  1 <1>  -0.1500 
 25 C       -2.9690     0.6370     0.5260 C.ar  1 <1>  -0.1500 
 26 C       -3.1200     0.8890    -0.8260 C.ar  1 <1>  -0.1500 
 27 H        0.3380     1.1260     1.6230 H     1 <1>   0.0800 
 28 H       -0.2820     1.0070     0.0060 H     1 <1>   0.0800 
 29 H        0.7730    -0.7630    -1.5800 H     1 <1>   0.0800 
 30 H        2.0880    -1.7190    -0.9580 H     1 <1>   0.0800 
 31 H        3.0530    -2.6770     2.6100 H     1 <1>   0.1500 
 32 H        2.8370     0.2020    -2.3970 H     1 <1>   0.0800 
 33 H        3.5340     0.2280    -0.8030 H     1 <1>   0.0800 
 34 H        0.5640    -5.5840    -0.4690 H     1 <1>   0.1500 
 35 H        3.7900    -4.9950     2.2510 H     1 <1>   0.1500 
 36 H        3.5540     1.3850     1.0250 H     1 <1>   0.0800 
 37 H        2.4460     2.2190     2.0700 H     1 <1>   0.0800 
 38 H        0.4310     3.5480     0.8620 H     1 <1>   0.0800 
 39 H        0.4600     3.4740    -0.8870 H     1 <1>   0.0800 
 40 H       -1.3100    -2.8470     1.5580 H     1 <1>   0.0800 
 41 H       -2.3020    -3.6620     0.3710 H     1 <1>   0.0800 
 42 H        2.5550    -6.4530     0.6990 H     1 <1>   0.1500 
 43 H        4.1920     3.4100    -0.0260 H     1 <1>   0.0800 
 44 H        3.7880     4.0470     1.5580 H     1 <1>   0.0800 
 45 H        2.0110     5.2100     0.5930 H     1 <1>   0.0800 
 46 H        2.5250     4.5890    -0.9630 H     1 <1>   0.0800 
 47 H       -1.9890    -2.0410    -2.0480 H     1 <1>   0.1500 
 48 H       -2.3340    -0.7590     2.0060 H     1 <1>   0.1500 
 49 H       -2.8790     0.1170    -2.8030 H     1 <1>   0.1500 
 50 H       -3.2420     1.3860     1.2490 H     1 <1>   0.1500 
 51 H       -3.5130     1.8340    -1.1580 H     1 <1>   0.1500 
@<TRIPOS>BOND
  1   1   2  2   
  2   2   3  am  
  3   2   4  1   
  4   3   5  1   
  5   3   6  1   
  6   4   7  ar  
  7   4   8  ar  
  8   5   9  1   
  9   5  27  1   
 10   5  28  1   
 11   6  10  1   
 12   6  29  1   
 13   6  30  1   
 14   7  11  1   
 15   7  12  ar  
 16   8  13  ar  
 17   8  31  1   
 18   9  14  1   
 19   9  15  1   
 20   9  16  1   
 21  10  14  1   
 22  10  32  1   
 23  10  33  1   
 24  11  17  1   
 25  12  18  ar  
 26  12  34  1   
 27  13  18  ar  
 28  13  35  1   
 29  15  19  1   
 30  15  36  1   
 31  15  37  1   
 32  16  20  1   
 33  16  38  1   
 34  16  39  1   
 35  17  21  1   
 36  17  40  1   
 37  17  41  1   
 38  18  42  1   
 39  19  20  1   
 40  19  43  1   
 41  19  44  1   
 42  20  45  1   
 43  20  46  1   
 44  21  22  ar  
 45  21  23  ar  
 46  22  24  ar  
 47  22  47  1   
 48  23  25  ar  
 49  23  48  1   
 50  24  26  ar  
 51  24  49  1   
 52  25  26  ar  
 53  25  50  1   
 54  26  51  1   
@<TRIPOS>SUBSTRUCTURE
  1 ****   3 GROUP 4 **** **** 0

# MOE 2024.06 (io_trps.svl 2023.06)
