@<TRIPOS>MOLECULE
NONAME
35 37 1 0 0 
SMALL
USER_CHARGES


@<TRIPOS>ATOM
  1 O       -3.0500     1.1860    -1.8620 O.2   1 <1>  -0.5700 
  2 C       -2.4540     1.1580    -0.8020 C.2   1 <1>   0.7150 
  3 N       -2.2070    -0.0620    -0.2400 N.am  1 <1>  -0.7300 
  4 C       -2.0210     2.3590    -0.1340 C.2   1 <1>   0.0550 
  5 C       -2.6040    -1.3640    -0.8190 C.3   1 <1>   0.2200 
  6 O       -2.3040     3.5490    -0.6170 O.3   1 <1>  -0.0190 
  7 C       -1.3150     2.5770     1.0010 C.2   1 <1>  -0.1500 
  8 C       -3.8920    -1.8300    -0.1590 C.3   1 <1>  -0.0800 
  9 C       -1.6230    -2.4360    -0.3620 C.3   1 <1>   0.1200 
 10 N       -1.8400     4.5200     0.1120 N.2   1 <1>  -0.4100 
 11 C       -1.2360     3.9580     1.0970 C.2   1 <1>   0.1390 
 12 C       -3.3880    -2.5500     1.1000 C.3   1 <1>   0.1200 
 13 C       -4.6940    -2.7620    -1.0870 C.3   1 <1>  -0.0160 
 14 O       -2.0130    -2.7550     0.9370 O.3   1 <1>  -0.5600 
 15 C       -5.9950    -3.2080    -0.4380 C.ar  1 <1>  -0.1440 
 16 C       -7.0720    -2.3530    -0.3150 C.ar  1 <1>  -0.1500 
 17 C       -6.1710    -4.4840     0.0590 C.ar  1 <1>  -0.1500 
 18 C       -8.2370    -2.8000     0.2860 C.ar  1 <1>   0.1600 
 19 C       -7.3780    -4.8300     0.6440 C.ar  1 <1>   0.1600 
 20 N       -8.4150    -4.0180     0.7710 N.ar  1 <1>  -0.6200 
 21 H       -1.7960    -0.1290     0.6910 H     1 <1>   0.3700 
 22 H       -2.6690    -1.2980    -1.8930 H     1 <1>   0.0800 
 23 H       -0.8940     1.8700     1.6920 H     1 <1>   0.1500 
 24 H       -4.5160    -0.9930     0.1030 H     1 <1>   0.0800 
 25 H       -0.6020    -2.0970    -0.3640 H     1 <1>   0.0800 
 26 H       -1.7150    -3.3240    -0.9630 H     1 <1>   0.0800 
 27 H       -0.7400     4.5000     1.8840 H     1 <1>   0.1500 
 28 H       -3.8610    -3.5040     1.2540 H     1 <1>   0.0800 
 29 H       -3.5260    -1.9390     1.9750 H     1 <1>   0.0800 
 30 H       -4.1070    -3.6250    -1.3490 H     1 <1>   0.0800 
 31 H       -4.9280    -2.2410    -1.9990 H     1 <1>   0.0800 
 32 H       -7.0170    -1.3440    -0.6830 H     1 <1>   0.1500 
 33 H       -5.3840    -5.2130     0.0000 H     1 <1>   0.1500 
 34 H       -9.0660    -2.1190     0.3730 H     1 <1>   0.1500 
 35 H       -7.4970    -5.8290     1.0270 H     1 <1>   0.1500 
@<TRIPOS>BOND
  1   1   2  2   
  2   2   3  am  
  3   2   4  1   
  4   3   5  1   
  5   3  21  1   
  6   4   6  1   
  7   4   7  2   
  8   5   8  1   
  9   5   9  1   
 10   5  22  1   
 11   6  10  1   
 12   7  11  1   
 13   7  23  1   
 14   8  12  1   
 15   8  13  1   
 16   8  24  1   
 17   9  14  1   
 18   9  25  1   
 19   9  26  1   
 20  10  11  2   
 21  11  27  1   
 22  12  14  1   
 23  12  28  1   
 24  12  29  1   
 25  13  15  1   
 26  13  30  1   
 27  13  31  1   
 28  15  16  ar  
 29  15  17  ar  
 30  16  18  ar  
 31  16  32  1   
 32  17  19  ar  
 33  17  33  1   
 34  18  20  ar  
 35  18  34  1   
 36  19  20  ar  
 37  19  35  1   
@<TRIPOS>SUBSTRUCTURE
  1 ****   8 GROUP 4 **** **** 0

# MOE 2024.06 (io_trps.svl 2023.06)
