@<TRIPOS>MOLECULE
AMTA075
25 26 1 0 0 
SMALL
USER_CHARGES


@<TRIPOS>ATOM
  1 S       -2.1210     0.7120     0.1460 S.3   1 <1>  -0.4600 
  2 C       -0.5940     0.8820     1.0670 C.3   1 <1>   0.4500 
  3 C       -2.1430    -1.0870     0.1720 C.3   1 <1>   0.4300 
  4 N        0.3350     1.8130     0.3690 N.am  1 <1>  -0.4690 
  5 C       -0.0680    -0.5530     1.1320 C.3   1 <1>   0.1200 
  6 O       -1.1560    -1.4410     1.1040 O.3   1 <1>  -0.5600 
  7 C       -1.8210    -1.6360    -1.2290 C.3   1 <1>   0.1200 
  8 C        1.2280     2.5010     1.1720 C.2   1 <1>   0.6900 
  9 C        0.3660     1.9910    -1.0170 C.2   1 <1>  -0.0410 
 10 O       -1.4870    -2.9850    -1.1560 O.3   1 <1>  -0.6800 
 11 O        1.2830     2.3210     2.3710 O.2   1 <1>  -0.5700 
 12 N        2.0860     3.3840     0.5970 N.am  1 <1>  -0.4900 
 13 C        1.2410     2.8650    -1.5650 C.2   1 <1>  -0.1360 
 14 C        2.1380     3.6020    -0.7430 C.2   1 <1>   0.6160 
 15 O        2.9420     4.3990    -1.1780 O.2   1 <1>  -0.5700 
 16 H       -0.8560     1.2450     2.0470 H     1 <1>   0.0800 
 17 H       -3.1080    -1.4120     0.5210 H     1 <1>   0.0800 
 18 H        0.4840    -0.7160     2.0410 H     1 <1>   0.0800 
 19 H        0.5590    -0.7650     0.2850 H     1 <1>   0.0800 
 20 H       -0.9840    -1.1110    -1.6530 H     1 <1>   0.0800 
 21 H       -2.6690    -1.5320    -1.8810 H     1 <1>   0.0800 
 22 H       -0.3180     1.4240    -1.6260 H     1 <1>   0.1500 
 23 H       -0.9610    -3.1420    -0.3420 H     1 <1>   0.4000 
 24 H        2.7280     3.8920     1.1950 H     1 <1>   0.3700 
 25 H        1.3050     3.0440    -2.6210 H     1 <1>   0.1500 
@<TRIPOS>BOND
  1   1   2  1   
  2   1   3  1   
  3   2   4  1   
  4   2   5  1   
  5   2  16  1   
  6   3   6  1   
  7   3   7  1   
  8   3  17  1   
  9   4   8  am  
 10   4   9  1   
 11   5   6  1   
 12   5  18  1   
 13   5  19  1   
 14   7  10  1   
 15   7  20  1   
 16   7  21  1   
 17   8  11  2   
 18   8  12  am  
 19   9  13  2   
 20   9  22  1   
 21  10  23  1   
 22  12  14  am  
 23  12  24  1   
 24  13  14  1   
 25  13  25  1   
 26  14  15  2   
@<TRIPOS>SUBSTRUCTURE
  1 ****   4 GROUP 4 **** **** 0

# MOE 2024.06 (io_trps.svl 2023.06)
