@<TRIPOS>MOLECULE
NONAME
46 48 1 0 0 
SMALL
USER_CHARGES


@<TRIPOS>ATOM
  1 S        1.5060    -1.6700     1.2520 S.o2  1 <1>   1.4550 
  2 O        2.1760    -2.7800     0.6150 O.2   1 <1>  -0.6500 
  3 O        1.6920    -1.4730     2.6690 O.2   1 <1>  -0.6500 
  4 N       -0.1330    -1.9260     1.0080 N.am  1 <1>  -0.9140 
  5 C        1.8980    -0.1850     0.3500 C.2   1 <1>  -0.0030 
  6 C       -0.6210    -3.1580     1.6160 C.3   1 <1>   0.2760 
  7 C        1.0940     0.9500     0.6280 C.2   1 <1>   0.6160 
  8 C        2.9080    -0.0930    -0.5440 C.2   1 <1>  -0.0410 
  9 C       -1.9440    -3.5640     0.9810 C.3   1 <1>  -0.0800 
 10 C       -1.0820    -2.9070     3.0520 C.3   1 <1>   0.1200 
 11 O        0.1360     0.8890     1.3810 O.2   1 <1>  -0.5700 
 12 N        1.3910     2.1550     0.0070 N.am  1 <1>  -0.4200 
 13 N        3.1680     1.1010    -1.1940 N.am  1 <1>  -0.4690 
 14 C       -2.9690    -2.7330     1.7590 C.3   1 <1>   0.1200 
 15 C       -2.0360    -3.4050    -0.5490 C.3   1 <1>  -0.0170 
 16 O       -2.3410    -2.3180     2.9360 O.3   1 <1>  -0.5600 
 17 C        2.4080     2.2340    -0.9300 C.2   1 <1>   0.6900 
 18 C        0.5830     3.3730     0.3130 C.3   1 <1>   0.0600 
 19 C        4.2720     1.1810    -2.1880 C.3   1 <1>   0.0600 
 20 C       -3.3690    -3.9230    -1.0660 C.ar  1 <1>  -0.1430 
 21 O        2.6350     3.2760    -1.5170 O.2   1 <1>  -0.5700 
 22 C       -3.5910    -5.2670    -1.2860 C.ar  1 <1>  -0.1500 
 23 C       -4.4260    -3.0780    -1.3400 C.ar  1 <1>  -0.1500 
 24 C       -4.8250    -5.6910    -1.7490 C.ar  1 <1>   0.1600 
 25 C       -5.6220    -3.6040    -1.8010 C.ar  1 <1>   0.1600 
 26 N       -5.8470    -4.8910    -2.0090 N.ar  1 <1>  -0.6200 
 27 H       -0.5940    -1.1670     1.5250 H     1 <1>   0.4200 
 28 H        0.1110    -3.9470     1.5460 H     1 <1>   0.0800 
 29 H        3.5380    -0.9380    -0.7780 H     1 <1>   0.1500 
 30 H       -2.1210    -4.5970     1.2220 H     1 <1>   0.0800 
 31 H       -0.4330    -2.2600     3.6150 H     1 <1>   0.0800 
 32 H       -1.2040    -3.8380     3.5770 H     1 <1>   0.0800 
 33 H       -3.8450    -3.3080     2.0100 H     1 <1>   0.0800 
 34 H       -3.2560    -1.8490     1.2170 H     1 <1>   0.0800 
 35 H       -1.2360    -3.9530    -1.0140 H     1 <1>   0.0800 
 36 H       -1.9240    -2.3720    -0.8280 H     1 <1>   0.0800 
 37 H        0.2100     3.3360     1.3220 H     1 <1>   0.0800 
 38 H       -0.2470     3.4330    -0.3680 H     1 <1>   0.0800 
 39 H        1.1860     4.2590     0.2100 H     1 <1>   0.0800 
 40 H        4.7680     0.2310    -2.2860 H     1 <1>   0.0800 
 41 H        4.9880     1.9210    -1.8710 H     1 <1>   0.0800 
 42 H        3.8750     1.4720    -3.1450 H     1 <1>   0.0800 
 43 H       -2.8170    -5.9890    -1.1010 H     1 <1>   0.1500 
 44 H       -4.3330    -2.0160    -1.2000 H     1 <1>   0.1500 
 45 H       -4.9810    -6.7430    -1.9150 H     1 <1>   0.1500 
 46 H       -6.4360    -2.9310    -2.0080 H     1 <1>   0.1500 
@<TRIPOS>BOND
  1   1   2  2   
  2   1   3  2   
  3   1   4  am  
  4   1   5  1   
  5   4   6  1   
  6   4  27  1   
  7   5   7  1   
  8   5   8  2   
  9   6   9  1   
 10   6  10  1   
 11   6  28  1   
 12   7  11  2   
 13   7  12  am  
 14   8  13  1   
 15   8  29  1   
 16   9  14  1   
 17   9  15  1   
 18   9  30  1   
 19  10  16  1   
 20  10  31  1   
 21  10  32  1   
 22  12  17  am  
 23  12  18  1   
 24  13  17  am  
 25  13  19  1   
 26  14  16  1   
 27  14  33  1   
 28  14  34  1   
 29  15  20  1   
 30  15  35  1   
 31  15  36  1   
 32  17  21  2   
 33  18  37  1   
 34  18  38  1   
 35  18  39  1   
 36  19  40  1   
 37  19  41  1   
 38  19  42  1   
 39  20  22  ar  
 40  20  23  ar  
 41  22  24  ar  
 42  22  43  1   
 43  23  25  ar  
 44  23  44  1   
 45  24  26  ar  
 46  24  45  1   
 47  25  26  ar  
 48  25  46  1   
@<TRIPOS>SUBSTRUCTURE
  1 ****   4 GROUP 4 **** **** 0

# MOE 2024.06 (io_trps.svl 2023.06)
