@<TRIPOS>MOLECULE
NONAME
59 63 1 0 0 
SMALL
USER_CHARGES


@<TRIPOS>ATOM
  1 O       -3.0040     0.4490     0.8190 O.2   1 <1>  -0.5700 
  2 C       -3.0170     1.1740    -0.1630 C.2   1 <1>   0.5440 
  3 N       -3.7270     0.7010    -1.2410 N.am  1 <1>  -0.6600 
  4 C       -2.3680     2.4730    -0.1750 C.ar  1 <1>   0.0860 
  5 C       -5.2050     0.9280    -1.2230 C.3   1 <1>   0.1400 
  6 C       -3.3600    -0.6540    -1.7720 C.3   1 <1>   0.1400 
  7 C       -1.7830     3.0020     0.9790 C.ar  1 <1>  -0.1500 
  8 C       -2.2970     3.2570    -1.3310 C.ar  1 <1>  -0.1500 
  9 C       -5.9300    -0.1220    -0.3360 C.3   1 <1>   0.4230 
 10 C       -4.2730    -1.7720    -1.2110 C.3   1 <1>   0.3430 
 11 C       -1.1710     4.2390     0.9800 C.ar  1 <1>  -0.1500 
 12 C       -1.6830     4.4940    -1.3300 C.ar  1 <1>  -0.1500 
 13 N       -5.0360    -1.2960    -0.0080 N.4   1 <1>  -0.9590 
 14 C       -7.2520    -0.5970    -0.9840 C.3   1 <1>   0.1200 
 15 C       -1.1090     5.0100    -0.1750 C.ar  1 <1>   0.1000 
 16 C       -5.7770    -2.3330     0.7670 C.3   1 <1>   0.5180 
 17 O       -7.8740    -1.5700    -0.1920 O.3   1 <1>  -0.5600 
 18 N       -0.4930     6.2530    -0.1870 N.pl3 1 <1>  -0.8380 
 19 C       -4.8770    -3.5500     1.0120 C.3   1 <1>  -0.1950 
 20 C       -7.1030    -2.7140     0.0720 C.3   1 <1>   0.1200 
 21 C        0.8160     6.4920     0.4770 C.3   1 <1>   0.2090 
 22 C       -1.2100     7.4630    -0.6670 C.3   1 <1>   0.2090 
 23 C       -4.8830    -4.2320     2.3450 C.3   1 <1>  -0.2000 
 24 C       -3.6730    -3.4620     1.9010 C.3   1 <1>  -0.2000 
 25 C        0.6390     7.4810     1.6340 C.3   1 <1>  -0.1600 
 26 C       -1.3850     8.4520     0.4910 C.3   1 <1>  -0.1600 
 27 C       -0.0500     8.7750     1.1770 C.3   1 <1>  -0.1600 
 28 H       -5.4170     1.9160    -0.8480 H     1 <1>   0.0800 
 29 H       -5.5740     0.8860    -2.2340 H     1 <1>   0.0800 
 30 H       -3.4080    -0.6470    -2.8470 H     1 <1>   0.0800 
 31 H       -2.3400    -0.8730    -1.5000 H     1 <1>   0.0800 
 32 H       -1.8110     2.4310     1.8910 H     1 <1>   0.1500 
 33 H       -2.7230     2.8930    -2.2480 H     1 <1>   0.1500 
 34 H       -6.1920     0.3690     0.5870 H     1 <1>   0.0800 
 35 H       -3.6560    -2.6180    -0.9540 H     1 <1>   0.0800 
 36 H       -4.9600    -2.0890    -1.9770 H     1 <1>   0.0800 
 37 H       -0.7390     4.6240     1.8850 H     1 <1>   0.1500 
 38 H       -1.6310     5.0740    -2.2320 H     1 <1>   0.1500 
 39 H       -4.3000    -0.8940     0.6110 H     1 <1>   0.4500 
 40 H       -7.0820    -1.0110    -1.9630 H     1 <1>   0.0800 
 41 H       -7.9370     0.2280    -1.0770 H     1 <1>   0.0800 
 42 H       -6.0290    -1.9170     1.7290 H     1 <1>   0.0800 
 43 H       -4.8250    -4.2080     0.1610 H     1 <1>   0.1000 
 44 H       -7.6810    -3.3550     0.7150 H     1 <1>   0.0800 
 45 H       -6.9230    -3.2310    -0.8530 H     1 <1>   0.0800 
 46 H        1.2230     5.5630     0.8370 H     1 <1>   0.0800 
 47 H        1.5010     6.8970    -0.2480 H     1 <1>   0.0800 
 48 H       -0.6390     7.9180    -1.4580 H     1 <1>   0.0800 
 49 H       -2.1750     7.1890    -1.0570 H     1 <1>   0.0800 
 50 H       -5.4620    -3.8320     3.1610 H     1 <1>   0.1000 
 51 H       -4.8130    -5.3060     2.3870 H     1 <1>   0.1000 
 52 H       -2.7850    -4.0170     1.6460 H     1 <1>   0.1000 
 53 H       -3.4430    -2.5430     2.4150 H     1 <1>   0.1000 
 54 H        0.0500     7.0100     2.4010 H     1 <1>   0.0800 
 55 H        1.6020     7.7100     2.0540 H     1 <1>   0.0800 
 56 H       -1.8310     9.3560     0.1190 H     1 <1>   0.0800 
 57 H       -2.0630     8.0200     1.2060 H     1 <1>   0.0800 
 58 H        0.5910     9.2970     0.4860 H     1 <1>   0.0800 
 59 H       -0.2210     9.4160     2.0250 H     1 <1>   0.0800 
@<TRIPOS>BOND
  1   1   2  2   
  2   2   3  am  
  3   2   4  1   
  4   3   5  1   
  5   3   6  1   
  6   4   7  ar  
  7   4   8  ar  
  8   5   9  1   
  9   5  28  1   
 10   5  29  1   
 11   6  10  1   
 12   6  30  1   
 13   6  31  1   
 14   7  11  ar  
 15   7  32  1   
 16   8  12  ar  
 17   8  33  1   
 18   9  13  1   
 19   9  14  1   
 20   9  34  1   
 21  10  13  1   
 22  10  35  1   
 23  10  36  1   
 24  11  15  ar  
 25  11  37  1   
 26  12  15  ar  
 27  12  38  1   
 28  13  16  1   
 29  13  39  1   
 30  14  17  1   
 31  14  40  1   
 32  14  41  1   
 33  15  18  1   
 34  16  19  1   
 35  16  20  1   
 36  16  42  1   
 37  17  20  1   
 38  18  21  1   
 39  18  22  1   
 40  19  23  1   
 41  19  24  1   
 42  19  43  1   
 43  20  44  1   
 44  20  45  1   
 45  21  25  1   
 46  21  46  1   
 47  21  47  1   
 48  22  26  1   
 49  22  48  1   
 50  22  49  1   
 51  23  24  1   
 52  23  50  1   
 53  23  51  1   
 54  24  52  1   
 55  24  53  1   
 56  25  27  1   
 57  25  54  1   
 58  25  55  1   
 59  26  27  1   
 60  26  56  1   
 61  26  57  1   
 62  27  58  1   
 63  27  59  1   
@<TRIPOS>SUBSTRUCTURE
  1 ****   2 GROUP 4 **** **** 0

# MOE 2024.06 (io_trps.svl 2023.06)
