@<TRIPOS>MOLECULE
NONAME
50 52 1 0 0 
SMALL
USER_CHARGES


@<TRIPOS>ATOM
  1 O        2.1490     1.9630    -1.1490 O.3   1 <1>  -0.0190 
  2 N        2.9820     1.0080    -0.8680 N.2   1 <1>  -0.4100 
  3 C        1.0370     1.8590    -0.4710 C.2   1 <1>  -0.0400 
  4 C        2.3890     0.2590    -0.0080 C.2   1 <1>   0.1080 
  5 C        1.1240     0.7590     0.2920 C.2   1 <1>  -0.1500 
  6 C       -0.0520     2.9000    -0.6400 C.3   1 <1>   0.0200 
  7 C        2.9910    -0.9930     0.5910 C.3   1 <1>  -0.0590 
  8 C        0.4210     4.2730    -0.1300 C.3   1 <1>  -0.0800 
  9 C       -0.6020     5.3800    -0.3460 C.3   1 <1>   0.2000 
 10 C        1.6630     4.8030    -0.8430 C.3   1 <1>   0.3430 
 11 O       -1.5460     5.3640     0.6680 O.3   1 <1>  -0.6800 
 12 C        0.2130     6.6790    -0.3650 C.3   1 <1>   0.3430 
 13 N        1.6270     6.2860    -0.6960 N.4   1 <1>  -0.9590 
 14 C        2.5960     6.7870     0.3390 C.3   1 <1>   0.4860 
 15 C        2.7360     8.3070     0.2810 C.ar  1 <1>   0.1670 
 16 N        1.7360     8.9770     0.8390 N.ar  1 <1>  -0.6200 
 17 C        3.8390     8.9000    -0.3270 C.ar  1 <1>  -0.1430 
 18 C        1.8260    10.2980     0.7980 C.ar  1 <1>   0.1600 
 19 C        3.9090    10.2860    -0.3360 C.ar  1 <1>   0.0820 
 20 C        4.9570     8.0740    -0.9710 C.3   1 <1>  -0.0970 
 21 C        2.8670    11.0030     0.2270 C.ar  1 <1>  -0.1430 
 22 O        4.9520    10.9250    -0.8980 O.3   1 <1>  -0.3620 
 23 C        2.8470    12.5270     0.2200 C.3   1 <1>  -0.0970 
 24 C        6.0230    11.2740    -0.0490 C.3   1 <1>   0.0400 
 25 H        0.4170     0.3320     0.9800 H     1 <1>   0.1500 
 26 H       -0.3260     2.9530    -1.6800 H     1 <1>   0.0800 
 27 H       -0.9220     2.5930    -0.0860 H     1 <1>   0.0800 
 28 H        3.0530    -0.8970     1.6590 H     1 <1>   0.0800 
 29 H        3.9800    -1.1500     0.1970 H     1 <1>   0.0800 
 30 H        2.3820    -1.8440     0.3460 H     1 <1>   0.0800 
 31 H        0.6580     4.1940     0.9170 H     1 <1>   0.0800 
 32 H       -1.1190     5.2650    -1.2840 H     1 <1>   0.0800 
 33 H        1.6080     4.5430    -1.8880 H     1 <1>   0.0800 
 34 H        2.5640     4.3750    -0.4300 H     1 <1>   0.0800 
 35 H       -1.1510     5.4130     1.5620 H     1 <1>   0.4000 
 36 H        0.1710     7.1440     0.6060 H     1 <1>   0.0800 
 37 H       -0.1790     7.3620    -1.1000 H     1 <1>   0.0800 
 38 H        1.8870     6.7400    -1.5830 H     1 <1>   0.4500 
 39 H        2.2580     6.5100     1.3230 H     1 <1>   0.0800 
 40 H        3.5610     6.3370     0.1830 H     1 <1>   0.0800 
 41 H        1.0170    10.8500     1.2470 H     1 <1>   0.1500 
 42 H        4.5660     7.2300    -1.5080 H     1 <1>   0.0800 
 43 H        5.6410     7.7290    -0.2160 H     1 <1>   0.0800 
 44 H        5.5140     8.6610    -1.6810 H     1 <1>   0.0800 
 45 H        1.8490    12.8990     0.3620 H     1 <1>   0.0800 
 46 H        3.2120    12.9010    -0.7210 H     1 <1>   0.0800 
 47 H        3.4710    12.9070     1.0080 H     1 <1>   0.0800 
 48 H        6.7670    11.7810    -0.6360 H     1 <1>   0.0800 
 49 H        6.4370    10.3780     0.3790 H     1 <1>   0.0800 
 50 H        5.6610    11.9250     0.7270 H     1 <1>   0.0800 
@<TRIPOS>BOND
  1   1   2  1   
  2   1   3  1   
  3   2   4  2   
  4   3   5  2   
  5   3   6  1   
  6   4   5  1   
  7   4   7  1   
  8   5  25  1   
  9   6   8  1   
 10   6  26  1   
 11   6  27  1   
 12   7  28  1   
 13   7  29  1   
 14   7  30  1   
 15   8   9  1   
 16   8  10  1   
 17   8  31  1   
 18   9  11  1   
 19   9  12  1   
 20   9  32  1   
 21  10  13  1   
 22  10  33  1   
 23  10  34  1   
 24  11  35  1   
 25  12  13  1   
 26  12  36  1   
 27  12  37  1   
 28  13  14  1   
 29  13  38  1   
 30  14  15  1   
 31  14  39  1   
 32  14  40  1   
 33  15  16  ar  
 34  15  17  ar  
 35  16  18  ar  
 36  17  19  ar  
 37  17  20  1   
 38  18  21  ar  
 39  18  41  1   
 40  19  21  ar  
 41  19  22  1   
 42  20  42  1   
 43  20  43  1   
 44  20  44  1   
 45  21  23  1   
 46  22  24  1   
 47  23  45  1   
 48  23  46  1   
 49  23  47  1   
 50  24  48  1   
 51  24  49  1   
 52  24  50  1   
@<TRIPOS>SUBSTRUCTURE
  1 ****  13 GROUP 4 **** **** 0

# MOE 2024.06 (io_trps.svl 2023.06)
