@<TRIPOS>MOLECULE
NONAME
48 49 1 0 0 
SMALL
USER_CHARGES


@<TRIPOS>ATOM
  1 S        1.1590     0.6400     1.0670 S.o2  1 <1>   1.3330 
  2 O        1.1850     1.7810     1.9540 O.2   1 <1>  -0.6500 
  3 O        1.3430    -0.6890     1.6060 O.2   1 <1>  -0.6500 
  4 N       -0.3190     0.6540     0.2300 N.am  1 <1>  -0.8490 
  5 C        2.3640     0.9150    -0.2290 C.3   1 <1>  -0.0550 
  6 C       -1.4360     1.0610     1.0860 C.3   1 <1>   0.1160 
  7 C       -0.6310    -0.6190    -0.4280 C.3   1 <1>   0.1160 
  8 C        3.8020     1.0690     0.2970 C.3   1 <1>  -0.0800 
  9 C        4.8050     1.2650    -0.8240 C.3   1 <1>   0.2200 
 10 C        4.3590    -0.1550     1.0120 C.3   1 <1>   0.1200 
 11 N        4.9580     2.7010    -1.1300 N.am  1 <1>  -0.7300 
 12 C        6.0850     0.6240    -0.2860 C.3   1 <1>   0.1200 
 13 O        5.7410    -0.0480     0.8890 O.3   1 <1>  -0.5600 
 14 C        4.3290     3.3520    -2.1400 C.2   1 <1>   0.5690 
 15 O        3.5790     2.7750    -2.8900 O.2   1 <1>  -0.5700 
 16 C        4.5550     4.8440    -2.3280 C.3   1 <1>   0.0440 
 17 C        5.6310     5.4010    -1.4000 C.ar  1 <1>  -0.1440 
 18 C        5.2950     5.8580    -0.1350 C.ar  1 <1>  -0.1500 
 19 C        6.9570     5.4350    -1.8040 C.ar  1 <1>  -0.1500 
 20 C        6.2660     6.3410     0.7260 C.ar  1 <1>   0.0820 
 21 C        7.9340     5.9160    -0.9490 C.ar  1 <1>  -0.1500 
 22 O        5.8450     6.7630     1.9440 O.3   1 <1>  -0.3620 
 23 C        7.5940     6.3680     0.3140 C.ar  1 <1>  -0.1500 
 24 C        6.7460     7.2960     2.8890 C.3   1 <1>   0.0400 
 25 H        2.3260     0.1040    -0.9290 H     1 <1>   0.0800 
 26 H        2.1000     1.8110    -0.7580 H     1 <1>   0.0800 
 27 H       -2.3530     1.0780     0.5220 H     1 <1>   0.0800 
 28 H       -1.2620     2.0510     1.4730 H     1 <1>   0.0800 
 29 H       -1.5400     0.3800     1.9150 H     1 <1>   0.0800 
 30 H       -1.5320    -0.5230    -1.0100 H     1 <1>   0.0800 
 31 H       -0.7680    -1.3980     0.3040 H     1 <1>   0.0800 
 32 H        0.1700    -0.9020    -1.0890 H     1 <1>   0.0800 
 33 H        3.8500     1.8970     0.9840 H     1 <1>   0.0800 
 34 H        4.4990     0.7320    -1.7090 H     1 <1>   0.0800 
 35 H        4.0530    -1.0710     0.5350 H     1 <1>   0.0800 
 36 H        4.0970    -0.1810     2.0570 H     1 <1>   0.0800 
 37 H        5.5390     3.2480    -0.4850 H     1 <1>   0.3700 
 38 H        6.8340     1.3580    -0.0420 H     1 <1>   0.0800 
 39 H        6.4800    -0.0940    -0.9820 H     1 <1>   0.0800 
 40 H        4.8290     5.0190    -3.3520 H     1 <1>   0.0800 
 41 H        3.6240     5.3500    -2.1510 H     1 <1>   0.0800 
 42 H        4.2730     5.8430     0.2020 H     1 <1>   0.1500 
 43 H        7.2380     5.0850    -2.7830 H     1 <1>   0.1500 
 44 H        8.9620     5.9400    -1.2700 H     1 <1>   0.1500 
 45 H        8.3710     6.7350     0.9570 H     1 <1>   0.1500 
 46 H        6.1870     7.5690     3.7660 H     1 <1>   0.0800 
 47 H        7.2160     8.1670     2.4680 H     1 <1>   0.0800 
 48 H        7.4750     6.5450     3.1390 H     1 <1>   0.0800 
@<TRIPOS>BOND
  1   1   2  2   
  2   1   3  2   
  3   1   4  am  
  4   1   5  1   
  5   4   6  1   
  6   4   7  1   
  7   5   8  1   
  8   5  25  1   
  9   5  26  1   
 10   6  27  1   
 11   6  28  1   
 12   6  29  1   
 13   7  30  1   
 14   7  31  1   
 15   7  32  1   
 16   8   9  1   
 17   8  10  1   
 18   8  33  1   
 19   9  11  1   
 20   9  12  1   
 21   9  34  1   
 22  10  13  1   
 23  10  35  1   
 24  10  36  1   
 25  11  14  am  
 26  11  37  1   
 27  12  13  1   
 28  12  38  1   
 29  12  39  1   
 30  14  15  2   
 31  14  16  1   
 32  16  17  1   
 33  16  40  1   
 34  16  41  1   
 35  17  18  ar  
 36  17  19  ar  
 37  18  20  ar  
 38  18  42  1   
 39  19  21  ar  
 40  19  43  1   
 41  20  22  1   
 42  20  23  ar  
 43  21  23  ar  
 44  21  44  1   
 45  22  24  1   
 46  23  45  1   
 47  24  46  1   
 48  24  47  1   
 49  24  48  1   
@<TRIPOS>SUBSTRUCTURE
  1 ****  11 GROUP 4 **** **** 0

# MOE 2024.06 (io_trps.svl 2023.06)
