@<TRIPOS>MOLECULE
NONAME
48 50 1 0 0 
SMALL
USER_CHARGES


@<TRIPOS>ATOM
  1 F       -0.3520    -0.9850    -1.4770 F     1 <1>  -0.3400 
  2 C        0.1280    -1.0780    -0.2380 C.3   1 <1>   1.2010 
  3 F       -0.3010     0.0120     0.3970 F     1 <1>  -0.3400 
  4 F        1.4480    -0.9350    -0.3460 F     1 <1>  -0.3400 
  5 C       -0.2770    -2.4090     0.4660 C.2   1 <1>   0.3350 
  6 N       -0.9550    -2.4960     1.5510 N.2   1 <1>  -0.4100 
  7 N        0.0580    -3.6180    -0.0130 N.2   1 <1>  -0.5650 
  8 O       -1.1030    -3.7550     1.8300 O.3   1 <1>  -0.0190 
  9 C       -0.4780    -4.3750     0.8620 C.2   1 <1>   0.2980 
 10 C       -0.4400    -5.9010     0.8710 C.3   1 <1>   0.2900 
 11 N       -1.7750    -6.5270     0.7170 N.3   1 <1>  -0.8100 
 12 C       -1.6940    -7.9790     0.9180 C.3   1 <1>   0.1100 
 13 C       -2.3790    -6.1970    -0.5850 C.3   1 <1>   0.1100 
 14 C       -3.0990    -8.5860     0.9100 C.3   1 <1>  -0.1600 
 15 C       -3.8050    -6.7500    -0.6530 C.3   1 <1>  -0.1600 
 16 C       -3.8410    -8.2700    -0.4060 C.3   1 <1>  -0.0800 
 17 C       -5.2840    -8.8220    -0.4760 C.3   1 <1>   0.2000 
 18 O       -6.0540    -8.2450     0.5160 O.3   1 <1>  -0.6800 
 19 C       -5.3730   -10.3480    -0.3300 C.3   1 <1>  -0.1600 
 20 C       -6.7970   -10.8800    -0.5450 C.3   1 <1>  -0.0170 
 21 C       -6.8080   -12.3980    -0.4550 C.ar  1 <1>  -0.1440 
 22 C       -6.5960   -13.1690    -1.5870 C.ar  1 <1>  -0.1500 
 23 C       -7.0250   -13.0240     0.7630 C.ar  1 <1>  -0.1500 
 24 C       -6.6000   -14.5510    -1.5030 C.ar  1 <1>  -0.1500 
 25 C       -7.0300   -14.4050     0.8480 C.ar  1 <1>  -0.1500 
 26 C       -6.8170   -15.1700    -0.2850 C.ar  1 <1>  -0.1500 
 27 H       -0.0120    -6.2100     1.8080 H     1 <1>   0.0800 
 28 H        0.2080    -6.2370     0.0810 H     1 <1>   0.0800 
 29 H       -1.2310    -8.1870     1.8680 H     1 <1>   0.0800 
 30 H       -1.0960    -8.4260     0.1400 H     1 <1>   0.0800 
 31 H       -1.7850    -6.6100    -1.3830 H     1 <1>   0.0800 
 32 H       -2.4220    -5.1290    -0.7120 H     1 <1>   0.0800 
 33 H       -3.6400    -8.1920     1.7520 H     1 <1>   0.0800 
 34 H       -3.0070    -9.6490     1.0410 H     1 <1>   0.0800 
 35 H       -4.2220    -6.5290    -1.6190 H     1 <1>   0.0800 
 36 H       -4.4000    -6.2380     0.0830 H     1 <1>   0.0800 
 37 H       -3.2900    -8.7350    -1.2060 H     1 <1>   0.0800 
 38 H       -5.7230    -8.5360    -1.4180 H     1 <1>   0.0800 
 39 H       -5.5480    -8.2300     1.3490 H     1 <1>   0.4000 
 40 H       -5.0300   -10.6510     0.6420 H     1 <1>   0.0800 
 41 H       -4.7270   -10.8010    -1.0610 H     1 <1>   0.0800 
 42 H       -7.1620   -10.5730    -1.5100 H     1 <1>   0.0800 
 43 H       -7.4600   -10.4710     0.1970 H     1 <1>   0.0800 
 44 H       -6.4250   -12.6960    -2.5380 H     1 <1>   0.1500 
 45 H       -7.1900   -12.4360     1.6480 H     1 <1>   0.1500 
 46 H       -6.4350   -15.1440    -2.3860 H     1 <1>   0.1500 
 47 H       -7.2000   -14.8840     1.7970 H     1 <1>   0.1500 
 48 H       -6.8210   -16.2440    -0.2190 H     1 <1>   0.1500 
@<TRIPOS>BOND
  1   1   2  1   
  2   2   3  1   
  3   2   4  1   
  4   2   5  1   
  5   5   6  2   
  6   5   7  1   
  7   6   8  1   
  8   7   9  2   
  9   8   9  1   
 10   9  10  1   
 11  10  11  1   
 12  10  27  1   
 13  10  28  1   
 14  11  12  1   
 15  11  13  1   
 16  12  14  1   
 17  12  29  1   
 18  12  30  1   
 19  13  15  1   
 20  13  31  1   
 21  13  32  1   
 22  14  16  1   
 23  14  33  1   
 24  14  34  1   
 25  15  16  1   
 26  15  35  1   
 27  15  36  1   
 28  16  17  1   
 29  16  37  1   
 30  17  18  1   
 31  17  19  1   
 32  17  38  1   
 33  18  39  1   
 34  19  20  1   
 35  19  40  1   
 36  19  41  1   
 37  20  21  1   
 38  20  42  1   
 39  20  43  1   
 40  21  22  ar  
 41  21  23  ar  
 42  22  24  ar  
 43  22  44  1   
 44  23  25  ar  
 45  23  45  1   
 46  24  26  ar  
 47  24  46  1   
 48  25  26  ar  
 49  25  47  1   
 50  26  48  1   
@<TRIPOS>SUBSTRUCTURE
  1 ****  15 GROUP 4 **** **** 0

# MOE 2024.06 (io_trps.svl 2023.06)
