@<TRIPOS>MOLECULE
NONAME
46 48 1 0 0 
SMALL
USER_CHARGES


@<TRIPOS>ATOM
  1 O       -0.8670     0.4710     1.7390 O.2   1 <1>  -0.5700 
  2 C       -1.3750     0.9480     0.7390 C.2   1 <1>   0.7150 
  3 N       -1.9540     0.0890    -0.1720 N.am  1 <1>  -0.6600 
  4 C       -1.3430     2.3840     0.5560 C.2   1 <1>   0.0550 
  5 C       -2.3160    -1.3040     0.2310 C.3   1 <1>   0.3640 
  6 C       -2.4720     0.4830    -1.5100 C.3   1 <1>   0.1400 
  7 O       -2.3980     3.0470     0.0950 O.3   1 <1>  -0.2800 
  8 C       -0.3600     3.2710     0.8120 C.2   1 <1>   0.0460 
  9 C       -1.1730    -2.2590    -0.1380 C.ar  1 <1>  -0.1440 
 10 C       -3.6780    -1.7540    -0.3780 C.3   1 <1>   0.2000 
 11 C       -3.9980     0.2750    -1.6020 C.3   1 <1>   0.1200 
 12 C       -1.9710     4.2940     0.1060 C.2   1 <1>   0.2980 
 13 N       -0.7710     4.4970     0.5120 N.2   1 <1>  -0.5650 
 14 C        1.0380     3.0540     1.3550 C.3   1 <1>  -0.0590 
 15 C       -0.3620    -2.7480     0.8760 C.ar  1 <1>  -0.1500 
 16 C       -0.9150    -2.6560    -1.4460 C.ar  1 <1>  -0.1500 
 17 O       -4.4990    -0.6490    -0.6680 O.3   1 <1>  -0.5600 
 18 C       -4.4750    -2.6670     0.5680 C.3   1 <1>   0.1200 
 19 C       -2.9500     5.3590    -0.3640 C.3   1 <1>   0.0200 
 20 C        0.6740    -3.6220     0.5980 C.ar  1 <1>  -0.1500 
 21 C        0.1200    -3.5310    -1.7280 C.ar  1 <1>  -0.1500 
 22 O       -3.7040    -3.7340     1.0230 O.3   1 <1>  -0.6800 
 23 C       -2.3790     6.7850    -0.3430 C.3   1 <1>  -0.2400 
 24 C        0.9150    -4.0160    -0.7060 C.ar  1 <1>  -0.1500 
 25 H       -2.4350    -1.3240     1.3010 H     1 <1>   0.0800 
 26 H       -2.2260     1.5010    -1.7500 H     1 <1>   0.0800 
 27 H       -1.9920    -0.1230    -2.2560 H     1 <1>   0.0800 
 28 H       -3.5240    -2.2780    -1.3020 H     1 <1>   0.0800 
 29 H       -4.2680    -0.0600    -2.5880 H     1 <1>   0.0800 
 30 H       -4.4980     1.2090    -1.4160 H     1 <1>   0.0800 
 31 H        1.2370     2.0090     1.5020 H     1 <1>   0.0800 
 32 H        1.1400     3.5630     2.2960 H     1 <1>   0.0800 
 33 H        1.7590     3.4520     0.6650 H     1 <1>   0.0800 
 34 H       -0.5330    -2.4440     1.8950 H     1 <1>   0.1500 
 35 H       -1.5110    -2.2920    -2.2610 H     1 <1>   0.1500 
 36 H       -5.3360    -3.0670     0.0620 H     1 <1>   0.0800 
 37 H       -4.7950    -2.1110     1.4320 H     1 <1>   0.0800 
 38 H       -3.2570     5.1170    -1.3650 H     1 <1>   0.0800 
 39 H       -3.8190     5.3190     0.2680 H     1 <1>   0.0800 
 40 H        1.2920    -3.9920     1.3970 H     1 <1>   0.1500 
 41 H        0.3110    -3.8330    -2.7430 H     1 <1>   0.1500 
 42 H       -3.3140    -4.2420     0.2830 H     1 <1>   0.4000 
 43 H       -1.5160     6.8470    -0.9820 H     1 <1>   0.0800 
 44 H       -2.0830     7.0500     0.6570 H     1 <1>   0.0800 
 45 H       -3.1170     7.4880    -0.6850 H     1 <1>   0.0800 
 46 H        1.7210    -4.6960    -0.9230 H     1 <1>   0.1500 
@<TRIPOS>BOND
  1   1   2  2   
  2   2   3  am  
  3   2   4  1   
  4   3   5  1   
  5   3   6  1   
  6   4   7  1   
  7   4   8  2   
  8   5   9  1   
  9   5  10  1   
 10   5  25  1   
 11   6  11  1   
 12   6  26  1   
 13   6  27  1   
 14   7  12  1   
 15   8  13  1   
 16   8  14  1   
 17   9  15  ar  
 18   9  16  ar  
 19  10  17  1   
 20  10  18  1   
 21  10  28  1   
 22  11  17  1   
 23  11  29  1   
 24  11  30  1   
 25  12  13  2   
 26  12  19  1   
 27  14  31  1   
 28  14  32  1   
 29  14  33  1   
 30  15  20  ar  
 31  15  34  1   
 32  16  21  ar  
 33  16  35  1   
 34  18  22  1   
 35  18  36  1   
 36  18  37  1   
 37  19  23  1   
 38  19  38  1   
 39  19  39  1   
 40  20  24  ar  
 41  20  40  1   
 42  21  24  ar  
 43  21  41  1   
 44  22  42  1   
 45  23  43  1   
 46  23  44  1   
 47  23  45  1   
 48  24  46  1   
@<TRIPOS>SUBSTRUCTURE
  1 ****   3 GROUP 4 **** **** 0

# MOE 2024.06 (io_trps.svl 2023.06)
