@<TRIPOS>MOLECULE
NONAME
48 50 1 0 0 
SMALL
USER_CHARGES


@<TRIPOS>ATOM
  1 O        0.4740    -0.5760    -2.1090 O.2   1 <1>  -0.5700 
  2 C        1.1950    -0.9160    -1.1900 C.2   1 <1>   0.5440 
  3 N        1.9410     0.0010    -0.4850 N.am  1 <1>  -0.4940 
  4 C        1.3420    -2.3010    -0.8380 C.ar  1 <1>   0.0860 
  5 C        2.0580     1.4140    -0.4640 C.2   1 <1>  -0.0880 
  6 C        0.5420    -2.9020     0.1490 C.ar  1 <1>   0.1000 
  7 C        2.3210    -3.0730    -1.4660 C.ar  1 <1>  -0.1500 
  8 N        1.2900     2.3680    -1.0710 N.pl3 1 <1>   0.3140 
  9 C        3.0130     2.0860     0.2260 C.2   1 <1>  -0.1810 
 10 N       -0.4930    -2.2390     0.7960 N.pl3 1 <1>  -0.8380 
 11 C        0.7660    -4.2330     0.4850 C.ar  1 <1>  -0.1500 
 12 C        2.5270    -4.3940    -1.1230 C.ar  1 <1>  -0.1500 
 13 N        1.7360     3.6110    -0.7810 N.2   1 <1>  -0.7070 
 14 C        0.0900     2.2320    -1.9050 C.3   1 <1>   0.0160 
 15 C        2.7620     3.4320    -0.0180 C.2   1 <1>   0.1080 
 16 C        4.1300     1.5150     1.0850 C.3   1 <1>   0.0210 
 17 C       -1.8520    -2.2150     0.1770 C.3   1 <1>   0.2090 
 18 C       -0.2690    -1.2250     1.8710 C.3   1 <1>   0.2090 
 19 C        1.7460    -4.9760    -0.1390 C.ar  1 <1>  -0.1500 
 20 C        3.5610     4.5970     0.5230 C.3   1 <1>  -0.0590 
 21 C        5.3510     1.1900     0.2230 C.3   1 <1>  -0.2400 
 22 C       -2.3410    -0.7770    -0.0690 C.3   1 <1>   0.1200 
 23 C       -0.8960     0.1410     1.5240 C.3   1 <1>   0.1200 
 24 O       -2.2210     0.0010     1.0900 O.3   1 <1>  -0.5600 
 25 H        2.5860    -0.4540     0.1590 H     1 <1>   0.3700 
 26 H        2.9240    -2.6220    -2.2350 H     1 <1>   0.1500 
 27 H        0.1500    -4.6780     1.2450 H     1 <1>   0.1500 
 28 H        3.2880    -4.9740    -1.6180 H     1 <1>   0.1500 
 29 H       -0.6190     1.6000    -1.4070 H     1 <1>   0.0800 
 30 H        0.3670     1.8070    -2.8510 H     1 <1>   0.0800 
 31 H       -0.3440     3.2010    -2.0630 H     1 <1>   0.0800 
 32 H        3.7880     0.6240     1.5790 H     1 <1>   0.0800 
 33 H        4.4010     2.2240     1.8480 H     1 <1>   0.0800 
 34 H       -2.5440    -2.7140     0.8320 H     1 <1>   0.0800 
 35 H       -1.8340    -2.7490    -0.7580 H     1 <1>   0.0800 
 36 H        0.7850    -1.1040     2.0440 H     1 <1>   0.0800 
 37 H       -0.7130    -1.5860     2.7830 H     1 <1>   0.0800 
 38 H        1.9020    -6.0060     0.1350 H     1 <1>   0.1500 
 39 H        4.6120     4.4080     0.4130 H     1 <1>   0.0800 
 40 H        3.3280     4.7440     1.5610 H     1 <1>   0.0800 
 41 H        3.3110     5.4900    -0.0190 H     1 <1>   0.0800 
 42 H        5.0900     0.4730    -0.5350 H     1 <1>   0.0800 
 43 H        6.1400     0.7840     0.8310 H     1 <1>   0.0800 
 44 H        5.7100     2.0810    -0.2610 H     1 <1>   0.0800 
 45 H       -3.3780    -0.7850    -0.3540 H     1 <1>   0.0800 
 46 H       -1.7730    -0.3180    -0.8570 H     1 <1>   0.0800 
 47 H       -0.3360     0.6310     0.7500 H     1 <1>   0.0800 
 48 H       -0.9000     0.7750     2.3910 H     1 <1>   0.0800 
@<TRIPOS>BOND
  1   1   2  2   
  2   2   3  am  
  3   2   4  1   
  4   3   5  1   
  5   3  25  1   
  6   4   6  ar  
  7   4   7  ar  
  8   5   8  1   
  9   5   9  2   
 10   6  10  1   
 11   6  11  ar  
 12   7  12  ar  
 13   7  26  1   
 14   8  13  1   
 15   8  14  1   
 16   9  15  1   
 17   9  16  1   
 18  10  17  1   
 19  10  18  1   
 20  11  19  ar  
 21  11  27  1   
 22  12  19  ar  
 23  12  28  1   
 24  13  15  2   
 25  14  29  1   
 26  14  30  1   
 27  14  31  1   
 28  15  20  1   
 29  16  21  1   
 30  16  32  1   
 31  16  33  1   
 32  17  22  1   
 33  17  34  1   
 34  17  35  1   
 35  18  23  1   
 36  18  36  1   
 37  18  37  1   
 38  19  38  1   
 39  20  39  1   
 40  20  40  1   
 41  20  41  1   
 42  21  42  1   
 43  21  43  1   
 44  21  44  1   
 45  22  24  1   
 46  22  45  1   
 47  22  46  1   
 48  23  24  1   
 49  23  47  1   
 50  23  48  1   
@<TRIPOS>SUBSTRUCTURE
  1 ****   3 GROUP 4 **** **** 0

# MOE 2024.06 (io_trps.svl 2023.06)
