@<TRIPOS>MOLECULE
NONAME
56 57 1 0 0 
SMALL
USER_CHARGES


@<TRIPOS>ATOM
  1 O        1.0970    -1.1390     1.7130 O.co2 1 <1>  -0.9000 
  2 C        1.3450     0.0760     1.7290 C.2   1 <1>   0.9060 
  3 O        1.0640     0.7540     2.7220 O.co2 1 <1>  -0.9000 
  4 C        2.0040     0.7120     0.4830 C.3   1 <1>  -0.1060 
  5 C        3.2780    -0.0870     0.0730 C.3   1 <1>   0.2000 
  6 C        2.4250     2.1940     0.7810 C.3   1 <1>  -0.1600 
  7 C        1.0090     0.6280    -0.7120 C.3   1 <1>  -0.0160 
  8 O        3.1140    -1.4560     0.2040 O.3   1 <1>  -0.6800 
  9 C        4.5240     0.3790     0.8330 C.3   1 <1>   0.1400 
 10 C        3.6870     2.6490     0.0460 C.3   1 <1>   0.1400 
 11 C       -0.1740     1.5940    -0.6800 C.ar  1 <1>  -0.1440 
 12 N        4.8570     1.7940     0.4360 N.am  1 <1>  -0.6600 
 13 C       -0.2670     2.6150    -1.6160 C.ar  1 <1>  -0.1500 
 14 C       -1.1710     1.4650     0.2760 C.ar  1 <1>  -0.1500 
 15 C        6.1580     2.2310     0.4970 C.2   1 <1>   0.5690 
 16 C       -1.3360     3.4940    -1.5950 C.ar  1 <1>  -0.1500 
 17 C       -2.2390     2.3450     0.3000 C.ar  1 <1>  -0.1500 
 18 O        7.0370     1.5230     0.9370 O.2   1 <1>  -0.5700 
 19 C        6.5480     3.6430     0.0240 C.3   1 <1>  -0.0190 
 20 C       -2.3230     3.3600    -0.6350 C.ar  1 <1>  -0.1500 
 21 C        7.9040     3.6340    -0.7300 C.3   1 <1>  -0.1600 
 22 C        6.5370     4.5840     1.2530 C.3   1 <1>  -0.1600 
 23 C        7.9720     4.6310    -1.9000 C.3   1 <1>  -0.1600 
 24 C        6.7510     6.0700     0.9390 C.3   1 <1>  -0.1600 
 25 C        9.3350     4.5660    -2.5930 C.3   1 <1>  -0.2400 
 26 C        6.5050     6.9320     2.1800 C.3   1 <1>  -0.2400 
 27 H        3.4910     0.0720    -0.9690 H     1 <1>   0.0800 
 28 H        2.6450     2.3070     1.8290 H     1 <1>   0.0800 
 29 H        1.6190     2.8750     0.5830 H     1 <1>   0.0800 
 30 H        1.5450     0.7960    -1.6280 H     1 <1>   0.0800 
 31 H        0.6210    -0.3760    -0.7690 H     1 <1>   0.0800 
 32 H        2.3390    -1.5950     0.8390 H     1 <1>   0.4000 
 33 H        5.3490    -0.2690     0.5930 H     1 <1>   0.0800 
 34 H        4.3420     0.3390     1.8930 H     1 <1>   0.0800 
 35 H        3.8720     3.6760     0.3040 H     1 <1>   0.0800 
 36 H        3.5330     2.5830    -1.0180 H     1 <1>   0.0800 
 37 H        0.4940     2.7300    -2.3660 H     1 <1>   0.1500 
 38 H       -1.1160     0.6800     1.0130 H     1 <1>   0.1500 
 39 H       -1.4000     4.2820    -2.3240 H     1 <1>   0.1500 
 40 H       -2.9970     2.2330     1.0540 H     1 <1>   0.1500 
 41 H        5.8050     3.9760    -0.6740 H     1 <1>   0.0800 
 42 H       -3.1540     4.0430    -0.6130 H     1 <1>   0.1500 
 43 H        8.7060     3.8120    -0.0350 H     1 <1>   0.0800 
 44 H        8.0610     2.6510    -1.1420 H     1 <1>   0.0800 
 45 H        5.5870     4.4730     1.7490 H     1 <1>   0.0800 
 46 H        7.2910     4.2560     1.9490 H     1 <1>   0.0800 
 47 H        7.2050     4.3940    -2.6180 H     1 <1>   0.0800 
 48 H        7.8050     5.6360    -1.5600 H     1 <1>   0.0800 
 49 H        7.7630     6.2290     0.6080 H     1 <1>   0.0800 
 50 H        6.0810     6.3800     0.1550 H     1 <1>   0.0800 
 51 H        9.5170     3.5760    -2.9740 H     1 <1>   0.0800 
 52 H       10.1200     4.8200    -1.9010 H     1 <1>   0.0800 
 53 H        9.3660     5.2600    -3.4140 H     1 <1>   0.0800 
 54 H        7.1740     6.6470     2.9730 H     1 <1>   0.0800 
 55 H        5.4920     6.8190     2.5240 H     1 <1>   0.0800 
 56 H        6.6730     7.9690     1.9470 H     1 <1>   0.0800 
@<TRIPOS>BOND
  1   1   2  ar  
  2   2   3  ar  
  3   2   4  1   
  4   4   5  1   
  5   4   6  1   
  6   4   7  1   
  7   5   8  1   
  8   5   9  1   
  9   5  27  1   
 10   6  10  1   
 11   6  28  1   
 12   6  29  1   
 13   7  11  1   
 14   7  30  1   
 15   7  31  1   
 16   8  32  1   
 17   9  12  1   
 18   9  33  1   
 19   9  34  1   
 20  10  12  1   
 21  10  35  1   
 22  10  36  1   
 23  11  13  ar  
 24  11  14  ar  
 25  12  15  am  
 26  13  16  ar  
 27  13  37  1   
 28  14  17  ar  
 29  14  38  1   
 30  15  18  2   
 31  15  19  1   
 32  16  20  ar  
 33  16  39  1   
 34  17  20  ar  
 35  17  40  1   
 36  19  21  1   
 37  19  22  1   
 38  19  41  1   
 39  20  42  1   
 40  21  23  1   
 41  21  43  1   
 42  21  44  1   
 43  22  24  1   
 44  22  45  1   
 45  22  46  1   
 46  23  25  1   
 47  23  47  1   
 48  23  48  1   
 49  24  26  1   
 50  24  49  1   
 51  24  50  1   
 52  25  51  1   
 53  25  52  1   
 54  25  53  1   
 55  26  54  1   
 56  26  55  1   
 57  26  56  1   
@<TRIPOS>SUBSTRUCTURE
  1 ****  10 GROUP 4 **** **** 0

# MOE 2024.06 (io_trps.svl 2023.06)
