@<TRIPOS>MOLECULE
NONAME
47 49 1 0 0 
SMALL
USER_CHARGES


@<TRIPOS>ATOM
  1 O        0.2500     0.0170    -0.8110 O.3   1 <1>  -0.5600 
  2 C        1.4900    -0.5940    -1.0820 C.3   1 <1>   0.2000 
  3 C        0.2490     1.4140    -0.8310 C.3   1 <1>   0.1200 
  4 C        2.5920    -0.0830    -0.1140 C.3   1 <1>   0.5660 
  5 C        1.3240    -2.1170    -0.9490 C.3   1 <1>   0.1200 
  6 C        1.2200     1.9580     0.2310 C.3   1 <1>   0.3430 
  7 N        2.6000     1.4060     0.0420 N.4   1 <1>  -0.9590 
  8 C        3.9780    -0.5090    -0.5800 C.ar  1 <1>  -0.1440 
  9 O        1.2520    -2.4780     0.3940 O.3   1 <1>  -0.6800 
 10 C        3.5310     1.8350     1.1160 C.3   1 <1>   0.4870 
 11 C        4.5390    -0.0120    -1.7520 C.ar  1 <1>  -0.1500 
 12 C        4.7010    -1.4070     0.1910 C.ar  1 <1>  -0.1500 
 13 C        3.7690     3.3190     0.9360 C.ar  1 <1>  -0.1440 
 14 C        5.8110    -0.4000    -2.1330 C.ar  1 <1>  -0.1500 
 15 C        5.9720    -1.7930    -0.1930 C.ar  1 <1>  -0.1500 
 16 C        4.5650     3.7590    -0.1090 C.ar  1 <1>  -0.1500 
 17 C        3.1930     4.2460     1.7930 C.ar  1 <1>  -0.1500 
 18 C        6.5290    -1.2880    -1.3530 C.ar  1 <1>  -0.1500 
 19 C        4.7750     5.1110    -0.3180 C.ar  1 <1>   0.0820 
 20 C        3.4050     5.6000     1.5940 C.ar  1 <1>  -0.1500 
 21 O        5.5550     5.4440    -1.3740 O.3   1 <1>  -0.3630 
 22 C        4.1890     6.0360     0.5410 C.ar  1 <1>  -0.1500 
 23 C        5.9260     6.7840    -1.6170 C.3   1 <1>   0.0400 
 24 H        1.7470    -0.3620    -2.1000 H     1 <1>   0.0800 
 25 H        0.5170     1.7510    -1.8180 H     1 <1>   0.0800 
 26 H       -0.7540     1.7420    -0.6170 H     1 <1>   0.0800 
 27 H        2.4020    -0.5300     0.8490 H     1 <1>   0.0800 
 28 H        2.1660    -2.6290    -1.3830 H     1 <1>   0.0800 
 29 H        0.4230    -2.4360    -1.4460 H     1 <1>   0.0800 
 30 H        0.8450     1.6850     1.2040 H     1 <1>   0.0800 
 31 H        1.2440     3.0350     0.1740 H     1 <1>   0.0800 
 32 H        2.9850     1.7920    -0.8240 H     1 <1>   0.4500 
 33 H        0.9060    -3.3920     0.4870 H     1 <1>   0.4000 
 34 H        3.1110     1.6320     2.0880 H     1 <1>   0.0800 
 35 H        4.4730     1.3170     1.0310 H     1 <1>   0.0800 
 36 H        4.0070     0.6750    -2.3870 H     1 <1>   0.1500 
 37 H        4.2840    -1.8200     1.0960 H     1 <1>   0.1500 
 38 H        6.2490    -0.0150    -3.0400 H     1 <1>   0.1500 
 39 H        6.5320    -2.4900     0.4090 H     1 <1>   0.1500 
 40 H        5.0460     3.0680    -0.7800 H     1 <1>   0.1500 
 41 H        2.5820     3.9320     2.6230 H     1 <1>   0.1500 
 42 H        7.5190    -1.5900    -1.6520 H     1 <1>   0.1500 
 43 H        2.9590     6.3190     2.2610 H     1 <1>   0.1500 
 44 H        4.3350     7.0920     0.4070 H     1 <1>   0.1500 
 45 H        6.5750     6.8010    -2.4740 H     1 <1>   0.0800 
 46 H        6.4470     7.1650    -0.7570 H     1 <1>   0.0800 
 47 H        5.0410     7.3620    -1.8190 H     1 <1>   0.0800 
@<TRIPOS>BOND
  1   1   2  1   
  2   1   3  1   
  3   2   4  1   
  4   2   5  1   
  5   2  24  1   
  6   3   6  1   
  7   3  25  1   
  8   3  26  1   
  9   4   7  1   
 10   4   8  1   
 11   4  27  1   
 12   5   9  1   
 13   5  28  1   
 14   5  29  1   
 15   6   7  1   
 16   6  30  1   
 17   6  31  1   
 18   7  10  1   
 19   7  32  1   
 20   8  11  ar  
 21   8  12  ar  
 22   9  33  1   
 23  10  13  1   
 24  10  34  1   
 25  10  35  1   
 26  11  14  ar  
 27  11  36  1   
 28  12  15  ar  
 29  12  37  1   
 30  13  16  ar  
 31  13  17  ar  
 32  14  18  ar  
 33  14  38  1   
 34  15  18  ar  
 35  15  39  1   
 36  16  19  ar  
 37  16  40  1   
 38  17  20  ar  
 39  17  41  1   
 40  18  42  1   
 41  19  21  1   
 42  19  22  ar  
 43  20  22  ar  
 44  20  43  1   
 45  21  23  1   
 46  22  44  1   
 47  23  45  1   
 48  23  46  1   
 49  23  47  1   
@<TRIPOS>SUBSTRUCTURE
  1 ****   7 GROUP 4 **** **** 0

# MOE 2024.06 (io_trps.svl 2023.06)
