@<TRIPOS>MOLECULE
NONAME
57 59 1 0 0 
SMALL
USER_CHARGES


@<TRIPOS>ATOM
  1 O       -2.5990     1.1210    -2.5720 O.2   1 <1>  -0.5700 
  2 C       -2.2600     1.3160    -1.4320 C.2   1 <1>   0.5690 
  3 N       -1.9030     0.3030    -0.6080 N.am  1 <1>  -0.7300 
  4 C       -2.2400     2.7320    -0.8930 C.3   1 <1>  -0.0990 
  5 C       -1.7920    -1.1180    -1.0110 C.3   1 <1>   0.2200 
  6 C       -0.8070     3.2380    -0.6560 C.3   1 <1>  -0.1600 
  7 C       -2.9450    -1.9450    -0.4580 C.3   1 <1>  -0.0800 
  8 C       -0.6190    -1.7450    -0.2710 C.3   1 <1>   0.1200 
  9 C       -0.7910     4.6870    -0.1550 C.3   1 <1>  -0.0160 
 10 C       -2.4720    -2.2940     0.9590 C.3   1 <1>   0.1200 
 11 C       -4.3350    -1.2870    -0.5200 C.3   1 <1>  -0.0160 
 12 O       -1.1030    -2.0100     1.0100 O.3   1 <1>  -0.5600 
 13 C        0.6380     5.1410     0.0940 C.ar  1 <1>  -0.1440 
 14 C       -5.4110    -2.2480    -0.0390 C.ar  1 <1>  -0.1440 
 15 C        1.2020     5.0330     1.3540 C.ar  1 <1>  -0.1500 
 16 C        1.3960     5.6640    -0.9410 C.ar  1 <1>  -0.1500 
 17 C       -5.9130    -2.2070     1.2460 C.ar  1 <1>  -0.1500 
 18 C       -5.9410    -3.2150    -0.8690 C.ar  1 <1>  -0.1500 
 19 C        2.5050     5.4440     1.5770 C.ar  1 <1>  -0.1500 
 20 C        2.6980     6.0740    -0.7170 C.ar  1 <1>  -0.1500 
 21 C       -6.8880    -3.1140     1.6300 C.ar  1 <1>   0.1600 
 22 C       -6.9140    -4.0740    -0.3860 C.ar  1 <1>   0.1600 
 23 C        3.2670     5.9690     0.5440 C.ar  1 <1>  -0.1440 
 24 N       -7.3980    -4.0480     0.8450 N.ar  1 <1>  -0.6200 
 25 C        4.7030     6.4170     0.8080 C.3   1 <1>   0.0630 
 26 C        4.8690     7.9150     0.5310 C.3   1 <1>  -0.2400 
 27 C        5.6930     5.5970    -0.0260 C.3   1 <1>  -0.2400 
 28 H       -1.6250     0.4830     0.3590 H     1 <1>   0.3700 
 29 H       -2.7340     3.3710    -1.6030 H     1 <1>   0.0800 
 30 H       -2.7990     2.7600     0.0240 H     1 <1>   0.0800 
 31 H       -1.6940    -1.2030    -2.0810 H     1 <1>   0.0800 
 32 H       -0.3130     2.6110     0.0660 H     1 <1>   0.0800 
 33 H       -0.2530     3.1780    -1.5770 H     1 <1>   0.0800 
 34 H       -2.9850    -2.8630    -1.0170 H     1 <1>   0.0800 
 35 H        0.2350    -1.0940    -0.2120 H     1 <1>   0.0800 
 36 H       -0.3390    -2.6820    -0.7200 H     1 <1>   0.0800 
 37 H       -1.3570     4.7680     0.7570 H     1 <1>   0.0800 
 38 H       -1.2490     5.3320    -0.8840 H     1 <1>   0.0800 
 39 H       -2.6230    -3.3360     1.1830 H     1 <1>   0.0800 
 40 H       -2.9580    -1.6880     1.7030 H     1 <1>   0.0800 
 41 H       -4.5460    -0.9940    -1.5340 H     1 <1>   0.0800 
 42 H       -4.3590    -0.3960     0.0830 H     1 <1>   0.0800 
 43 H        0.6300     4.6280     2.1700 H     1 <1>   0.1500 
 44 H        0.9750     5.7520    -1.9270 H     1 <1>   0.1500 
 45 H       -5.5580    -1.4810     1.9540 H     1 <1>   0.1500 
 46 H       -5.6060    -3.3080    -1.8860 H     1 <1>   0.1500 
 47 H        2.9210     5.3500     2.5640 H     1 <1>   0.1500 
 48 H        3.2680     6.4770    -1.5350 H     1 <1>   0.1500 
 49 H       -7.2670    -3.0680     2.6360 H     1 <1>   0.1500 
 50 H       -7.3150    -4.8220    -1.0480 H     1 <1>   0.1500 
 51 H        4.9320     6.2490     1.8460 H     1 <1>   0.0800 
 52 H        4.7000     8.1340    -0.5070 H     1 <1>   0.0800 
 53 H        5.8610     8.2350     0.7950 H     1 <1>   0.0800 
 54 H        4.1610     8.4730     1.1180 H     1 <1>   0.0800 
 55 H        5.5420     5.7670    -1.0770 H     1 <1>   0.0800 
 56 H        5.5570     4.5490     0.1750 H     1 <1>   0.0800 
 57 H        6.7040     5.8660     0.2250 H     1 <1>   0.0800 
@<TRIPOS>BOND
  1   1   2  2   
  2   2   3  am  
  3   2   4  1   
  4   3   5  1   
  5   3  28  1   
  6   4   6  1   
  7   4  29  1   
  8   4  30  1   
  9   5   7  1   
 10   5   8  1   
 11   5  31  1   
 12   6   9  1   
 13   6  32  1   
 14   6  33  1   
 15   7  10  1   
 16   7  11  1   
 17   7  34  1   
 18   8  12  1   
 19   8  35  1   
 20   8  36  1   
 21   9  13  1   
 22   9  37  1   
 23   9  38  1   
 24  10  12  1   
 25  10  39  1   
 26  10  40  1   
 27  11  14  1   
 28  11  41  1   
 29  11  42  1   
 30  13  15  ar  
 31  13  16  ar  
 32  14  17  ar  
 33  14  18  ar  
 34  15  19  ar  
 35  15  43  1   
 36  16  20  ar  
 37  16  44  1   
 38  17  21  ar  
 39  17  45  1   
 40  18  22  ar  
 41  18  46  1   
 42  19  23  ar  
 43  19  47  1   
 44  20  23  ar  
 45  20  48  1   
 46  21  24  ar  
 47  21  49  1   
 48  22  24  ar  
 49  22  50  1   
 50  23  25  1   
 51  25  26  1   
 52  25  27  1   
 53  25  51  1   
 54  26  52  1   
 55  26  53  1   
 56  26  54  1   
 57  27  55  1   
 58  27  56  1   
 59  27  57  1   
@<TRIPOS>SUBSTRUCTURE
  1 ****   3 GROUP 4 **** **** 0

# MOE 2024.06 (io_trps.svl 2023.06)
