@<TRIPOS>MOLECULE
NONAME
42 43 1 0 0 
SMALL
USER_CHARGES


@<TRIPOS>ATOM
  1 N        0.2710     1.1330    -1.2230 N.ar  1 <1>  -0.6200 
  2 C       -0.0540     0.1530    -0.3920 C.ar  1 <1>   0.7710 
  3 C       -0.1480     2.3530    -0.9450 C.ar  1 <1>   0.4100 
  4 N       -0.7990     0.3740     0.7060 N.ar  1 <1>  -0.1790 
  5 N        0.3790    -1.1150    -0.6480 N.pl3 1 <1>  -0.8380 
  6 N        0.2560     3.3620    -1.7590 N.pl3 1 <1>  -0.8380 
  7 C       -0.9740     2.6080     0.1660 C.ar  1 <1>  -0.1500 
  8 C       -1.2870     1.5980     1.0080 C.ar  1 <1>   0.2180 
  9 C        1.3460    -1.3890    -1.7630 C.3   1 <1>   0.1290 
 10 C       -0.0600    -2.3720     0.0360 C.3   1 <1>   0.1290 
 11 C        0.5920     4.7390    -1.2460 C.3   1 <1>   0.3530 
 12 C        0.5590     3.1430    -3.2040 C.3   1 <1>   0.1290 
 13 C       -2.1420     1.7750     2.2500 C.3   1 <1>  -0.0970 
 14 C        1.2400     4.7520     0.1480 C.ar  1 <1>   0.1670 
 15 N        0.5030     5.3010     1.1110 N.ar  1 <1>  -0.6200 
 16 C        2.5170     4.2260     0.3560 C.ar  1 <1>  -0.1430 
 17 C        1.0520     5.3450     2.3130 C.ar  1 <1>   0.1600 
 18 C        3.0610     4.2740     1.6240 C.ar  1 <1>  -0.1500 
 19 C        3.3400     3.5980    -0.7630 C.3   1 <1>  -0.0970 
 20 C        2.3060     4.8510     2.6190 C.ar  1 <1>  -0.1500 
 21 H       -0.9540    -0.4320     1.2940 H     1 <1>   0.4570 
 22 H       -1.3350     3.6070     0.3210 H     1 <1>   0.1500 
 23 H        1.9430    -0.5210    -1.9890 H     1 <1>   0.0800 
 24 H        0.8070    -1.6770    -2.6500 H     1 <1>   0.0800 
 25 H        2.0170    -2.1850    -1.4880 H     1 <1>   0.0800 
 26 H       -0.9840    -2.2390     0.5680 H     1 <1>   0.0800 
 27 H        0.7040    -2.7010     0.7210 H     1 <1>   0.0800 
 28 H       -0.2150    -3.1480    -0.6960 H     1 <1>   0.0800 
 29 H       -0.3080     5.3280    -1.2240 H     1 <1>   0.0800 
 30 H        1.2670     5.2220    -1.9300 H     1 <1>   0.0800 
 31 H        0.1370     2.2130    -3.5430 H     1 <1>   0.0800 
 32 H        1.6240     3.1150    -3.3540 H     1 <1>   0.0800 
 33 H        0.1370     3.9390    -3.7920 H     1 <1>   0.0800 
 34 H       -3.0310     1.1730     2.1850 H     1 <1>   0.0800 
 35 H       -2.4400     2.8040     2.3540 H     1 <1>   0.0800 
 36 H       -1.5890     1.4980     3.1300 H     1 <1>   0.0800 
 37 H        0.4730     5.8010     3.0980 H     1 <1>   0.1500 
 38 H        4.0410     3.8830     1.8360 H     1 <1>   0.1500 
 39 H        3.4120     4.2680    -1.6000 H     1 <1>   0.0800 
 40 H        2.8820     2.6800    -1.0850 H     1 <1>   0.0800 
 41 H        4.3380     3.3760    -0.4290 H     1 <1>   0.0800 
 42 H        2.6850     4.9230     3.6220 H     1 <1>   0.1500 
@<TRIPOS>BOND
  1   1   2  ar  
  2   1   3  ar  
  3   2   4  ar  
  4   2   5  1   
  5   3   6  1   
  6   3   7  ar  
  7   4   8  ar  
  8   4  21  1   
  9   5   9  1   
 10   5  10  1   
 11   6  11  1   
 12   6  12  1   
 13   7   8  ar  
 14   7  22  1   
 15   8  13  1   
 16   9  23  1   
 17   9  24  1   
 18   9  25  1   
 19  10  26  1   
 20  10  27  1   
 21  10  28  1   
 22  11  14  1   
 23  11  29  1   
 24  11  30  1   
 25  12  31  1   
 26  12  32  1   
 27  12  33  1   
 28  13  34  1   
 29  13  35  1   
 30  13  36  1   
 31  14  15  ar  
 32  14  16  ar  
 33  15  17  ar  
 34  16  18  ar  
 35  16  19  1   
 36  17  20  ar  
 37  17  37  1   
 38  18  20  ar  
 39  18  38  1   
 40  19  39  1   
 41  19  40  1   
 42  19  41  1   
 43  20  42  1   
@<TRIPOS>SUBSTRUCTURE
  1 ****   3 GROUP 4 **** **** 0

# MOE 2024.06 (io_trps.svl 2023.06)
