@<TRIPOS>MOLECULE
NONAME
46 48 1 0 0 
SMALL
USER_CHARGES


@<TRIPOS>ATOM
  1 O       -1.6470     0.2620     1.9800 O.2   1 <1>  -0.5700 
  2 C       -1.7370     0.8860     0.9490 C.2   1 <1>   0.5690 
  3 N       -1.9680     0.2600    -0.2380 N.am  1 <1>  -0.7300 
  4 C       -1.6590     2.4190     0.9920 C.3   1 <1>   0.1710 
  5 C       -2.0280    -1.2170    -0.4220 C.3   1 <1>   0.1400 
  6 N       -0.4000     3.0400     0.4850 N.3   1 <1>  -0.8100 
  7 C       -3.2610    -1.8370     0.2510 C.3   1 <1>   0.2000 
  8 C       -0.3800     4.4820     0.8100 C.3   1 <1>   0.2530 
  9 C       -0.1930     2.8280    -0.9570 C.3   1 <1>   0.0300 
 10 O       -3.3960    -3.1550    -0.1660 O.3   1 <1>  -0.5600 
 11 C       -4.5950    -1.2000    -0.1230 C.3   1 <1>  -0.1600 
 12 C        0.9980     5.1020     0.5850 C.ar  1 <1>  -0.1440 
 13 C       -4.6920    -3.5940     0.0780 C.3   1 <1>   0.1200 
 14 C       -5.5790    -2.3530     0.0040 C.3   1 <1>  -0.1600 
 15 C        1.1050     6.3800    -0.0110 C.ar  1 <1>   0.3100 
 16 C        2.1240     4.4200     0.9760 C.ar  1 <1>  -0.1500 
 17 N       -0.0200     7.0560    -0.3830 N.ar  1 <1>  -0.6200 
 18 C        2.3970     6.9270    -0.2030 C.ar  1 <1>   0.0000 
 19 C        3.3960     4.9670     0.7870 C.ar  1 <1>  -0.1500 
 20 C        0.1240     8.2240    -0.9310 C.ar  1 <1>   0.1600 
 21 C        2.5040     8.1940    -0.8020 C.ar  1 <1>  -0.1500 
 22 C        3.5280     6.1970     0.2070 C.ar  1 <1>  -0.1500 
 23 C        1.3610     8.8370    -1.1640 C.ar  1 <1>  -0.1500 
 24 H       -2.0000     0.8170    -1.0910 H     1 <1>   0.3700 
 25 H       -1.7850     2.6990     2.0230 H     1 <1>   0.0800 
 26 H       -2.4970     2.8170     0.4480 H     1 <1>   0.0800 
 27 H       -1.1430    -1.6590     0.0030 H     1 <1>   0.0800 
 28 H       -2.0530    -1.4380    -1.4750 H     1 <1>   0.0800 
 29 H       -3.1340    -1.8470     1.3210 H     1 <1>   0.0800 
 30 H       -0.6300     4.6190     1.8480 H     1 <1>   0.0800 
 31 H       -1.1350     4.9780     0.2240 H     1 <1>   0.0800 
 32 H       -0.0630     1.7810    -1.1620 H     1 <1>   0.0800 
 33 H        0.7010     3.3310    -1.2840 H     1 <1>   0.0800 
 34 H       -1.0270     3.2090    -1.5200 H     1 <1>   0.0800 
 35 H       -4.5600    -0.8510    -1.1400 H     1 <1>   0.0800 
 36 H       -4.8320    -0.3780     0.5290 H     1 <1>   0.0800 
 37 H       -4.7160    -4.0330     1.0610 H     1 <1>   0.0800 
 38 H       -4.9520    -4.3300    -0.6630 H     1 <1>   0.0800 
 39 H       -6.2390    -2.4010    -0.8450 H     1 <1>   0.0800 
 40 H       -6.1650    -2.2710     0.9020 H     1 <1>   0.0800 
 41 H        2.0400     3.4480     1.4330 H     1 <1>   0.1500 
 42 H        4.2580     4.4050     1.1030 H     1 <1>   0.1500 
 43 H       -0.7630     8.7570    -1.2260 H     1 <1>   0.1500 
 44 H        3.4750     8.6290    -0.9610 H     1 <1>   0.1500 
 45 H        4.5030     6.6250     0.0560 H     1 <1>   0.1500 
 46 H        1.3830     9.8080    -1.6250 H     1 <1>   0.1500 
@<TRIPOS>BOND
  1   1   2  2   
  2   2   3  am  
  3   2   4  1   
  4   3   5  1   
  5   3  24  1   
  6   4   6  1   
  7   4  25  1   
  8   4  26  1   
  9   5   7  1   
 10   5  27  1   
 11   5  28  1   
 12   6   8  1   
 13   6   9  1   
 14   7  10  1   
 15   7  11  1   
 16   7  29  1   
 17   8  12  1   
 18   8  30  1   
 19   8  31  1   
 20   9  32  1   
 21   9  33  1   
 22   9  34  1   
 23  10  13  1   
 24  11  14  1   
 25  11  35  1   
 26  11  36  1   
 27  12  15  ar  
 28  12  16  ar  
 29  13  14  1   
 30  13  37  1   
 31  13  38  1   
 32  14  39  1   
 33  14  40  1   
 34  15  17  ar  
 35  15  18  ar  
 36  16  19  ar  
 37  16  41  1   
 38  17  20  ar  
 39  18  21  ar  
 40  18  22  ar  
 41  19  22  ar  
 42  19  42  1   
 43  20  23  ar  
 44  20  43  1   
 45  21  23  ar  
 46  21  44  1   
 47  22  45  1   
 48  23  46  1   
@<TRIPOS>SUBSTRUCTURE
  1 ****   6 GROUP 4 **** **** 0

# MOE 2024.06 (io_trps.svl 2023.06)
