@<TRIPOS>MOLECULE
NONAME
43 45 1 0 0 
SMALL
USER_CHARGES


@<TRIPOS>ATOM
  1 CL      -0.7490     0.3920     1.7040 Cl    1 <1>  -0.1770 
  2 C       -2.0030     1.0170     0.6640 C.ar  1 <1>   0.1770 
  3 C       -1.7930     2.1850    -0.0490 C.ar  1 <1>   0.1600 
  4 C       -3.1980     0.3450     0.5590 C.ar  1 <1>  -0.1500 
  5 N       -2.6900     2.7260    -0.8630 N.ar  1 <1>  -0.6200 
  6 C       -4.1630     0.8900    -0.2770 C.ar  1 <1>   0.0860 
  7 C       -3.8350     2.0620    -0.9590 C.ar  1 <1>   0.1600 
  8 C       -5.4580     0.2690    -0.4480 C.2   1 <1>   0.5440 
  9 O       -5.5150    -0.9200    -0.6930 O.2   1 <1>  -0.5700 
 10 N       -6.6290     0.9860    -0.3310 N.am  1 <1>  -0.6600 
 11 C       -7.9210     0.3840    -0.7760 C.3   1 <1>   0.1400 
 12 C       -6.7070     2.3000     0.3770 C.3   1 <1>   0.1400 
 13 C       -8.9190     1.4790    -1.1610 C.3   1 <1>  -0.1600 
 14 C       -8.0770     2.4580     1.0350 C.3   1 <1>  -0.1600 
 15 C       -9.2000     2.4920    -0.0220 C.3   1 <1>   0.2800 
 16 O       -9.1750     3.7540    -0.6460 O.3   1 <1>  -0.5600 
 17 C      -10.5850     2.2410     0.6300 C.3   1 <1>  -0.1600 
 18 C       -9.8160     4.8240    -0.0090 C.3   1 <1>   0.1200 
 19 C      -11.6960     3.0880     0.0020 C.3   1 <1>   0.2800 
 20 C      -11.3290     4.5710     0.1030 C.3   1 <1>  -0.1600 
 21 O      -11.7600     2.7830    -1.3320 O.3   1 <1>  -0.6800 
 22 C      -13.0710     2.7860     0.5890 C.3   1 <1>  -0.2400 
 23 H       -0.8480     2.6890     0.0570 H     1 <1>   0.1500 
 24 H       -3.3800    -0.5680     1.0990 H     1 <1>   0.1500 
 25 H       -4.5730     2.4720    -1.6290 H     1 <1>   0.1500 
 26 H       -8.3210    -0.2190     0.0220 H     1 <1>   0.0800 
 27 H       -7.7480    -0.2580    -1.6230 H     1 <1>   0.0800 
 28 H       -6.5560     3.0980    -0.3310 H     1 <1>   0.0800 
 29 H       -5.9400     2.3570     1.1300 H     1 <1>   0.0800 
 30 H       -9.8280     1.0040    -1.4810 H     1 <1>   0.0800 
 31 H       -8.5140     1.9920    -2.0160 H     1 <1>   0.0800 
 32 H       -8.0900     3.3470     1.6350 H     1 <1>   0.0800 
 33 H       -8.2240     1.6270     1.7020 H     1 <1>   0.0800 
 34 H      -10.5330     2.4930     1.6740 H     1 <1>   0.0800 
 35 H      -10.8400     1.1980     0.5890 H     1 <1>   0.0800 
 36 H       -9.6280     5.7110    -0.5880 H     1 <1>   0.0800 
 37 H       -9.3810     4.9560     0.9650 H     1 <1>   0.0800 
 38 H      -11.8560     5.1330    -0.6480 H     1 <1>   0.0800 
 39 H      -11.6480     4.9550     1.0550 H     1 <1>   0.0800 
 40 H      -10.9010     3.0510    -1.7210 H     1 <1>   0.4000 
 41 H      -13.0830     2.9980     1.6420 H     1 <1>   0.0800 
 42 H      -13.3150     1.7480     0.4480 H     1 <1>   0.0800 
 43 H      -13.8200     3.3910     0.1100 H     1 <1>   0.0800 
@<TRIPOS>BOND
  1   1   2  1   
  2   2   3  ar  
  3   2   4  ar  
  4   3   5  ar  
  5   3  23  1   
  6   4   6  ar  
  7   4  24  1   
  8   5   7  ar  
  9   6   7  ar  
 10   6   8  1   
 11   7  25  1   
 12   8   9  2   
 13   8  10  am  
 14  10  11  1   
 15  10  12  1   
 16  11  13  1   
 17  11  26  1   
 18  11  27  1   
 19  12  14  1   
 20  12  28  1   
 21  12  29  1   
 22  13  15  1   
 23  13  30  1   
 24  13  31  1   
 25  14  15  1   
 26  14  32  1   
 27  14  33  1   
 28  15  16  1   
 29  15  17  1   
 30  16  18  1   
 31  17  19  1   
 32  17  34  1   
 33  17  35  1   
 34  18  20  1   
 35  18  36  1   
 36  18  37  1   
 37  19  20  1   
 38  19  21  1   
 39  19  22  1   
 40  20  38  1   
 41  20  39  1   
 42  21  40  1   
 43  22  41  1   
 44  22  42  1   
 45  22  43  1   
@<TRIPOS>SUBSTRUCTURE
  1 ****  12 GROUP 4 **** **** 0

# MOE 2024.06 (io_trps.svl 2023.06)
