@<TRIPOS>MOLECULE
NONAME
37 38 1 0 0 
SMALL
USER_CHARGES


@<TRIPOS>ATOM
  1 S        1.1660    -0.1220     1.8150 S.3   1 <1>  -0.0800 
  2 C       -0.3360    -0.2530     0.9400 C.2   1 <1>   0.1980 
  3 C        1.1580     1.5890     1.5190 C.2   1 <1>  -0.1100 
  4 N       -0.7770     0.8560     0.5000 N.2   1 <1>  -0.5650 
  5 C       -0.9640    -1.6340     0.7850 C.3   1 <1>   0.5230 
  6 C        0.0610     1.9430     0.8080 C.2   1 <1>   0.1410 
  7 N       -2.1290    -1.5620    -0.1640 N.4   1 <1>  -0.9590 
  8 C       -0.2790     3.2920     0.3580 C.2   1 <1>   0.7160 
  9 C       -3.0850    -2.6970    -0.0010 C.3   1 <1>   0.2630 
 10 C       -1.6750    -1.4070    -1.5820 C.3   1 <1>   0.2630 
 11 O       -1.0770     3.4570    -0.5480 O.2   1 <1>  -0.5700 
 12 N        0.3110     4.3730     0.9650 N.am  1 <1>  -0.4930 
 13 C        0.1950     5.7560     0.6660 C.2   1 <1>   0.0630 
 14 C        0.7560     6.8170     1.3830 C.2   1 <1>   0.1080 
 15 C       -0.4590     6.3540    -0.3500 C.2   1 <1>  -0.3020 
 16 N        0.4770     7.9690     0.8580 N.2   1 <1>  -0.7070 
 17 C        1.5990     6.6940     2.6320 C.3   1 <1>  -0.0590 
 18 N       -0.2780     7.6820    -0.2160 N.pl3 1 <1>   0.3140 
 19 C       -0.8140     8.7260    -1.0940 C.3   1 <1>   0.0160 
 20 H        1.9860     2.1590     1.9010 H     1 <1>   0.1500 
 21 H       -1.2990    -1.9640     1.7530 H     1 <1>   0.0800 
 22 H       -0.2280    -2.3300     0.4200 H     1 <1>   0.0800 
 23 H       -2.5970    -0.6680     0.0810 H     1 <1>   0.4500 
 24 H       -2.6050    -3.6310    -0.2440 H     1 <1>   0.0800 
 25 H       -3.9320    -2.5650    -0.6550 H     1 <1>   0.0800 
 26 H       -3.4430    -2.7440     1.0150 H     1 <1>   0.0800 
 27 H       -1.1210    -2.2740    -1.9010 H     1 <1>   0.0800 
 28 H       -1.0450    -0.5360    -1.6790 H     1 <1>   0.0800 
 29 H       -2.5250    -1.2790    -2.2340 H     1 <1>   0.0800 
 30 H        0.8910     4.1700     1.7720 H     1 <1>   0.3700 
 31 H       -1.0330     5.9140    -1.1440 H     1 <1>   0.1500 
 32 H        1.0630     6.1480     3.3850 H     1 <1>   0.0800 
 33 H        1.8260     7.6730     3.0130 H     1 <1>   0.0800 
 34 H        2.5200     6.1910     2.4030 H     1 <1>   0.0800 
 35 H       -1.8860     8.7050    -1.0500 H     1 <1>   0.0800 
 36 H       -0.4830     8.5450    -2.0990 H     1 <1>   0.0800 
 37 H       -0.4560     9.6830    -0.7620 H     1 <1>   0.0800 
@<TRIPOS>BOND
  1   1   2  1   
  2   1   3  1   
  3   2   4  2   
  4   2   5  1   
  5   3   6  2   
  6   3  20  1   
  7   4   6  1   
  8   5   7  1   
  9   5  21  1   
 10   5  22  1   
 11   6   8  1   
 12   7   9  1   
 13   7  10  1   
 14   7  23  1   
 15   8  11  2   
 16   8  12  am  
 17   9  24  1   
 18   9  25  1   
 19   9  26  1   
 20  10  27  1   
 21  10  28  1   
 22  10  29  1   
 23  12  13  1   
 24  12  30  1   
 25  13  14  1   
 26  13  15  2   
 27  14  16  2   
 28  14  17  1   
 29  15  18  1   
 30  15  31  1   
 31  16  18  1   
 32  17  32  1   
 33  17  33  1   
 34  17  34  1   
 35  18  19  1   
 36  19  35  1   
 37  19  36  1   
 38  19  37  1   
@<TRIPOS>SUBSTRUCTURE
  1 ****   8 GROUP 4 **** **** 0

# MOE 2024.06 (io_trps.svl 2023.06)
