@<TRIPOS>MOLECULE
NONAME
50 53 1 0 0 
SMALL
USER_CHARGES


@<TRIPOS>ATOM
  1 CL       0.1500    -0.6030     0.2910 Cl    1 <1>  -0.1770 
  2 C       -1.4440    -1.3140     0.2150 C.ar  1 <1>   0.1770 
  3 C       -1.8020    -2.2800     1.1360 C.ar  1 <1>  -0.1500 
  4 C       -2.3250    -0.9000    -0.7660 C.ar  1 <1>  -0.1500 
  5 C       -3.0660    -2.8410     1.0700 C.ar  1 <1>  -0.1500 
  6 C       -3.5870    -1.4660    -0.8230 C.ar  1 <1>  -0.1500 
  7 C       -3.9760    -2.4400     0.0930 C.ar  1 <1>   0.1170 
  8 N       -5.2590    -2.9940    -0.0160 N.am  1 <1>  -0.5470 
  9 C       -6.0720    -3.5820     0.9120 C.2   1 <1>   0.6900 
 10 O       -5.7750    -3.5670     2.0920 O.2   1 <1>  -0.5700 
 11 N       -7.2440    -4.1640     0.4940 N.am  1 <1>  -0.6600 
 12 C       -8.2630    -4.6360     1.4740 C.3   1 <1>   0.1400 
 13 C       -7.5570    -4.5470    -0.9130 C.3   1 <1>   0.1400 
 14 C       -8.3710    -6.1610     1.4040 C.3   1 <1>  -0.1600 
 15 C       -7.6620    -6.0710    -1.0170 C.3   1 <1>  -0.1600 
 16 C       -8.6850    -6.6520    -0.0240 C.3   1 <1>   0.4240 
 17 O       -9.9010    -6.0460    -0.4080 O.3   1 <1>  -0.5600 
 18 C       -8.7630    -8.2030    -0.1230 C.ar  1 <1>  -0.1430 
 19 C      -11.0840    -6.6560    -0.0090 C.3   1 <1>   0.1200 
 20 C       -7.6590    -9.0250     0.1420 C.ar  1 <1>   0.0830 
 21 C       -9.9650    -8.8160    -0.4800 C.ar  1 <1>  -0.1430 
 22 C      -11.2000    -7.9810    -0.7470 C.3   1 <1>  -0.0170 
 23 O       -6.4870    -8.4510     0.5180 O.3   1 <1>  -0.3630 
 24 C       -7.7700   -10.4100     0.0240 C.ar  1 <1>  -0.1500 
 25 C      -10.0620   -10.1920    -0.5950 C.ar  1 <1>  -0.1500 
 26 C       -5.3580    -9.1970     0.9160 C.3   1 <1>   0.0400 
 27 C       -8.9660   -10.9900    -0.3450 C.ar  1 <1>  -0.1500 
 28 H       -1.1020    -2.5870     1.8920 H     1 <1>   0.1500 
 29 H       -2.0220    -0.1460    -1.4700 H     1 <1>   0.1500 
 30 H       -3.3460    -3.5960     1.7820 H     1 <1>   0.1500 
 31 H       -4.2760    -1.1440    -1.5830 H     1 <1>   0.1500 
 32 H       -5.7280    -2.8520    -0.9010 H     1 <1>   0.3700 
 33 H       -9.2130    -4.1870     1.2360 H     1 <1>   0.0800 
 34 H       -8.0000    -4.3370     2.4740 H     1 <1>   0.0800 
 35 H       -6.7990    -4.2040    -1.5920 H     1 <1>   0.0800 
 36 H       -8.4920    -4.0950    -1.2000 H     1 <1>   0.0800 
 37 H       -9.1200    -6.5100     2.0880 H     1 <1>   0.0800 
 38 H       -7.4360    -6.5630     1.7390 H     1 <1>   0.0800 
 39 H       -6.6860    -6.4750    -0.8410 H     1 <1>   0.0800 
 40 H       -7.9490    -6.3520    -2.0130 H     1 <1>   0.0800 
 41 H      -11.8990    -6.0040    -0.2710 H     1 <1>   0.0800 
 42 H      -11.0730    -6.8020     1.0560 H     1 <1>   0.0800 
 43 H      -11.2970    -7.7980    -1.8020 H     1 <1>   0.0800 
 44 H      -12.0810    -8.4970    -0.4080 H     1 <1>   0.0800 
 45 H       -6.9360   -11.0570     0.2130 H     1 <1>   0.1500 
 46 H      -10.9940   -10.6500    -0.8800 H     1 <1>   0.1500 
 47 H       -4.5900    -8.5060     1.2120 H     1 <1>   0.0800 
 48 H       -5.0180    -9.7860     0.0830 H     1 <1>   0.0800 
 49 H       -5.6290    -9.8210     1.7490 H     1 <1>   0.0800 
 50 H       -9.0440   -12.0590    -0.4370 H     1 <1>   0.1500 
@<TRIPOS>BOND
  1   1   2  1   
  2   2   3  ar  
  3   2   4  ar  
  4   3   5  ar  
  5   3  28  1   
  6   4   6  ar  
  7   4  29  1   
  8   5   7  ar  
  9   5  30  1   
 10   6   7  ar  
 11   6  31  1   
 12   7   8  1   
 13   8   9  am  
 14   8  32  1   
 15   9  10  2   
 16   9  11  am  
 17  11  12  1   
 18  11  13  1   
 19  12  14  1   
 20  12  33  1   
 21  12  34  1   
 22  13  15  1   
 23  13  35  1   
 24  13  36  1   
 25  14  16  1   
 26  14  37  1   
 27  14  38  1   
 28  15  16  1   
 29  15  39  1   
 30  15  40  1   
 31  16  17  1   
 32  16  18  1   
 33  17  19  1   
 34  18  20  ar  
 35  18  21  ar  
 36  19  22  1   
 37  19  41  1   
 38  19  42  1   
 39  20  23  1   
 40  20  24  ar  
 41  21  22  1   
 42  21  25  ar  
 43  22  43  1   
 44  22  44  1   
 45  23  26  1   
 46  24  27  ar  
 47  24  45  1   
 48  25  27  ar  
 49  25  46  1   
 50  26  47  1   
 51  26  48  1   
 52  26  49  1   
 53  27  50  1   
@<TRIPOS>SUBSTRUCTURE
  1 ****  11 GROUP 4 **** **** 0

# MOE 2024.06 (io_trps.svl 2023.06)
