@<TRIPOS>MOLECULE
NONAME
48 50 1 0 0 
SMALL
USER_CHARGES


@<TRIPOS>ATOM
  1 O       -1.4000     0.5670     1.3390 O.3   1 <1>  -0.5600 
  2 C       -1.9700     1.6350     0.6540 C.3   1 <1>   0.1200 
  3 C       -1.0680    -0.5530     0.5880 C.3   1 <1>   0.1200 
  4 C       -3.4170     1.3350     0.2080 C.3   1 <1>   0.4230 
  5 C       -2.3210    -1.3810     0.2690 C.3   1 <1>  -0.0800 
  6 N       -3.4420     0.5220    -1.0780 N.4   1 <1>  -0.9590 
  7 C       -4.2730     0.7840     1.3970 C.3   1 <1>   0.2090 
  8 C       -3.2570    -1.5630     1.4790 C.3   1 <1>   0.2090 
  9 C       -3.0610    -0.9320    -0.9970 C.3   1 <1>   0.3430 
 10 C       -4.7630     0.6260    -1.7720 C.3   1 <1>   0.2630 
 11 N       -4.4920    -0.7090     1.4240 N.pl3 1 <1>  -0.8380 
 12 C       -5.7000    -1.2830     1.2370 C.ar  1 <1>   0.7710 
 13 N       -5.8400    -2.1030     0.2110 N.ar  1 <1>  -0.6200 
 14 N       -6.7020    -0.9910     2.0840 N.ar  1 <1>  -0.1790 
 15 C       -7.0300    -2.6380     0.0010 C.ar  1 <1>   0.4100 
 16 C       -7.9320    -1.5320     1.9170 C.ar  1 <1>   0.2110 
 17 N       -7.1700    -3.4560    -1.0770 N.pl3 1 <1>  -0.8380 
 18 C       -8.1130    -2.3630     0.8640 C.ar  1 <1>  -0.1500 
 19 C       -8.4740    -3.7590    -1.7340 C.3   1 <1>   0.2090 
 20 C       -6.0070    -4.1230    -1.7450 C.3   1 <1>   0.1290 
 21 C       -9.0180    -5.0880    -1.2160 C.3   1 <1>  -0.2400 
 22 H       -1.9800     2.4630     1.3410 H     1 <1>   0.0800 
 23 H       -1.3400     1.9050    -0.1760 H     1 <1>   0.0800 
 24 H       -0.5330    -0.2520    -0.2980 H     1 <1>   0.0800 
 25 H       -0.3980    -1.1380     1.1970 H     1 <1>   0.0800 
 26 H       -3.8280     2.3020    -0.0290 H     1 <1>   0.0800 
 27 H       -1.9500    -2.3650     0.0430 H     1 <1>   0.0800 
 28 H       -2.7450     0.9590    -1.6970 H     1 <1>   0.4500 
 29 H       -5.2270     1.2780     1.3520 H     1 <1>   0.0800 
 30 H       -3.8150     1.0860     2.3250 H     1 <1>   0.0800 
 31 H       -2.7220    -1.3610     2.3930 H     1 <1>   0.0800 
 32 H       -3.5550    -2.5990     1.5210 H     1 <1>   0.0800 
 33 H       -3.9490    -1.5360    -1.0830 H     1 <1>   0.0800 
 34 H       -2.4450    -1.1700    -1.8490 H     1 <1>   0.0800 
 35 H       -5.5290     0.1340    -1.1940 H     1 <1>   0.0800 
 36 H       -4.7150     0.1520    -2.7400 H     1 <1>   0.0800 
 37 H       -5.0390     1.6580    -1.9130 H     1 <1>   0.0800 
 38 H       -6.4580    -0.4130     2.8850 H     1 <1>   0.4570 
 39 H       -8.7180    -1.2960     2.6190 H     1 <1>   0.1500 
 40 H       -9.0630    -2.8270     0.6850 H     1 <1>   0.1500 
 41 H       -9.1820    -2.9710    -1.5430 H     1 <1>   0.0800 
 42 H       -8.3380    -3.8150    -2.8020 H     1 <1>   0.0800 
 43 H       -6.2440    -5.1490    -1.9680 H     1 <1>   0.0800 
 44 H       -5.1400    -4.1180    -1.1090 H     1 <1>   0.0800 
 45 H       -5.7740    -3.6150    -2.6640 H     1 <1>   0.0800 
 46 H       -9.1310    -5.0660    -0.1480 H     1 <1>   0.0800 
 47 H       -8.3630    -5.8960    -1.4840 H     1 <1>   0.0800 
 48 H       -9.9800    -5.2790    -1.6560 H     1 <1>   0.0800 
@<TRIPOS>BOND
  1   1   2  1   
  2   1   3  1   
  3   2   4  1   
  4   2  22  1   
  5   2  23  1   
  6   3   5  1   
  7   3  24  1   
  8   3  25  1   
  9   4   6  1   
 10   4   7  1   
 11   4  26  1   
 12   5   8  1   
 13   5   9  1   
 14   5  27  1   
 15   6   9  1   
 16   6  10  1   
 17   6  28  1   
 18   7  11  1   
 19   7  29  1   
 20   7  30  1   
 21   8  11  1   
 22   8  31  1   
 23   8  32  1   
 24   9  33  1   
 25   9  34  1   
 26  10  35  1   
 27  10  36  1   
 28  10  37  1   
 29  11  12  1   
 30  12  13  ar  
 31  12  14  ar  
 32  13  15  ar  
 33  14  16  ar  
 34  14  38  1   
 35  15  17  1   
 36  15  18  ar  
 37  16  18  ar  
 38  16  39  1   
 39  17  19  1   
 40  17  20  1   
 41  18  40  1   
 42  19  21  1   
 43  19  41  1   
 44  19  42  1   
 45  20  43  1   
 46  20  44  1   
 47  20  45  1   
 48  21  46  1   
 49  21  47  1   
 50  21  48  1   
@<TRIPOS>SUBSTRUCTURE
  1 ****  13 GROUP 4 **** **** 0

# MOE 2024.06 (io_trps.svl 2023.06)
