@<TRIPOS>MOLECULE
NONAME
45 47 1 0 0 
SMALL
USER_CHARGES


@<TRIPOS>ATOM
  1 F        3.2910    -1.7180     3.2140 F     1 <1>  -0.1900 
  2 C        2.9390    -1.8430     1.9630 C.ar  1 <1>   0.1900 
  3 C        2.7070    -3.1100     1.4610 C.ar  1 <1>  -0.1500 
  4 C        2.8100    -0.7060     1.1900 C.ar  1 <1>  -0.1500 
  5 C        2.3310    -3.2460     0.1330 C.ar  1 <1>  -0.1440 
  6 C        2.4350    -0.8470    -0.1350 C.ar  1 <1>  -0.1500 
  7 C        2.1980    -2.1110    -0.6570 C.ar  1 <1>  -0.1500 
  8 C        2.0610    -4.6220    -0.4530 C.3   1 <1>  -0.0160 
  9 C        0.5670    -4.9520    -0.3710 C.3   1 <1>  -0.0990 
 10 C        0.2910    -6.3360    -0.9120 C.2   1 <1>   0.5690 
 11 O        0.1610    -6.4880    -2.1010 O.2   1 <1>  -0.5700 
 12 N        0.2080    -7.3700    -0.0420 N.am  1 <1>  -0.7300 
 13 C       -0.0230    -8.7800    -0.4240 C.3   1 <1>   0.2200 
 14 C       -1.4260    -9.1860    -0.0060 C.3   1 <1>  -0.0800 
 15 C        0.8340    -9.6870     0.4490 C.3   1 <1>   0.1200 
 16 C       -1.2300    -9.5880     1.4620 C.3   1 <1>   0.1200 
 17 C       -1.9560   -10.3490    -0.8660 C.3   1 <1>  -0.0170 
 18 O        0.1370    -9.8200     1.6510 O.3   1 <1>  -0.5600 
 19 C       -3.3690   -10.7420    -0.4630 C.ar  1 <1>  -0.1430 
 20 C       -4.4600    -9.9640    -0.7950 C.ar  1 <1>  -0.1500 
 21 C       -3.6370   -11.8920     0.2530 C.ar  1 <1>  -0.1500 
 22 C       -5.7280   -10.3590    -0.4040 C.ar  1 <1>   0.1600 
 23 C       -4.9440   -12.1960     0.5950 C.ar  1 <1>   0.1600 
 24 N       -5.9960   -11.4560     0.2860 N.ar  1 <1>  -0.6200 
 25 H        2.8210    -3.9630     2.1040 H     1 <1>   0.1500 
 26 H        2.9990     0.2620     1.6170 H     1 <1>   0.1500 
 27 H        2.3270     0.0220    -0.7610 H     1 <1>   0.1500 
 28 H        1.9060    -2.2070    -1.6890 H     1 <1>   0.1500 
 29 H        2.3790    -4.6480    -1.4810 H     1 <1>   0.0800 
 30 H        2.6280    -5.3630     0.0820 H     1 <1>   0.0800 
 31 H        0.0080    -4.2400    -0.9500 H     1 <1>   0.0800 
 32 H        0.2330    -4.8880     0.6480 H     1 <1>   0.0800 
 33 H        0.3120    -7.2220     0.9640 H     1 <1>   0.3700 
 34 H        0.1680    -8.9220    -1.4750 H     1 <1>   0.0800 
 35 H       -2.1100    -8.3590    -0.0890 H     1 <1>   0.0800 
 36 H        1.8110    -9.2800     0.6390 H     1 <1>   0.0800 
 37 H        0.9240   -10.6650     0.0120 H     1 <1>   0.0800 
 38 H       -1.7730   -10.4780     1.7310 H     1 <1>   0.0800 
 39 H       -1.5170    -8.7860     2.1200 H     1 <1>   0.0800 
 40 H       -1.3070   -11.2030    -0.7820 H     1 <1>   0.0800 
 41 H       -1.9660   -10.0510    -1.9000 H     1 <1>   0.0800 
 42 H       -4.3360    -9.0550    -1.3560 H     1 <1>   0.1500 
 43 H       -2.8440   -12.5540     0.5480 H     1 <1>   0.1500 
 44 H       -6.5670    -9.7400    -0.6720 H     1 <1>   0.1500 
 45 H       -5.1340   -13.0970     1.1540 H     1 <1>   0.1500 
@<TRIPOS>BOND
  1   1   2  1   
  2   2   3  ar  
  3   2   4  ar  
  4   3   5  ar  
  5   3  25  1   
  6   4   6  ar  
  7   4  26  1   
  8   5   7  ar  
  9   5   8  1   
 10   6   7  ar  
 11   6  27  1   
 12   7  28  1   
 13   8   9  1   
 14   8  29  1   
 15   8  30  1   
 16   9  10  1   
 17   9  31  1   
 18   9  32  1   
 19  10  11  2   
 20  10  12  am  
 21  12  13  1   
 22  12  33  1   
 23  13  14  1   
 24  13  15  1   
 25  13  34  1   
 26  14  16  1   
 27  14  17  1   
 28  14  35  1   
 29  15  18  1   
 30  15  36  1   
 31  15  37  1   
 32  16  18  1   
 33  16  38  1   
 34  16  39  1   
 35  17  19  1   
 36  17  40  1   
 37  17  41  1   
 38  19  20  ar  
 39  19  21  ar  
 40  20  22  ar  
 41  20  42  1   
 42  21  23  ar  
 43  21  43  1   
 44  22  24  ar  
 45  22  44  1   
 46  23  24  ar  
 47  23  45  1   
@<TRIPOS>SUBSTRUCTURE
  1 ****  12 GROUP 4 **** **** 0

# MOE 2024.06 (io_trps.svl 2023.06)
