@<TRIPOS>MOLECULE
NONAME
44 45 1 0 0 
SMALL
USER_CHARGES


@<TRIPOS>ATOM
  1 O        1.3610     0.3490    -1.7190 O.2   1 <1>  -0.5700 
  2 C        1.5720    -0.3950    -0.7840 C.2   1 <1>   0.5690 
  3 N        1.7540     0.1220     0.4840 N.am  1 <1>  -0.6600 
  4 C        1.6320    -1.8830    -1.1320 C.3   1 <1>   0.2370 
  5 C        1.5980     1.5810     0.7250 C.3   1 <1>   0.1400 
  6 C        2.0570    -0.6670     1.7140 C.3   1 <1>   0.0600 
  7 N        0.7050    -2.6600    -0.2650 N.pl3 1 <1>   0.3140 
  8 C        3.0770    -2.4370    -1.2080 C.3   1 <1>  -0.1600 
  9 C        2.9450     2.2700     0.5170 C.3   1 <1>  -0.1600 
 10 N        1.0950    -3.4980     0.7260 N.2   1 <1>  -0.7070 
 11 C       -0.6420    -2.6370    -0.3620 C.2   1 <1>  -0.3020 
 12 C        3.1620    -3.8110    -1.8910 C.3   1 <1>  -0.2400 
 13 C        2.8120     3.7940     0.6110 C.3   1 <1>   0.0200 
 14 C       -0.0060    -3.9770     1.2180 C.2   1 <1>   0.1390 
 15 C       -1.1300    -3.4730     0.5770 C.2   1 <1>  -0.1500 
 16 C        4.1490     4.4670     0.3630 C.2   1 <1>   0.0070 
 17 N        4.8720     4.9510     1.3210 N.2   1 <1>  -0.5650 
 18 N        4.7040     4.6180    -0.8670 N.pl3 1 <1>   0.0480 
 19 C        5.9540     5.4420     0.6920 C.2   1 <1>   0.0770 
 20 C        5.8700     5.2480    -0.6410 C.2   1 <1>  -0.3020 
 21 C        4.1900     4.1930    -2.1830 C.3   1 <1>   0.0160 
 22 H        1.2290    -1.9640    -2.1240 H     1 <1>   0.0800 
 23 H        1.2370     1.7530     1.7250 H     1 <1>   0.0800 
 24 H        0.8710     1.9830     0.0390 H     1 <1>   0.0800 
 25 H        2.6590    -1.5260     1.4860 H     1 <1>   0.0800 
 26 H        1.1380    -0.9980     2.1670 H     1 <1>   0.0800 
 27 H        2.5980    -0.0640     2.4220 H     1 <1>   0.0800 
 28 H        3.5060    -2.5000    -0.2250 H     1 <1>   0.0800 
 29 H        3.6740    -1.7430    -1.7730 H     1 <1>   0.0800 
 30 H        3.3250     2.0070    -0.4530 H     1 <1>   0.0800 
 31 H        3.6470     1.9340     1.2600 H     1 <1>   0.0800 
 32 H       -1.1690    -2.0370    -1.0820 H     1 <1>   0.1500 
 33 H        2.6120    -4.5480    -1.3320 H     1 <1>   0.0800 
 34 H        4.1880    -4.1300    -1.9470 H     1 <1>   0.0800 
 35 H        2.7640    -3.7660    -2.8900 H     1 <1>   0.0800 
 36 H        2.4690     4.0630     1.5940 H     1 <1>   0.0800 
 37 H        2.0900     4.1540    -0.1000 H     1 <1>   0.0800 
 38 H       -0.0350    -4.6850     2.0300 H     1 <1>   0.1500 
 39 H       -2.1530    -3.7160     0.8030 H     1 <1>   0.1500 
 40 H        6.7500     5.9170     1.2420 H     1 <1>   0.1500 
 41 H        6.5610     5.5170    -1.4170 H     1 <1>   0.1500 
 42 H        3.1280     4.3510    -2.2260 H     1 <1>   0.0800 
 43 H        4.4050     3.1500    -2.3270 H     1 <1>   0.0800 
 44 H        4.6660     4.7680    -2.9560 H     1 <1>   0.0800 
@<TRIPOS>BOND
  1   1   2  2   
  2   2   3  am  
  3   2   4  1   
  4   3   5  1   
  5   3   6  1   
  6   4   7  1   
  7   4   8  1   
  8   4  22  1   
  9   5   9  1   
 10   5  23  1   
 11   5  24  1   
 12   6  25  1   
 13   6  26  1   
 14   6  27  1   
 15   7  10  1   
 16   7  11  1   
 17   8  12  1   
 18   8  28  1   
 19   8  29  1   
 20   9  13  1   
 21   9  30  1   
 22   9  31  1   
 23  10  14  2   
 24  11  15  2   
 25  11  32  1   
 26  12  33  1   
 27  12  34  1   
 28  12  35  1   
 29  13  16  1   
 30  13  36  1   
 31  13  37  1   
 32  14  15  1   
 33  14  38  1   
 34  15  39  1   
 35  16  17  2   
 36  16  18  1   
 37  17  19  1   
 38  18  20  1   
 39  18  21  1   
 40  19  20  2   
 41  19  40  1   
 42  20  41  1   
 43  21  42  1   
 44  21  43  1   
 45  21  44  1   
@<TRIPOS>SUBSTRUCTURE
  1 ****   3 GROUP 4 **** **** 0

# MOE 2024.06 (io_trps.svl 2023.06)
