@<TRIPOS>MOLECULE
NONAME
36 36 1 0 0 
SMALL
USER_CHARGES


@<TRIPOS>ATOM
  1 O       -1.8770    -0.9300    -1.0940 O.2   1 <1>  -0.5700 
  2 C       -2.3350     0.0040    -0.4700 C.2   1 <1>   0.5690 
  3 N       -3.0900    -0.2120     0.6560 N.am  1 <1>  -0.6600 
  4 C       -2.0960     1.4110    -1.0290 C.3   1 <1>   0.1810 
  5 C       -3.2020    -1.5830     1.2340 C.3   1 <1>   0.3200 
  6 C       -3.9040     0.8380     1.3380 C.3   1 <1>   0.1400 
  7 O       -1.4330     2.2400    -0.1060 O.3   1 <1>  -0.5600 
  8 C       -4.2860    -2.3690     0.5190 C.2   1 <1>   0.0060 
  9 C       -5.3380     0.8400     0.7960 C.3   1 <1>   0.1200 
 10 C       -1.1630     3.5270    -0.5480 C.3   1 <1>   0.2000 
 11 N       -5.3890    -2.7880     1.0570 N.2   1 <1>  -0.5650 
 12 N       -4.1630    -2.6910    -0.7850 N.pl3 1 <1>   0.0330 
 13 O       -6.0430     1.8890     1.3700 O.3   1 <1>  -0.6800 
 14 C        0.1810     3.5200    -1.2770 C.3   1 <1>  -0.2400 
 15 C       -1.1150     4.4120     0.6910 C.3   1 <1>  -0.2400 
 16 C       -6.0170    -3.4190     0.0450 C.2   1 <1>   0.0770 
 17 C       -5.2840    -3.3690    -1.0890 C.2   1 <1>  -0.3020 
 18 H       -3.0400     1.8600    -1.2770 H     1 <1>   0.0800 
 19 H       -1.4940     1.3350    -1.9160 H     1 <1>   0.0800 
 20 H       -3.4330    -1.5260     2.2830 H     1 <1>   0.0800 
 21 H       -2.2630    -2.0970     1.1310 H     1 <1>   0.0800 
 22 H       -3.4680     1.8080     1.1820 H     1 <1>   0.0800 
 23 H       -3.9160     0.6500     2.3970 H     1 <1>   0.0800 
 24 H       -5.8490    -0.0790     1.0280 H     1 <1>   0.0800 
 25 H       -5.3360     0.9940    -0.2680 H     1 <1>   0.0800 
 26 H       -1.9560     3.8600    -1.1990 H     1 <1>   0.0800 
 27 H       -3.3660    -2.4260    -1.3810 H     1 <1>   0.2700 
 28 H       -6.3000     1.6690     2.2880 H     1 <1>   0.4000 
 29 H        0.9500     3.1330    -0.6330 H     1 <1>   0.0800 
 30 H        0.4460     4.5220    -1.5630 H     1 <1>   0.0800 
 31 H        0.1290     2.9220    -2.1680 H     1 <1>   0.0800 
 32 H       -0.3480     4.0720     1.3640 H     1 <1>   0.0800 
 33 H       -2.0650     4.3890     1.1940 H     1 <1>   0.0800 
 34 H       -0.9020     5.4280     0.4120 H     1 <1>   0.0800 
 35 H       -6.9790    -3.8830     0.1880 H     1 <1>   0.1500 
 36 H       -5.4910    -3.7670    -2.0660 H     1 <1>   0.1500 
@<TRIPOS>BOND
  1   1   2  2   
  2   2   3  am  
  3   2   4  1   
  4   3   5  1   
  5   3   6  1   
  6   4   7  1   
  7   4  18  1   
  8   4  19  1   
  9   5   8  1   
 10   5  20  1   
 11   5  21  1   
 12   6   9  1   
 13   6  22  1   
 14   6  23  1   
 15   7  10  1   
 16   8  11  2   
 17   8  12  1   
 18   9  13  1   
 19   9  24  1   
 20   9  25  1   
 21  10  14  1   
 22  10  15  1   
 23  10  26  1   
 24  11  16  1   
 25  12  17  1   
 26  12  27  1   
 27  13  28  1   
 28  14  29  1   
 29  14  30  1   
 30  14  31  1   
 31  15  32  1   
 32  15  33  1   
 33  15  34  1   
 34  16  17  2   
 35  16  35  1   
 36  17  36  1   
@<TRIPOS>SUBSTRUCTURE
  1 ****   3 GROUP 4 **** **** 0

# MOE 2024.06 (io_trps.svl 2023.06)
