@<TRIPOS>MOLECULE
NONAME
47 49 1 0 0 
SMALL
USER_CHARGES


@<TRIPOS>ATOM
  1 O       -2.8400     1.5990    -1.8890 O.2   1 <1>  -0.5700 
  2 C       -2.1170     2.2140    -1.1370 C.2   1 <1>   0.6900 
  3 N       -2.4650     2.6270     0.1140 N.am  1 <1>  -0.4200 
  4 N       -0.8480     2.5520    -1.4340 N.am  1 <1>  -0.7300 
  5 C       -1.3930     3.2170     0.7110 C.2   1 <1>   0.5690 
  6 C       -3.6930     2.2000     0.8260 C.3   1 <1>   0.2010 
  7 C       -0.2050     3.1770    -0.2710 C.3   1 <1>   0.3610 
  8 O       -1.3770     3.7020     1.8180 O.2   1 <1>  -0.5700 
  9 C       -3.6810     0.7010     1.1270 C.2   1 <1>   0.5690 
 10 C        0.9330     2.2730     0.2070 C.3   1 <1>  -0.2400 
 11 C        0.2970     4.5640    -0.6730 C.3   1 <1>  -0.2400 
 12 O       -2.8830     0.2950     1.9400 O.2   1 <1>  -0.5700 
 13 N       -4.5430    -0.1650     0.5060 N.am  1 <1>  -0.6600 
 14 C       -5.4810     0.1440    -0.6080 C.3   1 <1>   0.1400 
 15 C       -4.4630    -1.6330     0.7100 C.3   1 <1>   0.1400 
 16 C       -6.2900    -1.1370    -0.7910 C.3   1 <1>   0.2000 
 17 C       -5.2970    -2.2450    -0.4230 C.3   1 <1>  -0.0800 
 18 O       -7.3310    -1.1230     0.1270 O.3   1 <1>  -0.6800 
 19 C       -5.9380    -3.6000    -0.0670 C.3   1 <1>   0.0200 
 20 C       -4.9150    -4.7020     0.1580 C.2   1 <1>  -0.0400 
 21 O       -5.3280    -5.8580     0.6060 O.3   1 <1>  -0.0190 
 22 C       -3.5850    -4.7820    -0.0100 C.2   1 <1>  -0.1500 
 23 N       -4.3500    -6.7030     0.7510 N.2   1 <1>  -0.4100 
 24 C       -3.2860    -6.0820     0.3880 C.2   1 <1>   0.1080 
 25 C       -1.9010    -6.6900     0.3950 C.3   1 <1>  -0.0590 
 26 H       -0.3310     2.1320    -2.2040 H     1 <1>   0.3700 
 27 H       -3.7610     2.7290     1.7600 H     1 <1>   0.0800 
 28 H       -4.5470     2.4620     0.2330 H     1 <1>   0.0800 
 29 H        1.3740     2.6890     1.0950 H     1 <1>   0.0800 
 30 H        1.6950     2.1880    -0.5460 H     1 <1>   0.0800 
 31 H        0.5570     1.2940     0.4490 H     1 <1>   0.0800 
 32 H        0.7150     5.0600     0.1850 H     1 <1>   0.0800 
 33 H       -0.5160     5.1630    -1.0440 H     1 <1>   0.0800 
 34 H        1.0570     4.4880    -1.4300 H     1 <1>   0.0800 
 35 H       -6.1170     0.9830    -0.3880 H     1 <1>   0.0800 
 36 H       -4.9170     0.3390    -1.5030 H     1 <1>   0.0800 
 37 H       -3.4390    -1.9650     0.6740 H     1 <1>   0.0800 
 38 H       -4.8790    -1.8770     1.6730 H     1 <1>   0.0800 
 39 H       -6.7040    -1.2400    -1.7790 H     1 <1>   0.0800 
 40 H       -4.6470    -2.3860    -1.2680 H     1 <1>   0.0800 
 41 H       -6.9710    -0.8970     1.0080 H     1 <1>   0.4000 
 42 H       -6.5950    -3.9040    -0.8630 H     1 <1>   0.0800 
 43 H       -6.5320    -3.5030     0.8250 H     1 <1>   0.0800 
 44 H       -2.8790    -4.0540    -0.3630 H     1 <1>   0.1500 
 45 H       -1.2540    -6.1140     1.0300 H     1 <1>   0.0800 
 46 H       -1.5040    -6.7030    -0.6030 H     1 <1>   0.0800 
 47 H       -1.9450    -7.6980     0.7660 H     1 <1>   0.0800 
@<TRIPOS>BOND
  1   1   2  2   
  2   2   3  am  
  3   2   4  am  
  4   3   5  am  
  5   3   6  1   
  6   4   7  1   
  7   4  26  1   
  8   5   7  1   
  9   5   8  2   
 10   6   9  1   
 11   6  27  1   
 12   6  28  1   
 13   7  10  1   
 14   7  11  1   
 15   9  12  2   
 16   9  13  am  
 17  10  29  1   
 18  10  30  1   
 19  10  31  1   
 20  11  32  1   
 21  11  33  1   
 22  11  34  1   
 23  13  14  1   
 24  13  15  1   
 25  14  16  1   
 26  14  35  1   
 27  14  36  1   
 28  15  17  1   
 29  15  37  1   
 30  15  38  1   
 31  16  17  1   
 32  16  18  1   
 33  16  39  1   
 34  17  19  1   
 35  17  40  1   
 36  18  41  1   
 37  19  20  1   
 38  19  42  1   
 39  19  43  1   
 40  20  21  1   
 41  20  22  2   
 42  21  23  1   
 43  22  24  1   
 44  22  44  1   
 45  23  24  2   
 46  24  25  1   
 47  25  45  1   
 48  25  46  1   
 49  25  47  1   
@<TRIPOS>SUBSTRUCTURE
  1 ****  13 GROUP 4 **** **** 0

# MOE 2024.06 (io_trps.svl 2023.06)
