@<TRIPOS>MOLECULE
NONAME
38 39 1 0 0 
SMALL
USER_CHARGES


@<TRIPOS>ATOM
  1 CL      -3.0750    -0.4350    -0.6410 Cl    1 <1>  -0.1240 
  2 C       -2.7640    -1.6950     0.5200 C.2   1 <1>   0.2640 
  3 O       -3.0400    -2.9320     0.1840 O.3   1 <1>  -0.2800 
  4 C       -2.2710    -1.6100     1.7710 C.2   1 <1>  -0.1500 
  5 C       -2.7310    -3.7180     1.2160 C.2   1 <1>   0.0550 
  6 C       -2.2510    -2.9310     2.2250 C.2   1 <1>  -0.1500 
  7 C       -2.9150    -5.1560     1.1880 C.2   1 <1>   0.7150 
  8 O       -2.8150    -5.7770     2.2290 O.2   1 <1>  -0.5700 
  9 N       -3.2680    -5.8750     0.0590 N.am  1 <1>  -0.6600 
 10 C       -2.8710    -7.3060    -0.0480 C.3   1 <1>   0.3200 
 11 C       -4.1280    -5.3260    -1.0440 C.3   1 <1>   0.1400 
 12 C       -4.1150    -8.1480     0.1340 C.2   1 <1>  -0.3320 
 13 C       -5.4560    -4.7390    -0.5130 C.3   1 <1>   0.3430 
 14 N       -4.7270    -8.8490    -0.8430 N.pl3 1 <1>   0.0330 
 15 C       -4.8280    -8.3590     1.2620 C.2   1 <1>   0.0770 
 16 N       -6.0750    -5.6510     0.5020 N.4   1 <1>  -0.9590 
 17 C       -5.8050    -9.4010    -0.2490 C.2   1 <1>   0.0360 
 18 N       -5.9160    -9.1060     1.0060 N.2   1 <1>  -0.5650 
 19 C       -7.3260    -6.3110     0.0250 C.3   1 <1>   0.2630 
 20 C       -6.2930    -4.9830     1.8190 C.3   1 <1>   0.2630 
 21 H       -1.9570    -0.7350     2.3120 H     1 <1>   0.1500 
 22 H       -1.9120    -3.2520     3.1970 H     1 <1>   0.1500 
 23 H       -2.1490    -7.5580     0.7130 H     1 <1>   0.0800 
 24 H       -2.4140    -7.4900    -1.0060 H     1 <1>   0.0800 
 25 H       -4.3590    -6.1080    -1.7460 H     1 <1>   0.0800 
 26 H       -3.5860    -4.5710    -1.5870 H     1 <1>   0.0800 
 27 H       -6.1340    -4.5740    -1.3340 H     1 <1>   0.0800 
 28 H       -5.2540    -3.7810    -0.0630 H     1 <1>   0.0800 
 29 H       -4.4330    -8.9830    -1.8170 H     1 <1>   0.2700 
 30 H       -4.6150    -7.9950     2.2570 H     1 <1>   0.1500 
 31 H       -5.3800    -6.4110     0.6600 H     1 <1>   0.4500 
 32 H       -6.4960   -10.0330    -0.7850 H     1 <1>   0.1500 
 33 H       -8.1050    -5.5820    -0.1280 H     1 <1>   0.0800 
 34 H       -7.6610    -7.0340     0.7530 H     1 <1>   0.0800 
 35 H       -7.1440    -6.8310    -0.9010 H     1 <1>   0.0800 
 36 H       -6.9990    -4.1760     1.7200 H     1 <1>   0.0800 
 37 H       -5.3630    -4.5900     2.1980 H     1 <1>   0.0800 
 38 H       -6.6750    -5.6940     2.5350 H     1 <1>   0.0800 
@<TRIPOS>BOND
  1   1   2  1   
  2   2   3  1   
  3   2   4  2   
  4   3   5  1   
  5   4   6  1   
  6   4  21  1   
  7   5   6  2   
  8   5   7  1   
  9   6  22  1   
 10   7   8  2   
 11   7   9  am  
 12   9  10  1   
 13   9  11  1   
 14  10  12  1   
 15  10  23  1   
 16  10  24  1   
 17  11  13  1   
 18  11  25  1   
 19  11  26  1   
 20  12  14  1   
 21  12  15  2   
 22  13  16  1   
 23  13  27  1   
 24  13  28  1   
 25  14  17  1   
 26  14  29  1   
 27  15  18  1   
 28  15  30  1   
 29  16  19  1   
 30  16  20  1   
 31  16  31  1   
 32  17  18  2   
 33  17  32  1   
 34  19  33  1   
 35  19  34  1   
 36  19  35  1   
 37  20  36  1   
 38  20  37  1   
 39  20  38  1   
@<TRIPOS>SUBSTRUCTURE
  1 ****   9 GROUP 4 **** **** 0

# MOE 2024.06 (io_trps.svl 2023.06)
