@<TRIPOS>MOLECULE
NONAME
55 57 1 0 0 
SMALL
USER_CHARGES


@<TRIPOS>ATOM
  1 S       -1.9410    -0.3930    -1.3150 S.o2  1 <1>   1.2040 
  2 O       -1.5090    -1.2660    -2.3830 O.2   1 <1>  -0.6500 
  3 O       -2.7650     0.7580    -1.6110 O.2   1 <1>  -0.6500 
  4 C       -2.7310    -1.3790    -0.0200 C.ar  1 <1>  -0.0090 
  5 C       -0.4770     0.2030    -0.4920 C.3   1 <1>  -0.1350 
  6 C       -3.6620    -0.8170     0.8450 C.ar  1 <1>  -0.1500 
  7 C       -2.4070    -2.7170     0.1610 C.ar  1 <1>  -0.1500 
  8 C       -4.2550    -1.5640     1.8480 C.ar  1 <1>  -0.1500 
  9 C       -2.9940    -3.4710     1.1610 C.ar  1 <1>  -0.1500 
 10 C       -3.9310    -2.9020     2.0080 C.ar  1 <1>  -0.1430 
 11 C       -4.6030    -3.7410     3.0940 C.3   1 <1>   0.0440 
 12 C       -5.1200    -5.0840     2.5850 C.2   1 <1>   0.5690 
 13 O       -4.7210    -6.0770     3.1460 O.2   1 <1>  -0.5700 
 14 N       -6.0020    -5.1820     1.5310 N.am  1 <1>  -0.6600 
 15 C       -6.2890    -6.5140     0.9140 C.3   1 <1>   0.1400 
 16 C       -6.6710    -4.0210     0.8750 C.3   1 <1>   0.1400 
 17 C       -7.8100    -6.7510     0.8510 C.3   1 <1>   0.4230 
 18 C       -8.1790    -4.2870     0.7340 C.3   1 <1>  -0.1600 
 19 N       -8.2100    -8.1820     0.5240 N.4   1 <1>  -0.9590 
 20 C       -8.5290    -5.6300     0.0380 C.3   1 <1>   0.0000 
 21 C       -9.6070    -8.3030     0.0010 C.3   1 <1>   0.3430 
 22 C       -7.2770    -8.8980    -0.4040 C.3   1 <1>   0.2630 
 23 C      -10.0750    -5.8180     0.1050 C.3   1 <1>  -0.1600 
 24 C       -8.0580    -5.5040    -1.4420 C.3   1 <1>   0.1200 
 25 C      -10.5080    -7.2160     0.5820 C.3   1 <1>  -0.1600 
 26 O       -8.3670    -6.6270    -2.1940 O.3   1 <1>  -0.6800 
 27 H        0.1350    -0.6190    -0.1750 H     1 <1>   0.0800 
 28 H       -0.7420     0.7890     0.3670 H     1 <1>   0.0800 
 29 H        0.0950     0.8160    -1.1610 H     1 <1>   0.0800 
 30 H       -3.9300     0.2210     0.7300 H     1 <1>   0.1500 
 31 H       -1.6870    -3.1810    -0.4940 H     1 <1>   0.1500 
 32 H       -4.9710    -1.0920     2.5000 H     1 <1>   0.1500 
 33 H       -2.7180    -4.5070     1.2750 H     1 <1>   0.1500 
 34 H       -5.4220    -3.2060     3.5350 H     1 <1>   0.0800 
 35 H       -3.8850    -3.9230     3.8730 H     1 <1>   0.0800 
 36 H       -5.8570    -6.5390    -0.0700 H     1 <1>   0.0800 
 37 H       -5.8400    -7.2980     1.4980 H     1 <1>   0.0800 
 38 H       -6.5400    -3.1270     1.4580 H     1 <1>   0.0800 
 39 H       -6.2170    -3.8480    -0.0860 H     1 <1>   0.0800 
 40 H       -8.1420    -6.5960     1.8640 H     1 <1>   0.0800 
 41 H       -8.6010    -4.2710     1.7250 H     1 <1>   0.0800 
 42 H       -8.6230    -3.4670     0.1950 H     1 <1>   0.0800 
 43 H       -8.1890    -8.6820     1.4230 H     1 <1>   0.4500 
 44 H       -9.6050    -8.2050    -1.0730 H     1 <1>   0.0800 
 45 H      -10.0050    -9.2760     0.2420 H     1 <1>   0.0800 
 46 H       -7.2170    -8.3860    -1.3490 H     1 <1>   0.0800 
 47 H       -7.6270    -9.9010    -0.5830 H     1 <1>   0.0800 
 48 H       -6.2890    -8.9550     0.0210 H     1 <1>   0.0800 
 49 H      -10.5290    -5.0940     0.7600 H     1 <1>   0.0800 
 50 H      -10.5000    -5.6430    -0.8700 H     1 <1>   0.0800 
 51 H       -6.9970    -5.3470    -1.5160 H     1 <1>   0.0800 
 52 H       -8.5510    -4.6650    -1.9060 H     1 <1>   0.0800 
 53 H      -11.5220    -7.3930     0.2670 H     1 <1>   0.0800 
 54 H      -10.4940    -7.2720     1.6570 H     1 <1>   0.0800 
 55 H       -8.2520    -6.4360    -3.1500 H     1 <1>   0.4000 
@<TRIPOS>BOND
  1   1   2  2   
  2   1   3  2   
  3   1   4  1   
  4   1   5  1   
  5   4   6  ar  
  6   4   7  ar  
  7   5  27  1   
  8   5  28  1   
  9   5  29  1   
 10   6   8  ar  
 11   6  30  1   
 12   7   9  ar  
 13   7  31  1   
 14   8  10  ar  
 15   8  32  1   
 16   9  10  ar  
 17   9  33  1   
 18  10  11  1   
 19  11  12  1   
 20  11  34  1   
 21  11  35  1   
 22  12  13  2   
 23  12  14  am  
 24  14  15  1   
 25  14  16  1   
 26  15  17  1   
 27  15  36  1   
 28  15  37  1   
 29  16  18  1   
 30  16  38  1   
 31  16  39  1   
 32  17  19  1   
 33  17  20  1   
 34  17  40  1   
 35  18  20  1   
 36  18  41  1   
 37  18  42  1   
 38  19  21  1   
 39  19  22  1   
 40  19  43  1   
 41  20  23  1   
 42  20  24  1   
 43  21  25  1   
 44  21  44  1   
 45  21  45  1   
 46  22  46  1   
 47  22  47  1   
 48  22  48  1   
 49  23  25  1   
 50  23  49  1   
 51  23  50  1   
 52  24  26  1   
 53  24  51  1   
 54  24  52  1   
 55  25  53  1   
 56  25  54  1   
 57  26  55  1   
@<TRIPOS>SUBSTRUCTURE
  1 ****  16 GROUP 4 **** **** 0

# MOE 2024.06 (io_trps.svl 2023.06)
