@<TRIPOS>MOLECULE
NONAME
37 39 1 0 0 
SMALL
USER_CHARGES


@<TRIPOS>ATOM
  1 S       -0.0230    -0.1290     0.1430 S.3   1 <1>  -0.0800 
  2 C       -1.6500    -0.7170     0.0470 C.2   1 <1>   0.4420 
  3 C       -0.6690     1.4720     0.0320 C.2   1 <1>   0.1980 
  4 N       -2.5030     0.2370    -0.0530 N.2   1 <1>  -0.3380 
  5 N       -1.8080    -2.0840     0.0900 N.am  1 <1>  -0.4940 
  6 N       -1.9370     1.4810    -0.0620 N.2   1 <1>  -0.3380 
  7 C        0.3100     2.6290     0.0570 C.3   1 <1>   0.0200 
  8 C       -2.9440    -2.8520     0.0370 C.2   1 <1>   0.7150 
  9 C       -0.4090     3.9710    -0.0490 C.3   1 <1>   0.1200 
 10 O       -4.0280    -2.3170    -0.0700 O.2   1 <1>  -0.5700 
 11 C       -2.8140    -4.2790     0.1110 C.2   1 <1>  -0.0450 
 12 O        0.5500     4.9780    -0.0190 O.3   1 <1>  -0.5600 
 13 S       -1.1890    -4.9930     0.2870 S.3   1 <1>  -0.0800 
 14 C       -3.7160    -5.2980     0.0780 C.2   1 <1>   0.0620 
 15 C        0.0220     6.2570    -0.1080 C.3   1 <1>   0.1200 
 16 C       -1.8140    -6.6350     0.3050 C.2   1 <1>  -0.1100 
 17 O       -5.0500    -5.1440    -0.0420 O.3   1 <1>  -0.3420 
 18 C       -3.1510    -6.6130     0.1820 C.2   1 <1>   0.0620 
 19 C        1.1860     7.2380    -0.0620 C.3   1 <1>  -0.2400 
 20 C       -5.8730    -6.2600     0.2320 C.3   1 <1>   0.1200 
 21 O       -3.9380    -7.7220     0.1530 O.3   1 <1>  -0.3420 
 22 C       -5.2500    -7.5380    -0.3490 C.3   1 <1>   0.1200 
 23 H       -0.9510    -2.6190     0.1770 H     1 <1>   0.3700 
 24 H        0.9920     2.5280    -0.7670 H     1 <1>   0.0800 
 25 H        0.8640     2.5970     0.9770 H     1 <1>   0.0800 
 26 H       -1.0830     4.1050     0.7820 H     1 <1>   0.0800 
 27 H       -0.9540     4.0350    -0.9760 H     1 <1>   0.0800 
 28 H       -0.6450     6.4190     0.7230 H     1 <1>   0.0800 
 29 H       -0.5160     6.3490    -1.0370 H     1 <1>   0.0800 
 30 H       -1.1190    -7.4490     0.4030 H     1 <1>   0.1500 
 31 H        1.7240     7.1290     0.8630 H     1 <1>   0.0800 
 32 H        0.8180     8.2450    -0.1290 H     1 <1>   0.0800 
 33 H        1.8520     7.0590    -0.8870 H     1 <1>   0.0800 
 34 H       -6.8380    -6.0720    -0.2040 H     1 <1>   0.0800 
 35 H       -5.9780    -6.3440     1.2990 H     1 <1>   0.0800 
 36 H       -5.1920    -7.4730    -1.4210 H     1 <1>   0.0800 
 37 H       -5.8300    -8.4020    -0.0790 H     1 <1>   0.0800 
@<TRIPOS>BOND
  1   1   2  1   
  2   1   3  1   
  3   2   4  2   
  4   2   5  1   
  5   3   6  2   
  6   3   7  1   
  7   4   6  1   
  8   5   8  am  
  9   5  23  1   
 10   7   9  1   
 11   7  24  1   
 12   7  25  1   
 13   8  10  2   
 14   8  11  1   
 15   9  12  1   
 16   9  26  1   
 17   9  27  1   
 18  11  13  1   
 19  11  14  2   
 20  12  15  1   
 21  13  16  1   
 22  14  17  1   
 23  14  18  1   
 24  15  19  1   
 25  15  28  1   
 26  15  29  1   
 27  16  18  2   
 28  16  30  1   
 29  17  20  1   
 30  18  21  1   
 31  19  31  1   
 32  19  32  1   
 33  19  33  1   
 34  20  22  1   
 35  20  34  1   
 36  20  35  1   
 37  21  22  1   
 38  22  36  1   
 39  22  37  1   
@<TRIPOS>SUBSTRUCTURE
  1 ****   5 GROUP 4 **** **** 0

# MOE 2024.06 (io_trps.svl 2023.06)
