@<TRIPOS>MOLECULE
NONAME
47 50 1 0 0 
SMALL
USER_CHARGES


@<TRIPOS>ATOM
  1 O       -0.4100     0.3510     0.4230 O.2   1 <1>  -0.5700 
  2 C       -1.4570     0.9420     0.2390 C.2   1 <1>   0.5440 
  3 N       -2.6060     0.2050     0.0700 N.am  1 <1>  -0.6600 
  4 C       -1.4620     2.3900     0.1910 C.ar  1 <1>   0.0860 
  5 C       -3.9010     0.7200    -0.4480 C.3   1 <1>   0.1400 
  6 C       -2.6100    -1.2820     0.0540 C.3   1 <1>   0.1400 
  7 C       -2.2620     3.1540     1.0410 C.ar  1 <1>  -0.1500 
  8 C       -0.6500     3.0760    -0.7100 C.ar  1 <1>  -0.1500 
  9 C       -4.8650    -0.4520    -0.2760 C.3   1 <1>   0.2000 
 10 C       -3.9790    -1.6770    -0.5140 C.3   1 <1>  -0.0800 
 11 C       -2.2640     4.5350     0.9820 C.ar  1 <1>  -0.1500 
 12 C       -0.6470     4.4570    -0.7750 C.ar  1 <1>  -0.1500 
 13 O       -5.3060    -0.4460     1.0400 O.3   1 <1>  -0.6800 
 14 C       -4.5220    -3.0070     0.0380 C.3   1 <1>   0.0210 
 15 C       -1.4570     5.2080     0.0710 C.ar  1 <1>  -0.0230 
 16 C       -3.5680    -4.1450    -0.2680 C.2   1 <1>   0.1080 
 17 N       -1.4550     6.6240     0.0100 N.pl3 1 <1>   0.3260 
 18 N       -3.3070    -4.5380    -1.4750 N.2   1 <1>  -0.7070 
 19 C       -2.8670    -4.8750     0.6860 C.2   1 <1>  -0.1500 
 20 C       -0.3920     7.4660    -0.1050 C.2   1 <1>   0.0360 
 21 C       -2.5150     7.4640     0.0460 C.2   1 <1>  -0.3020 
 22 N       -2.4230    -5.5420    -1.3230 N.pl3 1 <1>   0.3000 
 23 C       -2.1400    -5.7640    -0.0220 C.2   1 <1>  -0.3320 
 24 N       -0.6950     8.7230    -0.1450 N.2   1 <1>  -0.5650 
 25 C       -2.0390     8.7230    -0.0490 C.2   1 <1>   0.0770 
 26 C       -1.1760    -6.8270     0.4720 C.3   1 <1>  -0.0600 
 27 H       -4.2420     1.5900     0.0830 H     1 <1>   0.0800 
 28 H       -3.7900     0.9530    -1.4930 H     1 <1>   0.0800 
 29 H       -1.8100    -1.6640    -0.5580 H     1 <1>   0.0800 
 30 H       -2.4870    -1.6440     1.0600 H     1 <1>   0.0800 
 31 H       -2.8830     2.6490     1.7610 H     1 <1>   0.1500 
 32 H       -0.0120     2.5050    -1.3640 H     1 <1>   0.1500 
 33 H       -5.7190    -0.4030    -0.9290 H     1 <1>   0.0800 
 34 H       -3.8570    -1.7890    -1.5780 H     1 <1>   0.0800 
 35 H       -2.8920     5.0950     1.6550 H     1 <1>   0.1500 
 36 H       -0.0100     4.9500    -1.4900 H     1 <1>   0.1500 
 37 H       -4.5240    -0.3850     1.6240 H     1 <1>   0.4000 
 38 H       -5.4720    -3.2240    -0.4160 H     1 <1>   0.0800 
 39 H       -4.6680    -2.9470     1.1010 H     1 <1>   0.0800 
 40 H       -2.9130    -4.7380     1.7520 H     1 <1>   0.1500 
 41 H        0.6120     7.0860    -0.1530 H     1 <1>   0.1500 
 42 H       -3.5270     7.1180     0.1310 H     1 <1>   0.1500 
 43 H       -2.0340    -6.0530    -2.1230 H     1 <1>   0.2700 
 44 H       -2.5950     9.6470    -0.0540 H     1 <1>   0.1500 
 45 H       -1.1200    -6.8050     1.5460 H     1 <1>   0.0800 
 46 H       -0.1920    -6.6510     0.0740 H     1 <1>   0.0800 
 47 H       -1.5100    -7.8030     0.1660 H     1 <1>   0.0800 
@<TRIPOS>BOND
  1   1   2  2   
  2   2   3  am  
  3   2   4  1   
  4   3   5  1   
  5   3   6  1   
  6   4   7  ar  
  7   4   8  ar  
  8   5   9  1   
  9   5  27  1   
 10   5  28  1   
 11   6  10  1   
 12   6  29  1   
 13   6  30  1   
 14   7  11  ar  
 15   7  31  1   
 16   8  12  ar  
 17   8  32  1   
 18   9  10  1   
 19   9  13  1   
 20   9  33  1   
 21  10  14  1   
 22  10  34  1   
 23  11  15  ar  
 24  11  35  1   
 25  12  15  ar  
 26  12  36  1   
 27  13  37  1   
 28  14  16  1   
 29  14  38  1   
 30  14  39  1   
 31  15  17  1   
 32  16  18  2   
 33  16  19  1   
 34  17  20  1   
 35  17  21  1   
 36  18  22  1   
 37  19  23  2   
 38  19  40  1   
 39  20  24  2   
 40  20  41  1   
 41  21  25  2   
 42  21  42  1   
 43  22  23  1   
 44  22  43  1   
 45  23  26  1   
 46  24  25  1   
 47  25  44  1   
 48  26  45  1   
 49  26  46  1   
 50  26  47  1   
@<TRIPOS>SUBSTRUCTURE
  1 ****   3 GROUP 4 **** **** 0

# MOE 2024.06 (io_trps.svl 2023.06)
