@<TRIPOS>MOLECULE
NONAME
57 60 1 0 0 
SMALL
USER_CHARGES


@<TRIPOS>ATOM
  1 F       -0.2420     0.9690     0.5970 F     1 <1>  -0.1900 
  2 C       -1.5410     1.1170     0.5420 C.ar  1 <1>   0.1900 
  3 C       -2.1510     2.0050    -0.3510 C.ar  1 <1>   0.0830 
  4 C       -2.2840     0.3490     1.4190 C.ar  1 <1>  -0.1500 
  5 O       -1.5300     2.8120    -1.2590 O.3   1 <1>  -0.3630 
  6 C       -3.5330     2.0900    -0.3290 C.ar  1 <1>  -0.1500 
  7 C       -3.6620     0.4600     1.4150 C.ar  1 <1>  -0.1500 
  8 C       -0.1330     2.8210    -1.4520 C.3   1 <1>   0.0400 
  9 C       -4.3170     1.3290     0.5400 C.ar  1 <1>   0.0530 
 10 C       -5.7530     1.4600     0.5320 C.2   1 <1>   0.0870 
 11 O       -6.2860     2.6470     0.3900 O.3   1 <1>  -0.0190 
 12 C       -6.7830     0.5760     0.6580 C.2   1 <1>  -0.0860 
 13 N       -7.5900     2.6310     0.4190 N.2   1 <1>  -0.4100 
 14 C       -7.9170     1.3970     0.5800 C.2   1 <1>   0.3720 
 15 C       -6.7850    -0.8480     0.8140 C.2   1 <1>   0.7160 
 16 N       -9.2520     0.9620     0.6390 N.pl3 1 <1>  -0.8210 
 17 O       -5.7960    -1.5180     0.5860 O.2   1 <1>  -0.5700 
 18 N       -7.9160    -1.4830     1.2180 N.am  1 <1>  -0.7300 
 19 C       -9.7900     0.5760    -0.6940 C.3   1 <1>   0.1290 
 20 C      -10.1730     1.8920     1.3520 C.3   1 <1>   0.1290 
 21 C       -8.1720    -2.9290     1.1670 C.3   1 <1>   0.2350 
 22 C       -9.5500    -3.1390     0.5360 C.3   1 <1>  -0.1950 
 23 C       -9.9820    -4.3860    -0.1840 C.3   1 <1>  -0.1900 
 24 C       -9.7170    -3.1170    -0.9490 C.3   1 <1>  -0.2000 
 25 C      -11.4440    -4.8220     0.0420 C.3   1 <1>  -0.0650 
 26 C       -9.0170    -5.5610    -0.4550 C.3   1 <1>  -0.0650 
 27 C      -11.7530    -6.1510    -0.6570 C.3   1 <1>  -0.1600 
 28 C       -9.4590    -6.8170     0.3050 C.3   1 <1>  -0.1600 
 29 C      -10.8570    -7.2910    -0.1370 C.3   1 <1>  -0.1600 
 30 H       -1.7890    -0.3260     2.0930 H     1 <1>   0.1500 
 31 H       -4.0140     2.7700    -1.0100 H     1 <1>   0.1500 
 32 H       -4.2390    -0.1360     2.1000 H     1 <1>   0.1500 
 33 H        0.0910     3.5200    -2.2370 H     1 <1>   0.0800 
 34 H        0.1870     1.8350    -1.7400 H     1 <1>   0.0800 
 35 H        0.3450     3.1320    -0.5400 H     1 <1>   0.0800 
 36 H       -8.7490    -0.8800     1.2640 H     1 <1>   0.3700 
 37 H       -9.1100    -0.1000    -1.1840 H     1 <1>   0.0800 
 38 H       -9.9130     1.4500    -1.3100 H     1 <1>   0.0800 
 39 H      -10.7410     0.0840    -0.5800 H     1 <1>   0.0800 
 40 H       -9.7300     2.2030     2.2830 H     1 <1>   0.0800 
 41 H      -11.1060     1.3980     1.5620 H     1 <1>   0.0800 
 42 H      -10.3600     2.7660     0.7510 H     1 <1>   0.0800 
 43 H       -8.1570    -3.3330     2.1640 H     1 <1>   0.0800 
 44 H       -7.4040    -3.4090     0.5880 H     1 <1>   0.0800 
 45 H      -10.3130    -2.6590     1.1240 H     1 <1>   0.1000 
 46 H       -8.8360    -3.0550    -1.5640 H     1 <1>   0.1000 
 47 H      -10.5470    -2.5780    -1.3720 H     1 <1>   0.1000 
 48 H      -12.1210    -4.0620    -0.3080 H     1 <1>   0.0800 
 49 H      -11.6120    -4.9450     1.0980 H     1 <1>   0.0800 
 50 H       -8.0060    -5.3160    -0.1890 H     1 <1>   0.0800 
 51 H       -9.0220    -5.7810    -1.5090 H     1 <1>   0.0800 
 52 H      -11.5890    -6.0250    -1.7140 H     1 <1>   0.0800 
 53 H      -12.7870    -6.4110    -0.5160 H     1 <1>   0.0800 
 54 H       -9.4780    -6.5880     1.3570 H     1 <1>   0.0800 
 55 H       -8.7450    -7.6080     0.1560 H     1 <1>   0.0800 
 56 H      -10.7570    -8.0280    -0.9150 H     1 <1>   0.0800 
 57 H      -11.3350    -7.7700     0.7000 H     1 <1>   0.0800 
@<TRIPOS>BOND
  1   1   2  1   
  2   2   3  ar  
  3   2   4  ar  
  4   3   5  1   
  5   3   6  ar  
  6   4   7  ar  
  7   4  30  1   
  8   5   8  1   
  9   6   9  ar  
 10   6  31  1   
 11   7   9  ar  
 12   7  32  1   
 13   8  33  1   
 14   8  34  1   
 15   8  35  1   
 16   9  10  1   
 17  10  11  1   
 18  10  12  2   
 19  11  13  1   
 20  12  14  1   
 21  12  15  1   
 22  13  14  2   
 23  14  16  1   
 24  15  17  2   
 25  15  18  am  
 26  16  19  1   
 27  16  20  1   
 28  18  21  1   
 29  18  36  1   
 30  19  37  1   
 31  19  38  1   
 32  19  39  1   
 33  20  40  1   
 34  20  41  1   
 35  20  42  1   
 36  21  22  1   
 37  21  43  1   
 38  21  44  1   
 39  22  23  1   
 40  22  24  1   
 41  22  45  1   
 42  23  24  1   
 43  23  25  1   
 44  23  26  1   
 45  24  46  1   
 46  24  47  1   
 47  25  27  1   
 48  25  48  1   
 49  25  49  1   
 50  26  28  1   
 51  26  50  1   
 52  26  51  1   
 53  27  29  1   
 54  27  52  1   
 55  27  53  1   
 56  28  29  1   
 57  28  54  1   
 58  28  55  1   
 59  29  56  1   
 60  29  57  1   
@<TRIPOS>SUBSTRUCTURE
  1 ****  15 GROUP 4 **** **** 0

# MOE 2024.06 (io_trps.svl 2023.06)
