@<TRIPOS>MOLECULE
NONAME
40 41 1 0 0 
SMALL
USER_CHARGES


@<TRIPOS>ATOM
  1 S        0.7060     0.0250    -0.7130 S.o2  1 <1>   1.3330 
  2 O        2.0750     0.4270    -0.9490 O.2   1 <1>  -0.6500 
  3 O       -0.1710    -0.2040    -1.8360 O.2   1 <1>  -0.6500 
  4 N        0.6730    -1.3120     0.3260 N.am  1 <1>  -0.8490 
  5 C       -0.0160     1.3360     0.2710 C.3   1 <1>  -0.0550 
  6 C       -0.5810    -2.0730     0.2600 C.3   1 <1>   0.1160 
  7 C        1.8100    -2.2160     0.1160 C.3   1 <1>   0.1160 
  8 C       -0.1430     2.6570    -0.5230 C.3   1 <1>  -0.0800 
  9 C       -0.7060     3.8450     0.2560 C.3   1 <1>   0.2000 
 10 C        1.1970     3.1680    -1.0810 C.3   1 <1>   0.3430 
 11 O       -0.1050     3.9050     1.5110 O.3   1 <1>  -0.6800 
 12 C       -0.2200     5.0370    -0.5710 C.3   1 <1>   0.3430 
 13 N        1.1480     4.6610    -1.0520 N.4   1 <1>  -0.9590 
 14 C        2.2080     5.1930    -0.1530 C.3   1 <1>   0.5240 
 15 C        2.2300     6.7020    -0.2780 C.2   1 <1>  -0.1810 
 16 C        2.8490     7.3980    -1.2530 C.2   1 <1>  -0.1100 
 17 C        1.5690     7.5380     0.6840 C.2   1 <1>  -0.1500 
 18 S        2.6180     9.1220    -1.0320 S.3   1 <1>  -0.0800 
 19 C        1.6790     8.8540     0.4240 C.2   1 <1>  -0.1100 
 20 H       -0.9890     1.0300     0.6030 H     1 <1>   0.0800 
 21 H        0.5980     1.4840     1.1390 H     1 <1>   0.0800 
 22 H       -0.5790    -2.8560     0.9990 H     1 <1>   0.0800 
 23 H       -0.7020    -2.5150    -0.7170 H     1 <1>   0.0800 
 24 H       -1.4200    -1.4270     0.4520 H     1 <1>   0.0800 
 25 H        1.7670    -3.0380     0.8100 H     1 <1>   0.0800 
 26 H        2.7370    -1.6900     0.2780 H     1 <1>   0.0800 
 27 H        1.8030    -2.6020    -0.8900 H     1 <1>   0.0800 
 28 H       -0.7880     2.4760    -1.3670 H     1 <1>   0.0800 
 29 H       -1.7770     3.8300     0.3750 H     1 <1>   0.0800 
 30 H        1.3520     2.8000    -2.0840 H     1 <1>   0.0800 
 31 H        2.0050     2.8130    -0.4610 H     1 <1>   0.0800 
 32 H       -0.6140     3.3950     2.1780 H     1 <1>   0.4000 
 33 H       -0.2220     5.9440     0.0080 H     1 <1>   0.0800 
 34 H       -0.8730     5.1630    -1.4190 H     1 <1>   0.0800 
 35 H        1.3140     5.0630    -1.9830 H     1 <1>   0.4500 
 36 H        2.0200     4.9060     0.8700 H     1 <1>   0.0800 
 37 H        3.1670     4.8010    -0.4480 H     1 <1>   0.0800 
 38 H        3.4340     7.0990    -2.1070 H     1 <1>   0.1500 
 39 H        1.0480     7.1250     1.5320 H     1 <1>   0.1500 
 40 H        1.3090     9.7240     0.9380 H     1 <1>   0.1500 
@<TRIPOS>BOND
  1   1   2  2   
  2   1   3  2   
  3   1   4  am  
  4   1   5  1   
  5   4   6  1   
  6   4   7  1   
  7   5   8  1   
  8   5  20  1   
  9   5  21  1   
 10   6  22  1   
 11   6  23  1   
 12   6  24  1   
 13   7  25  1   
 14   7  26  1   
 15   7  27  1   
 16   8   9  1   
 17   8  10  1   
 18   8  28  1   
 19   9  11  1   
 20   9  12  1   
 21   9  29  1   
 22  10  13  1   
 23  10  30  1   
 24  10  31  1   
 25  11  32  1   
 26  12  13  1   
 27  12  33  1   
 28  12  34  1   
 29  13  14  1   
 30  13  35  1   
 31  14  15  1   
 32  14  36  1   
 33  14  37  1   
 34  15  16  2   
 35  15  17  1   
 36  16  18  1   
 37  16  38  1   
 38  17  19  2   
 39  17  39  1   
 40  18  19  1   
 41  19  40  1   
@<TRIPOS>SUBSTRUCTURE
  1 ****  10 GROUP 4 **** **** 0

# MOE 2024.06 (io_trps.svl 2023.06)
