@<TRIPOS>MOLECULE
NONAME
66 68 1 0 0 
SMALL
USER_CHARGES


@<TRIPOS>ATOM
  1 S       -0.2990    -3.0960     0.7500 S.o2  1 <1>   1.2040 
  2 O       -0.0130    -3.3180     2.1490 O.2   1 <1>  -0.6500 
  3 O        0.5310    -2.2080    -0.0330 O.2   1 <1>  -0.6500 
  4 C       -2.0390    -2.6390     0.5480 C.ar  1 <1>  -0.0090 
  5 C       -0.2420    -4.6890    -0.0450 C.3   1 <1>  -0.1350 
  6 C       -2.4810    -1.9710    -0.5840 C.ar  1 <1>  -0.1500 
  7 C       -2.9870    -2.9610     1.5090 C.ar  1 <1>  -0.1500 
  8 C       -3.8110    -1.6230    -0.7480 C.ar  1 <1>  -0.1500 
  9 C       -4.3190    -2.6160     1.3510 C.ar  1 <1>  -0.1500 
 10 C       -4.7580    -1.9310     0.2240 C.ar  1 <1>  -0.1430 
 11 C       -6.2490    -1.5180     0.1370 C.3   1 <1>   0.2040 
 12 C       -7.1600    -2.7610     0.4040 C.2   1 <1>   0.5690 
 13 C       -6.6090    -0.8390    -1.2190 C.3   1 <1>  -0.1600 
 14 C       -6.4630    -0.4180     1.2190 C.3   1 <1>  -0.1600 
 15 O       -7.6370    -2.9160     1.5090 O.2   1 <1>  -0.5700 
 16 N       -7.4750    -3.6930    -0.5580 N.am  1 <1>  -0.6600 
 17 C       -8.0460    -0.2980    -1.2590 C.3   1 <1>  -0.1600 
 18 C       -7.8730     0.2060     1.2140 C.3   1 <1>  -0.1600 
 19 C       -6.5720    -4.1230    -1.6750 C.3   1 <1>   0.3210 
 20 C       -8.7680    -4.4250    -0.4560 C.3   1 <1>   0.1400 
 21 C       -8.2470     0.7560    -0.1660 C.3   1 <1>  -0.1600 
 22 C       -6.2640    -5.6260    -1.6480 C.2   1 <1>   0.0460 
 23 C       -8.6610    -5.5560     0.5820 C.3   1 <1>   0.3430 
 24 N       -7.1800    -6.5480    -2.0320 N.2   1 <1>  -0.5650 
 25 C       -5.1040    -6.2320    -1.2970 C.2   1 <1>  -0.3320 
 26 N       -9.8770    -6.4350     0.6110 N.4   1 <1>  -0.9590 
 27 C       -6.5510    -7.6740    -1.9340 C.2   1 <1>   0.0360 
 28 N       -5.2870    -7.5510    -1.4840 N.pl3 1 <1>   0.0330 
 29 C       -3.7850    -5.6630    -0.8040 C.3   1 <1>  -0.0600 
 30 C       -9.8430    -7.2970     1.8290 C.3   1 <1>   0.2630 
 31 C       -9.9500    -7.2720    -0.6280 C.3   1 <1>   0.2630 
 32 H        0.7560    -5.0820    -0.0020 H     1 <1>   0.0800 
 33 H       -0.5300    -4.6050    -1.0750 H     1 <1>   0.0800 
 34 H       -0.8990    -5.3780     0.4490 H     1 <1>   0.0800 
 35 H       -1.7690    -1.7030    -1.3490 H     1 <1>   0.1500 
 36 H       -2.6800    -3.4770     2.4050 H     1 <1>   0.1500 
 37 H       -4.0720    -1.0940    -1.6470 H     1 <1>   0.1500 
 38 H       -5.0130    -2.8760     2.1340 H     1 <1>   0.1500 
 39 H       -6.4650    -1.5080    -2.0430 H     1 <1>   0.0800 
 40 H       -5.9540     0.0010    -1.3760 H     1 <1>   0.0800 
 41 H       -5.7430     0.3660     1.0620 H     1 <1>   0.0800 
 42 H       -6.2740    -0.8220     2.1980 H     1 <1>   0.0800 
 43 H       -8.7540    -1.0980    -1.1270 H     1 <1>   0.0800 
 44 H       -8.2360     0.1510    -2.2200 H     1 <1>   0.0800 
 45 H       -7.9120     1.0020     1.9380 H     1 <1>   0.0800 
 46 H       -8.6000    -0.5290     1.5110 H     1 <1>   0.0800 
 47 H       -5.6450    -3.5870    -1.6240 H     1 <1>   0.0800 
 48 H       -7.0360    -3.8850    -2.6160 H     1 <1>   0.0800 
 49 H       -9.0340    -4.8100    -1.4240 H     1 <1>   0.0800 
 50 H       -9.5320    -3.7330    -0.1440 H     1 <1>   0.0800 
 51 H       -9.2730     1.0820    -0.1590 H     1 <1>   0.0800 
 52 H       -7.6330     1.6140    -0.3820 H     1 <1>   0.0800 
 53 H       -8.5160    -5.1060     1.5500 H     1 <1>   0.0800 
 54 H       -7.7930    -6.1530     0.3570 H     1 <1>   0.0800 
 55 H      -10.7080    -5.8270     0.6630 H     1 <1>   0.4500 
 56 H       -6.9700    -8.6330    -2.1870 H     1 <1>   0.1500 
 57 H       -4.6060    -8.3050    -1.3430 H     1 <1>   0.2700 
 58 H       -3.8180    -4.5910    -0.7890 H     1 <1>   0.0800 
 59 H       -2.9850    -5.9690    -1.4540 H     1 <1>   0.0800 
 60 H       -3.5810    -6.0120     0.1930 H     1 <1>   0.0800 
 61 H       -8.9740    -7.9350     1.8100 H     1 <1>   0.0800 
 62 H      -10.7260    -7.9140     1.8760 H     1 <1>   0.0800 
 63 H       -9.8030    -6.6860     2.7170 H     1 <1>   0.0800 
 64 H       -9.0700    -7.8890    -0.7120 H     1 <1>   0.0800 
 65 H      -10.0030    -6.6470    -1.5050 H     1 <1>   0.0800 
 66 H      -10.8210    -7.9070    -0.6050 H     1 <1>   0.0800 
@<TRIPOS>BOND
  1   1   2  2   
  2   1   3  2   
  3   1   4  1   
  4   1   5  1   
  5   4   6  ar  
  6   4   7  ar  
  7   5  32  1   
  8   5  33  1   
  9   5  34  1   
 10   6   8  ar  
 11   6  35  1   
 12   7   9  ar  
 13   7  36  1   
 14   8  10  ar  
 15   8  37  1   
 16   9  10  ar  
 17   9  38  1   
 18  10  11  1   
 19  11  12  1   
 20  11  13  1   
 21  11  14  1   
 22  12  15  2   
 23  12  16  am  
 24  13  17  1   
 25  13  39  1   
 26  13  40  1   
 27  14  18  1   
 28  14  41  1   
 29  14  42  1   
 30  16  19  1   
 31  16  20  1   
 32  17  21  1   
 33  17  43  1   
 34  17  44  1   
 35  18  21  1   
 36  18  45  1   
 37  18  46  1   
 38  19  22  1   
 39  19  47  1   
 40  19  48  1   
 41  20  23  1   
 42  20  49  1   
 43  20  50  1   
 44  21  51  1   
 45  21  52  1   
 46  22  24  1   
 47  22  25  2   
 48  23  26  1   
 49  23  53  1   
 50  23  54  1   
 51  24  27  2   
 52  25  28  1   
 53  25  29  1   
 54  26  30  1   
 55  26  31  1   
 56  26  55  1   
 57  27  28  1   
 58  27  56  1   
 59  28  57  1   
 60  29  58  1   
 61  29  59  1   
 62  29  60  1   
 63  30  61  1   
 64  30  62  1   
 65  30  63  1   
 66  31  64  1   
 67  31  65  1   
 68  31  66  1   
@<TRIPOS>SUBSTRUCTURE
  1 ****  12 GROUP 4 **** **** 0

# MOE 2024.06 (io_trps.svl 2023.06)
