@<TRIPOS>MOLECULE
NONAME
38 40 1 0 0 
SMALL
USER_CHARGES


@<TRIPOS>ATOM
  1 N       -0.0900    -1.2640    -1.6310 N.ar  1 <1>  -0.6200 
  2 C        0.1940    -2.2300    -0.7670 C.ar  1 <1>   0.7200 
  3 C        0.2100    -0.0480    -1.2510 C.ar  1 <1>   0.1660 
  4 N        0.7530    -2.0910     0.4330 N.ar  1 <1>  -0.6200 
  5 N       -0.1410    -3.4690    -1.2020 N.pl3 1 <1>  -0.6690 
  6 C        0.7880     0.2070    -0.0290 C.ar  1 <1>  -0.1500 
  7 C       -0.1080     1.0720    -2.2190 C.3   1 <1>  -0.0970 
  8 C        1.0450    -0.8670     0.7910 C.ar  1 <1>   0.1670 
  9 C       -0.5510    -4.5680    -0.3240 C.3   1 <1>   0.2010 
 10 C        1.6800    -0.6850     2.1530 C.3   1 <1>  -0.0970 
 11 C       -1.9640    -4.3980     0.2170 C.ar  1 <1>  -0.0320 
 12 C       -0.0740    -5.9280    -0.7250 C.3   1 <1>  -0.2000 
 13 C        0.4980    -5.2630     0.4850 C.3   1 <1>  -0.2000 
 14 C       -3.0500    -4.9390    -0.4550 C.ar  1 <1>  -0.1500 
 15 C       -2.1760    -3.6890     1.3880 C.ar  1 <1>  -0.1500 
 16 C       -4.3360    -4.7830     0.0370 C.ar  1 <1>  -0.1430 
 17 C       -3.4570    -3.5270     1.8850 C.ar  1 <1>  -0.1500 
 18 C       -4.5340    -4.0750     1.2110 C.ar  1 <1>  -0.1500 
 19 C       -5.5170    -5.3790    -0.7070 C.3   1 <1>  -0.0970 
 20 H       -0.7060    -3.4000    -2.0420 H     1 <1>   0.4000 
 21 H        1.0310     1.2070     0.2730 H     1 <1>   0.1500 
 22 H       -1.1630     1.0800    -2.4220 H     1 <1>   0.0800 
 23 H        0.4210     0.9100    -3.1400 H     1 <1>   0.0800 
 24 H        0.1770     2.0260    -1.8150 H     1 <1>   0.0800 
 25 H        1.0170    -1.0630     2.9100 H     1 <1>   0.0800 
 26 H        1.8830     0.3510     2.3510 H     1 <1>   0.0800 
 27 H        2.6010    -1.2370     2.1940 H     1 <1>   0.0800 
 28 H        0.5460    -6.0220    -1.5990 H     1 <1>   0.1000 
 29 H       -0.7110    -6.7800    -0.5680 H     1 <1>   0.1000 
 30 H        0.2270    -5.6360     1.4550 H     1 <1>   0.1000 
 31 H        1.4950    -4.8620     0.4550 H     1 <1>   0.1000 
 32 H       -2.8870    -5.4820    -1.3680 H     1 <1>   0.1500 
 33 H       -1.3350    -3.2600     1.9050 H     1 <1>   0.1500 
 34 H       -3.6130    -2.9750     2.7950 H     1 <1>   0.1500 
 35 H       -5.5270    -3.9430     1.6030 H     1 <1>   0.1500 
 36 H       -5.2220    -6.2720    -1.2280 H     1 <1>   0.0800 
 37 H       -5.8930    -4.6680    -1.4190 H     1 <1>   0.0800 
 38 H       -6.3050    -5.6330    -0.0200 H     1 <1>   0.0800 
@<TRIPOS>BOND
  1   1   2  ar  
  2   1   3  ar  
  3   2   4  ar  
  4   2   5  1   
  5   3   6  ar  
  6   3   7  1   
  7   4   8  ar  
  8   5   9  1   
  9   5  20  1   
 10   6   8  ar  
 11   6  21  1   
 12   7  22  1   
 13   7  23  1   
 14   7  24  1   
 15   8  10  1   
 16   9  11  1   
 17   9  12  1   
 18   9  13  1   
 19  10  25  1   
 20  10  26  1   
 21  10  27  1   
 22  11  14  ar  
 23  11  15  ar  
 24  12  13  1   
 25  12  28  1   
 26  12  29  1   
 27  13  30  1   
 28  13  31  1   
 29  14  16  ar  
 30  14  32  1   
 31  15  17  ar  
 32  15  33  1   
 33  16  18  ar  
 34  16  19  1   
 35  17  18  ar  
 36  17  34  1   
 37  18  35  1   
 38  19  36  1   
 39  19  37  1   
 40  19  38  1   
@<TRIPOS>SUBSTRUCTURE
  1 ****   5 GROUP 4 **** **** 0

# MOE 2024.06 (io_trps.svl 2023.06)
