@<TRIPOS>MOLECULE
NONAME
52 54 1 0 0 
SMALL
USER_CHARGES


@<TRIPOS>ATOM
  1 O        1.0100     0.1340     1.6480 O.3   1 <1>  -0.6800 
  2 C        1.4130    -0.2740     0.3820 C.3   1 <1>   0.2000 
  3 C        2.2010    -1.5780     0.5350 C.3   1 <1>  -0.0800 
  4 C        2.4620     0.7200    -0.1140 C.3   1 <1>   0.3430 
  5 C        3.6570    -1.1280     0.7670 C.3   1 <1>   0.3430 
  6 C        2.0660    -2.4700    -0.7180 C.3   1 <1>  -0.0160 
  7 N        3.6760     0.3600     0.6660 N.4   1 <1>  -0.9590 
  8 C        2.8020    -3.7940    -0.5670 C.ar  1 <1>   0.1670 
  9 C        4.9610     0.8980     0.1510 C.3   1 <1>   0.3430 
 10 N        4.1240    -3.7400    -0.6290 N.ar  1 <1>  -0.6200 
 11 C        2.0880    -4.9780    -0.3820 C.ar  1 <1>   0.1600 
 12 C        5.0040     2.4200     0.3120 C.3   1 <1>  -0.1600 
 13 C        4.6760    -4.9390    -0.5050 C.ar  1 <1>   0.1600 
 14 N        2.6400    -6.1700    -0.2450 N.ar  1 <1>  -0.6200 
 15 C        6.3230     3.0350    -0.2020 C.3   1 <1>  -0.0800 
 16 C        3.9580    -6.1140    -0.3170 C.ar  1 <1>   0.1600 
 17 C        7.5280     2.4820     0.5910 C.3   1 <1>  -0.1600 
 18 C        6.2060     4.5730    -0.1490 C.3   1 <1>  -0.1600 
 19 C        8.8980     3.0750     0.2220 C.3   1 <1>  -0.1600 
 20 C        7.2850     5.2890    -0.9750 C.3   1 <1>  -0.1600 
 21 C        9.0830     4.5060     0.7420 C.3   1 <1>  -0.1600 
 22 C        8.5790     5.6000    -0.2090 C.3   1 <1>  -0.1600 
 23 H        0.2330    -0.3770     1.9620 H     1 <1>   0.4000 
 24 H        0.5500    -0.3350    -0.2600 H     1 <1>   0.0800 
 25 H        1.8530    -2.1410     1.3840 H     1 <1>   0.0800 
 26 H        2.1510     1.7360     0.0640 H     1 <1>   0.0800 
 27 H        2.6410     0.5700    -1.1650 H     1 <1>   0.0800 
 28 H        4.3000    -1.5480     0.0130 H     1 <1>   0.0800 
 29 H        4.0060    -1.4480     1.7360 H     1 <1>   0.0800 
 30 H        2.4520    -1.9630    -1.5850 H     1 <1>   0.0800 
 31 H        1.0240    -2.6690    -0.9020 H     1 <1>   0.0800 
 32 H        3.5010     0.7200     1.6180 H     1 <1>   0.4500 
 33 H        5.7760     0.4620     0.7060 H     1 <1>   0.0800 
 34 H        5.0830     0.6360    -0.8880 H     1 <1>   0.0800 
 35 H        1.0130    -4.9430    -0.3440 H     1 <1>   0.1500 
 36 H        4.1910     2.8520    -0.2440 H     1 <1>   0.0800 
 37 H        4.8810     2.6760     1.3500 H     1 <1>   0.0800 
 38 H        5.7500    -4.9990    -0.5530 H     1 <1>   0.1500 
 39 H        6.4420     2.7490    -1.2340 H     1 <1>   0.0800 
 40 H        4.4960    -7.0410    -0.2250 H     1 <1>   0.1500 
 41 H        7.3630     2.6270     1.6460 H     1 <1>   0.0800 
 42 H        7.6010     1.4230     0.4250 H     1 <1>   0.0800 
 43 H        5.2570     4.8580    -0.5700 H     1 <1>   0.0800 
 44 H        6.2170     4.9250     0.8680 H     1 <1>   0.0800 
 45 H        9.6510     2.4620     0.6860 H     1 <1>   0.0800 
 46 H        9.0650     3.0290    -0.8410 H     1 <1>   0.0800 
 47 H        7.5180     4.7080    -1.8510 H     1 <1>   0.0800 
 48 H        6.8860     6.2250    -1.3270 H     1 <1>   0.0800 
 49 H        8.5970     4.6090     1.6970 H     1 <1>   0.0800 
 50 H       10.1320     4.6790     0.9120 H     1 <1>   0.0800 
 51 H        9.3480     5.8120    -0.9320 H     1 <1>   0.0800 
 52 H        8.4350     6.4990     0.3660 H     1 <1>   0.0800 
@<TRIPOS>BOND
  1   1   2  1   
  2   1  23  1   
  3   2   3  1   
  4   2   4  1   
  5   2  24  1   
  6   3   5  1   
  7   3   6  1   
  8   3  25  1   
  9   4   7  1   
 10   4  26  1   
 11   4  27  1   
 12   5   7  1   
 13   5  28  1   
 14   5  29  1   
 15   6   8  1   
 16   6  30  1   
 17   6  31  1   
 18   7   9  1   
 19   7  32  1   
 20   8  10  ar  
 21   8  11  ar  
 22   9  12  1   
 23   9  33  1   
 24   9  34  1   
 25  10  13  ar  
 26  11  14  ar  
 27  11  35  1   
 28  12  15  1   
 29  12  36  1   
 30  12  37  1   
 31  13  16  ar  
 32  13  38  1   
 33  14  16  ar  
 34  15  17  1   
 35  15  18  1   
 36  15  39  1   
 37  16  40  1   
 38  17  19  1   
 39  17  41  1   
 40  17  42  1   
 41  18  20  1   
 42  18  43  1   
 43  18  44  1   
 44  19  21  1   
 45  19  45  1   
 46  19  46  1   
 47  20  22  1   
 48  20  47  1   
 49  20  48  1   
 50  21  22  1   
 51  21  49  1   
 52  21  50  1   
 53  22  51  1   
 54  22  52  1   
@<TRIPOS>SUBSTRUCTURE
  1 ****   9 GROUP 4 **** **** 0

# MOE 2024.06 (io_trps.svl 2023.06)
