@<TRIPOS>MOLECULE
NONAME
48 51 1 0 0 
SMALL
USER_CHARGES


@<TRIPOS>ATOM
  1 O       -0.6400     0.2180    -2.3590 O.2   1 <1>  -0.5700 
  2 C       -1.3480     0.9370    -1.6940 C.2   1 <1>   0.5690 
  3 N       -2.3720     0.4210    -0.9410 N.am  1 <1>  -0.6600 
  4 C       -1.0900     2.4400    -1.7580 C.3   1 <1>   0.1810 
  5 C       -3.3050     1.1860    -0.0780 C.3   1 <1>   0.1400 
  6 C       -2.6280    -1.0340    -0.8360 C.3   1 <1>   0.1400 
  7 O       -0.8990     2.9950    -0.4650 O.3   1 <1>  -0.3620 
  8 C       -4.2820     0.1420     0.4630 C.3   1 <1>   0.2000 
  9 C       -3.5430    -1.1930     0.3780 C.3   1 <1>  -0.0800 
 10 C       -0.7230     4.3270    -0.2910 C.ar  1 <1>   0.0820 
 11 O       -4.6390     0.4070     1.7760 O.3   1 <1>  -0.6800 
 12 C       -4.4920    -2.3980     0.2850 C.3   1 <1>  -0.0170 
 13 C       -0.6680     4.7800     1.0160 C.ar  1 <1>  -0.1500 
 14 C       -0.6020     5.2390    -1.3350 C.ar  1 <1>  -0.1500 
 15 C       -3.7140    -3.7010     0.1970 C.ar  1 <1>  -0.1440 
 16 C       -0.4980     6.1250     1.2860 C.ar  1 <1>  -0.1500 
 17 C       -0.4310     6.5850    -1.0630 C.ar  1 <1>  -0.1500 
 18 C       -3.2080    -4.3180     1.3230 C.ar  1 <1>  -0.1500 
 19 C       -3.4710    -4.3330    -1.0060 C.ar  1 <1>  -0.1500 
 20 C       -0.3740     7.0470     0.2500 C.ar  1 <1>  -0.0230 
 21 C       -2.5000    -5.5020     1.1950 C.ar  1 <1>   0.1600 
 22 C       -2.7500    -5.5160    -1.0240 C.ar  1 <1>   0.1600 
 23 N       -0.1930     8.4320     0.5340 N.pl3 1 <1>   0.5930 
 24 N       -2.2580    -6.1160     0.0480 N.ar  1 <1>  -0.6200 
 25 N       -0.7810     9.0890     1.5220 N.2   1 <1>  -0.4180 
 26 C        0.5700     9.3170    -0.0910 C.2   1 <1>   0.0360 
 27 N       -0.3740    10.3050     1.4610 N.2   1 <1>   0.0000 
 28 N        0.4750    10.4670     0.4540 N.2   1 <1>  -0.3380 
 29 H       -1.9310     2.9240    -2.2170 H     1 <1>   0.0800 
 30 H       -0.2020     2.6210    -2.3350 H     1 <1>   0.0800 
 31 H       -2.7530     1.6420     0.7250 H     1 <1>   0.0800 
 32 H       -3.8230     1.9360    -0.6490 H     1 <1>   0.0800 
 33 H       -3.1170    -1.3650    -1.7370 H     1 <1>   0.0800 
 34 H       -1.7070    -1.5800    -0.7110 H     1 <1>   0.0800 
 35 H       -5.1760     0.1350    -0.1370 H     1 <1>   0.0800 
 36 H       -2.9080    -1.3050     1.2390 H     1 <1>   0.0800 
 37 H       -3.8490     0.4010     2.3510 H     1 <1>   0.4000 
 38 H       -5.1320    -2.2980    -0.5740 H     1 <1>   0.0800 
 39 H       -5.1240    -2.4210     1.1570 H     1 <1>   0.0800 
 40 H       -0.7600     4.0730     1.8210 H     1 <1>   0.1500 
 41 H       -0.6370     4.9220    -2.3610 H     1 <1>   0.1500 
 42 H       -0.4620     6.4590     2.3100 H     1 <1>   0.1500 
 43 H       -0.3480     7.2750    -1.8860 H     1 <1>   0.1500 
 44 H       -3.3570    -3.8910     2.2970 H     1 <1>   0.1500 
 45 H       -3.8320    -3.9210    -1.9300 H     1 <1>   0.1500 
 46 H       -2.1130    -5.9690     2.0850 H     1 <1>   0.1500 
 47 H       -2.5680    -5.9940    -1.9710 H     1 <1>   0.1500 
 48 H        1.1810     9.0730    -0.9380 H     1 <1>   0.1500 
@<TRIPOS>BOND
  1   1   2  2   
  2   2   3  am  
  3   2   4  1   
  4   3   5  1   
  5   3   6  1   
  6   4   7  1   
  7   4  29  1   
  8   4  30  1   
  9   5   8  1   
 10   5  31  1   
 11   5  32  1   
 12   6   9  1   
 13   6  33  1   
 14   6  34  1   
 15   7  10  1   
 16   8   9  1   
 17   8  11  1   
 18   8  35  1   
 19   9  12  1   
 20   9  36  1   
 21  10  13  ar  
 22  10  14  ar  
 23  11  37  1   
 24  12  15  1   
 25  12  38  1   
 26  12  39  1   
 27  13  16  ar  
 28  13  40  1   
 29  14  17  ar  
 30  14  41  1   
 31  15  18  ar  
 32  15  19  ar  
 33  16  20  ar  
 34  16  42  1   
 35  17  20  ar  
 36  17  43  1   
 37  18  21  ar  
 38  18  44  1   
 39  19  22  ar  
 40  19  45  1   
 41  20  23  1   
 42  21  24  ar  
 43  21  46  1   
 44  22  24  ar  
 45  22  47  1   
 46  23  25  1   
 47  23  26  1   
 48  25  27  2   
 49  26  28  2   
 50  26  48  1   
 51  27  28  1   
@<TRIPOS>SUBSTRUCTURE
  1 ****   7 GROUP 4 **** **** 0

# MOE 2024.06 (io_trps.svl 2023.06)
