@<TRIPOS>MOLECULE
NONAME
45 47 1 0 0 
SMALL
USER_CHARGES


@<TRIPOS>ATOM
  1 O       -0.2780     1.4910     1.9350 O.2   1 <1>  -0.5700 
  2 C       -0.2790     2.5090     1.2920 C.2   1 <1>   0.5690 
  3 N       -1.1090     3.5260     1.6050 N.am  1 <1>  -0.7300 
  4 C        0.6350     2.6560     0.0770 C.3   1 <1>   0.1810 
  5 C       -1.2520     4.7610     0.7930 C.3   1 <1>   0.3640 
  6 O        0.8710     4.0070    -0.2500 O.3   1 <1>  -0.5600 
  7 C       -2.7170     4.8700     0.3690 C.ar  1 <1>  -0.1440 
  8 C       -0.3040     4.7930    -0.4420 C.3   1 <1>   0.2610 
  9 C       -3.3890     6.0770     0.5030 C.ar  1 <1>  -0.1500 
 10 C       -3.4000     3.7780    -0.1560 C.ar  1 <1>  -0.1500 
 11 C        0.0910     6.2400    -0.7730 C.2   1 <1>   0.5690 
 12 C       -4.7150     6.1920     0.1240 C.ar  1 <1>  -0.1500 
 13 C       -4.7260     3.8920    -0.5360 C.ar  1 <1>  -0.1500 
 14 O       -0.7400     7.1170    -0.7640 O.2   1 <1>  -0.5700 
 15 N        1.3930     6.5180    -1.0530 N.am  1 <1>  -0.7300 
 16 C       -5.3850     5.0990    -0.3960 C.ar  1 <1>  -0.1500 
 17 C        1.9460     7.8460    -1.4150 C.3   1 <1>   0.1400 
 18 C        2.6750     8.4830    -0.2210 C.3   1 <1>   0.0000 
 19 C        3.5700     9.6800    -0.6590 C.3   1 <1>   0.0000 
 20 C        3.9710     7.7170     0.1780 C.3   1 <1>   0.0000 
 21 C        1.6960     8.7890     0.9390 C.3   1 <1>   0.1200 
 22 C        4.7390     9.0650     0.1540 C.3   1 <1>   0.0000 
 23 O        2.3190     9.4170     2.0100 O.3   1 <1>  -0.6800 
 24 H       -1.7690     3.4000     2.3740 H     1 <1>   0.3700 
 25 H        0.1920     2.1680    -0.7720 H     1 <1>   0.0800 
 26 H        1.5840     2.1980     0.2880 H     1 <1>   0.0800 
 27 H       -1.0120     5.5970     1.4270 H     1 <1>   0.0800 
 28 H       -0.8210     4.3940    -1.2950 H     1 <1>   0.0800 
 29 H       -2.8820     6.9420     0.8970 H     1 <1>   0.1500 
 30 H       -2.9070     2.8280    -0.2700 H     1 <1>   0.1500 
 31 H       -5.2230     7.1350     0.2300 H     1 <1>   0.1500 
 32 H       -5.2460     3.0400    -0.9390 H     1 <1>   0.1500 
 33 H        2.0580     5.7400    -0.9770 H     1 <1>   0.3700 
 34 H       -6.4160     5.1900    -0.6910 H     1 <1>   0.1500 
 35 H        2.6220     7.7240    -2.2440 H     1 <1>   0.0800 
 36 H        1.1470     8.4950    -1.7350 H     1 <1>   0.0800 
 37 H        3.7820     9.6900    -1.7150 H     1 <1>   0.0000 
 38 H        3.2460    10.6380    -0.2900 H     1 <1>   0.0000 
 39 H        3.9340     7.2600     1.1510 H     1 <1>   0.0000 
 40 H        4.3200     7.0460    -0.5880 H     1 <1>   0.0000 
 41 H        1.2530     7.8800     1.3070 H     1 <1>   0.0800 
 42 H        0.9080     9.4380     0.5970 H     1 <1>   0.0800 
 43 H        4.8460     9.5030     1.1310 H     1 <1>   0.0000 
 44 H        5.6640     9.0200    -0.3930 H     1 <1>   0.0000 
 45 H        3.0590     8.8730     2.3420 H     1 <1>   0.4000 
@<TRIPOS>BOND
  1   1   2  2   
  2   2   3  am  
  3   2   4  1   
  4   3   5  1   
  5   3  24  1   
  6   4   6  1   
  7   4  25  1   
  8   4  26  1   
  9   5   7  1   
 10   5   8  1   
 11   5  27  1   
 12   6   8  1   
 13   7   9  ar  
 14   7  10  ar  
 15   8  11  1   
 16   8  28  1   
 17   9  12  ar  
 18   9  29  1   
 19  10  13  ar  
 20  10  30  1   
 21  11  14  2   
 22  11  15  am  
 23  12  16  ar  
 24  12  31  1   
 25  13  16  ar  
 26  13  32  1   
 27  15  17  1   
 28  15  33  1   
 29  16  34  1   
 30  17  18  1   
 31  17  35  1   
 32  17  36  1   
 33  18  19  1   
 34  18  20  1   
 35  18  21  1   
 36  19  22  1   
 37  19  37  1   
 38  19  38  1   
 39  20  22  1   
 40  20  39  1   
 41  20  40  1   
 42  21  23  1   
 43  21  41  1   
 44  21  42  1   
 45  22  43  1   
 46  22  44  1   
 47  23  45  1   
@<TRIPOS>SUBSTRUCTURE
  1 ****  11 GROUP 4 **** **** 0

# MOE 2024.06 (io_trps.svl 2023.06)
