@<TRIPOS>MOLECULE
NONAME
55 57 1 0 0 
SMALL
USER_CHARGES


@<TRIPOS>ATOM
  1 O        2.9830    -0.1130     2.7020 O.2   1 <1>  -0.5700 
  2 C        2.8140    -0.8850     1.7890 C.2   1 <1>   0.5690 
  3 N        2.9010    -0.4580     0.4880 N.am  1 <1>  -0.6600 
  4 C        2.4870    -2.3130     2.1990 C.3   1 <1>  -0.0990 
  5 C        2.6810    -1.3240    -0.7090 C.3   1 <1>   0.1400 
  6 C        3.2130     0.9880     0.1750 C.3   1 <1>   0.2010 
  7 C        2.4730    -3.4050     1.1280 C.3   1 <1>   0.1200 
  8 C        3.6540    -2.5320    -0.7870 C.3   1 <1>   0.2800 
  9 C        2.1500     1.6860    -0.6830 C.2   1 <1>   0.5690 
 10 O        3.6400    -3.3340     0.3690 O.3   1 <1>  -0.5600 
 11 C        3.3210    -3.4510    -1.9730 C.3   1 <1>  -0.1600 
 12 C        5.1070    -2.0370    -0.9380 C.3   1 <1>  -0.1600 
 13 O        2.3230     1.6710    -1.8820 O.2   1 <1>  -0.5700 
 14 N        1.0530     2.2980    -0.1180 N.am  1 <1>  -0.6600 
 15 C        4.2490    -4.6720    -2.0600 C.3   1 <1>   0.3430 
 16 C        6.0830    -3.0780    -1.4980 C.3   1 <1>   0.3430 
 17 C        0.0750     3.0640    -0.9410 C.3   1 <1>   0.0600 
 18 C        0.7430     2.2760     1.3390 C.3   1 <1>   0.0600 
 19 N        5.5220    -4.4390    -1.3260 N.4   1 <1>  -0.9590 
 20 C        6.5290    -5.5340    -1.4490 C.3   1 <1>   0.4860 
 21 C        7.5140    -5.4640    -0.2840 C.ar  1 <1>   0.1670 
 22 N        6.9910    -5.1940     0.9070 N.ar  1 <1>  -0.6200 
 23 C        8.8680    -5.6650    -0.5100 C.ar  1 <1>  -0.1500 
 24 C        7.8520    -5.1270     1.9120 C.ar  1 <1>   0.1600 
 25 C        9.7510    -5.5890     0.5460 C.ar  1 <1>  -0.1500 
 26 C        9.2180    -5.3120     1.7860 C.ar  1 <1>  -0.1500 
 27 H        1.5290    -2.3000     2.6840 H     1 <1>   0.0800 
 28 H        3.2050    -2.5990     2.9460 H     1 <1>   0.0800 
 29 H        2.8180    -0.7420    -1.6030 H     1 <1>   0.0800 
 30 H        1.6560    -1.6490    -0.7260 H     1 <1>   0.0800 
 31 H        4.1440     1.0260    -0.3590 H     1 <1>   0.0800 
 32 H        3.3520     1.5560     1.0760 H     1 <1>   0.0800 
 33 H        1.6040    -3.3490     0.4960 H     1 <1>   0.0800 
 34 H        2.4650    -4.3660     1.6120 H     1 <1>   0.0800 
 35 H        3.4070    -2.8890    -2.8860 H     1 <1>   0.0800 
 36 H        2.3000    -3.7840    -1.9120 H     1 <1>   0.0800 
 37 H        5.4610    -1.6940     0.0190 H     1 <1>   0.0800 
 38 H        5.1350    -1.1870    -1.5960 H     1 <1>   0.0800 
 39 H        4.4490    -4.8960    -3.0950 H     1 <1>   0.0800 
 40 H        3.7480    -5.5200    -1.6220 H     1 <1>   0.0800 
 41 H        7.0240    -2.9930    -0.9770 H     1 <1>   0.0800 
 42 H        6.2540    -2.8900    -2.5460 H     1 <1>   0.0800 
 43 H        0.3960     3.1220    -1.9670 H     1 <1>   0.0800 
 44 H       -0.0190     4.0650    -0.5570 H     1 <1>   0.0800 
 45 H       -0.8850     2.5800    -0.9080 H     1 <1>   0.0800 
 46 H        1.1470     1.3960     1.8060 H     1 <1>   0.0800 
 47 H       -0.3230     2.2700     1.4890 H     1 <1>   0.0800 
 48 H        1.1580     3.1480     1.8130 H     1 <1>   0.0800 
 49 H        5.2690    -4.4520    -0.3120 H     1 <1>   0.4500 
 50 H        7.0540    -5.4600    -2.3860 H     1 <1>   0.0800 
 51 H        6.0310    -6.4880    -1.4060 H     1 <1>   0.0800 
 52 H        9.2430    -5.8810    -1.4950 H     1 <1>   0.1500 
 53 H        7.4510    -4.9140     2.8900 H     1 <1>   0.1500 
 54 H       10.8100    -5.7400     0.4130 H     1 <1>   0.1500 
 55 H        9.8530    -5.2410     2.6510 H     1 <1>   0.1500 
@<TRIPOS>BOND
  1   1   2  2   
  2   2   3  am  
  3   2   4  1   
  4   3   5  1   
  5   3   6  1   
  6   4   7  1   
  7   4  27  1   
  8   4  28  1   
  9   5   8  1   
 10   5  29  1   
 11   5  30  1   
 12   6   9  1   
 13   6  31  1   
 14   6  32  1   
 15   7  10  1   
 16   7  33  1   
 17   7  34  1   
 18   8  10  1   
 19   8  11  1   
 20   8  12  1   
 21   9  13  2   
 22   9  14  am  
 23  11  15  1   
 24  11  35  1   
 25  11  36  1   
 26  12  16  1   
 27  12  37  1   
 28  12  38  1   
 29  14  17  1   
 30  14  18  1   
 31  15  19  1   
 32  15  39  1   
 33  15  40  1   
 34  16  19  1   
 35  16  41  1   
 36  16  42  1   
 37  17  43  1   
 38  17  44  1   
 39  17  45  1   
 40  18  46  1   
 41  18  47  1   
 42  18  48  1   
 43  19  20  1   
 44  19  49  1   
 45  20  21  1   
 46  20  50  1   
 47  20  51  1   
 48  21  22  ar  
 49  21  23  ar  
 50  22  24  ar  
 51  23  25  ar  
 52  23  52  1   
 53  24  26  ar  
 54  24  53  1   
 55  25  26  ar  
 56  25  54  1   
 57  26  55  1   
@<TRIPOS>SUBSTRUCTURE
  1 ****   8 GROUP 4 **** **** 0

# MOE 2024.06 (io_trps.svl 2023.06)
