@<TRIPOS>MOLECULE
NONAME
44 45 1 0 0 
SMALL
USER_CHARGES


@<TRIPOS>ATOM
  1 O        1.5200    -0.0840    -2.8810 O.2   1 <1>  -0.5700 
  2 C        1.7890    -0.6560    -1.8480 C.2   1 <1>   0.5690 
  3 N        2.3040    -0.0130    -0.7590 N.am  1 <1>  -0.4930 
  4 C        1.5490    -2.1690    -1.7620 C.3   1 <1>   0.2610 
  5 C        2.6310     1.3550    -0.5930 C.2   1 <1>   0.0630 
  6 O        1.5750    -2.5840    -0.3990 O.3   1 <1>  -0.3620 
  7 C        2.6240    -2.9570    -2.5260 C.3   1 <1>  -0.2400 
  8 C        2.4920     2.4130    -1.4940 C.2   1 <1>   0.1390 
  9 C        3.1600     1.9190     0.5110 C.2   1 <1>  -0.3020 
 10 C        0.9850    -3.7280     0.0360 C.ar  1 <1>   0.0830 
 11 N        2.9020     3.5430    -0.9960 N.2   1 <1>  -0.7070 
 12 N        3.3160     3.2370     0.2500 N.pl3 1 <1>   0.3140 
 13 C        0.2530    -4.5900    -0.7750 C.ar  1 <1>  -0.1500 
 14 C        1.1400    -4.0290     1.3800 C.ar  1 <1>  -0.1500 
 15 C        3.8540     4.2590     1.1600 C.3   1 <1>   0.1570 
 16 C       -0.3150    -5.7370    -0.2460 C.ar  1 <1>   0.0830 
 17 C        0.5750    -5.1730     1.9140 C.ar  1 <1>  -0.1500 
 18 C        5.2810     4.5950     0.7880 C.2   1 <1>   0.5690 
 19 O       -1.0110    -6.5220    -1.1080 O.3   1 <1>  -0.3630 
 20 C       -0.1530    -6.0290     1.1060 C.ar  1 <1>  -0.1500 
 21 O        6.0960     4.6890     1.6750 O.2   1 <1>  -0.5700 
 22 N        5.6060     4.7970    -0.5170 N.am  1 <1>  -0.7300 
 23 C       -1.6360    -7.7100    -0.6760 C.3   1 <1>   0.0400 
 24 C        6.9520     5.1320    -1.0430 C.3   1 <1>   0.0600 
 25 H        2.4480    -0.6110     0.0570 H     1 <1>   0.3700 
 26 H        0.5710    -2.3590    -2.1630 H     1 <1>   0.0800 
 27 H        3.5970    -2.7500    -2.1170 H     1 <1>   0.0800 
 28 H        2.6210    -2.6610    -3.5590 H     1 <1>   0.0800 
 29 H        2.4350    -4.0140    -2.4770 H     1 <1>   0.0800 
 30 H        2.0920     2.3080    -2.4890 H     1 <1>   0.1500 
 31 H        3.4320     1.4690     1.4470 H     1 <1>   0.1500 
 32 H        0.1040    -4.4040    -1.8190 H     1 <1>   0.1500 
 33 H        1.7060    -3.3650     2.0080 H     1 <1>   0.1500 
 34 H        3.8190     3.8910     2.1670 H     1 <1>   0.0800 
 35 H        3.2500     5.1420     1.0840 H     1 <1>   0.0800 
 36 H        0.7010    -5.3980     2.9590 H     1 <1>   0.1500 
 37 H       -0.5810    -6.9110     1.5430 H     1 <1>   0.1500 
 38 H        4.8710     4.6060    -1.2180 H     1 <1>   0.3700 
 39 H       -2.1240    -8.1580    -1.5230 H     1 <1>   0.0800 
 40 H       -2.3630    -7.4680     0.0790 H     1 <1>   0.0800 
 41 H       -0.8870    -8.3790    -0.2910 H     1 <1>   0.0800 
 42 H        7.6450     5.2770    -0.2310 H     1 <1>   0.0800 
 43 H        6.9000     6.0360    -1.6230 H     1 <1>   0.0800 
 44 H        7.3070     4.3300    -1.6660 H     1 <1>   0.0800 
@<TRIPOS>BOND
  1   1   2  2   
  2   2   3  am  
  3   2   4  1   
  4   3   5  1   
  5   3  25  1   
  6   4   6  1   
  7   4   7  1   
  8   4  26  1   
  9   5   8  1   
 10   5   9  2   
 11   6  10  1   
 12   7  27  1   
 13   7  28  1   
 14   7  29  1   
 15   8  11  2   
 16   8  30  1   
 17   9  12  1   
 18   9  31  1   
 19  10  13  ar  
 20  10  14  ar  
 21  11  12  1   
 22  12  15  1   
 23  13  16  ar  
 24  13  32  1   
 25  14  17  ar  
 26  14  33  1   
 27  15  18  1   
 28  15  34  1   
 29  15  35  1   
 30  16  19  1   
 31  16  20  ar  
 32  17  20  ar  
 33  17  36  1   
 34  18  21  2   
 35  18  22  am  
 36  19  23  1   
 37  20  37  1   
 38  22  24  1   
 39  22  38  1   
 40  23  39  1   
 41  23  40  1   
 42  23  41  1   
 43  24  42  1   
 44  24  43  1   
 45  24  44  1   
@<TRIPOS>SUBSTRUCTURE
  1 ****   3 GROUP 4 **** **** 0

# MOE 2024.06 (io_trps.svl 2023.06)
