@<TRIPOS>MOLECULE
NONAME
47 48 1 0 0 
SMALL
USER_CHARGES


@<TRIPOS>ATOM
  1 S        1.4170    -0.1710     0.9450 S.o2  1 <1>   1.3330 
  2 O        1.1050     0.7970     1.9720 O.2   1 <1>  -0.6500 
  3 O        2.4460    -1.1570     1.1880 O.2   1 <1>  -0.6500 
  4 N       -0.0090    -1.0010     0.5460 N.am  1 <1>  -0.8490 
  5 C        1.7770     0.7350    -0.5600 C.3   1 <1>  -0.0550 
  6 C       -0.8540    -1.2490     1.7180 C.3   1 <1>   0.1160 
  7 C        0.2310    -2.2580    -0.1710 C.3   1 <1>   0.1160 
  8 C        3.0090     1.6550    -0.4460 C.3   1 <1>  -0.0800 
  9 C        3.1220     2.5720    -1.6530 C.3   1 <1>   0.2200 
 10 C        4.3190     0.8710    -0.5400 C.3   1 <1>   0.1200 
 11 N        3.9250     3.7550    -1.2800 N.am  1 <1>  -0.7300 
 12 C        3.8950     1.7090    -2.6480 C.3   1 <1>   0.1200 
 13 O        4.6120     0.7690    -1.9000 O.3   1 <1>  -0.5600 
 14 C        3.4710     5.0320    -1.2170 C.2   1 <1>   0.5690 
 15 O        2.3450     5.3200    -1.5380 O.2   1 <1>  -0.5700 
 16 C        4.3990     6.1320    -0.7260 C.3   1 <1>   0.0440 
 17 C        5.6730     5.5910    -0.0800 C.ar  1 <1>  -0.1440 
 18 C        6.8740     5.5930    -0.7720 C.ar  1 <1>  -0.1500 
 19 C        5.6340     5.0720     1.2080 C.ar  1 <1>  -0.1500 
 20 C        8.0010     5.0740    -0.1620 C.ar  1 <1>   0.1900 
 21 C        6.7750     4.5550     1.8030 C.ar  1 <1>  -0.1500 
 22 F        9.1210     5.0850    -0.8350 F     1 <1>  -0.1900 
 23 C        7.9820     4.5480     1.1210 C.ar  1 <1>  -0.1440 
 24 C        9.2390     3.9810     1.7640 C.3   1 <1>  -0.0970 
 25 H        1.9170     0.0450    -1.3700 H     1 <1>   0.0800 
 26 H        0.9210     1.3390    -0.7900 H     1 <1>   0.0800 
 27 H       -1.7550    -1.7610     1.4270 H     1 <1>   0.0800 
 28 H       -1.1330    -0.3150     2.1760 H     1 <1>   0.0800 
 29 H       -0.3240    -1.8450     2.4420 H     1 <1>   0.0800 
 30 H       -0.7040    -2.6920    -0.4800 H     1 <1>   0.0800 
 31 H        0.7510    -2.9590     0.4610 H     1 <1>   0.0800 
 32 H        0.8280    -2.0780    -1.0490 H     1 <1>   0.0800 
 33 H        2.9450     2.2190     0.4690 H     1 <1>   0.0800 
 34 H        2.1660     2.8810    -2.0440 H     1 <1>   0.0800 
 35 H        4.2700    -0.1160    -0.1160 H     1 <1>   0.0800 
 36 H        5.1230     1.4170    -0.0750 H     1 <1>   0.0800 
 37 H        4.8890     3.5610    -0.9890 H     1 <1>   0.3700 
 38 H        4.5760     2.2850    -3.2490 H     1 <1>   0.0800 
 39 H        3.2190     1.1670    -3.2840 H     1 <1>   0.0800 
 40 H        4.6440     6.7620    -1.5610 H     1 <1>   0.0800 
 41 H        3.8640     6.7320    -0.0140 H     1 <1>   0.0800 
 42 H        6.9490     5.9860    -1.7700 H     1 <1>   0.1500 
 43 H        4.7080     5.0650     1.7580 H     1 <1>   0.1500 
 44 H        6.7150     4.1570     2.8020 H     1 <1>   0.1500 
 45 H        9.0390     3.6280     2.7590 H     1 <1>   0.0800 
 46 H        9.9980     4.7420     1.8150 H     1 <1>   0.0800 
 47 H        9.6120     3.1610     1.1770 H     1 <1>   0.0800 
@<TRIPOS>BOND
  1   1   2  2   
  2   1   3  2   
  3   1   4  am  
  4   1   5  1   
  5   4   6  1   
  6   4   7  1   
  7   5   8  1   
  8   5  25  1   
  9   5  26  1   
 10   6  27  1   
 11   6  28  1   
 12   6  29  1   
 13   7  30  1   
 14   7  31  1   
 15   7  32  1   
 16   8   9  1   
 17   8  10  1   
 18   8  33  1   
 19   9  11  1   
 20   9  12  1   
 21   9  34  1   
 22  10  13  1   
 23  10  35  1   
 24  10  36  1   
 25  11  14  am  
 26  11  37  1   
 27  12  13  1   
 28  12  38  1   
 29  12  39  1   
 30  14  15  2   
 31  14  16  1   
 32  16  17  1   
 33  16  40  1   
 34  16  41  1   
 35  17  18  ar  
 36  17  19  ar  
 37  18  20  ar  
 38  18  42  1   
 39  19  21  ar  
 40  19  43  1   
 41  20  22  1   
 42  20  23  ar  
 43  21  23  ar  
 44  21  44  1   
 45  23  24  1   
 46  24  45  1   
 47  24  46  1   
 48  24  47  1   
@<TRIPOS>SUBSTRUCTURE
  1 ****   8 GROUP 4 **** **** 0

# MOE 2024.06 (io_trps.svl 2023.06)
