@<TRIPOS>MOLECULE
NONAME
45 47 1 0 0 
SMALL
USER_CHARGES


@<TRIPOS>ATOM
  1 O       -0.5470     0.0830     2.3130 O.3   1 <1>  -0.5600 
  2 C        0.5090     0.1300     1.4040 C.3   1 <1>   0.1200 
  3 C       -1.7540     0.3790     1.6750 C.3   1 <1>   0.1200 
  4 C        0.0860     1.1390     0.3430 C.3   1 <1>   0.2890 
  5 C       -1.4060     0.8400     0.2550 C.3   1 <1>  -0.0800 
  6 N        0.3290     2.5100     0.8630 N.pl3 1 <1>  -0.8690 
  7 C       -2.3010     1.9800    -0.2660 C.3   1 <1>  -0.0170 
  8 C        0.9240     3.5730     0.3230 C.ar  1 <1>   0.4100 
  9 C       -3.7490     1.5260    -0.3710 C.ar  1 <1>  -0.1430 
 10 N        1.0210     4.6230     1.1370 N.ar  1 <1>  -0.6200 
 11 C        1.4240     3.6250    -0.9830 C.ar  1 <1>  -0.1500 
 12 C       -4.6860     1.8380     0.5930 C.ar  1 <1>  -0.1500 
 13 C       -4.2010     0.7730    -1.4360 C.ar  1 <1>  -0.1500 
 14 C        1.6040     5.6960     0.6920 C.ar  1 <1>   0.5280 
 15 C        2.0290     4.7660    -1.4200 C.ar  1 <1>   0.2180 
 16 C       -5.9900     1.3920     0.4520 C.ar  1 <1>   0.1600 
 17 C       -5.5280     0.3760    -1.4820 C.ar  1 <1>   0.1600 
 18 N        2.1110     5.7990    -0.5560 N.ar  1 <1>  -0.1790 
 19 C        1.7250     6.8960     1.6240 C.3   1 <1>  -0.0160 
 20 C        2.6040     4.9200    -2.8180 C.3   1 <1>  -0.0970 
 21 N       -6.4330     0.6660    -0.5620 N.ar  1 <1>  -0.6200 
 22 C        1.0440     8.1630     1.0790 C.3   1 <1>  -0.2400 
 23 H        1.4130     0.4150     1.9140 H     1 <1>   0.0800 
 24 H        0.6200    -0.8520     0.9780 H     1 <1>   0.0800 
 25 H       -2.3740    -0.5010     1.6690 H     1 <1>   0.0800 
 26 H       -2.2360     1.1570     2.2410 H     1 <1>   0.0800 
 27 H        0.5970     0.9740    -0.5880 H     1 <1>   0.0800 
 28 H       -1.5330    -0.0090    -0.3930 H     1 <1>   0.0800 
 29 H        0.0310     2.5970     1.8430 H     1 <1>   0.4000 
 30 H       -1.9580     2.2940    -1.2350 H     1 <1>   0.0800 
 31 H       -2.2430     2.8320     0.3900 H     1 <1>   0.0800 
 32 H        1.3240     2.7670    -1.6190 H     1 <1>   0.1500 
 33 H       -4.4190     2.4240     1.4530 H     1 <1>   0.1500 
 34 H       -3.5370     0.4890    -2.2320 H     1 <1>   0.1500 
 35 H       -6.7060     1.6460     1.2140 H     1 <1>   0.1500 
 36 H       -5.8620    -0.2100    -2.3200 H     1 <1>   0.1500 
 37 H        2.5510     6.6770    -0.8300 H     1 <1>   0.4570 
 38 H        1.2720     6.6440     2.5690 H     1 <1>   0.0800 
 39 H        2.7640     7.0940     1.8170 H     1 <1>   0.0800 
 40 H        2.4650     4.0160    -3.3850 H     1 <1>   0.0800 
 41 H        3.6590     5.1250    -2.7710 H     1 <1>   0.0800 
 42 H        2.1130     5.7210    -3.3420 H     1 <1>   0.0800 
 43 H        0.0020     7.9720     0.8830 H     1 <1>   0.0800 
 44 H        1.5120     8.5140     0.1780 H     1 <1>   0.0800 
 45 H        1.1040     8.9490     1.8130 H     1 <1>   0.0800 
@<TRIPOS>BOND
  1   1   2  1   
  2   1   3  1   
  3   2   4  1   
  4   2  23  1   
  5   2  24  1   
  6   3   5  1   
  7   3  25  1   
  8   3  26  1   
  9   4   5  1   
 10   4   6  1   
 11   4  27  1   
 12   5   7  1   
 13   5  28  1   
 14   6   8  1   
 15   6  29  1   
 16   7   9  1   
 17   7  30  1   
 18   7  31  1   
 19   8  10  ar  
 20   8  11  ar  
 21   9  12  ar  
 22   9  13  ar  
 23  10  14  ar  
 24  11  15  ar  
 25  11  32  1   
 26  12  16  ar  
 27  12  33  1   
 28  13  17  ar  
 29  13  34  1   
 30  14  18  ar  
 31  14  19  1   
 32  15  18  ar  
 33  15  20  1   
 34  16  21  ar  
 35  16  35  1   
 36  17  21  ar  
 37  17  36  1   
 38  18  37  1   
 39  19  22  1   
 40  19  38  1   
 41  19  39  1   
 42  20  40  1   
 43  20  41  1   
 44  20  42  1   
 45  22  43  1   
 46  22  44  1   
 47  22  45  1   
@<TRIPOS>SUBSTRUCTURE
  1 ****   6 GROUP 4 **** **** 0

# MOE 2024.06 (io_trps.svl 2023.06)
