@<TRIPOS>MOLECULE
NONAME
46 47 1 0 0 
SMALL
USER_CHARGES


@<TRIPOS>ATOM
  1 O        0.0540     1.2220     1.7490 O.2   1 <1>  -0.5700 
  2 C        0.0930     2.1950     1.0300 C.2   1 <1>   0.5690 
  3 N       -1.0210     2.9590     0.7940 N.am  1 <1>  -0.6600 
  4 C        1.4170     2.5650     0.3820 C.3   1 <1>  -0.0990 
  5 C       -2.3540     2.5210     1.3230 C.3   1 <1>   0.1400 
  6 C       -1.0020     4.2140    -0.0180 C.3   1 <1>   0.1400 
  7 C        2.4580     1.4550     0.5050 C.3   1 <1>   0.1200 
  8 C       -3.5150     2.8790     0.3640 C.3   1 <1>   0.0000 
  9 C       -2.1880     5.1130     0.3370 C.3   1 <1>  -0.1600 
 10 O        3.6050     1.8720    -0.1610 O.3   1 <1>  -0.5600 
 11 C       -4.8360     2.3310     0.9440 C.3   1 <1>   0.2000 
 12 C       -3.5470     4.4170     0.1390 C.3   1 <1>  -0.1600 
 13 C       -3.3880     2.0820    -0.9510 C.3   1 <1>  -0.1600 
 14 C        4.6410     0.9500    -0.1180 C.3   1 <1>   0.1200 
 15 O       -5.9170     2.9530     0.3080 O.3   1 <1>  -0.5600 
 16 C       -4.8520     0.8420     0.5750 C.3   1 <1>  -0.1600 
 17 C       -3.9530     0.6890    -0.6580 C.3   1 <1>  -0.1600 
 18 C        5.8150     1.5440    -0.8860 C.3   1 <1>  -0.2400 
 19 C       -7.1040     2.9640     1.0360 C.3   1 <1>   0.0400 
 20 H        1.2520     2.7580    -0.6610 H     1 <1>   0.0800 
 21 H        1.7940     3.4500     0.8560 H     1 <1>   0.0800 
 22 H       -2.3390     1.4590     1.4960 H     1 <1>   0.0800 
 23 H       -2.5140     3.0010     2.2730 H     1 <1>   0.0800 
 24 H       -0.0890     4.7540     0.1640 H     1 <1>   0.0800 
 25 H       -1.0440     3.9590    -1.0630 H     1 <1>   0.0800 
 26 H        2.0980     0.5480     0.0500 H     1 <1>   0.0800 
 27 H        2.6970     1.2750     1.5400 H     1 <1>   0.0800 
 28 H       -2.0850     5.4110     1.3660 H     1 <1>   0.0800 
 29 H       -2.1540     6.0070    -0.2600 H     1 <1>   0.0800 
 30 H       -4.9040     2.5000     2.0060 H     1 <1>   0.0800 
 31 H       -3.9190     4.6260    -0.8490 H     1 <1>   0.0800 
 32 H       -4.2420     4.8650     0.8280 H     1 <1>   0.0800 
 33 H       -4.0050     2.5390    -1.7060 H     1 <1>   0.0800 
 34 H       -2.3800     2.0280    -1.3220 H     1 <1>   0.0800 
 35 H        4.9090     0.7750     0.9110 H     1 <1>   0.0800 
 36 H        4.3110     0.0330    -0.5750 H     1 <1>   0.0800 
 37 H       -4.4350     0.2710     1.3860 H     1 <1>   0.0800 
 38 H       -5.8480     0.4850     0.3830 H     1 <1>   0.0800 
 39 H       -3.1510     0.0020    -0.4440 H     1 <1>   0.0800 
 40 H       -4.5100     0.3230    -1.5040 H     1 <1>   0.0800 
 41 H        6.1260     2.4650    -0.4280 H     1 <1>   0.0800 
 42 H        5.5310     1.7280    -1.9070 H     1 <1>   0.0800 
 43 H        6.6410     0.8570    -0.8760 H     1 <1>   0.0800 
 44 H       -7.8590     3.4360     0.4330 H     1 <1>   0.0800 
 45 H       -6.9590     3.5270     1.9410 H     1 <1>   0.0800 
 46 H       -7.3990     1.9540     1.2600 H     1 <1>   0.0800 
@<TRIPOS>BOND
  1   1   2  2   
  2   2   3  am  
  3   2   4  1   
  4   3   5  1   
  5   3   6  1   
  6   4   7  1   
  7   4  20  1   
  8   4  21  1   
  9   5   8  1   
 10   5  22  1   
 11   5  23  1   
 12   6   9  1   
 13   6  24  1   
 14   6  25  1   
 15   7  10  1   
 16   7  26  1   
 17   7  27  1   
 18   8  11  1   
 19   8  12  1   
 20   8  13  1   
 21   9  12  1   
 22   9  28  1   
 23   9  29  1   
 24  10  14  1   
 25  11  15  1   
 26  11  16  1   
 27  11  30  1   
 28  12  31  1   
 29  12  32  1   
 30  13  17  1   
 31  13  33  1   
 32  13  34  1   
 33  14  18  1   
 34  14  35  1   
 35  14  36  1   
 36  15  19  1   
 37  16  17  1   
 38  16  37  1   
 39  16  38  1   
 40  17  39  1   
 41  17  40  1   
 42  18  41  1   
 43  18  42  1   
 44  18  43  1   
 45  19  44  1   
 46  19  45  1   
 47  19  46  1   
@<TRIPOS>SUBSTRUCTURE
  1 ****   3 GROUP 4 **** **** 0

# MOE 2024.06 (io_trps.svl 2023.06)
