@<TRIPOS>MOLECULE
NONAME
39 41 1 0 0 
SMALL
USER_CHARGES


@<TRIPOS>ATOM
  1 F        2.3180     0.1560    -2.0060 F     1 <1>  -0.1900 
  2 C        2.4230    -0.7380    -1.0570 C.ar  1 <1>   0.1900 
  3 C        2.5540    -0.3180     0.2590 C.ar  1 <1>  -0.1440 
  4 C        2.3930    -2.0720    -1.4160 C.ar  1 <1>  -0.1500 
  5 C        2.6590    -1.2950     1.2380 C.ar  1 <1>  -0.1500 
  6 C        2.5890     1.1580     0.6240 C.3   1 <1>  -0.0960 
  7 C        2.4920    -3.0400    -0.4280 C.ar  1 <1>  -0.1440 
  8 C        2.6280    -2.6380     0.8930 C.ar  1 <1>  -0.1500 
  9 C        2.4430    -4.5310    -0.7810 C.3   1 <1>   0.2280 
 10 N        1.1980    -5.1320    -0.1680 N.3   1 <1>  -0.8100 
 11 C        3.8030    -5.2520    -0.5230 C.2   1 <1>   0.9060 
 12 C        1.3030    -6.6070    -0.1500 C.3   1 <1>   0.2900 
 13 C       -0.0210    -4.6630    -0.8490 C.3   1 <1>   0.1100 
 14 O        4.3470    -5.8100    -1.4910 O.co2 1 <1>  -0.9000 
 15 O        4.2970    -5.3310     0.6130 O.co2 1 <1>  -0.9000 
 16 C       -0.0270    -7.2410     0.2250 C.2   1 <1>  -0.3320 
 17 C       -1.2680    -5.1080    -0.0810 C.3   1 <1>   0.0960 
 18 N       -1.1730    -6.5390     0.2240 N.pl3 1 <1>   0.3140 
 19 C       -0.3420    -8.5010     0.5910 C.2   1 <1>  -0.1500 
 20 N       -2.2280    -7.3050     0.5640 N.2   1 <1>  -0.7070 
 21 C       -1.7190    -8.4760     0.7870 C.2   1 <1>   0.1080 
 22 C       -2.5620    -9.6550     1.2090 C.3   1 <1>  -0.0590 
 23 H        2.2960    -2.3450    -2.4500 H     1 <1>   0.1500 
 24 H        2.7690    -1.0260     2.2730 H     1 <1>   0.1500 
 25 H        3.4220     1.6330     0.1380 H     1 <1>   0.0800 
 26 H        2.6900     1.2890     1.6860 H     1 <1>   0.0800 
 27 H        1.6810     1.6360     0.3030 H     1 <1>   0.0800 
 28 H        2.7160    -3.3970     1.6550 H     1 <1>   0.1500 
 29 H        2.3260    -4.6000    -1.8460 H     1 <1>   0.0800 
 30 H        2.0550    -6.9050     0.5630 H     1 <1>   0.0800 
 31 H        1.6010    -6.9620    -1.1230 H     1 <1>   0.0800 
 32 H       -0.0510    -5.0530    -1.8520 H     1 <1>   0.0800 
 33 H       -0.0200    -3.5880    -0.9030 H     1 <1>   0.0800 
 34 H       -2.1550    -4.9310    -0.6570 H     1 <1>   0.0800 
 35 H       -1.3330    -4.5710     0.8460 H     1 <1>   0.0800 
 36 H        0.3090    -9.3480     0.7090 H     1 <1>   0.1500 
 37 H       -1.9490   -10.5280     1.3330 H     1 <1>   0.0800 
 38 H       -3.3070    -9.8480     0.4590 H     1 <1>   0.0800 
 39 H       -3.0500    -9.4290     2.1380 H     1 <1>   0.0800 
@<TRIPOS>BOND
  1   1   2  1   
  2   2   3  ar  
  3   2   4  ar  
  4   3   5  ar  
  5   3   6  1   
  6   4   7  ar  
  7   4  23  1   
  8   5   8  ar  
  9   5  24  1   
 10   6  25  1   
 11   6  26  1   
 12   6  27  1   
 13   7   8  ar  
 14   7   9  1   
 15   8  28  1   
 16   9  10  1   
 17   9  11  1   
 18   9  29  1   
 19  10  12  1   
 20  10  13  1   
 21  11  14  ar  
 22  11  15  ar  
 23  12  16  1   
 24  12  30  1   
 25  12  31  1   
 26  13  17  1   
 27  13  32  1   
 28  13  33  1   
 29  16  18  1   
 30  16  19  2   
 31  17  18  1   
 32  17  34  1   
 33  17  35  1   
 34  18  20  1   
 35  19  21  1   
 36  19  36  1   
 37  20  21  2   
 38  21  22  1   
 39  22  37  1   
 40  22  38  1   
 41  22  39  1   
@<TRIPOS>SUBSTRUCTURE
  1 ****  10 GROUP 4 **** **** 0

# MOE 2024.06 (io_trps.svl 2023.06)
