@<TRIPOS>MOLECULE
NONAME
45 48 1 0 0 
SMALL
USER_CHARGES


@<TRIPOS>ATOM
  1 F       -1.3670     1.8500     1.8690 F     1 <1>  -0.1900 
  2 C       -2.6160     1.7210     1.4940 C.ar  1 <1>   0.1900 
  3 C       -3.4600     2.8030     1.4950 C.ar  1 <1>   0.1600 
  4 C       -3.1040     0.5030     1.0940 C.ar  1 <1>   0.1600 
  5 N       -4.7160     2.6850     1.1210 N.ar  1 <1>  -0.6200 
  6 N       -4.3560     0.3640     0.7160 N.ar  1 <1>  -0.6200 
  7 C       -5.1170     1.4640     0.7480 C.ar  1 <1>   0.7200 
  8 N       -6.4310     1.3280     0.3570 N.pl3 1 <1>  -0.8380 
  9 C       -7.5000     2.3100     0.7360 C.3   1 <1>   0.2090 
 10 C       -6.9210     0.1830    -0.4610 C.3   1 <1>   0.2090 
 11 C       -8.1920     2.8820    -0.5150 C.3   1 <1>   0.1440 
 12 C       -7.6180     0.7100    -1.7220 C.3   1 <1>  -0.1600 
 13 C       -9.2920     3.8250    -0.0670 C.ar  1 <1>   0.1670 
 14 C       -8.7260     1.7260    -1.3910 C.3   1 <1>  -0.1600 
 15 C       -7.2480     3.8260    -1.3080 C.3   1 <1>  -0.1600 
 16 N      -10.4410     3.4640     0.4490 N.ar  1 <1>  -0.6200 
 17 C       -8.9390     5.1280    -0.2510 C.ar  1 <1>  -0.1430 
 18 C       -7.5580     5.2590    -0.8410 C.3   1 <1>  -0.0170 
 19 C      -11.2610     4.4660     0.7740 C.ar  1 <1>   0.7200 
 20 C       -9.8450     6.0910     0.1150 C.ar  1 <1>   0.1600 
 21 N      -11.0100     5.7720     0.6260 N.ar  1 <1>  -0.6200 
 22 N      -12.4850     4.1210     1.3150 N.pl3 1 <1>  -0.8380 
 23 C      -13.5990     5.1010     1.4410 C.3   1 <1>   0.1290 
 24 C      -12.7690     2.7460     1.8110 C.3   1 <1>   0.1290 
 25 H       -3.0970     3.7670     1.8040 H     1 <1>   0.1500 
 26 H       -2.4590    -0.3580     1.0860 H     1 <1>   0.1500 
 27 H       -7.1050     3.1150     1.3300 H     1 <1>   0.0800 
 28 H       -8.2340     1.8020     1.3380 H     1 <1>   0.0800 
 29 H       -7.6140    -0.3940     0.1280 H     1 <1>   0.0800 
 30 H       -6.1130    -0.4660    -0.7530 H     1 <1>   0.0800 
 31 H       -8.0410    -0.1180    -2.2610 H     1 <1>   0.0800 
 32 H       -6.8780     1.1660    -2.3560 H     1 <1>   0.0800 
 33 H       -9.1580     2.1160    -2.2950 H     1 <1>   0.0800 
 34 H       -9.5090     1.2190    -0.8530 H     1 <1>   0.0800 
 35 H       -7.4730     3.7600    -2.3570 H     1 <1>   0.0800 
 36 H       -6.2100     3.5800    -1.1700 H     1 <1>   0.0800 
 37 H       -7.5340     5.9560    -1.6600 H     1 <1>   0.0800 
 38 H       -6.8640     5.5640    -0.0770 H     1 <1>   0.0800 
 39 H       -9.6110     7.1330    -0.0120 H     1 <1>   0.1500 
 40 H      -13.5320     5.8490     0.6700 H     1 <1>   0.0800 
 41 H      -13.5460     5.5820     2.4010 H     1 <1>   0.0800 
 42 H      -14.5460     4.6000     1.3430 H     1 <1>   0.0800 
 43 H      -11.8670     2.2850     2.1770 H     1 <1>   0.0800 
 44 H      -13.1650     2.1500     1.0080 H     1 <1>   0.0800 
 45 H      -13.4810     2.7810     2.6160 H     1 <1>   0.0800 
@<TRIPOS>BOND
  1   1   2  1   
  2   2   3  ar  
  3   2   4  ar  
  4   3   5  ar  
  5   3  25  1   
  6   4   6  ar  
  7   4  26  1   
  8   5   7  ar  
  9   6   7  ar  
 10   7   8  1   
 11   8   9  1   
 12   8  10  1   
 13   9  11  1   
 14   9  27  1   
 15   9  28  1   
 16  10  12  1   
 17  10  29  1   
 18  10  30  1   
 19  11  13  1   
 20  11  14  1   
 21  11  15  1   
 22  12  14  1   
 23  12  31  1   
 24  12  32  1   
 25  13  16  ar  
 26  13  17  ar  
 27  14  33  1   
 28  14  34  1   
 29  15  18  1   
 30  15  35  1   
 31  15  36  1   
 32  16  19  ar  
 33  17  18  1   
 34  17  20  ar  
 35  18  37  1   
 36  18  38  1   
 37  19  21  ar  
 38  19  22  1   
 39  20  21  ar  
 40  20  39  1   
 41  22  23  1   
 42  22  24  1   
 43  23  40  1   
 44  23  41  1   
 45  23  42  1   
 46  24  43  1   
 47  24  44  1   
 48  24  45  1   
@<TRIPOS>SUBSTRUCTURE
  1 ****   9 GROUP 4 **** **** 0

# MOE 2024.06 (io_trps.svl 2023.06)
