@<TRIPOS>MOLECULE
NONAME
48 50 1 0 0 
SMALL
USER_CHARGES


@<TRIPOS>ATOM
  1 S       -0.8790     0.1060     1.5950 S.o2  1 <1>   1.4470 
  2 O       -0.7670    -1.2550     2.0640 O.2   1 <1>  -0.6500 
  3 O       -1.7000     1.0300     2.3380 O.2   1 <1>  -0.6500 
  4 N       -1.6140     0.0870     0.0830 N.am  1 <1>  -0.9140 
  5 C        0.7570     0.8210     1.2850 C.ar  1 <1>  -0.0090 
  6 C       -1.5030    -1.0590    -0.8340 C.3   1 <1>   0.2760 
  7 C        0.9070     1.9480     0.4880 C.ar  1 <1>  -0.1500 
  8 C        1.9040     0.2650     1.8350 C.ar  1 <1>  -0.1500 
  9 C       -2.3980    -2.2640    -0.5240 C.3   1 <1>  -0.0800 
 10 C       -0.0970    -1.6660    -0.9820 C.3   1 <1>   0.1200 
 11 C        2.1460     2.5090     0.2280 C.ar  1 <1>   0.0820 
 12 C        3.1550     0.8010     1.5860 C.ar  1 <1>  -0.1500 
 13 C       -1.3940    -3.3630    -0.1890 C.3   1 <1>   0.1200 
 14 C       -3.5290    -2.0960     0.5090 C.3   1 <1>  -0.0160 
 15 O       -0.2610    -3.0490    -0.9310 O.3   1 <1>  -0.5600 
 16 O        2.1080     3.6120    -0.5700 O.3   1 <1>  -0.3630 
 17 C        3.3000     1.9230     0.7740 C.ar  1 <1>   0.0820 
 18 C       -4.3170    -3.3870     0.6660 C.ar  1 <1>  -0.1430 
 19 C        3.0770     4.6330    -0.4710 C.3   1 <1>   0.0400 
 20 O        4.5300     2.4390     0.4920 O.3   1 <1>  -0.3620 
 21 C       -5.2990    -3.7590    -0.2290 C.ar  1 <1>  -0.1500 
 22 C       -4.0850    -4.2550     1.7140 C.ar  1 <1>  -0.1500 
 23 C        5.7260     1.7990     0.8850 C.3   1 <1>   0.0400 
 24 C       -5.9810    -4.9500    -0.0390 C.ar  1 <1>   0.1600 
 25 C       -4.8240    -5.4220     1.8120 C.ar  1 <1>   0.1600 
 26 N       -5.7660    -5.7910     0.9590 N.ar  1 <1>  -0.6200 
 27 H       -2.5940     0.2760     0.2790 H     1 <1>   0.4200 
 28 H       -1.7910    -0.6940    -1.8060 H     1 <1>   0.0800 
 29 H        0.0360     2.4080     0.0550 H     1 <1>   0.1500 
 30 H        1.8180    -0.6060     2.4650 H     1 <1>   0.1500 
 31 H       -2.8540    -2.5610    -1.4520 H     1 <1>   0.0800 
 32 H        0.5720    -1.3940    -0.1890 H     1 <1>   0.0800 
 33 H        0.3440    -1.4150    -1.9310 H     1 <1>   0.0800 
 34 H        4.0040     0.3240     2.0380 H     1 <1>   0.1500 
 35 H       -1.7440    -4.3400    -0.4740 H     1 <1>   0.0800 
 36 H       -1.1250    -3.3620     0.8530 H     1 <1>   0.0800 
 37 H       -4.1980    -1.3160     0.1910 H     1 <1>   0.0800 
 38 H       -3.1370    -1.8170     1.4700 H     1 <1>   0.0800 
 39 H        2.6780     5.5200    -0.9270 H     1 <1>   0.0800 
 40 H        3.9630     4.3220    -0.9950 H     1 <1>   0.0800 
 41 H        3.2910     4.8150     0.5680 H     1 <1>   0.0800 
 42 H       -5.5420    -3.1380    -1.0710 H     1 <1>   0.1500 
 43 H       -3.3370    -4.0360     2.4540 H     1 <1>   0.1500 
 44 H        6.5500     2.3630     0.4880 H     1 <1>   0.0800 
 45 H        5.7380     0.8030     0.4800 H     1 <1>   0.0800 
 46 H        5.7780     1.7840     1.9590 H     1 <1>   0.0800 
 47 H       -6.7450    -5.2250    -0.7460 H     1 <1>   0.1500 
 48 H       -4.6290    -6.0870     2.6360 H     1 <1>   0.1500 
@<TRIPOS>BOND
  1   1   2  2   
  2   1   3  2   
  3   1   4  am  
  4   1   5  1   
  5   4   6  1   
  6   4  27  1   
  7   5   7  ar  
  8   5   8  ar  
  9   6   9  1   
 10   6  10  1   
 11   6  28  1   
 12   7  11  ar  
 13   7  29  1   
 14   8  12  ar  
 15   8  30  1   
 16   9  13  1   
 17   9  14  1   
 18   9  31  1   
 19  10  15  1   
 20  10  32  1   
 21  10  33  1   
 22  11  16  1   
 23  11  17  ar  
 24  12  17  ar  
 25  12  34  1   
 26  13  15  1   
 27  13  35  1   
 28  13  36  1   
 29  14  18  1   
 30  14  37  1   
 31  14  38  1   
 32  16  19  1   
 33  17  20  1   
 34  18  21  ar  
 35  18  22  ar  
 36  19  39  1   
 37  19  40  1   
 38  19  41  1   
 39  20  23  1   
 40  21  24  ar  
 41  21  42  1   
 42  22  25  ar  
 43  22  43  1   
 44  23  44  1   
 45  23  45  1   
 46  23  46  1   
 47  24  26  ar  
 48  24  47  1   
 49  25  26  ar  
 50  25  48  1   
@<TRIPOS>SUBSTRUCTURE
  1 ****   1 GROUP 4 **** **** 0

# MOE 2024.06 (io_trps.svl 2023.06)
