@<TRIPOS>MOLECULE
NONAME
50 53 1 0 0 
SMALL
USER_CHARGES


@<TRIPOS>ATOM
  1 O       -1.0680     0.8730     1.3800 O.2   1 <1>  -0.5700 
  2 C       -1.4880     1.6220     0.5150 C.2   1 <1>   0.6160 
  3 N       -2.7090     1.3330    -0.0680 N.am  1 <1>  -0.6600 
  4 C       -0.7160     2.7900     0.1940 C.2   1 <1>   0.0290 
  5 C       -3.2680    -0.0510     0.0760 C.3   1 <1>   0.1400 
  6 C       -3.4450     2.3500    -0.8800 C.3   1 <1>   0.1400 
  7 C       -0.3050     3.0020    -1.1660 C.2   1 <1>   0.6160 
  8 C       -0.3420     3.7020     1.1550 C.2   1 <1>  -0.1500 
  9 C       -4.0410    -0.5560    -1.1490 C.3   1 <1>   0.1400 
 10 C       -4.9640     2.3180    -0.6870 C.3   1 <1>  -0.1600 
 11 O       -0.5700     2.2550    -2.0970 O.2   1 <1>  -0.5700 
 12 N        0.4280     4.1220    -1.4690 N.am  1 <1>  -0.5390 
 13 C        0.4120     4.8310     0.7820 C.2   1 <1>  -0.1380 
 14 N       -5.4590    -0.0860    -1.1210 N.am  1 <1>  -0.6600 
 15 C       -5.6660     1.3070    -1.5970 C.3   1 <1>   0.1400 
 16 C        0.7760     5.0180    -0.5010 C.2   1 <1>  -0.0290 
 17 C        0.9210     5.9360     1.6710 C.3   1 <1>  -0.0220 
 18 C       -6.5250    -0.8560    -0.7090 C.2   1 <1>   0.5770 
 19 C        1.5840     6.2710    -0.7060 C.3   1 <1>  -0.0220 
 20 C        1.5260     6.9510     0.6780 C.3   1 <1>  -0.1600 
 21 O       -7.6570    -0.4300    -0.7500 O.2   1 <1>  -0.5700 
 22 C       -6.3140    -2.2830    -0.1980 C.3   1 <1>   0.0530 
 23 C       -7.5430    -2.9840     0.4540 C.3   1 <1>   0.0000 
 24 C       -5.6330    -2.3860     1.1940 C.3   1 <1>   0.0000 
 25 C       -6.5490    -3.6050     1.4680 C.3   1 <1>   0.0000 
 26 H       -3.8970    -0.0880     0.9470 H     1 <1>   0.0800 
 27 H       -2.4520    -0.7330     0.2400 H     1 <1>   0.0800 
 28 H       -3.2040     2.2140    -1.9210 H     1 <1>   0.0800 
 29 H       -3.1060     3.3320    -0.5970 H     1 <1>   0.0800 
 30 H       -0.6130     3.5640     2.1870 H     1 <1>   0.1500 
 31 H       -4.0130    -1.6300    -1.1500 H     1 <1>   0.0800 
 32 H       -3.5540    -0.2290    -2.0510 H     1 <1>   0.0800 
 33 H       -5.3390     3.2880    -0.9560 H     1 <1>   0.0800 
 34 H       -5.2220     2.1530     0.3450 H     1 <1>   0.0800 
 35 H        0.7050     4.2170    -2.4460 H     1 <1>   0.3700 
 36 H       -5.3020     1.3960    -2.6060 H     1 <1>   0.0800 
 37 H       -6.7170     1.5390    -1.6170 H     1 <1>   0.0800 
 38 H        1.6760     5.5510     2.3350 H     1 <1>   0.0800 
 39 H        0.1230     6.3760     2.2430 H     1 <1>   0.0800 
 40 H        1.1500     6.8950    -1.4680 H     1 <1>   0.0800 
 41 H        2.5950     6.0150    -0.9700 H     1 <1>   0.0800 
 42 H        2.5040     7.2700     0.9950 H     1 <1>   0.0800 
 43 H        0.8830     7.8130     0.6200 H     1 <1>   0.0800 
 44 H       -5.8470    -2.9250    -0.9260 H     1 <1>   0.0000 
 45 H       -8.0210    -3.7070    -0.1830 H     1 <1>   0.0000 
 46 H       -8.2320    -2.3090     0.9320 H     1 <1>   0.0000 
 47 H       -5.8550    -1.5490     1.8360 H     1 <1>   0.0000 
 48 H       -4.5870    -2.6330     1.1540 H     1 <1>   0.0000 
 49 H       -6.1240    -4.5320     1.1200 H     1 <1>   0.0000 
 50 H       -6.9240    -3.6520     2.4740 H     1 <1>   0.0000 
@<TRIPOS>BOND
  1   1   2  2   
  2   2   3  am  
  3   2   4  1   
  4   3   5  1   
  5   3   6  1   
  6   4   7  1   
  7   4   8  2   
  8   5   9  1   
  9   5  26  1   
 10   5  27  1   
 11   6  10  1   
 12   6  28  1   
 13   6  29  1   
 14   7  11  2   
 15   7  12  am  
 16   8  13  1   
 17   8  30  1   
 18   9  14  1   
 19   9  31  1   
 20   9  32  1   
 21  10  15  1   
 22  10  33  1   
 23  10  34  1   
 24  12  16  1   
 25  12  35  1   
 26  13  16  2   
 27  13  17  1   
 28  14  15  1   
 29  14  18  am  
 30  15  36  1   
 31  15  37  1   
 32  16  19  1   
 33  17  20  1   
 34  17  38  1   
 35  17  39  1   
 36  18  21  2   
 37  18  22  1   
 38  19  20  1   
 39  19  40  1   
 40  19  41  1   
 41  20  42  1   
 42  20  43  1   
 43  22  23  1   
 44  22  24  1   
 45  22  44  1   
 46  23  25  1   
 47  23  45  1   
 48  23  46  1   
 49  24  25  1   
 50  24  47  1   
 51  24  48  1   
 52  25  49  1   
 53  25  50  1   
@<TRIPOS>SUBSTRUCTURE
  1 ****   3 GROUP 4 **** **** 0

# MOE 2024.06 (io_trps.svl 2023.06)
