@<TRIPOS>MOLECULE
NONAME
46 48 1 0 0 
SMALL
USER_CHARGES


@<TRIPOS>ATOM
  1 F       -1.1620     2.2770     2.6640 F     1 <1>  -0.3400 
  2 C       -1.6670     1.4220     1.7790 C.3   1 <1>   1.1640 
  3 F       -0.6960     1.1740     0.9030 F     1 <1>  -0.3400 
  4 F       -1.8460     0.2820     2.4430 F     1 <1>  -0.3400 
  5 C       -2.9670     1.9410     1.1090 C.ar  1 <1>   0.1660 
  6 N       -2.9290     3.0350     0.3600 N.ar  1 <1>  -0.6200 
  7 C       -4.1560     1.2750     1.2860 C.ar  1 <1>  -0.1500 
  8 C       -4.0740     3.4400    -0.1800 C.ar  1 <1>   0.7200 
  9 C       -5.2900     1.7600     0.6670 C.ar  1 <1>   0.4100 
 10 N       -5.2520     2.8490    -0.0600 N.ar  1 <1>  -0.6200 
 11 N       -4.0240     4.5890    -0.9470 N.pl3 1 <1>  -0.8380 
 12 N       -6.5020     1.1080     0.8020 N.pl3 1 <1>  -0.8380 
 13 C       -2.7390     5.1670    -1.4300 C.3   1 <1>   0.1290 
 14 C       -5.2480     5.3690    -1.2800 C.3   1 <1>   0.1290 
 15 C       -7.7490     1.6920     0.2240 C.3   1 <1>   0.2090 
 16 C       -6.5840    -0.3750     0.7310 C.3   1 <1>   0.2090 
 17 C       -8.7680     0.5550     0.2830 C.3   1 <1>   0.2000 
 18 C       -7.9110    -0.6870     0.0290 C.3   1 <1>  -0.0800 
 19 O       -9.2850     0.5040     1.5690 O.3   1 <1>  -0.6800 
 20 C       -8.5370    -2.0210     0.4750 C.3   1 <1>   0.0200 
 21 C       -7.6640    -3.2160     0.1280 C.2   1 <1>  -0.0400 
 22 O       -7.8630    -4.3450     0.7520 O.3   1 <1>  -0.0190 
 23 C       -6.6540    -3.4010    -0.7390 C.2   1 <1>  -0.1500 
 24 N       -7.0390    -5.2720     0.3580 N.2   1 <1>  -0.4100 
 25 C       -6.3000    -4.7330    -0.5430 C.2   1 <1>   0.1080 
 26 C       -5.1980    -5.4580    -1.2830 C.3   1 <1>  -0.0590 
 27 H       -4.2320     0.3950     1.8930 H     1 <1>   0.1500 
 28 H       -2.8870     5.6660    -2.3710 H     1 <1>   0.0800 
 29 H       -2.0050     4.3910    -1.5710 H     1 <1>   0.0800 
 30 H       -2.3670     5.8720    -0.7070 H     1 <1>   0.0800 
 31 H       -5.0230     6.4210    -1.2960 H     1 <1>   0.0800 
 32 H       -6.0170     5.2000    -0.5460 H     1 <1>   0.0800 
 33 H       -5.6140     5.0680    -2.2460 H     1 <1>   0.0800 
 34 H       -8.0730     2.5560     0.7770 H     1 <1>   0.0800 
 35 H       -7.5730     1.9690    -0.8020 H     1 <1>   0.0800 
 36 H       -5.7510    -0.7840     0.1840 H     1 <1>   0.0800 
 37 H       -6.5830    -0.7730     1.7320 H     1 <1>   0.0800 
 38 H       -9.5800     0.6720    -0.4140 H     1 <1>   0.0800 
 39 H       -7.7180    -0.7330    -1.0280 H     1 <1>   0.0800 
 40 H       -8.5520     0.6880     2.1930 H     1 <1>   0.4000 
 41 H       -9.4990    -2.1470     0.0100 H     1 <1>   0.0800 
 42 H       -8.6900    -2.0130     1.5400 H     1 <1>   0.0800 
 43 H       -6.1980    -2.7230    -1.4350 H     1 <1>   0.1500 
 44 H       -5.3720    -5.4060    -2.3420 H     1 <1>   0.0800 
 45 H       -5.1750    -6.4910    -0.9860 H     1 <1>   0.0800 
 46 H       -4.2480    -5.0100    -1.0550 H     1 <1>   0.0800 
@<TRIPOS>BOND
  1   1   2  1   
  2   2   3  1   
  3   2   4  1   
  4   2   5  1   
  5   5   6  ar  
  6   5   7  ar  
  7   6   8  ar  
  8   7   9  ar  
  9   7  27  1   
 10   8  10  ar  
 11   8  11  1   
 12   9  10  ar  
 13   9  12  1   
 14  11  13  1   
 15  11  14  1   
 16  12  15  1   
 17  12  16  1   
 18  13  28  1   
 19  13  29  1   
 20  13  30  1   
 21  14  31  1   
 22  14  32  1   
 23  14  33  1   
 24  15  17  1   
 25  15  34  1   
 26  15  35  1   
 27  16  18  1   
 28  16  36  1   
 29  16  37  1   
 30  17  18  1   
 31  17  19  1   
 32  17  38  1   
 33  18  20  1   
 34  18  39  1   
 35  19  40  1   
 36  20  21  1   
 37  20  41  1   
 38  20  42  1   
 39  21  22  1   
 40  21  23  2   
 41  22  24  1   
 42  23  25  1   
 43  23  43  1   
 44  24  25  2   
 45  25  26  1   
 46  26  44  1   
 47  26  45  1   
 48  26  46  1   
@<TRIPOS>SUBSTRUCTURE
  1 ****   9 GROUP 4 **** **** 0

# MOE 2024.06 (io_trps.svl 2023.06)
