@<TRIPOS>MOLECULE
NONAME
46 48 1 0 0 
SMALL
USER_CHARGES


@<TRIPOS>ATOM
  1 S        0.6590    -0.2150    -1.3490 S.3   1 <1>  -0.0800 
  2 C        1.8250    -0.6160    -0.1180 C.2   1 <1>  -0.1400 
  3 C       -0.4930    -1.2680    -0.5620 C.2   1 <1>   0.1980 
  4 C        1.2590    -1.4730     0.7480 C.2   1 <1>   0.0460 
  5 C        3.1950     0.0200    -0.2210 C.3   1 <1>   0.3890 
  6 N       -0.0530    -1.8370     0.4860 N.2   1 <1>  -0.5650 
  7 C       -1.8610    -1.3950    -1.1880 C.3   1 <1>  -0.0600 
  8 C        1.9050    -2.0770     1.9840 C.3   1 <1>   0.0210 
  9 N        3.0680     1.4550     0.0920 N.pl3 1 <1>  -0.8690 
 10 C        2.2140    -3.5640     1.7820 C.3   1 <1>  -0.2400 
 11 C        4.0540     2.3550    -0.1970 C.ar  1 <1>   0.4100 
 12 N        5.2540     1.8710    -0.4890 N.ar  1 <1>  -0.6200 
 13 C        3.7740     3.7190    -0.1780 C.ar  1 <1>  -0.1500 
 14 C        6.1890     2.7620    -0.7700 C.ar  1 <1>   0.1600 
 15 C        4.7610     4.6300    -0.4670 C.ar  1 <1>  -0.1500 
 16 C        6.0320     4.1460    -0.7680 C.ar  1 <1>   0.0860 
 17 C        7.1480     5.0090    -1.0800 C.2   1 <1>   0.5440 
 18 O        7.9070     4.6930    -1.9770 O.2   1 <1>  -0.5700 
 19 N        7.3920     6.1780    -0.3890 N.am  1 <1>  -0.6600 
 20 C        8.3420     7.2140    -0.9000 C.3   1 <1>   0.1400 
 21 C        7.0090     6.3940     1.0400 C.3   1 <1>   0.1400 
 22 C        9.5120     7.4060     0.0770 C.3   1 <1>   0.1200 
 23 C        8.2550     6.6500     1.9060 C.3   1 <1>   0.1200 
 24 O        9.0360     7.6780     1.3650 O.3   1 <1>  -0.5600 
 25 H        3.5840    -0.1070    -1.2180 H     1 <1>   0.0800 
 26 H        3.8790    -0.4340     0.4740 H     1 <1>   0.0800 
 27 H       -1.7690    -1.7800    -2.1870 H     1 <1>   0.0800 
 28 H       -2.3380    -0.4330    -1.2180 H     1 <1>   0.0800 
 29 H       -2.4640    -2.0680    -0.6060 H     1 <1>   0.0800 
 30 H        1.2360    -1.9560     2.8170 H     1 <1>   0.0800 
 31 H        2.8140    -1.5530     2.2150 H     1 <1>   0.0800 
 32 H        2.0980     1.7730     0.0660 H     1 <1>   0.4000 
 33 H        1.3040    -4.1030     1.5810 H     1 <1>   0.0800 
 34 H        2.6700    -3.9730     2.6650 H     1 <1>   0.0800 
 35 H        2.8810    -3.6950     0.9490 H     1 <1>   0.0800 
 36 H        2.7800     4.0430     0.0630 H     1 <1>   0.1500 
 37 H        7.1630     2.3770    -1.0230 H     1 <1>   0.1500 
 38 H        4.5660     5.6880    -0.4690 H     1 <1>   0.1500 
 39 H        7.8200     8.1470    -1.0120 H     1 <1>   0.0800 
 40 H        8.7270     6.9370    -1.8670 H     1 <1>   0.0800 
 41 H        6.4890     5.5370     1.4280 H     1 <1>   0.0800 
 42 H        6.3530     7.2440     1.1060 H     1 <1>   0.0800 
 43 H       10.1210     8.2360    -0.2320 H     1 <1>   0.0800 
 44 H       10.1230     6.5200     0.1110 H     1 <1>   0.0800 
 45 H        8.8580     5.7600     1.9730 H     1 <1>   0.0800 
 46 H        7.9650     6.9460     2.8980 H     1 <1>   0.0800 
@<TRIPOS>BOND
  1   1   2  1   
  2   1   3  1   
  3   2   4  2   
  4   2   5  1   
  5   3   6  2   
  6   3   7  1   
  7   4   6  1   
  8   4   8  1   
  9   5   9  1   
 10   5  25  1   
 11   5  26  1   
 12   7  27  1   
 13   7  28  1   
 14   7  29  1   
 15   8  10  1   
 16   8  30  1   
 17   8  31  1   
 18   9  11  1   
 19   9  32  1   
 20  10  33  1   
 21  10  34  1   
 22  10  35  1   
 23  11  12  ar  
 24  11  13  ar  
 25  12  14  ar  
 26  13  15  ar  
 27  13  36  1   
 28  14  16  ar  
 29  14  37  1   
 30  15  16  ar  
 31  15  38  1   
 32  16  17  1   
 33  17  18  2   
 34  17  19  am  
 35  19  20  1   
 36  19  21  1   
 37  20  22  1   
 38  20  39  1   
 39  20  40  1   
 40  21  23  1   
 41  21  41  1   
 42  21  42  1   
 43  22  24  1   
 44  22  43  1   
 45  22  44  1   
 46  23  24  1   
 47  23  45  1   
 48  23  46  1   
@<TRIPOS>SUBSTRUCTURE
  1 ****  11 GROUP 4 **** **** 0

# MOE 2024.06 (io_trps.svl 2023.06)
