@<TRIPOS>MOLECULE
NONAME
53 57 1 0 0 
SMALL
USER_CHARGES


@<TRIPOS>ATOM
  1 N       -0.2940     0.2680     0.1710 N.ar  1 <1>  -0.6200 
  2 C       -1.5410     0.7520     0.2830 C.ar  1 <1>   0.6200 
  3 C        0.4280     0.7890    -0.7880 C.ar  1 <1>   0.1660 
  4 N       -2.0660     1.7120    -0.4930 N.ar  1 <1>  -0.6200 
  5 C       -2.3830     0.1980     1.3310 C.ar  1 <1>   0.0000 
  6 C       -0.0210     1.7650    -1.6210 C.ar  1 <1>  -0.1430 
  7 C        1.8550     0.4000    -1.0930 C.3   1 <1>   0.1440 
  8 C       -1.3050     2.2100    -1.4400 C.ar  1 <1>   0.1600 
  9 C       -3.3330     0.9790     1.9960 C.ar  1 <1>  -0.1500 
 10 C       -2.2810    -1.1400     1.7230 C.ar  1 <1>  -0.1500 
 11 C        1.0340     2.1790    -2.6160 C.3   1 <1>  -0.0160 
 12 C        2.6480     0.3730     0.2260 C.3   1 <1>   0.3430 
 13 C        1.8980    -0.9870    -1.7720 C.3   1 <1>  -0.1600 
 14 C        2.3140     1.5330    -2.0510 C.3   1 <1>  -0.1600 
 15 C       -4.1330     0.4580     2.9970 C.ar  1 <1>  -0.1500 
 16 C       -3.0770    -1.6680     2.7230 C.ar  1 <1>  -0.1500 
 17 N        4.0390    -0.1400     0.0210 N.4   1 <1>  -0.9590 
 18 C        3.3360    -1.5250    -1.8970 C.3   1 <1>  -0.1600 
 19 C       -4.0060    -0.8690     3.3640 C.ar  1 <1>  -0.1500 
 20 C        4.0830    -1.5080    -0.5600 C.3   1 <1>   0.3430 
 21 C        4.9070    -0.0100     1.2180 C.3   1 <1>   0.5230 
 22 C        6.2950     0.3690     0.7160 C.2   1 <1>   0.0060 
 23 N        6.5140     0.7740    -0.5000 N.2   1 <1>  -0.5650 
 24 N        7.4120     0.3250     1.4860 N.pl3 1 <1>   0.0480 
 25 C        7.8400     1.0050    -0.5270 C.2   1 <1>   0.0770 
 26 C        8.3980     0.7370     0.6710 C.2   1 <1>  -0.3020 
 27 C        7.5770    -0.0640     2.9010 C.3   1 <1>   0.0160 
 28 H       -1.7130     2.9800    -2.0740 H     1 <1>   0.1500 
 29 H       -3.4480     2.0140     1.7210 H     1 <1>   0.1500 
 30 H       -1.5680    -1.7790     1.2320 H     1 <1>   0.1500 
 31 H        1.1240     3.2500    -2.6820 H     1 <1>   0.0800 
 32 H        0.7960     1.7740    -3.5850 H     1 <1>   0.0800 
 33 H        2.1270    -0.2630     0.9230 H     1 <1>   0.0800 
 34 H        2.6730     1.3690     0.6380 H     1 <1>   0.0800 
 35 H        1.4370    -0.9370    -2.7440 H     1 <1>   0.0800 
 36 H        1.3200    -1.6800    -1.1820 H     1 <1>   0.0800 
 37 H        2.9520     1.1850    -2.8440 H     1 <1>   0.0800 
 38 H        2.8480     2.2850    -1.4960 H     1 <1>   0.0800 
 39 H       -4.8550     1.0850     3.4890 H     1 <1>   0.1500 
 40 H       -2.9770    -2.7030     3.0030 H     1 <1>   0.1500 
 41 H        4.5400     0.4680    -0.6580 H     1 <1>   0.4500 
 42 H        3.8930    -0.9490    -2.6160 H     1 <1>   0.0800 
 43 H        3.3040    -2.5360    -2.2630 H     1 <1>   0.0800 
 44 H       -4.6270    -1.2770     4.1420 H     1 <1>   0.1500 
 45 H        3.6220    -2.2080     0.1180 H     1 <1>   0.0800 
 46 H        5.1080    -1.8070    -0.7190 H     1 <1>   0.0800 
 47 H        4.9370    -0.9340     1.7690 H     1 <1>   0.0800 
 48 H        4.5440     0.7750     1.8590 H     1 <1>   0.0800 
 49 H        8.3340     1.3590    -1.4190 H     1 <1>   0.1500 
 50 H        9.4280     0.8190     0.9740 H     1 <1>   0.1500 
 51 H        7.0060     0.5970     3.5270 H     1 <1>   0.0800 
 52 H        8.6160     0.0080     3.1730 H     1 <1>   0.0800 
 53 H        7.2490    -1.0780     3.0400 H     1 <1>   0.0800 
@<TRIPOS>BOND
  1   1   2  ar  
  2   1   3  ar  
  3   2   4  ar  
  4   2   5  1   
  5   3   6  ar  
  6   3   7  1   
  7   4   8  ar  
  8   5   9  ar  
  9   5  10  ar  
 10   6   8  ar  
 11   6  11  1   
 12   7  12  1   
 13   7  13  1   
 14   7  14  1   
 15   8  28  1   
 16   9  15  ar  
 17   9  29  1   
 18  10  16  ar  
 19  10  30  1   
 20  11  14  1   
 21  11  31  1   
 22  11  32  1   
 23  12  17  1   
 24  12  33  1   
 25  12  34  1   
 26  13  18  1   
 27  13  35  1   
 28  13  36  1   
 29  14  37  1   
 30  14  38  1   
 31  15  19  ar  
 32  15  39  1   
 33  16  19  ar  
 34  16  40  1   
 35  17  20  1   
 36  17  21  1   
 37  17  41  1   
 38  18  20  1   
 39  18  42  1   
 40  18  43  1   
 41  19  44  1   
 42  20  45  1   
 43  20  46  1   
 44  21  22  1   
 45  21  47  1   
 46  21  48  1   
 47  22  23  2   
 48  22  24  1   
 49  23  25  1   
 50  24  26  1   
 51  24  27  1   
 52  25  26  2   
 53  25  49  1   
 54  26  50  1   
 55  27  51  1   
 56  27  52  1   
 57  27  53  1   
@<TRIPOS>SUBSTRUCTURE
  1 ****  12 GROUP 4 **** **** 0

# MOE 2024.06 (io_trps.svl 2023.06)
