@<TRIPOS>MOLECULE
NONAME
57 60 1 0 0 
SMALL
USER_CHARGES


@<TRIPOS>ATOM
  1 O        3.9630    -0.2430     0.8690 O.2   1 <1>  -0.5700 
  2 C        3.0580    -0.7650     0.2430 C.2   1 <1>   0.5440 
  3 N        2.5840    -0.0660    -0.8410 N.am  1 <1>  -0.6600 
  4 C        2.5750    -2.0920     0.5680 C.ar  1 <1>   0.0860 
  5 C        3.1180    -0.3700    -2.2060 C.3   1 <1>   0.1400 
  6 C        1.9770     1.2850    -0.6730 C.3   1 <1>   0.1400 
  7 C        3.2690    -2.8970     1.4670 C.ar  1 <1>   0.1600 
  8 C        1.4250    -2.6320     0.0080 C.ar  1 <1>  -0.1500 
  9 C        4.5830     0.0950    -2.3770 C.3   1 <1>   0.3430 
 10 C        3.0290     2.3940    -0.5020 C.3   1 <1>  -0.1600 
 11 N        2.9410    -4.1280     1.8170 N.ar  1 <1>  -0.6200 
 12 C        1.0530    -3.9130     0.3590 C.ar  1 <1>  -0.1430 
 13 N        4.9560     1.1470    -1.3800 N.4   1 <1>  -0.9590 
 14 C        4.1650     2.3950    -1.5280 C.3   1 <1>   0.3430 
 15 C        1.8450    -4.6190     1.2620 C.ar  1 <1>   0.1670 
 16 C       -0.2040    -4.5130    -0.2610 C.3   1 <1>  -0.0170 
 17 C        6.4290     1.3670    -1.3160 C.3   1 <1>   0.3430 
 18 C        1.4810    -6.0320     1.6990 C.3   1 <1>  -0.0170 
 19 C       -0.7230    -5.7260     0.5190 C.3   1 <1>  -0.1600 
 20 C        6.8610     1.8650     0.0660 C.3   1 <1>   0.0200 
 21 C        0.4230    -6.6990     0.8100 C.3   1 <1>  -0.1600 
 22 C        8.3620     2.0750     0.0750 C.2   1 <1>   0.0060 
 23 N        9.0730     2.0660    -1.0070 N.2   1 <1>  -0.5650 
 24 N        9.0850     2.2900     1.2020 N.pl3 1 <1>   0.0480 
 25 C       10.3270     2.2840    -0.5690 C.2   1 <1>   0.0770 
 26 C       10.3510     2.4220     0.7730 C.2   1 <1>  -0.3020 
 27 C        8.6310     2.3620     2.6040 C.3   1 <1>   0.0160 
 28 H        2.5030     0.1120    -2.9470 H     1 <1>   0.0800 
 29 H        3.0620    -1.4300    -2.3890 H     1 <1>   0.0800 
 30 H        1.3370     1.2720     0.1950 H     1 <1>   0.0800 
 31 H        1.3540     1.4990    -1.5250 H     1 <1>   0.0800 
 32 H        4.1570    -2.4970     1.9260 H     1 <1>   0.1500 
 33 H        0.8320    -2.0620    -0.6850 H     1 <1>   0.1500 
 34 H        4.7410     0.4520    -3.3810 H     1 <1>   0.0800 
 35 H        5.2210    -0.7610    -2.2320 H     1 <1>   0.0800 
 36 H        3.4430     2.3420     0.4900 H     1 <1>   0.0800 
 37 H        2.5200     3.3400    -0.5650 H     1 <1>   0.0800 
 38 H        4.6550     0.7370    -0.4670 H     1 <1>   0.4500 
 39 H        4.7970     3.2510    -1.3470 H     1 <1>   0.0800 
 40 H        3.7690     2.4750    -2.5270 H     1 <1>   0.0800 
 41 H        0.0250    -4.8150    -1.2680 H     1 <1>   0.0800 
 42 H       -0.9810    -3.7690    -0.3080 H     1 <1>   0.0800 
 43 H        6.7360     2.0760    -2.0680 H     1 <1>   0.0800 
 44 H        6.9470     0.4420    -1.5080 H     1 <1>   0.0800 
 45 H        1.1140    -5.9770     2.7080 H     1 <1>   0.0800 
 46 H        2.3690    -6.6380     1.7080 H     1 <1>   0.0800 
 47 H       -1.4890    -6.2210    -0.0520 H     1 <1>   0.0800 
 48 H       -1.1590    -5.3970     1.4470 H     1 <1>   0.0800 
 49 H        6.6000     1.1320     0.8090 H     1 <1>   0.0800 
 50 H        6.3820     2.7990     0.2970 H     1 <1>   0.0800 
 51 H        0.0450    -7.5790     1.3000 H     1 <1>   0.0800 
 52 H        0.8780    -7.0040    -0.1170 H     1 <1>   0.0800 
 53 H       11.1600     2.3320    -1.2520 H     1 <1>   0.1500 
 54 H       11.1860     2.6030     1.4250 H     1 <1>   0.1500 
 55 H        7.8000     3.0390     2.6790 H     1 <1>   0.0800 
 56 H        9.4350     2.7180     3.2230 H     1 <1>   0.0800 
 57 H        8.3350     1.3830     2.9330 H     1 <1>   0.0800 
@<TRIPOS>BOND
  1   1   2  2   
  2   2   3  am  
  3   2   4  1   
  4   3   5  1   
  5   3   6  1   
  6   4   7  ar  
  7   4   8  ar  
  8   5   9  1   
  9   5  28  1   
 10   5  29  1   
 11   6  10  1   
 12   6  30  1   
 13   6  31  1   
 14   7  11  ar  
 15   7  32  1   
 16   8  12  ar  
 17   8  33  1   
 18   9  13  1   
 19   9  34  1   
 20   9  35  1   
 21  10  14  1   
 22  10  36  1   
 23  10  37  1   
 24  11  15  ar  
 25  12  15  ar  
 26  12  16  1   
 27  13  14  1   
 28  13  17  1   
 29  13  38  1   
 30  14  39  1   
 31  14  40  1   
 32  15  18  1   
 33  16  19  1   
 34  16  41  1   
 35  16  42  1   
 36  17  20  1   
 37  17  43  1   
 38  17  44  1   
 39  18  21  1   
 40  18  45  1   
 41  18  46  1   
 42  19  21  1   
 43  19  47  1   
 44  19  48  1   
 45  20  22  1   
 46  20  49  1   
 47  20  50  1   
 48  21  51  1   
 49  21  52  1   
 50  22  23  2   
 51  22  24  1   
 52  23  25  1   
 53  24  26  1   
 54  24  27  1   
 55  25  26  2   
 56  25  53  1   
 57  26  54  1   
 58  27  55  1   
 59  27  56  1   
 60  27  57  1   
@<TRIPOS>SUBSTRUCTURE
  1 ****   1 GROUP 4 **** **** 0

# MOE 2024.06 (io_trps.svl 2023.06)
