@<TRIPOS>MOLECULE
NONAME
50 52 1 0 0 
SMALL
USER_CHARGES


@<TRIPOS>ATOM
  1 S       -0.0010     0.1080     1.9490 S.o2  1 <1>   1.4470 
  2 O        0.3250     1.4580     2.3590 O.2   1 <1>  -0.6500 
  3 O       -0.5350    -0.8160     2.9280 O.2   1 <1>  -0.6500 
  4 N       -1.1500     0.2380     0.7110 N.am  1 <1>  -0.8490 
  5 C        1.4170    -0.6570     1.1160 C.ar  1 <1>  -0.0090 
  6 C       -2.4820     0.5510     1.2510 C.3   1 <1>   0.1960 
  7 C       -0.7680     1.2370    -0.2920 C.3   1 <1>   0.1960 
  8 C        1.2590    -1.8130     0.3630 C.ar  1 <1>  -0.1500 
  9 C        2.6900    -0.1070     1.2060 C.ar  1 <1>  -0.1500 
 10 C       -3.5670     0.4660     0.1600 C.3   1 <1>   0.0000 
 11 C       -1.7430     1.2050    -1.4730 C.3   1 <1>  -0.1600 
 12 C        2.3290    -2.4050    -0.2870 C.ar  1 <1>  -0.1430 
 13 C        3.7730    -0.6840     0.5630 C.ar  1 <1>  -0.1430 
 14 C       -4.9520     0.7660     0.7600 C.3   1 <1>   0.2000 
 15 C       -3.1940     1.4160    -1.0100 C.3   1 <1>  -0.1600 
 16 C       -3.7690    -0.9740    -0.3500 C.3   1 <1>  -0.1600 
 17 C        3.5850    -1.8350    -0.1820 C.ar  1 <1>  -0.1500 
 18 C        2.1260    -3.6690    -1.1020 C.3   1 <1>  -0.0970 
 19 C        5.1540    -0.0650     0.6800 C.3   1 <1>  -0.0970 
 20 O       -5.1720     2.1380     0.8970 O.3   1 <1>  -0.5600 
 21 C       -5.9590     0.1230    -0.1950 C.3   1 <1>  -0.1600 
 22 C       -5.2100    -1.0340    -0.8710 C.3   1 <1>  -0.1600 
 23 C       -6.2600     2.4840     1.6940 C.3   1 <1>   0.0400 
 24 H       -2.7270    -0.1450     2.0360 H     1 <1>   0.0800 
 25 H       -2.4780     1.5410     1.6790 H     1 <1>   0.0800 
 26 H       -0.7650     2.2210     0.1500 H     1 <1>   0.0800 
 27 H        0.2250     1.0290    -0.6560 H     1 <1>   0.0800 
 28 H        0.2770    -2.2510     0.2900 H     1 <1>   0.1500 
 29 H        2.8310     0.7870     1.7900 H     1 <1>   0.1500 
 30 H       -1.4770     1.9790    -2.1700 H     1 <1>   0.0800 
 31 H       -1.6420     0.2650    -1.9830 H     1 <1>   0.0800 
 32 H       -5.0250     0.3020     1.7300 H     1 <1>   0.0800 
 33 H       -3.8660     1.2860    -1.8390 H     1 <1>   0.0800 
 34 H       -3.2860     2.4360    -0.6800 H     1 <1>   0.0800 
 35 H       -3.0570    -1.2610    -1.1020 H     1 <1>   0.0800 
 36 H       -3.6720    -1.6600     0.4750 H     1 <1>   0.0800 
 37 H        4.4230    -2.2910    -0.6800 H     1 <1>   0.1500 
 38 H        2.8080    -3.6940    -1.9330 H     1 <1>   0.0800 
 39 H        1.1230    -3.7140    -1.4860 H     1 <1>   0.0800 
 40 H        2.3000    -4.5310    -0.4830 H     1 <1>   0.0800 
 41 H        5.7080    -0.2120    -0.2300 H     1 <1>   0.0800 
 42 H        5.6900    -0.5230     1.4910 H     1 <1>   0.0800 
 43 H        5.0810     0.9920     0.8650 H     1 <1>   0.0800 
 44 H       -6.8200    -0.2350     0.3400 H     1 <1>   0.0800 
 45 H       -6.2650     0.8370    -0.9410 H     1 <1>   0.0800 
 46 H       -5.6600    -1.9840    -0.6390 H     1 <1>   0.0800 
 47 H       -5.2210    -0.8970    -1.9390 H     1 <1>   0.0800 
 48 H       -6.3090     3.5580     1.7420 H     1 <1>   0.0800 
 49 H       -6.1190     2.0840     2.6830 H     1 <1>   0.0800 
 50 H       -7.1640     2.1020     1.2540 H     1 <1>   0.0800 
@<TRIPOS>BOND
  1   1   2  2   
  2   1   3  2   
  3   1   4  am  
  4   1   5  1   
  5   4   6  1   
  6   4   7  1   
  7   5   8  ar  
  8   5   9  ar  
  9   6  10  1   
 10   6  24  1   
 11   6  25  1   
 12   7  11  1   
 13   7  26  1   
 14   7  27  1   
 15   8  12  ar  
 16   8  28  1   
 17   9  13  ar  
 18   9  29  1   
 19  10  14  1   
 20  10  15  1   
 21  10  16  1   
 22  11  15  1   
 23  11  30  1   
 24  11  31  1   
 25  12  17  ar  
 26  12  18  1   
 27  13  17  ar  
 28  13  19  1   
 29  14  20  1   
 30  14  21  1   
 31  14  32  1   
 32  15  33  1   
 33  15  34  1   
 34  16  22  1   
 35  16  35  1   
 36  16  36  1   
 37  17  37  1   
 38  18  38  1   
 39  18  39  1   
 40  18  40  1   
 41  19  41  1   
 42  19  42  1   
 43  19  43  1   
 44  20  23  1   
 45  21  22  1   
 46  21  44  1   
 47  21  45  1   
 48  22  46  1   
 49  22  47  1   
 50  23  48  1   
 51  23  49  1   
 52  23  50  1   
@<TRIPOS>SUBSTRUCTURE
  1 ****   4 GROUP 4 **** **** 0

# MOE 2024.06 (io_trps.svl 2023.06)
