@<TRIPOS>MOLECULE
NONAME
55 59 1 0 0 
SMALL
USER_CHARGES


@<TRIPOS>ATOM
  1 O       -3.0810     1.5940     1.9870 O.2   1 <1>  -0.5700 
  2 C       -2.6100     1.6840     0.8780 C.2   1 <1>   0.5690 
  3 N       -2.5060     0.5850     0.0650 N.am  1 <1>  -0.6600 
  4 C       -2.1530     3.0640     0.4340 C.3   1 <1>   0.1570 
  5 C       -1.8600     0.4970    -1.2750 C.3   1 <1>   0.1400 
  6 C       -2.9950    -0.7520     0.4690 C.3   1 <1>   0.1400 
  7 N       -0.7440     3.0700    -0.0130 N.pl3 1 <1>   0.0480 
  8 C       -2.1130    -0.9320    -1.7670 C.3   1 <1>   0.2000 
  9 C       -2.2890    -1.7310    -0.4720 C.3   1 <1>  -0.0800 
 10 C       -0.3050     3.3980    -1.2600 C.ar  1 <1>  -0.1520 
 11 C        0.3540     2.6010     0.6470 C.2   1 <1>   0.1010 
 12 O       -3.3090    -0.9790    -2.4940 O.3   1 <1>  -0.5600 
 13 C       -3.0320    -3.0680    -0.6400 C.3   1 <1>   0.0200 
 14 C        1.0430     3.0940    -1.2670 C.ar  1 <1>   0.2270 
 15 C       -0.9300     3.9180    -2.3980 C.ar  1 <1>  -0.1500 
 16 N        1.4280     2.5950    -0.0640 N.2   1 <1>  -0.5650 
 17 C        0.2970     2.1150     2.0870 C.3   1 <1>  -0.0150 
 18 C       -3.1860    -0.6870    -3.8510 C.3   1 <1>   0.0400 
 19 C       -3.0330    -3.9110     0.6250 C.2   1 <1>  -0.0400 
 20 C        1.8010     3.3020    -2.4180 C.ar  1 <1>  -0.1500 
 21 C       -0.1740     4.1180    -3.5320 C.ar  1 <1>  -0.1500 
 22 C        0.0120     3.0830     3.1940 C.3   1 <1>  -0.2000 
 23 C        1.3780     2.4840     3.0550 C.3   1 <1>  -0.2000 
 24 O       -3.7170    -5.0240     0.6360 O.3   1 <1>  -0.0190 
 25 C       -2.4490    -3.7800     1.8270 C.2   1 <1>  -0.1500 
 26 C        1.1920     3.8100    -3.5430 C.ar  1 <1>  -0.1500 
 27 N       -3.6250    -5.6420     1.7790 N.2   1 <1>  -0.4100 
 28 C       -2.8680    -4.9140     2.5170 C.2   1 <1>   0.1080 
 29 C       -2.4900    -5.2520     3.9410 C.3   1 <1>  -0.0590 
 30 H       -2.2520     3.7480     1.2540 H     1 <1>   0.0800 
 31 H       -2.7860     3.3950    -0.3640 H     1 <1>   0.0800 
 32 H       -2.2570     1.2300    -1.9530 H     1 <1>   0.0800 
 33 H       -0.7990     0.6400    -1.1620 H     1 <1>   0.0800 
 34 H       -2.7710    -0.9490     1.5030 H     1 <1>   0.0800 
 35 H       -4.0620    -0.7890     0.3210 H     1 <1>   0.0800 
 36 H       -1.3090    -1.3150    -2.3720 H     1 <1>   0.0800 
 37 H       -1.3090    -1.9250    -0.0730 H     1 <1>   0.0800 
 38 H       -2.5680    -3.6370    -1.4260 H     1 <1>   0.0800 
 39 H       -4.0520    -2.8840    -0.9310 H     1 <1>   0.0800 
 40 H       -1.9780     4.1600    -2.3890 H     1 <1>   0.1500 
 41 H       -0.1040     1.1210     2.1690 H     1 <1>   0.1000 
 42 H       -4.1670    -0.7350    -4.2910 H     1 <1>   0.0800 
 43 H       -2.5470    -1.4180    -4.3150 H     1 <1>   0.0800 
 44 H       -2.7830     0.3030    -3.9750 H     1 <1>   0.0800 
 45 H        2.8470     3.0580    -2.3950 H     1 <1>   0.1500 
 46 H       -0.6260     4.5190    -4.4230 H     1 <1>   0.1500 
 47 H       -0.1070     4.1270     2.9620 H     1 <1>   0.1000 
 48 H       -0.6270     2.7600     3.9970 H     1 <1>   0.1000 
 49 H        1.7020     1.7450     3.7660 H     1 <1>   0.1000 
 50 H        2.1880     3.0950     2.6940 H     1 <1>   0.1000 
 51 H       -1.8060    -3.0110     2.2120 H     1 <1>   0.1500 
 52 H        1.7630     3.9780    -4.4400 H     1 <1>   0.1500 
 53 H       -1.4210    -5.2790     4.0390 H     1 <1>   0.0800 
 54 H       -2.8890    -6.2140     4.2080 H     1 <1>   0.0800 
 55 H       -2.8900    -4.5120     4.6090 H     1 <1>   0.0800 
@<TRIPOS>BOND
  1   1   2  2   
  2   2   3  am  
  3   2   4  1   
  4   3   5  1   
  5   3   6  1   
  6   4   7  1   
  7   4  30  1   
  8   4  31  1   
  9   5   8  1   
 10   5  32  1   
 11   5  33  1   
 12   6   9  1   
 13   6  34  1   
 14   6  35  1   
 15   7  10  1   
 16   7  11  1   
 17   8   9  1   
 18   8  12  1   
 19   8  36  1   
 20   9  13  1   
 21   9  37  1   
 22  10  14  ar  
 23  10  15  ar  
 24  11  16  2   
 25  11  17  1   
 26  12  18  1   
 27  13  19  1   
 28  13  38  1   
 29  13  39  1   
 30  14  16  1   
 31  14  20  ar  
 32  15  21  ar  
 33  15  40  1   
 34  17  22  1   
 35  17  23  1   
 36  17  41  1   
 37  18  42  1   
 38  18  43  1   
 39  18  44  1   
 40  19  24  1   
 41  19  25  2   
 42  20  26  ar  
 43  20  45  1   
 44  21  26  ar  
 45  21  46  1   
 46  22  23  1   
 47  22  47  1   
 48  22  48  1   
 49  23  49  1   
 50  23  50  1   
 51  24  27  1   
 52  25  28  1   
 53  25  51  1   
 54  26  52  1   
 55  27  28  2   
 56  28  29  1   
 57  29  53  1   
 58  29  54  1   
 59  29  55  1   
@<TRIPOS>SUBSTRUCTURE
  1 ****   3 GROUP 4 **** **** 0

# MOE 2024.06 (io_trps.svl 2023.06)
