@<TRIPOS>MOLECULE
NONAME
59 62 1 0 0 
SMALL
USER_CHARGES


@<TRIPOS>ATOM
  1 O       -0.8620    -0.0800    -0.1220 O.2   1 <1>  -0.5700 
  2 C       -1.8990     0.4040    -0.5310 C.2   1 <1>   0.7800 
  3 O       -1.9370     0.9630    -1.7400 O.3   1 <1>  -0.4300 
  4 N       -3.0590     0.3910     0.2080 N.am  1 <1>  -0.6600 
  5 C       -0.7810     1.0280    -2.5430 C.3   1 <1>   0.1200 
  6 C       -4.3390     0.9570    -0.2860 C.3   1 <1>   0.1400 
  7 C       -3.0820    -0.1500     1.5890 C.3   1 <1>   0.1400 
  8 C       -1.1490     1.7260    -3.8490 C.3   1 <1>  -0.2400 
  9 C       -5.4140    -0.1300    -0.2220 C.3   1 <1>  -0.1600 
 10 C       -4.1430    -1.2480     1.6690 C.3   1 <1>  -0.1600 
 11 C       -5.5000    -0.7150     1.1970 C.3   1 <1>   0.4230 
 12 N       -6.5330    -1.7870     1.3170 N.4   1 <1>  -0.9590 
 13 C       -7.9370    -1.2370     1.2360 C.3   1 <1>   0.3430 
 14 C       -6.3640    -2.9310     0.3440 C.3   1 <1>   0.3430 
 15 C       -9.0070    -2.3360     1.4150 C.3   1 <1>   0.1900 
 16 C       -7.4520    -4.0070     0.5270 C.3   1 <1>   0.1100 
 17 N       -8.8040    -3.4200     0.4250 N.3   1 <1>  -0.8100 
 18 C      -10.4220    -1.7440     1.2760 C.3   1 <1>   0.1200 
 19 C       -9.8780    -4.4430     0.5460 C.3   1 <1>   0.3330 
 20 O      -11.3710    -2.7500     1.4560 O.3   1 <1>  -0.5600 
 21 C       -9.7590    -5.4740    -0.5730 C.ar  1 <1>  -0.1440 
 22 C      -11.2750    -3.7870     0.5130 C.3   1 <1>   0.1200 
 23 C       -9.6800    -5.0770    -1.9020 C.ar  1 <1>  -0.1500 
 24 C       -9.7240    -6.8280    -0.2710 C.ar  1 <1>  -0.1500 
 25 C       -9.5660    -6.0160    -2.9110 C.ar  1 <1>  -0.1500 
 26 C       -9.6080    -7.7690    -1.2800 C.ar  1 <1>  -0.1500 
 27 C       -9.5290    -7.3640    -2.6000 C.ar  1 <1>  -0.1500 
 28 H       -0.0250     1.5810    -2.0100 H     1 <1>   0.0800 
 29 H       -0.4330     0.0250    -2.7250 H     1 <1>   0.0800 
 30 H       -4.6120     1.7980     0.3290 H     1 <1>   0.0800 
 31 H       -4.2420     1.3090    -1.3000 H     1 <1>   0.0800 
 32 H       -2.1200    -0.5550     1.8590 H     1 <1>   0.0800 
 33 H       -3.3070     0.6480     2.2770 H     1 <1>   0.0800 
 34 H       -1.5050     2.7210    -3.6500 H     1 <1>   0.0800 
 35 H       -1.9070     1.1680    -4.3680 H     1 <1>   0.0800 
 36 H       -0.2810     1.7940    -4.4800 H     1 <1>   0.0800 
 37 H       -5.1510    -0.8860    -0.9390 H     1 <1>   0.0800 
 38 H       -6.3520     0.3060    -0.5100 H     1 <1>   0.0800 
 39 H       -4.2080    -1.5850     2.6880 H     1 <1>   0.0800 
 40 H       -3.8120    -2.0670     1.0550 H     1 <1>   0.0800 
 41 H       -5.7700     0.0900     1.8620 H     1 <1>   0.0800 
 42 H       -6.4340    -2.1950     2.2540 H     1 <1>   0.4500 
 43 H       -8.0790    -0.4830     1.9920 H     1 <1>   0.0800 
 44 H       -8.0900    -0.7760     0.2740 H     1 <1>   0.0800 
 45 H       -6.4290    -2.5640    -0.6670 H     1 <1>   0.0800 
 46 H       -5.3960    -3.3870     0.4690 H     1 <1>   0.0800 
 47 H       -8.9210    -2.7370     2.4110 H     1 <1>   0.0800 
 48 H       -7.3290    -4.4970     1.4780 H     1 <1>   0.0800 
 49 H       -7.3200    -4.7490    -0.2430 H     1 <1>   0.0800 
 50 H      -10.5690    -1.3030     0.3040 H     1 <1>   0.0800 
 51 H      -10.6010    -0.9970     2.0300 H     1 <1>   0.0800 
 52 H       -9.7780    -4.9460     1.4930 H     1 <1>   0.0800 
 53 H      -12.0290    -4.5170     0.7460 H     1 <1>   0.0800 
 54 H      -11.4810    -3.3840    -0.4630 H     1 <1>   0.0800 
 55 H       -9.7050    -4.0310    -2.1520 H     1 <1>   0.1500 
 56 H       -9.7880    -7.1630     0.7490 H     1 <1>   0.1500 
 57 H       -9.5070    -5.7010    -3.9380 H     1 <1>   0.1500 
 58 H       -9.5820    -8.8180    -1.0390 H     1 <1>   0.1500 
 59 H       -9.4400    -8.0950    -3.3840 H     1 <1>   0.1500 
@<TRIPOS>BOND
  1   1   2  2   
  2   2   3  1   
  3   2   4  am  
  4   3   5  1   
  5   4   6  1   
  6   4   7  1   
  7   5   8  1   
  8   5  28  1   
  9   5  29  1   
 10   6   9  1   
 11   6  30  1   
 12   6  31  1   
 13   7  10  1   
 14   7  32  1   
 15   7  33  1   
 16   8  34  1   
 17   8  35  1   
 18   8  36  1   
 19   9  11  1   
 20   9  37  1   
 21   9  38  1   
 22  10  11  1   
 23  10  39  1   
 24  10  40  1   
 25  11  12  1   
 26  11  41  1   
 27  12  13  1   
 28  12  14  1   
 29  12  42  1   
 30  13  15  1   
 31  13  43  1   
 32  13  44  1   
 33  14  16  1   
 34  14  45  1   
 35  14  46  1   
 36  15  17  1   
 37  15  18  1   
 38  15  47  1   
 39  16  17  1   
 40  16  48  1   
 41  16  49  1   
 42  17  19  1   
 43  18  20  1   
 44  18  50  1   
 45  18  51  1   
 46  19  21  1   
 47  19  22  1   
 48  19  52  1   
 49  20  22  1   
 50  21  23  ar  
 51  21  24  ar  
 52  22  53  1   
 53  22  54  1   
 54  23  25  ar  
 55  23  55  1   
 56  24  26  ar  
 57  24  56  1   
 58  25  27  ar  
 59  25  57  1   
 60  26  27  ar  
 61  26  58  1   
 62  27  59  1   
@<TRIPOS>SUBSTRUCTURE
  1 ****  14 GROUP 4 **** **** 0

# MOE 2024.06 (io_trps.svl 2023.06)
