@<TRIPOS>MOLECULE
NONAME
55 57 1 0 0 
SMALL
USER_CHARGES


@<TRIPOS>ATOM
  1 F       -0.5120    -0.2160    -0.4760 F     1 <1>  -0.1900 
  2 C       -1.7600     0.1780    -0.4510 C.ar  1 <1>   0.1900 
  3 C       -2.1320     1.4410     0.0220 C.ar  1 <1>   0.0830 
  4 C       -2.6970    -0.7230    -0.9220 C.ar  1 <1>  -0.1500 
  5 O       -1.3060     2.4130     0.5070 O.3   1 <1>  -0.3630 
  6 C       -3.4790     1.7630     0.0050 C.ar  1 <1>  -0.1500 
  7 C       -4.0330    -0.3680    -0.9250 C.ar  1 <1>  -0.1500 
  8 C        0.0890     2.2440     0.6320 C.3   1 <1>   0.0400 
  9 C       -4.4540     0.8770    -0.4570 C.ar  1 <1>   0.0530 
 10 C       -5.8430     1.2610    -0.4610 C.2   1 <1>   0.0870 
 11 O       -6.1750     2.4400    -0.9220 O.3   1 <1>  -0.0190 
 12 C       -6.9940     0.6470    -0.0670 C.2   1 <1>  -0.0860 
 13 N       -7.4610     2.6600    -0.8830 N.2   1 <1>  -0.4100 
 14 C       -7.9780     1.5980    -0.3760 C.2   1 <1>   0.3720 
 15 C       -7.2190    -0.6340     0.5340 C.2   1 <1>   0.7160 
 16 N       -9.3620     1.4530    -0.1810 N.pl3 1 <1>  -0.8210 
 17 O       -6.3250    -1.4450     0.6780 O.2   1 <1>  -0.5700 
 18 N       -8.4700    -0.9800     0.9400 N.am  1 <1>  -0.7300 
 19 C      -10.1250     1.4610    -1.4610 C.3   1 <1>   0.1290 
 20 C       -9.9130     2.4580     0.7710 C.3   1 <1>   0.1290 
 21 C       -8.9180    -2.2960     1.4580 C.3   1 <1>   0.1400 
 22 C       -9.7210    -3.0980     0.4010 C.3   1 <1>   0.0000 
 23 C      -10.1680    -4.4390     1.0330 C.3   1 <1>  -0.1600 
 24 C       -8.8400    -3.4310    -0.8290 C.3   1 <1>  -0.1600 
 25 C      -10.9450    -2.2440    -0.0130 C.3   1 <1>   0.1200 
 26 C       -8.9910    -5.4010     1.2510 C.3   1 <1>   0.1200 
 27 C       -7.7300    -4.4300    -0.4830 C.3   1 <1>   0.1200 
 28 O      -11.7930    -2.9320    -0.8680 O.3   1 <1>  -0.6800 
 29 O       -8.3090    -5.5820     0.0490 O.3   1 <1>  -0.5600 
 30 H       -2.3820    -1.6870    -1.2790 H     1 <1>   0.1500 
 31 H       -3.7780     2.7320     0.3630 H     1 <1>   0.1500 
 32 H       -4.7630    -1.0680    -1.2950 H     1 <1>   0.1500 
 33 H        0.4980     3.1430     1.0560 H     1 <1>   0.0800 
 34 H        0.5110     2.0770    -0.3430 H     1 <1>   0.0800 
 35 H        0.2840     1.4120     1.2860 H     1 <1>   0.0800 
 36 H       -9.1900    -0.2680     0.7430 H     1 <1>   0.3700 
 37 H       -9.6900     0.7580    -2.1510 H     1 <1>   0.0800 
 38 H      -10.0970     2.4420    -1.9050 H     1 <1>   0.0800 
 39 H      -11.1490     1.1820    -1.2830 H     1 <1>   0.0800 
 40 H       -9.3290     2.4640     1.6760 H     1 <1>   0.0800 
 41 H      -10.9320     2.2150     1.0170 H     1 <1>   0.0800 
 42 H       -9.8790     3.4430     0.3340 H     1 <1>   0.0800 
 43 H       -9.5330    -2.1260     2.3250 H     1 <1>   0.0800 
 44 H       -8.0580    -2.8530     1.7840 H     1 <1>   0.0800 
 45 H      -10.8710    -4.9400     0.3920 H     1 <1>   0.0800 
 46 H      -10.6660    -4.2630     1.9700 H     1 <1>   0.0800 
 47 H       -8.4000    -2.5400    -1.2370 H     1 <1>   0.0800 
 48 H       -9.4350    -3.8750    -1.6060 H     1 <1>   0.0800 
 49 H      -10.6280    -1.3510    -0.5240 H     1 <1>   0.0800 
 50 H      -11.5210    -1.9610     0.8510 H     1 <1>   0.0800 
 51 H       -9.3500    -6.3650     1.5680 H     1 <1>   0.0800 
 52 H       -8.2970    -5.0340     1.9880 H     1 <1>   0.0800 
 53 H       -7.0290    -4.0280     0.2290 H     1 <1>   0.0800 
 54 H       -7.1930    -4.7160    -1.3700 H     1 <1>   0.0800 
 55 H      -11.2790    -3.3770    -1.5700 H     1 <1>   0.4000 
@<TRIPOS>BOND
  1   1   2  1   
  2   2   3  ar  
  3   2   4  ar  
  4   3   5  1   
  5   3   6  ar  
  6   4   7  ar  
  7   4  30  1   
  8   5   8  1   
  9   6   9  ar  
 10   6  31  1   
 11   7   9  ar  
 12   7  32  1   
 13   8  33  1   
 14   8  34  1   
 15   8  35  1   
 16   9  10  1   
 17  10  11  1   
 18  10  12  2   
 19  11  13  1   
 20  12  14  1   
 21  12  15  1   
 22  13  14  2   
 23  14  16  1   
 24  15  17  2   
 25  15  18  am  
 26  16  19  1   
 27  16  20  1   
 28  18  21  1   
 29  18  36  1   
 30  19  37  1   
 31  19  38  1   
 32  19  39  1   
 33  20  40  1   
 34  20  41  1   
 35  20  42  1   
 36  21  22  1   
 37  21  43  1   
 38  21  44  1   
 39  22  23  1   
 40  22  24  1   
 41  22  25  1   
 42  23  26  1   
 43  23  45  1   
 44  23  46  1   
 45  24  27  1   
 46  24  47  1   
 47  24  48  1   
 48  25  28  1   
 49  25  49  1   
 50  25  50  1   
 51  26  29  1   
 52  26  51  1   
 53  26  52  1   
 54  27  29  1   
 55  27  53  1   
 56  27  54  1   
 57  28  55  1   
@<TRIPOS>SUBSTRUCTURE
  1 ****  15 GROUP 4 **** **** 0

# MOE 2024.06 (io_trps.svl 2023.06)
