@<TRIPOS>MOLECULE
NONAME
45 45 1 0 0 
SMALL
USER_CHARGES


@<TRIPOS>ATOM
  1 N       -1.5560    -0.7300    -0.4570 N.ar  1 <1>  -0.6200 
  2 C       -2.1760     0.3300     0.0180 C.ar  1 <1>   0.4100 
  3 C       -0.2890    -0.8560    -0.1180 C.ar  1 <1>   0.4760 
  4 N       -3.5000     0.4810    -0.3250 N.pl3 1 <1>  -0.8690 
  5 C       -1.5370     1.2400     0.8520 C.ar  1 <1>  -0.1430 
  6 N        0.4180    -0.0710     0.6660 N.ar  1 <1>  -0.6200 
  7 C        0.4500    -2.0460    -0.6840 C.3   1 <1>  -0.0970 
  8 C       -4.0960    -0.0380    -1.5820 C.3   1 <1>   0.2090 
  9 C       -0.2200     0.9780     1.1420 C.ar  1 <1>   0.1600 
 10 C       -2.2880     2.4610     1.3970 C.3   1 <1>  -0.0170 
 11 C       -5.0050    -1.2410    -1.2800 C.3   1 <1>  -0.0800 
 12 C       -1.4960     3.3340     2.3770 C.3   1 <1>  -0.2400 
 13 C       -4.1640    -2.4850    -0.9420 C.3   1 <1>   0.3430 
 14 C       -5.9110    -1.5380    -2.4860 C.3   1 <1>  -0.2400 
 15 N       -4.4410    -3.0200     0.4260 N.4   1 <1>  -0.9590 
 16 C       -3.8660    -2.1040     1.4530 C.3   1 <1>   0.3430 
 17 C       -3.8830    -4.4000     0.5450 C.3   1 <1>   0.2630 
 18 C       -4.3360    -2.5060     2.8470 C.3   1 <1>  -0.2400 
 19 H       -3.9030     1.3810    -0.0510 H     1 <1>   0.4000 
 20 H       -0.1230    -2.5150    -1.4620 H     1 <1>   0.0800 
 21 H        0.6380    -2.7550     0.0990 H     1 <1>   0.0800 
 22 H        1.3890    -1.7220    -1.0930 H     1 <1>   0.0800 
 23 H       -3.3220    -0.3110    -2.2830 H     1 <1>   0.0800 
 24 H       -4.6760     0.7510    -2.0310 H     1 <1>   0.0800 
 25 H        0.3520     1.6310     1.7780 H     1 <1>   0.1500 
 26 H       -3.1780     2.1220     1.8990 H     1 <1>   0.0800 
 27 H       -2.5920     3.0750     0.5670 H     1 <1>   0.0800 
 28 H       -5.6450    -0.9780    -0.4560 H     1 <1>   0.0800 
 29 H       -1.1890     2.7610     3.2350 H     1 <1>   0.0800 
 30 H       -2.1110     4.1480     2.7190 H     1 <1>   0.0800 
 31 H       -0.6270     3.7510     1.8980 H     1 <1>   0.0800 
 32 H       -3.1170    -2.2580    -1.0380 H     1 <1>   0.0800 
 33 H       -4.3870    -3.2490    -1.6690 H     1 <1>   0.0800 
 34 H       -5.3260    -1.7740    -3.3600 H     1 <1>   0.0800 
 35 H       -6.5260    -0.6830    -2.7130 H     1 <1>   0.0800 
 36 H       -6.5640    -2.3670    -2.2760 H     1 <1>   0.0800 
 37 H       -5.4600    -3.0490     0.5590 H     1 <1>   0.4500 
 38 H       -4.1950    -1.0960     1.2620 H     1 <1>   0.0800 
 39 H       -2.7880    -2.1130     1.4010 H     1 <1>   0.0800 
 40 H       -2.8100    -4.3770     0.4440 H     1 <1>   0.0800 
 41 H       -4.2900    -5.0360    -0.2240 H     1 <1>   0.0800 
 42 H       -4.1300    -4.8250     1.5040 H     1 <1>   0.0800 
 43 H       -5.4090    -2.5300     2.8970 H     1 <1>   0.0800 
 44 H       -3.9870    -1.7740     3.5540 H     1 <1>   0.0800 
 45 H       -3.9320    -3.4570     3.1410 H     1 <1>   0.0800 
@<TRIPOS>BOND
  1   1   2  ar  
  2   1   3  ar  
  3   2   4  1   
  4   2   5  ar  
  5   3   6  ar  
  6   3   7  1   
  7   4   8  1   
  8   4  19  1   
  9   5   9  ar  
 10   5  10  1   
 11   6   9  ar  
 12   7  20  1   
 13   7  21  1   
 14   7  22  1   
 15   8  11  1   
 16   8  23  1   
 17   8  24  1   
 18   9  25  1   
 19  10  12  1   
 20  10  26  1   
 21  10  27  1   
 22  11  13  1   
 23  11  14  1   
 24  11  28  1   
 25  12  29  1   
 26  12  30  1   
 27  12  31  1   
 28  13  15  1   
 29  13  32  1   
 30  13  33  1   
 31  14  34  1   
 32  14  35  1   
 33  14  36  1   
 34  15  16  1   
 35  15  17  1   
 36  15  37  1   
 37  16  18  1   
 38  16  38  1   
 39  16  39  1   
 40  17  40  1   
 41  17  41  1   
 42  17  42  1   
 43  18  43  1   
 44  18  44  1   
 45  18  45  1   
@<TRIPOS>SUBSTRUCTURE
  1 ****   2 GROUP 4 **** **** 0

# MOE 2024.06 (io_trps.svl 2023.06)
