@<TRIPOS>MOLECULE
NONAME
38 39 1 0 0 
SMALL
USER_CHARGES


@<TRIPOS>ATOM
  1 F       -1.4000    -1.3790    -1.3380 F     1 <1>  -0.1900 
  2 C       -1.1030    -2.3970    -0.5740 C.ar  1 <1>   0.1900 
  3 C        0.1300    -3.0160    -0.7110 C.ar  1 <1>  -0.1440 
  4 C       -2.0490    -2.8130     0.3450 C.ar  1 <1>  -0.1500 
  5 C        0.4060    -4.0930     0.1170 C.ar  1 <1>  -0.1500 
  6 C        1.1510    -2.5340    -1.7310 C.3   1 <1>  -0.0960 
  7 C       -1.7630    -3.8960     1.1630 C.ar  1 <1>  -0.1430 
  8 C       -0.5310    -4.5260     1.0430 C.ar  1 <1>  -0.1500 
  9 C       -2.7880    -4.3920     2.1800 C.3   1 <1>   0.0450 
 10 C       -3.0300    -5.8970     2.1220 C.2   1 <1>   0.5690 
 11 O       -2.7420    -6.5300     3.1130 O.2   1 <1>  -0.5700 
 12 N       -3.5540    -6.4990     1.0040 N.am  1 <1>  -0.6600 
 13 C       -3.8450    -7.9740     0.9860 C.3   1 <1>   0.1400 
 14 C       -3.8460    -5.7720    -0.2760 C.3   1 <1>   0.1400 
 15 C       -5.2850    -8.3060     0.5360 C.3   1 <1>   0.2000 
 16 C       -5.0140    -6.3840    -1.0630 C.3   1 <1>  -0.1600 
 17 O       -5.2030    -9.3470    -0.3740 O.3   1 <1>  -0.6800 
 18 C       -5.9970    -7.1140    -0.1300 C.3   1 <1>  -0.1860 
 19 C       -7.2980    -7.4910    -0.8150 C.2   1 <1>   0.9060 
 20 O       -8.2830    -6.7730    -0.6330 O.co2 1 <1>  -0.9000 
 21 O       -7.3330    -8.4970    -1.5380 O.co2 1 <1>  -0.9000 
 22 H       -2.9870    -2.2930     0.4070 H     1 <1>   0.1500 
 23 H        1.3510    -4.6030     0.0480 H     1 <1>   0.1500 
 24 H        2.0450    -3.1290    -1.6930 H     1 <1>   0.0800 
 25 H        1.4110    -1.5100    -1.5310 H     1 <1>   0.0800 
 26 H        0.7370    -2.5980    -2.7210 H     1 <1>   0.0800 
 27 H       -0.2970    -5.3670     1.6750 H     1 <1>   0.1500 
 28 H       -3.7300    -3.8960     2.0430 H     1 <1>   0.0800 
 29 H       -2.4370    -4.1410     3.1640 H     1 <1>   0.0800 
 30 H       -3.1470    -8.4380     0.3120 H     1 <1>   0.0800 
 31 H       -3.6890    -8.3990     1.9610 H     1 <1>   0.0800 
 32 H       -4.1090    -4.7540    -0.0540 H     1 <1>   0.0800 
 33 H       -2.9620    -5.7610    -0.8910 H     1 <1>   0.0800 
 34 H       -5.8700    -8.6570     1.3680 H     1 <1>   0.0800 
 35 H       -5.5310    -5.6070    -1.6000 H     1 <1>   0.0800 
 36 H       -4.6360    -7.0780    -1.7940 H     1 <1>   0.0800 
 37 H       -6.0200    -9.2680    -0.9590 H     1 <1>   0.4000 
 38 H       -6.2710    -6.4290     0.6510 H     1 <1>   0.0800 
@<TRIPOS>BOND
  1   1   2  1   
  2   2   3  ar  
  3   2   4  ar  
  4   3   5  ar  
  5   3   6  1   
  6   4   7  ar  
  7   4  22  1   
  8   5   8  ar  
  9   5  23  1   
 10   6  24  1   
 11   6  25  1   
 12   6  26  1   
 13   7   8  ar  
 14   7   9  1   
 15   8  27  1   
 16   9  10  1   
 17   9  28  1   
 18   9  29  1   
 19  10  11  2   
 20  10  12  am  
 21  12  13  1   
 22  12  14  1   
 23  13  15  1   
 24  13  30  1   
 25  13  31  1   
 26  14  16  1   
 27  14  32  1   
 28  14  33  1   
 29  15  17  1   
 30  15  18  1   
 31  15  34  1   
 32  16  18  1   
 33  16  35  1   
 34  16  36  1   
 35  17  37  1   
 36  18  19  1   
 37  18  38  1   
 38  19  20  ar  
 39  19  21  ar  
@<TRIPOS>SUBSTRUCTURE
  1 ****  14 GROUP 4 **** **** 0

# MOE 2024.06 (io_trps.svl 2023.06)
