@<TRIPOS>MOLECULE
NONAME
55 59 1 0 0 
SMALL
USER_CHARGES


@<TRIPOS>ATOM
  1 S       -1.0750     0.3900    -1.1670 S.o2  1 <1>   1.3330 
  2 O       -0.9360    -0.6300    -2.1780 O.2   1 <1>  -0.6500 
  3 O       -1.3070     1.7660    -1.5460 O.2   1 <1>  -0.6500 
  4 N       -2.3500    -0.0710    -0.1520 N.am  1 <1>  -0.8490 
  5 C        0.3350     0.3010    -0.0850 C.3   1 <1>  -0.1350 
  6 C       -3.4360    -0.7530    -0.8740 C.3   1 <1>   0.1960 
  7 C       -2.9630     1.0070     0.6160 C.3   1 <1>   0.1960 
  8 C       -4.7110    -0.4710    -0.0770 C.3   1 <1>   0.2800 
  9 C       -4.3160     0.4490     1.0770 C.3   1 <1>  -0.0800 
 10 O       -5.6280     0.3190    -0.7590 O.3   1 <1>  -0.5600 
 11 C       -5.5970    -1.6080     0.4170 C.3   1 <1>  -0.1600 
 12 C       -5.5760     1.3470     1.1970 C.3   1 <1>  -0.0800 
 13 C       -6.5180     0.5860     0.2510 C.3   1 <1>   0.2000 
 14 C       -6.8700    -0.8250     0.7520 C.3   1 <1>  -0.1600 
 15 C       -5.3110     2.7920     0.7260 C.3   1 <1>   0.3430 
 16 N       -6.5590     3.5740     0.4910 N.4   1 <1>  -0.9590 
 17 C       -6.9250     3.5560    -0.9480 C.3   1 <1>   0.5230 
 18 C       -6.4360     4.9820     0.9810 C.3   1 <1>   0.2630 
 19 C       -8.4290     3.6700    -1.0370 C.2   1 <1>  -0.3320 
 20 N       -9.0810     3.5650    -2.2160 N.pl3 1 <1>   0.3000 
 21 C       -9.3850     3.8680    -0.1000 C.2   1 <1>  -0.1500 
 22 N      -10.4030     3.6850    -2.0660 N.2   1 <1>  -0.7070 
 23 C      -10.6050     3.8710    -0.7850 C.2   1 <1>   0.2880 
 24 C      -11.9080     4.0470    -0.1980 C.2   1 <1>   0.0410 
 25 S      -12.0550     4.2910     1.5460 S.3   1 <1>  -0.0800 
 26 C      -13.1480     4.0660    -0.7450 C.2   1 <1>  -0.1500 
 27 C      -13.8030     4.4090     1.4540 C.2   1 <1>  -0.1100 
 28 C      -14.2150     4.2690     0.1810 C.2   1 <1>  -0.1500 
 29 H        0.4440    -0.6950     0.2950 H     1 <1>   0.0800 
 30 H        0.2190     0.9780     0.7370 H     1 <1>   0.0800 
 31 H        1.2250     0.5620    -0.6240 H     1 <1>   0.0800 
 32 H       -3.5420    -0.3630    -1.8730 H     1 <1>   0.0800 
 33 H       -3.2270    -1.8080    -0.9220 H     1 <1>   0.0800 
 34 H       -2.3380     1.2840     1.4490 H     1 <1>   0.0800 
 35 H       -3.0950     1.8570    -0.0260 H     1 <1>   0.0800 
 36 H       -4.1570    -0.1270     1.9720 H     1 <1>   0.0800 
 37 H       -5.7720    -2.3120    -0.3780 H     1 <1>   0.0800 
 38 H       -5.1780    -2.1190     1.2660 H     1 <1>   0.0800 
 39 H       -5.9560     1.3500     2.2040 H     1 <1>   0.0800 
 40 H       -7.3790     1.1190    -0.1090 H     1 <1>   0.0800 
 41 H       -7.0950    -0.8320     1.8040 H     1 <1>   0.0800 
 42 H       -7.7110    -1.2170     0.2070 H     1 <1>   0.0800 
 43 H       -4.7480     2.7650    -0.1930 H     1 <1>   0.0800 
 44 H       -4.7050     3.2860     1.4680 H     1 <1>   0.0800 
 45 H       -7.3410     3.1200     0.9800 H     1 <1>   0.4500 
 46 H       -6.4460     4.3670    -1.4730 H     1 <1>   0.0800 
 47 H       -6.6120     2.6260    -1.3990 H     1 <1>   0.0800 
 48 H       -5.6310     5.4890     0.4740 H     1 <1>   0.0800 
 49 H       -6.2390     4.9940     2.0410 H     1 <1>   0.0800 
 50 H       -7.3520     5.5230     0.7980 H     1 <1>   0.0800 
 51 H       -8.6700     3.4060    -3.1480 H     1 <1>   0.2700 
 52 H       -9.3050     4.0050     0.9620 H     1 <1>   0.1500 
 53 H      -13.3390     3.9400    -1.7970 H     1 <1>   0.1500 
 54 H      -14.3410     4.5720     2.3710 H     1 <1>   0.1500 
 55 H      -15.2380     4.3010    -0.1510 H     1 <1>   0.1500 
@<TRIPOS>BOND
  1   1   2  2   
  2   1   3  2   
  3   1   4  am  
  4   1   5  1   
  5   4   6  1   
  6   4   7  1   
  7   5  29  1   
  8   5  30  1   
  9   5  31  1   
 10   6   8  1   
 11   6  32  1   
 12   6  33  1   
 13   7   9  1   
 14   7  34  1   
 15   7  35  1   
 16   8   9  1   
 17   8  10  1   
 18   8  11  1   
 19   9  12  1   
 20   9  36  1   
 21  10  13  1   
 22  11  14  1   
 23  11  37  1   
 24  11  38  1   
 25  12  13  1   
 26  12  15  1   
 27  12  39  1   
 28  13  14  1   
 29  13  40  1   
 30  14  41  1   
 31  14  42  1   
 32  15  16  1   
 33  15  43  1   
 34  15  44  1   
 35  16  17  1   
 36  16  18  1   
 37  16  45  1   
 38  17  19  1   
 39  17  46  1   
 40  17  47  1   
 41  18  48  1   
 42  18  49  1   
 43  18  50  1   
 44  19  20  1   
 45  19  21  2   
 46  20  22  1   
 47  20  51  1   
 48  21  23  1   
 49  21  52  1   
 50  22  23  2   
 51  23  24  1   
 52  24  25  1   
 53  24  26  2   
 54  25  27  1   
 55  26  28  1   
 56  26  53  1   
 57  27  28  2   
 58  27  54  1   
 59  28  55  1   
@<TRIPOS>SUBSTRUCTURE
  1 ****  13 GROUP 4 **** **** 0

# MOE 2024.06 (io_trps.svl 2023.06)
