@<TRIPOS>MOLECULE
NONAME
53 55 1 0 0 
SMALL
USER_CHARGES


@<TRIPOS>ATOM
  1 O       -5.1340     1.2250    -1.9580 O.2   1 <1>  -0.5700 
  2 C       -4.2470     0.9830    -1.1610 C.2   1 <1>   0.5440 
  3 N       -4.1140    -0.3060    -0.6890 N.am  1 <1>  -0.6600 
  4 C       -3.3700     2.0560    -0.7340 C.ar  1 <1>   0.0860 
  5 C       -2.9740    -0.7090     0.2150 C.3   1 <1>   0.3640 
  6 C       -5.1870    -1.3040    -0.9790 C.3   1 <1>   0.1400 
  7 C       -2.4170     2.5880    -1.5990 C.ar  1 <1>  -0.1500 
  8 C       -3.4330     2.5760     0.5580 C.ar  1 <1>  -0.1500 
  9 C       -1.6450    -0.4740    -0.5110 C.ar  1 <1>  -0.1430 
 10 C       -3.0000    -2.1790     0.7420 C.3   1 <1>   0.2000 
 11 C       -4.7570    -2.7430    -0.6960 C.3   1 <1>   0.1200 
 12 C       -1.5420     3.5750    -1.1840 C.ar  1 <1>  -0.1500 
 13 C       -2.5600     3.5620     0.9780 C.ar  1 <1>  -0.1500 
 14 C       -0.6330     0.2460     0.1080 C.ar  1 <1>  -0.1500 
 15 C       -1.4320    -0.9650    -1.7920 C.ar  1 <1>  -0.1500 
 16 O       -4.2390    -2.8170     0.5920 O.3   1 <1>  -0.5600 
 17 C       -2.6470    -2.2730     2.2350 C.3   1 <1>   0.1200 
 18 C       -1.6030     4.0640     0.1110 C.ar  1 <1>  -0.1430 
 19 C        0.5720     0.4660    -0.5360 C.ar  1 <1>  -0.1500 
 20 C       -0.2270    -0.7480    -2.4380 C.ar  1 <1>  -0.1500 
 21 O       -1.4300    -1.6580     2.5120 O.3   1 <1>  -0.6800 
 22 C       -0.6230     5.1290     0.5730 C.3   1 <1>  -0.0170 
 23 C        0.7760    -0.0320    -1.8100 C.ar  1 <1>  -0.1500 
 24 C        0.6650     4.4740     1.0840 C.3   1 <1>  -0.1600 
 25 C        1.6820     5.5190     1.5580 C.3   1 <1>  -0.1600 
 26 C        2.9630     4.8490     2.0630 C.3   1 <1>  -0.2400 
 27 H       -3.0060    -0.0620     1.0730 H     1 <1>   0.0800 
 28 H       -6.0470    -1.0710    -0.3770 H     1 <1>   0.0800 
 29 H       -5.4810    -1.2250    -2.0120 H     1 <1>   0.0800 
 30 H       -2.3600     2.2060    -2.6030 H     1 <1>   0.1500 
 31 H       -4.1760     2.1950     1.2360 H     1 <1>   0.1500 
 32 H       -2.2870    -2.7650     0.1920 H     1 <1>   0.0800 
 33 H       -4.0150    -3.0750    -1.4010 H     1 <1>   0.0800 
 34 H       -5.6070    -3.3990    -0.7500 H     1 <1>   0.0800 
 35 H       -0.8080     3.9550    -1.8720 H     1 <1>   0.1500 
 36 H       -2.6240     3.9370     1.9850 H     1 <1>   0.1500 
 37 H       -0.7780     0.6470     1.0980 H     1 <1>   0.1500 
 38 H       -2.2090    -1.5140    -2.2960 H     1 <1>   0.1500 
 39 H       -2.5790    -3.3030     2.5380 H     1 <1>   0.0800 
 40 H       -3.4010    -1.7790     2.8230 H     1 <1>   0.0800 
 41 H        1.3470     1.0290    -0.0460 H     1 <1>   0.1500 
 42 H       -0.0720    -1.1320    -3.4320 H     1 <1>   0.1500 
 43 H       -0.6960    -2.1000     2.0380 H     1 <1>   0.4000 
 44 H       -0.3970     5.7890    -0.2470 H     1 <1>   0.0800 
 45 H       -1.0690     5.7180     1.3550 H     1 <1>   0.0800 
 46 H        1.7120     0.1390    -2.3120 H     1 <1>   0.1500 
 47 H        0.4230     3.8110     1.8980 H     1 <1>   0.0800 
 48 H        1.0960     3.8830     0.2940 H     1 <1>   0.0800 
 49 H        1.9270     6.1810     0.7450 H     1 <1>   0.0800 
 50 H        1.2550     6.1080     2.3520 H     1 <1>   0.0800 
 51 H        3.4210     4.2720     1.2790 H     1 <1>   0.0800 
 52 H        2.7460     4.1980     2.8910 H     1 <1>   0.0800 
 53 H        3.6640     5.5960     2.3910 H     1 <1>   0.0800 
@<TRIPOS>BOND
  1   1   2  2   
  2   2   3  am  
  3   2   4  1   
  4   3   5  1   
  5   3   6  1   
  6   4   7  ar  
  7   4   8  ar  
  8   5   9  1   
  9   5  10  1   
 10   5  27  1   
 11   6  11  1   
 12   6  28  1   
 13   6  29  1   
 14   7  12  ar  
 15   7  30  1   
 16   8  13  ar  
 17   8  31  1   
 18   9  14  ar  
 19   9  15  ar  
 20  10  16  1   
 21  10  17  1   
 22  10  32  1   
 23  11  16  1   
 24  11  33  1   
 25  11  34  1   
 26  12  18  ar  
 27  12  35  1   
 28  13  18  ar  
 29  13  36  1   
 30  14  19  ar  
 31  14  37  1   
 32  15  20  ar  
 33  15  38  1   
 34  17  21  1   
 35  17  39  1   
 36  17  40  1   
 37  18  22  1   
 38  19  23  ar  
 39  19  41  1   
 40  20  23  ar  
 41  20  42  1   
 42  21  43  1   
 43  22  24  1   
 44  22  44  1   
 45  22  45  1   
 46  23  46  1   
 47  24  25  1   
 48  24  47  1   
 49  24  48  1   
 50  25  26  1   
 51  25  49  1   
 52  25  50  1   
 53  26  51  1   
 54  26  52  1   
 55  26  53  1   
@<TRIPOS>SUBSTRUCTURE
  1 ****  14 GROUP 4 **** **** 0

# MOE 2024.06 (io_trps.svl 2023.06)
