@<TRIPOS>MOLECULE
NONAME
47 49 1 0 0 
SMALL
USER_CHARGES


@<TRIPOS>ATOM
  1 CL      -0.1310    -0.0930     0.9060 Cl    1 <1>  -0.1770 
  2 C       -0.3290    -1.7560     0.3910 C.ar  1 <1>   0.1770 
  3 C       -1.4540    -2.4850     0.7760 C.ar  1 <1>  -0.0090 
  4 C        0.6730    -2.2910    -0.4160 C.ar  1 <1>  -0.1440 
  5 S       -2.7870    -1.8220     1.8140 S.o2  1 <1>   1.4470 
  6 C       -1.5590    -3.7900     0.3030 C.ar  1 <1>  -0.1500 
  7 C        0.5220    -3.6000    -0.8530 C.ar  1 <1>   0.1770 
  8 C        1.8880    -1.4430    -0.7960 C.3   1 <1>  -0.0970 
  9 O       -3.4210    -2.9480     2.4670 O.2   1 <1>  -0.6500 
 10 O       -2.3850    -0.7090     2.6450 O.2   1 <1>  -0.6500 
 11 N       -3.9100    -1.2240     0.6940 N.am  1 <1>  -0.8490 
 12 C       -0.5830    -4.3480    -0.5010 C.ar  1 <1>  -0.1500 
 13 CL       1.7150    -4.3680    -1.8740 Cl    1 <1>  -0.1770 
 14 C       -5.2370    -1.0610     1.3160 C.3   1 <1>   0.1960 
 15 C       -3.4750     0.0340     0.0780 C.3   1 <1>   0.1960 
 16 C       -6.3300    -0.6560     0.2960 C.3   1 <1>   0.0000 
 17 C       -4.4650     0.4750    -1.0030 C.3   1 <1>  -0.1600 
 18 C       -7.6720    -0.4970     1.0410 C.3   1 <1>   0.2000 
 19 C       -5.8820     0.6280    -0.4360 C.3   1 <1>  -0.1600 
 20 C       -6.6170    -1.8150    -0.6760 C.3   1 <1>  -0.1600 
 21 O       -8.5610     0.2450     0.2560 O.3   1 <1>  -0.5600 
 22 C       -8.2210    -1.9220     1.1810 C.3   1 <1>  -0.1600 
 23 C       -7.5980    -2.7450     0.0460 C.3   1 <1>  -0.1600 
 24 C       -9.5770     0.8890     0.9580 C.3   1 <1>   0.0400 
 25 H       -2.4210    -4.3820     0.5710 H     1 <1>   0.1500 
 26 H        2.6080    -1.9890    -1.3760 H     1 <1>   0.0800 
 27 H        2.3840    -1.0930     0.0920 H     1 <1>   0.0800 
 28 H        1.5750    -0.5920    -1.3730 H     1 <1>   0.0800 
 29 H       -0.6760    -5.3600    -0.8570 H     1 <1>   0.1500 
 30 H       -5.5280    -1.9880     1.7800 H     1 <1>   0.0800 
 31 H       -5.1740    -0.3150     2.0910 H     1 <1>   0.0800 
 32 H       -3.3880     0.8040     0.8290 H     1 <1>   0.0800 
 33 H       -2.5130    -0.1000    -0.3820 H     1 <1>   0.0800 
 34 H       -4.1420     1.4130    -1.4180 H     1 <1>   0.0800 
 35 H       -4.4630    -0.2520    -1.7970 H     1 <1>   0.0800 
 36 H       -7.5440    -0.0030     1.9900 H     1 <1>   0.0800 
 37 H       -6.5650     0.8650    -1.2330 H     1 <1>   0.0800 
 38 H       -5.8960     1.4510     0.2580 H     1 <1>   0.0800 
 39 H       -7.1030    -1.4270    -1.5550 H     1 <1>   0.0800 
 40 H       -5.7240    -2.3330    -0.9810 H     1 <1>   0.0800 
 41 H       -7.9050    -2.3310     2.1240 H     1 <1>   0.0800 
 42 H       -9.2950    -1.9470     1.1420 H     1 <1>   0.0800 
 43 H       -7.0750    -3.5950     0.4520 H     1 <1>   0.0800 
 44 H       -8.3530    -3.0940    -0.6380 H     1 <1>   0.0800 
 45 H      -10.2050     1.3940     0.2460 H     1 <1>   0.0800 
 46 H       -9.1420     1.6070     1.6300 H     1 <1>   0.0800 
 47 H      -10.1570     0.1630     1.5010 H     1 <1>   0.0800 
@<TRIPOS>BOND
  1   1   2  1   
  2   2   3  ar  
  3   2   4  ar  
  4   3   5  1   
  5   3   6  ar  
  6   4   7  ar  
  7   4   8  1   
  8   5   9  2   
  9   5  10  2   
 10   5  11  am  
 11   6  12  ar  
 12   6  25  1   
 13   7  12  ar  
 14   7  13  1   
 15   8  26  1   
 16   8  27  1   
 17   8  28  1   
 18  11  14  1   
 19  11  15  1   
 20  12  29  1   
 21  14  16  1   
 22  14  30  1   
 23  14  31  1   
 24  15  17  1   
 25  15  32  1   
 26  15  33  1   
 27  16  18  1   
 28  16  19  1   
 29  16  20  1   
 30  17  19  1   
 31  17  34  1   
 32  17  35  1   
 33  18  21  1   
 34  18  22  1   
 35  18  36  1   
 36  19  37  1   
 37  19  38  1   
 38  20  23  1   
 39  20  39  1   
 40  20  40  1   
 41  21  24  1   
 42  22  23  1   
 43  22  41  1   
 44  22  42  1   
 45  23  43  1   
 46  23  44  1   
 47  24  45  1   
 48  24  46  1   
 49  24  47  1   
@<TRIPOS>SUBSTRUCTURE
  1 ****  11 GROUP 4 **** **** 0

# MOE 2024.06 (io_trps.svl 2023.06)
