@<TRIPOS>MOLECULE
NONAME
51 53 1 0 0 
SMALL
USER_CHARGES


@<TRIPOS>ATOM
  1 F        0.4970    -0.2230     0.1500 F     1 <1>  -0.1900 
  2 C        1.0240    -1.4160     0.0860 C.ar  1 <1>   0.1900 
  3 C        2.3950    -1.5460     0.1960 C.ar  1 <1>  -0.1500 
  4 C        0.1920    -2.5040    -0.0900 C.ar  1 <1>  -0.1500 
  5 C        2.9480    -2.8140     0.1310 C.ar  1 <1>  -0.1500 
  6 C        0.7560    -3.7670    -0.1540 C.ar  1 <1>  -0.1500 
  7 C        2.1360    -3.9360    -0.0360 C.ar  1 <1>  -0.0230 
  8 N        2.7160    -5.2340    -0.0850 N.pl3 1 <1>   0.5930 
  9 N        3.5830    -5.6100    -1.0550 N.2   1 <1>  -0.7070 
 10 C        2.5350    -6.2620     0.7920 C.2   1 <1>  -0.3320 
 11 C        3.9170    -6.8260    -0.7890 C.2   1 <1>   0.1080 
 12 C        3.2830    -7.3010     0.3550 C.2   1 <1>  -0.1810 
 13 C        1.6430    -6.1580     2.0230 C.3   1 <1>  -0.0600 
 14 C        4.9000    -7.5780    -1.6630 C.3   1 <1>  -0.0590 
 15 C        3.4350    -8.6910     0.9320 C.3   1 <1>   0.5240 
 16 N        2.1740    -9.4430     0.7370 N.4   1 <1>  -0.9590 
 17 C        2.2100   -10.7650     1.4360 C.3   1 <1>   0.5240 
 18 C        1.7370    -9.5170    -0.6950 C.3   1 <1>   0.3430 
 19 C        0.9620   -11.6090     1.2020 C.2   1 <1>   0.0460 
 20 C        0.2300    -9.1990    -0.8080 C.3   1 <1>   0.1200 
 21 N        0.8110   -12.3150     0.0630 N.2   1 <1>  -0.5650 
 22 C       -0.0940   -11.7970     2.0250 C.2   1 <1>  -0.3020 
 23 O       -0.1840    -8.3700     0.2440 O.3   1 <1>  -0.6800 
 24 C       -0.3220   -12.9210     0.2160 C.2   1 <1>   0.0060 
 25 N       -0.9260   -12.6450     1.3920 N.pl3 1 <1>   0.0330 
 26 C       -0.9240   -13.8580    -0.8110 C.3   1 <1>  -0.0600 
 27 H        3.0110    -0.6740     0.3250 H     1 <1>   0.1500 
 28 H       -0.8700    -2.3590    -0.1780 H     1 <1>   0.1500 
 29 H        4.0150    -2.9380     0.2050 H     1 <1>   0.1500 
 30 H        0.1240    -4.6250    -0.3000 H     1 <1>   0.1500 
 31 H        1.9300    -5.3060     2.6150 H     1 <1>   0.0800 
 32 H        1.7230    -7.0360     2.6370 H     1 <1>   0.0800 
 33 H        0.6150    -6.0400     1.7310 H     1 <1>   0.0800 
 34 H        4.9770    -7.0900    -2.6190 H     1 <1>   0.0800 
 35 H        4.5820    -8.5900    -1.8220 H     1 <1>   0.0800 
 36 H        5.8710    -7.5730    -1.2030 H     1 <1>   0.0800 
 37 H        3.6560    -8.6080     1.9840 H     1 <1>   0.0800 
 38 H        4.2530    -9.2000     0.4500 H     1 <1>   0.0800 
 39 H        1.4060    -8.8780     1.1420 H     1 <1>   0.4500 
 40 H        2.3180   -10.6060     2.4960 H     1 <1>   0.0800 
 41 H        3.0590   -11.3340     1.0960 H     1 <1>   0.0800 
 42 H        1.9450   -10.4870    -1.1180 H     1 <1>   0.0800 
 43 H        2.2660    -8.7850    -1.2810 H     1 <1>   0.0800 
 44 H       -0.3490   -10.1050    -0.7670 H     1 <1>   0.0800 
 45 H        0.0250    -8.7040    -1.7420 H     1 <1>   0.0800 
 46 H       -0.3020   -11.3980     3.0020 H     1 <1>   0.1500 
 47 H       -1.1360    -8.1500     0.1450 H     1 <1>   0.4000 
 48 H       -1.8200   -13.0200     1.7270 H     1 <1>   0.2700 
 49 H       -0.2740   -13.9330    -1.6640 H     1 <1>   0.0800 
 50 H       -1.8790   -13.4890    -1.1360 H     1 <1>   0.0800 
 51 H       -1.0460   -14.8380    -0.3880 H     1 <1>   0.0800 
@<TRIPOS>BOND
  1   1   2  1   
  2   2   3  ar  
  3   2   4  ar  
  4   3   5  ar  
  5   3  27  1   
  6   4   6  ar  
  7   4  28  1   
  8   5   7  ar  
  9   5  29  1   
 10   6   7  ar  
 11   6  30  1   
 12   7   8  1   
 13   8   9  1   
 14   8  10  1   
 15   9  11  2   
 16  10  12  2   
 17  10  13  1   
 18  11  12  1   
 19  11  14  1   
 20  12  15  1   
 21  13  31  1   
 22  13  32  1   
 23  13  33  1   
 24  14  34  1   
 25  14  35  1   
 26  14  36  1   
 27  15  16  1   
 28  15  37  1   
 29  15  38  1   
 30  16  17  1   
 31  16  18  1   
 32  16  39  1   
 33  17  19  1   
 34  17  40  1   
 35  17  41  1   
 36  18  20  1   
 37  18  42  1   
 38  18  43  1   
 39  19  21  1   
 40  19  22  2   
 41  20  23  1   
 42  20  44  1   
 43  20  45  1   
 44  21  24  2   
 45  22  25  1   
 46  22  46  1   
 47  23  47  1   
 48  24  25  1   
 49  24  26  1   
 50  25  48  1   
 51  26  49  1   
 52  26  50  1   
 53  26  51  1   
@<TRIPOS>SUBSTRUCTURE
  1 ****  10 GROUP 4 **** **** 0

# MOE 2024.06 (io_trps.svl 2023.06)
