@<TRIPOS>MOLECULE
NONAME
46 48 1 0 0 
SMALL
USER_CHARGES


@<TRIPOS>ATOM
  1 F        1.4450     0.6860     1.5440 F     1 <1>  -0.1900 
  2 C        2.1490     1.2590     0.6030 C.ar  1 <1>   0.1900 
  3 C        2.0600     2.6310     0.4130 C.ar  1 <1>  -0.1440 
  4 C        2.9620     0.4450    -0.1620 C.ar  1 <1>  -0.1500 
  5 C        2.8430     3.2150    -0.5900 C.ar  1 <1>   0.0860 
  6 C        1.1320     3.5000     1.2630 C.3   1 <1>  -0.0970 
  7 C        3.7200     1.0200    -1.1650 C.ar  1 <1>  -0.1500 
  8 C        2.8450     4.6440    -0.8350 C.2   1 <1>   0.5440 
  9 C        3.6530     2.3870    -1.3720 C.ar  1 <1>  -0.1500 
 10 O        2.1100     5.0960    -1.6920 O.2   1 <1>  -0.5700 
 11 N        3.6690     5.4970    -0.1250 N.am  1 <1>  -0.6600 
 12 C        4.6150     5.0060     0.9240 C.3   1 <1>   0.1400 
 13 C        3.6550     6.9700    -0.3750 C.3   1 <1>   0.1400 
 14 C        5.9770     4.6350     0.3210 C.3   1 <1>   0.1400 
 15 C        5.0550     7.5900    -0.4840 C.3   1 <1>  -0.1600 
 16 N        6.7600     5.8360    -0.1150 N.am  1 <1>  -0.6600 
 17 C        6.0990     6.6840    -1.1490 C.3   1 <1>   0.1400 
 18 C        8.0020     6.0930     0.4220 C.2   1 <1>   0.5770 
 19 O        8.4840     5.3590     1.2550 O.2   1 <1>  -0.5700 
 20 C        8.8170     7.3100    -0.0240 C.3   1 <1>   0.0530 
 21 C       10.1140     7.6210     0.7800 C.3   1 <1>   0.0000 
 22 C        8.2820     8.6760     0.4850 C.3   1 <1>   0.0000 
 23 C        9.7610     9.1210     0.6110 C.3   1 <1>   0.0000 
 24 H        2.9950    -0.6130     0.0240 H     1 <1>   0.1500 
 25 H        0.4670     2.9080     1.8640 H     1 <1>   0.0800 
 26 H        0.5300     4.1250     0.6270 H     1 <1>   0.0800 
 27 H        1.7090     4.1300     1.9150 H     1 <1>   0.0800 
 28 H        4.3550     0.4080    -1.7820 H     1 <1>   0.1500 
 29 H        4.2370     2.8340    -2.1580 H     1 <1>   0.1500 
 30 H        4.2030     4.1360     1.4030 H     1 <1>   0.0800 
 31 H        4.7480     5.7540     1.6860 H     1 <1>   0.0800 
 32 H        3.1060     7.4530     0.4150 H     1 <1>   0.0800 
 33 H        3.1320     7.1720    -1.2940 H     1 <1>   0.0800 
 34 H        5.8370     3.9790    -0.5190 H     1 <1>   0.0800 
 35 H        6.5280     4.0840     1.0630 H     1 <1>   0.0800 
 36 H        5.3970     7.8890     0.4910 H     1 <1>   0.0800 
 37 H        4.9610     8.4870    -1.0670 H     1 <1>   0.0800 
 38 H        6.8270     7.2920    -1.6530 H     1 <1>   0.0800 
 39 H        5.6350     6.0600    -1.8950 H     1 <1>   0.0800 
 40 H        9.0110     7.3190    -1.0840 H     1 <1>   0.0000 
 41 H       11.0190     7.3290     0.2780 H     1 <1>   0.0000 
 42 H       10.0760     7.3150     1.8120 H     1 <1>   0.0000 
 43 H        7.7880     8.6070     1.4400 H     1 <1>   0.0000 
 44 H        7.7250     9.2310    -0.2490 H     1 <1>   0.0000 
 45 H       10.1490     9.5400    -0.3020 H     1 <1>   0.0000 
 46 H        9.9650     9.7180     1.4820 H     1 <1>   0.0000 
@<TRIPOS>BOND
  1   1   2  1   
  2   2   3  ar  
  3   2   4  ar  
  4   3   5  ar  
  5   3   6  1   
  6   4   7  ar  
  7   4  24  1   
  8   5   8  1   
  9   5   9  ar  
 10   6  25  1   
 11   6  26  1   
 12   6  27  1   
 13   7   9  ar  
 14   7  28  1   
 15   8  10  2   
 16   8  11  am  
 17   9  29  1   
 18  11  12  1   
 19  11  13  1   
 20  12  14  1   
 21  12  30  1   
 22  12  31  1   
 23  13  15  1   
 24  13  32  1   
 25  13  33  1   
 26  14  16  1   
 27  14  34  1   
 28  14  35  1   
 29  15  17  1   
 30  15  36  1   
 31  15  37  1   
 32  16  17  1   
 33  16  18  am  
 34  17  38  1   
 35  17  39  1   
 36  18  19  2   
 37  18  20  1   
 38  20  21  1   
 39  20  22  1   
 40  20  40  1   
 41  21  23  1   
 42  21  41  1   
 43  21  42  1   
 44  22  23  1   
 45  22  43  1   
 46  22  44  1   
 47  23  45  1   
 48  23  46  1   
@<TRIPOS>SUBSTRUCTURE
  1 ****  12 GROUP 4 **** **** 0

# MOE 2024.06 (io_trps.svl 2023.06)
