@<TRIPOS>MOLECULE
NONAME
49 51 1 0 0 
SMALL
USER_CHARGES


@<TRIPOS>ATOM
  1 F       -1.5170    -1.0590     1.7050 F     1 <1>  -0.1900 
  2 C       -2.4670    -1.3350     0.8500 C.ar  1 <1>   0.1900 
  3 C       -2.4380    -2.5420     0.1670 C.ar  1 <1>  -0.1440 
  4 C       -3.4660    -0.3980     0.6670 C.ar  1 <1>  -0.1500 
  5 C       -3.4640    -2.7990    -0.7300 C.ar  1 <1>  -0.1500 
  6 C       -1.3270    -3.5550     0.3930 C.3   1 <1>  -0.0960 
  7 C       -4.4830    -0.6640    -0.2380 C.ar  1 <1>  -0.1430 
  8 C       -4.4740    -1.8690    -0.9270 C.ar  1 <1>  -0.1500 
  9 C       -5.5960     0.3530    -0.4790 C.3   1 <1>   0.0450 
 10 C       -6.9370     0.0310     0.1780 C.2   1 <1>   0.5690 
 11 O       -7.0350    -0.9760     0.8410 O.2   1 <1>  -0.5700 
 12 N       -8.0090     0.8750     0.0000 N.am  1 <1>  -0.6600 
 13 C       -9.3450     0.5660     0.6020 C.3   1 <1>   0.1400 
 14 C       -8.0260     2.1060    -0.8370 C.3   1 <1>   0.1400 
 15 C      -10.4080     0.3500    -0.5050 C.3   1 <1>   0.0000 
 16 C       -9.0400     1.9330    -1.9740 C.3   1 <1>  -0.1600 
 17 C      -11.7940     0.0660     0.1000 C.3   1 <1>   0.2000 
 18 C      -10.4390     1.5810    -1.4390 C.3   1 <1>  -0.1600 
 19 C      -10.1300    -0.9580    -1.2670 C.3   1 <1>  -0.1600 
 20 O      -12.0460     0.8820     1.2060 O.3   1 <1>  -0.5600 
 21 C      -11.7830    -1.4160     0.4850 C.3   1 <1>  -0.1600 
 22 C      -10.7050    -2.0730    -0.3880 C.3   1 <1>  -0.1600 
 23 C      -13.3720     0.9050     1.6290 C.3   1 <1>   0.0400 
 24 H       -3.4400     0.5180     1.2280 H     1 <1>   0.1500 
 25 H       -3.4870    -3.7250    -1.2770 H     1 <1>   0.1500 
 26 H       -1.4660    -4.4250    -0.2220 H     1 <1>   0.0800 
 27 H       -1.3170    -3.8610     1.4240 H     1 <1>   0.0800 
 28 H       -0.3760    -3.1140     0.1540 H     1 <1>   0.0800 
 29 H       -5.2660    -2.0940    -1.6210 H     1 <1>   0.1500 
 30 H       -5.7540     0.4300    -1.5380 H     1 <1>   0.0800 
 31 H       -5.2750     1.3140    -0.1240 H     1 <1>   0.0800 
 32 H       -9.2870    -0.3010     1.2350 H     1 <1>   0.0800 
 33 H       -9.6340     1.3940     1.2250 H     1 <1>   0.0800 
 34 H       -8.3150     2.9390    -0.2200 H     1 <1>   0.0800 
 35 H       -7.0570     2.3210    -1.2480 H     1 <1>   0.0800 
 36 H       -9.0950     2.8460    -2.5400 H     1 <1>   0.0800 
 37 H       -8.6950     1.1590    -2.6370 H     1 <1>   0.0800 
 38 H      -12.5480     0.2450    -0.6480 H     1 <1>   0.0800 
 39 H      -11.1080     1.4080    -2.2630 H     1 <1>   0.0800 
 40 H      -10.8180     2.4210    -0.8830 H     1 <1>   0.0800 
 41 H      -10.6580    -0.9500    -2.2050 H     1 <1>   0.0800 
 42 H       -9.0840    -1.1140    -1.4660 H     1 <1>   0.0800 
 43 H      -11.5200    -1.5300     1.5230 H     1 <1>   0.0800 
 44 H      -12.7450    -1.8610     0.3040 H     1 <1>   0.0800 
 45 H       -9.9260    -2.4720     0.2410 H     1 <1>   0.0800 
 46 H      -11.1080    -2.8710    -0.9880 H     1 <1>   0.0800 
 47 H      -13.4440     1.5780     2.4650 H     1 <1>   0.0800 
 48 H      -13.6690    -0.0830     1.9360 H     1 <1>   0.0800 
 49 H      -13.9960     1.2570     0.8260 H     1 <1>   0.0800 
@<TRIPOS>BOND
  1   1   2  1   
  2   2   3  ar  
  3   2   4  ar  
  4   3   5  ar  
  5   3   6  1   
  6   4   7  ar  
  7   4  24  1   
  8   5   8  ar  
  9   5  25  1   
 10   6  26  1   
 11   6  27  1   
 12   6  28  1   
 13   7   8  ar  
 14   7   9  1   
 15   8  29  1   
 16   9  10  1   
 17   9  30  1   
 18   9  31  1   
 19  10  11  2   
 20  10  12  am  
 21  12  13  1   
 22  12  14  1   
 23  13  15  1   
 24  13  32  1   
 25  13  33  1   
 26  14  16  1   
 27  14  34  1   
 28  14  35  1   
 29  15  17  1   
 30  15  18  1   
 31  15  19  1   
 32  16  18  1   
 33  16  36  1   
 34  16  37  1   
 35  17  20  1   
 36  17  21  1   
 37  17  38  1   
 38  18  39  1   
 39  18  40  1   
 40  19  22  1   
 41  19  41  1   
 42  19  42  1   
 43  20  23  1   
 44  21  22  1   
 45  21  43  1   
 46  21  44  1   
 47  22  45  1   
 48  22  46  1   
 49  23  47  1   
 50  23  48  1   
 51  23  49  1   
@<TRIPOS>SUBSTRUCTURE
  1 ****  10 GROUP 4 **** **** 0

# MOE 2024.06 (io_trps.svl 2023.06)
