@<TRIPOS>MOLECULE
NONAME
47 49 1 0 0 
SMALL
USER_CHARGES


@<TRIPOS>ATOM
  1 O       -2.2710     0.0220     2.3740 O.2   1 <1>  -0.5700 
  2 C       -2.2390     0.6020     1.3040 C.2   1 <1>   0.7160 
  3 N       -2.5170    -0.0860     0.1450 N.am  1 <1>  -0.6600 
  4 C       -1.9440     2.0120     1.2630 C.2   1 <1>  -0.0860 
  5 C       -2.5540    -1.5880     0.1550 C.3   1 <1>   0.3640 
  6 C       -3.0410     0.6430    -1.0510 C.3   1 <1>   0.1400 
  7 C       -0.9820     2.7290     0.6130 C.2   1 <1>  -0.3320 
  8 C       -2.6680     2.9880     1.9470 C.2   1 <1>   0.1390 
  9 C       -1.1450    -2.1310    -0.1020 C.ar  1 <1>  -0.1440 
 10 C       -3.5610    -2.2340    -0.8450 C.3   1 <1>   0.2000 
 11 C       -3.6280    -0.2790    -2.1270 C.3   1 <1>   0.1200 
 12 N       -1.1810     4.0300     0.9060 N.pl3 1 <1>   0.3140 
 13 C        0.1460     2.1980    -0.2610 C.3   1 <1>  -0.0600 
 14 N       -2.2320     4.1880     1.7290 N.2   1 <1>  -0.7070 
 15 C       -0.6260    -3.0960     0.7490 C.ar  1 <1>  -0.1500 
 16 C       -0.3700    -1.6960    -1.1710 C.ar  1 <1>  -0.1500 
 17 O       -4.3570    -1.2990    -1.5280 O.3   1 <1>  -0.5600 
 18 C       -4.5180    -3.2120    -0.1500 C.3   1 <1>   0.1200 
 19 C       -0.3940     5.1980     0.4540 C.3   1 <1>   0.0960 
 20 C        0.6370    -3.6210     0.5370 C.ar  1 <1>  -0.1500 
 21 C        0.8930    -2.2200    -1.3860 C.ar  1 <1>  -0.1500 
 22 O       -3.8140    -4.2600     0.4370 O.3   1 <1>  -0.6800 
 23 C       -0.9020     5.7220    -0.8950 C.3   1 <1>  -0.2400 
 24 C        1.3970    -3.1850    -0.5320 C.ar  1 <1>  -0.1500 
 25 H       -2.8440    -1.9090     1.1410 H     1 <1>   0.0800 
 26 H       -3.8140     1.3200    -0.7290 H     1 <1>   0.0800 
 27 H       -2.2550     1.2340    -1.4850 H     1 <1>   0.0800 
 28 H       -3.5050     2.7660     2.5880 H     1 <1>   0.1500 
 29 H       -3.0170    -2.7790    -1.5950 H     1 <1>   0.0800 
 30 H       -2.8560    -0.7110    -2.7380 H     1 <1>   0.0800 
 31 H       -4.2950     0.2770    -2.7630 H     1 <1>   0.0800 
 32 H        0.1230     1.1230    -0.2910 H     1 <1>   0.0800 
 33 H        1.0970     2.4980     0.1400 H     1 <1>   0.0800 
 34 H        0.0530     2.5720    -1.2640 H     1 <1>   0.0800 
 35 H       -1.2070    -3.4450     1.5870 H     1 <1>   0.1500 
 36 H       -0.7420    -0.9450    -1.8410 H     1 <1>   0.1500 
 37 H       -5.2110    -3.6300    -0.8590 H     1 <1>   0.0800 
 38 H       -5.0640    -2.7050     0.6280 H     1 <1>   0.0800 
 39 H       -0.4830     5.9660     1.2010 H     1 <1>   0.0800 
 40 H        0.6390     4.9120     0.3830 H     1 <1>   0.0800 
 41 H        1.0260    -4.3690     1.2060 H     1 <1>   0.1500 
 42 H        1.4850    -1.8780    -2.2160 H     1 <1>   0.1500 
 43 H       -3.3960    -4.8280    -0.2410 H     1 <1>   0.4000 
 44 H       -1.9340     6.0160    -0.8070 H     1 <1>   0.0800 
 45 H       -0.8100     4.9650    -1.6530 H     1 <1>   0.0800 
 46 H       -0.3270     6.5800    -1.1930 H     1 <1>   0.0800 
 47 H        2.3790    -3.5930    -0.6970 H     1 <1>   0.1500 
@<TRIPOS>BOND
  1   1   2  2   
  2   2   3  am  
  3   2   4  1   
  4   3   5  1   
  5   3   6  1   
  6   4   7  2   
  7   4   8  1   
  8   5   9  1   
  9   5  10  1   
 10   5  25  1   
 11   6  11  1   
 12   6  26  1   
 13   6  27  1   
 14   7  12  1   
 15   7  13  1   
 16   8  14  2   
 17   8  28  1   
 18   9  15  ar  
 19   9  16  ar  
 20  10  17  1   
 21  10  18  1   
 22  10  29  1   
 23  11  17  1   
 24  11  30  1   
 25  11  31  1   
 26  12  14  1   
 27  12  19  1   
 28  13  32  1   
 29  13  33  1   
 30  13  34  1   
 31  15  20  ar  
 32  15  35  1   
 33  16  21  ar  
 34  16  36  1   
 35  18  22  1   
 36  18  37  1   
 37  18  38  1   
 38  19  23  1   
 39  19  39  1   
 40  19  40  1   
 41  20  24  ar  
 42  20  41  1   
 43  21  24  ar  
 44  21  42  1   
 45  22  43  1   
 46  23  44  1   
 47  23  45  1   
 48  23  46  1   
 49  24  47  1   
@<TRIPOS>SUBSTRUCTURE
  1 ****   3 GROUP 4 **** **** 0

# MOE 2024.06 (io_trps.svl 2023.06)
