@<TRIPOS>MOLECULE
NONAME
46 48 1 0 0 
SMALL
USER_CHARGES


@<TRIPOS>ATOM
  1 O        0.3800     0.0940    -0.3920 O.2   1 <1>  -0.5700 
  2 C        0.3240     1.3050    -0.4620 C.2   1 <1>   0.5690 
  3 N       -0.7910     1.9540    -0.9260 N.am  1 <1>  -0.6600 
  4 C        1.5630     2.1130     0.0180 C.3   1 <1>   0.2510 
  5 C       -0.7980     3.4390    -1.0040 C.3   1 <1>   0.1400 
  6 C       -2.1590     1.2960    -0.9160 C.3   1 <1>   0.0340 
  7 N        1.4310     3.6040     0.0780 N.3   1 <1>  -0.8100 
  8 C        2.7760     1.8150    -0.8730 C.3   1 <1>  -0.2400 
  9 C        0.0130     4.0270     0.1530 C.3   1 <1>   0.1100 
 10 C       -3.2060     1.8650     0.0570 C.2   1 <1>   0.9060 
 11 C        2.1950     4.1670     1.2030 C.3   1 <1>   0.2540 
 12 O       -2.8600     2.5120     1.0580 O.co2 1 <1>  -0.9000 
 13 O       -4.4000     1.6870    -0.2140 O.co2 1 <1>  -0.9000 
 14 C        2.2700     5.6870     1.1160 C.ar  1 <1>  -0.1440 
 15 C        1.8580     6.4800     2.1760 C.ar  1 <1>  -0.1500 
 16 C        2.7520     6.2990    -0.0290 C.ar  1 <1>  -0.1500 
 17 C        1.9330     7.8580     2.0890 C.ar  1 <1>  -0.1500 
 18 C        2.8240     7.6770    -0.1100 C.ar  1 <1>  -0.1500 
 19 C        2.4180     8.4920     0.9460 C.ar  1 <1>   0.0530 
 20 C        2.4940     9.9350     0.8590 C.2   1 <1>   0.0870 
 21 O        2.8720    10.5210    -0.2710 O.3   1 <1>  -0.2800 
 22 C        2.2340    10.9050     1.7780 C.2   1 <1>  -0.1500 
 23 C        2.8610    11.8240    -0.1020 C.2   1 <1>  -0.0400 
 24 C        2.4720    12.1300     1.1530 C.2   1 <1>  -0.1500 
 25 C        3.2580    12.7110    -1.2600 C.3   1 <1>  -0.0600 
 26 H        1.7690     1.7460     1.0080 H     1 <1>   0.0800 
 27 H       -1.8050     3.8130    -0.9480 H     1 <1>   0.0800 
 28 H       -0.3740     3.7520    -1.9410 H     1 <1>   0.0800 
 29 H       -2.0540     0.2550    -0.6790 H     1 <1>   0.0800 
 30 H       -2.5750     1.3610    -1.9020 H     1 <1>   0.0800 
 31 H        2.5810     2.1600    -1.8720 H     1 <1>   0.0800 
 32 H        2.9490     0.7540    -0.9070 H     1 <1>   0.0800 
 33 H        3.6600     2.2920    -0.4950 H     1 <1>   0.0800 
 34 H       -0.4320     3.7090     1.0830 H     1 <1>   0.0800 
 35 H       -0.0510     5.0990     0.1000 H     1 <1>   0.0800 
 36 H        3.1990     3.7830     1.1860 H     1 <1>   0.0800 
 37 H        1.7390     3.8690     2.1320 H     1 <1>   0.0800 
 38 H        1.4730     6.0240     3.0710 H     1 <1>   0.1500 
 39 H        3.0630     5.6910    -0.8610 H     1 <1>   0.1500 
 40 H        1.6060     8.4500     2.9230 H     1 <1>   0.1500 
 41 H        3.2000     8.1300    -1.0100 H     1 <1>   0.1500 
 42 H        1.9080    10.7870     2.7950 H     1 <1>   0.1500 
 43 H        2.3600    13.0990     1.6060 H     1 <1>   0.1500 
 44 H        4.2650    12.4850    -1.5600 H     1 <1>   0.0800 
 45 H        3.2000    13.7450    -0.9750 H     1 <1>   0.0800 
 46 H        2.5990    12.5380    -2.0910 H     1 <1>   0.0800 
@<TRIPOS>BOND
  1   1   2  2   
  2   2   3  am  
  3   2   4  1   
  4   3   5  1   
  5   3   6  1   
  6   4   7  1   
  7   4   8  1   
  8   4  26  1   
  9   5   9  1   
 10   5  27  1   
 11   5  28  1   
 12   6  10  1   
 13   6  29  1   
 14   6  30  1   
 15   7   9  1   
 16   7  11  1   
 17   8  31  1   
 18   8  32  1   
 19   8  33  1   
 20   9  34  1   
 21   9  35  1   
 22  10  12  ar  
 23  10  13  ar  
 24  11  14  1   
 25  11  36  1   
 26  11  37  1   
 27  14  15  ar  
 28  14  16  ar  
 29  15  17  ar  
 30  15  38  1   
 31  16  18  ar  
 32  16  39  1   
 33  17  19  ar  
 34  17  40  1   
 35  18  19  ar  
 36  18  41  1   
 37  19  20  1   
 38  20  21  1   
 39  20  22  2   
 40  21  23  1   
 41  22  24  1   
 42  22  42  1   
 43  23  24  2   
 44  23  25  1   
 45  24  43  1   
 46  25  44  1   
 47  25  45  1   
 48  25  46  1   
@<TRIPOS>SUBSTRUCTURE
  1 ****  14 GROUP 4 **** **** 0

# MOE 2024.06 (io_trps.svl 2023.06)
