@<TRIPOS>MOLECULE
NONAME
54 56 1 0 0 
SMALL
USER_CHARGES


@<TRIPOS>ATOM
  1 O        0.9700    -0.0240     1.8020 O.2   1 <1>  -0.5700 
  2 C        1.7430    -0.5120     1.0070 C.2   1 <1>   0.5690 
  3 N        2.7550     0.2450     0.4520 N.am  1 <1>  -0.6600 
  4 C        1.5660    -1.9930     0.6640 C.3   1 <1>   0.2370 
  5 C        3.6750    -0.2470    -0.6250 C.3   1 <1>   0.1400 
  6 C        2.9250     1.6810     0.8310 C.3   1 <1>   0.1400 
  7 N        0.7900    -2.0930    -0.5910 N.pl3 1 <1>   0.3140 
  8 C        0.9180    -2.8260     1.7980 C.3   1 <1>  -0.1600 
  9 C        4.9550    -0.8630    -0.0380 C.3   1 <1>   0.1400 
 10 C        4.3730     2.0640     1.1720 C.3   1 <1>  -0.1600 
 11 N        1.2920    -2.7050    -1.6860 N.2   1 <1>  -0.7070 
 12 C       -0.4520    -1.6220    -0.8300 C.2   1 <1>  -0.3020 
 13 C        0.8580    -4.3300     1.4880 C.3   1 <1>  -0.2400 
 14 N        5.8420     0.1650     0.5940 N.am  1 <1>  -0.6600 
 15 C        5.2310     0.9200     1.7260 C.3   1 <1>   0.1400 
 16 C        0.3570    -2.6100    -2.5820 C.2   1 <1>   0.1390 
 17 C       -0.7620    -1.9400    -2.1040 C.2   1 <1>  -0.1500 
 18 C        7.1210     0.3570     0.1300 C.2   1 <1>   0.5690 
 19 O        7.6020    -0.3630    -0.7130 O.2   1 <1>  -0.5700 
 20 C        7.9930     1.4890     0.6700 C.3   1 <1>  -0.0990 
 21 C        9.0570     1.9790    -0.3310 C.3   1 <1>  -0.1600 
 22 C        9.9080     3.1120     0.2600 C.3   1 <1>   0.0960 
 23 N       10.8160     3.6760    -0.7550 N.pl3 1 <1>   0.3140 
 24 N       10.5860     4.8370    -1.3510 N.2   1 <1>  -0.7070 
 25 C       11.9610     3.1730    -1.2270 C.2   1 <1>   0.0360 
 26 C       11.6050     4.9500    -2.1390 C.2   1 <1>   0.3660 
 27 N       12.4930     3.9480    -2.1020 N.2   1 <1>  -0.5650 
 28 H        2.5340    -2.4110     0.4750 H     1 <1>   0.0800 
 29 H        3.9390     0.5630    -1.2820 H     1 <1>   0.0800 
 30 H        3.1780    -0.9830    -1.2280 H     1 <1>   0.0800 
 31 H        2.3150     1.8990     1.6920 H     1 <1>   0.0800 
 32 H        2.5670     2.3000     0.0270 H     1 <1>   0.0800 
 33 H       -0.0740    -2.4580     1.9940 H     1 <1>   0.0800 
 34 H        1.4940    -2.6830     2.6960 H     1 <1>   0.0800 
 35 H        5.4760    -1.3610    -0.8370 H     1 <1>   0.0800 
 36 H        4.7020    -1.6110     0.6910 H     1 <1>   0.0800 
 37 H        4.3300     2.8460     1.9090 H     1 <1>   0.0800 
 38 H        4.8470     2.4860     0.3040 H     1 <1>   0.0800 
 39 H       -1.0310    -1.0970    -0.0900 H     1 <1>   0.1500 
 40 H        0.2410    -4.5170     0.6250 H     1 <1>   0.0800 
 41 H        0.4380    -4.8620     2.3240 H     1 <1>   0.0800 
 42 H        1.8430    -4.7180     1.2950 H     1 <1>   0.0800 
 43 H        4.6350     0.2590     2.3330 H     1 <1>   0.0800 
 44 H        6.0030     1.3180     2.3600 H     1 <1>   0.0800 
 45 H        0.4470    -3.0080    -3.5790 H     1 <1>   0.1500 
 46 H       -1.6630    -1.7330    -2.6530 H     1 <1>   0.1500 
 47 H        8.4730     1.1360     1.5650 H     1 <1>   0.0800 
 48 H        7.3700     2.3250     0.9230 H     1 <1>   0.0800 
 49 H        8.5600     2.3320    -1.2200 H     1 <1>   0.0800 
 50 H        9.6980     1.1580    -0.6070 H     1 <1>   0.0800 
 51 H       10.4950     2.7510     1.0850 H     1 <1>   0.0800 
 52 H        9.2730     3.9050     0.6110 H     1 <1>   0.0800 
 53 H       12.3670     2.2330    -0.9000 H     1 <1>   0.1500 
 54 H       11.7550     5.7930    -2.7950 H     1 <1>   0.1500 
@<TRIPOS>BOND
  1   1   2  2   
  2   2   3  am  
  3   2   4  1   
  4   3   5  1   
  5   3   6  1   
  6   4   7  1   
  7   4   8  1   
  8   4  28  1   
  9   5   9  1   
 10   5  29  1   
 11   5  30  1   
 12   6  10  1   
 13   6  31  1   
 14   6  32  1   
 15   7  11  1   
 16   7  12  1   
 17   8  13  1   
 18   8  33  1   
 19   8  34  1   
 20   9  14  1   
 21   9  35  1   
 22   9  36  1   
 23  10  15  1   
 24  10  37  1   
 25  10  38  1   
 26  11  16  2   
 27  12  17  2   
 28  12  39  1   
 29  13  40  1   
 30  13  41  1   
 31  13  42  1   
 32  14  15  1   
 33  14  18  am  
 34  15  43  1   
 35  15  44  1   
 36  16  17  1   
 37  16  45  1   
 38  17  46  1   
 39  18  19  2   
 40  18  20  1   
 41  20  21  1   
 42  20  47  1   
 43  20  48  1   
 44  21  22  1   
 45  21  49  1   
 46  21  50  1   
 47  22  23  1   
 48  22  51  1   
 49  22  52  1   
 50  23  24  1   
 51  23  25  1   
 52  24  26  2   
 53  25  27  2   
 54  25  53  1   
 55  26  27  1   
 56  26  54  1   
@<TRIPOS>SUBSTRUCTURE
  1 ****  14 GROUP 4 **** **** 0

# MOE 2024.06 (io_trps.svl 2023.06)
