@<TRIPOS>MOLECULE
NONAME
44 46 1 0 0 
SMALL
USER_CHARGES


@<TRIPOS>ATOM
  1 O       -0.2040    -0.5090    -0.4540 O.2   1 <1>  -0.5700 
  2 C       -0.8380    -1.4490    -0.0090 C.2   1 <1>   0.6900 
  3 N       -0.8970    -2.6860    -0.5360 N.am  1 <1>  -0.5390 
  4 N       -1.5990    -1.4240     1.1060 N.am  1 <1>  -0.5390 
  5 C       -1.7140    -3.4900     0.2740 C.2   1 <1>   0.1230 
  6 C       -2.1290    -2.6850     1.2840 C.2   1 <1>  -0.0410 
  7 C       -1.9770    -4.8880    -0.0020 C.2   1 <1>   0.6160 
  8 O       -1.2680    -5.4940    -0.7880 O.2   1 <1>  -0.5700 
  9 N       -3.0230    -5.5640     0.5870 N.am  1 <1>  -0.6600 
 10 C       -3.0310    -7.0600     0.6550 C.3   1 <1>   0.1400 
 11 C       -4.3990    -4.9860     0.6500 C.3   1 <1>   0.1400 
 12 C       -4.0260    -7.6550    -0.3560 C.3   1 <1>   0.3430 
 13 C       -5.3320    -5.6870    -0.3660 C.3   1 <1>   0.2000 
 14 O       -5.2930    -7.0740    -0.1760 O.3   1 <1>  -0.5600 
 15 C       -4.1280    -9.1670    -0.1810 C.ar  1 <1>  -0.1430 
 16 C       -6.8090    -5.2360    -0.2900 C.3   1 <1>  -0.0800 
 17 C       -3.3080   -10.0000    -0.9290 C.ar  1 <1>  -0.1500 
 18 C       -5.0140    -9.7330     0.7250 C.ar  1 <1>  -0.1500 
 19 C       -6.9740    -3.7450    -0.6240 C.3   1 <1>  -0.2400 
 20 C       -7.4800    -5.5390     1.0620 C.3   1 <1>  -0.2400 
 21 C       -3.3720   -11.3740    -0.7750 C.ar  1 <1>  -0.1500 
 22 C       -5.0800   -11.1070     0.8820 C.ar  1 <1>  -0.1500 
 23 C       -4.2580   -11.9290     0.1320 C.ar  1 <1>  -0.1500 
 24 H       -0.3550    -2.9970    -1.3420 H     1 <1>   0.3700 
 25 H       -1.6770    -0.5830     1.6790 H     1 <1>   0.3700 
 26 H       -2.7600    -2.9320     2.1220 H     1 <1>   0.1500 
 27 H       -2.0480    -7.4510     0.4570 H     1 <1>   0.0800 
 28 H       -3.3110    -7.3700     1.6460 H     1 <1>   0.0800 
 29 H       -4.7850    -5.1120     1.6450 H     1 <1>   0.0800 
 30 H       -4.3720    -3.9350     0.4290 H     1 <1>   0.0800 
 31 H       -3.6980    -7.4340    -1.3580 H     1 <1>   0.0800 
 32 H       -4.9720    -5.4870    -1.3620 H     1 <1>   0.0800 
 33 H       -7.3370    -5.7910    -1.0470 H     1 <1>   0.0800 
 34 H       -2.6130    -9.5830    -1.6380 H     1 <1>   0.1500 
 35 H       -5.6610    -9.1010     1.3110 H     1 <1>   0.1500 
 36 H       -6.5340    -3.1220     0.1340 H     1 <1>   0.0800 
 37 H       -8.0190    -3.4990    -0.6950 H     1 <1>   0.0800 
 38 H       -6.5140    -3.5200    -1.5700 H     1 <1>   0.0800 
 39 H       -7.0430    -4.9620     1.8560 H     1 <1>   0.0800 
 40 H       -7.3820    -6.5840     1.3010 H     1 <1>   0.0800 
 41 H       -8.5290    -5.3080     1.0130 H     1 <1>   0.0800 
 42 H       -2.7330   -12.0120    -1.3600 H     1 <1>   0.1500 
 43 H       -5.7730   -11.5340     1.5850 H     1 <1>   0.1500 
 44 H       -4.3090   -12.9960     0.2520 H     1 <1>   0.1500 
@<TRIPOS>BOND
  1   1   2  2   
  2   2   3  am  
  3   2   4  am  
  4   3   5  1   
  5   3  24  1   
  6   4   6  1   
  7   4  25  1   
  8   5   6  2   
  9   5   7  1   
 10   6  26  1   
 11   7   8  2   
 12   7   9  am  
 13   9  10  1   
 14   9  11  1   
 15  10  12  1   
 16  10  27  1   
 17  10  28  1   
 18  11  13  1   
 19  11  29  1   
 20  11  30  1   
 21  12  14  1   
 22  12  15  1   
 23  12  31  1   
 24  13  14  1   
 25  13  16  1   
 26  13  32  1   
 27  15  17  ar  
 28  15  18  ar  
 29  16  19  1   
 30  16  20  1   
 31  16  33  1   
 32  17  21  ar  
 33  17  34  1   
 34  18  22  ar  
 35  18  35  1   
 36  19  36  1   
 37  19  37  1   
 38  19  38  1   
 39  20  39  1   
 40  20  40  1   
 41  20  41  1   
 42  21  23  ar  
 43  21  42  1   
 44  22  23  ar  
 45  22  43  1   
 46  23  44  1   
@<TRIPOS>SUBSTRUCTURE
  1 ****   9 GROUP 4 **** **** 0

# MOE 2024.06 (io_trps.svl 2023.06)
