@<TRIPOS>MOLECULE
NONAME
58 63 1 0 0 
SMALL
USER_CHARGES


@<TRIPOS>ATOM
  1 O       -2.5450     0.5680    -2.8080 O.2   1 <1>  -0.5700 
  2 C       -2.0300     1.0580    -1.8210 C.2   1 <1>   0.5440 
  3 N       -1.8740     0.2360    -0.7210 N.am  1 <1>  -0.6600 
  4 C       -1.7140     2.4710    -1.7690 C.ar  1 <1>   0.0860 
  5 C       -2.3300     0.6980     0.6260 C.3   1 <1>   0.1400 
  6 C       -1.9750    -1.2430    -0.8920 C.3   1 <1>   0.1400 
  7 C       -0.5900     2.9550    -1.0730 C.ar  1 <1>  -0.1520 
  8 C       -2.5310     3.4200    -2.3680 C.ar  1 <1>  -0.1500 
  9 C       -3.7820     0.2380     0.9100 C.3   1 <1>   0.4230 
 10 C       -3.4320    -1.6870    -0.6740 C.3   1 <1>   0.3430 
 11 N        0.4240     2.2720    -0.4480 N.pl3 1 <1>   0.0330 
 12 C       -0.3510     4.3190    -0.9260 C.ar  1 <1>   0.0000 
 13 C       -2.2870     4.7900    -2.2450 C.ar  1 <1>  -0.1500 
 14 N       -3.9650    -1.2550     0.6780 N.4   1 <1>  -0.9590 
 15 C       -4.7920     1.0590     0.0730 C.3   1 <1>   0.1200 
 16 C        1.2620     3.1830     0.1230 C.2   1 <1>  -0.3320 
 17 C        0.8240     4.4300    -0.1510 C.2   1 <1>  -0.1810 
 18 C       -1.2100     5.2430    -1.5200 C.ar  1 <1>  -0.1500 
 19 C       -5.4090    -1.6230     0.8770 C.3   1 <1>   0.5180 
 20 O       -6.0970     0.6380     0.3450 O.3   1 <1>  -0.5600 
 21 C        2.5080     2.8560     0.9240 C.3   1 <1>   0.0200 
 22 C        1.5180     5.6960     0.3120 C.3   1 <1>   0.0210 
 23 C       -5.5950    -3.1330     0.6190 C.3   1 <1>  -0.1950 
 24 C       -6.3460    -0.7090     0.0490 C.3   1 <1>   0.1200 
 25 C        2.9870     4.1100     1.6790 C.3   1 <1>  -0.1600 
 26 C        2.9450     5.3730     0.7940 C.3   1 <1>  -0.1600 
 27 C       -5.8870    -3.7430    -0.7220 C.3   1 <1>  -0.2000 
 28 C       -6.9340    -3.7540     0.3550 C.3   1 <1>  -0.2000 
 29 H       -1.6720     0.3000     1.3780 H     1 <1>   0.0800 
 30 H       -2.2780     1.7720     0.6970 H     1 <1>   0.0800 
 31 H       -1.6600    -1.5220    -1.8840 H     1 <1>   0.0800 
 32 H       -1.3240    -1.7380    -0.1930 H     1 <1>   0.0800 
 33 H       -3.3820     3.0970    -2.9420 H     1 <1>   0.1500 
 34 H       -3.9910     0.4580     1.9440 H     1 <1>   0.0800 
 35 H       -3.4850    -2.7590    -0.7670 H     1 <1>   0.0800 
 36 H       -4.0320    -1.2580    -1.4600 H     1 <1>   0.0800 
 37 H        0.5400     1.2530    -0.4510 H     1 <1>   0.2700 
 38 H       -2.9500     5.4900    -2.7230 H     1 <1>   0.1500 
 39 H       -3.4290    -1.7550     1.3930 H     1 <1>   0.4500 
 40 H       -4.6120     0.9590    -0.9830 H     1 <1>   0.0800 
 41 H       -4.7280     2.1030     0.3300 H     1 <1>   0.0800 
 42 H       -1.0110     6.2940    -1.4090 H     1 <1>   0.1500 
 43 H       -5.6620    -1.4510     1.9110 H     1 <1>   0.0800 
 44 H        2.3070     2.0680     1.6270 H     1 <1>   0.0800 
 45 H        3.2780     2.5240     0.2490 H     1 <1>   0.0800 
 46 H        1.5590     6.4070    -0.4930 H     1 <1>   0.0800 
 47 H        0.9480     6.1240     1.1180 H     1 <1>   0.0800 
 48 H       -4.9760    -3.7050     1.2890 H     1 <1>   0.1000 
 49 H       -7.3730    -0.9050     0.3010 H     1 <1>   0.0800 
 50 H       -6.2180    -0.8600    -1.0080 H     1 <1>   0.0800 
 51 H        2.3490     4.2660     2.5320 H     1 <1>   0.0800 
 52 H        3.9870     3.9490     2.0390 H     1 <1>   0.0800 
 53 H        3.5720     5.2120    -0.0660 H     1 <1>   0.0800 
 54 H        3.3370     6.2140     1.3370 H     1 <1>   0.0800 
 55 H       -6.0860    -3.1380    -1.5910 H     1 <1>   0.1000 
 56 H       -5.4330    -4.6850    -0.9850 H     1 <1>   0.1000 
 57 H       -7.1710    -4.6970     0.8220 H     1 <1>   0.1000 
 58 H       -7.8160    -3.1560     0.1990 H     1 <1>   0.1000 
@<TRIPOS>BOND
  1   1   2  2   
  2   2   3  am  
  3   2   4  1   
  4   3   5  1   
  5   3   6  1   
  6   4   7  ar  
  7   4   8  ar  
  8   5   9  1   
  9   5  29  1   
 10   5  30  1   
 11   6  10  1   
 12   6  31  1   
 13   6  32  1   
 14   7  11  1   
 15   7  12  ar  
 16   8  13  ar  
 17   8  33  1   
 18   9  14  1   
 19   9  15  1   
 20   9  34  1   
 21  10  14  1   
 22  10  35  1   
 23  10  36  1   
 24  11  16  1   
 25  11  37  1   
 26  12  17  1   
 27  12  18  ar  
 28  13  18  ar  
 29  13  38  1   
 30  14  19  1   
 31  14  39  1   
 32  15  20  1   
 33  15  40  1   
 34  15  41  1   
 35  16  17  2   
 36  16  21  1   
 37  17  22  1   
 38  18  42  1   
 39  19  23  1   
 40  19  24  1   
 41  19  43  1   
 42  20  24  1   
 43  21  25  1   
 44  21  44  1   
 45  21  45  1   
 46  22  26  1   
 47  22  46  1   
 48  22  47  1   
 49  23  27  1   
 50  23  28  1   
 51  23  48  1   
 52  24  49  1   
 53  24  50  1   
 54  25  26  1   
 55  25  51  1   
 56  25  52  1   
 57  26  53  1   
 58  26  54  1   
 59  27  28  1   
 60  27  55  1   
 61  27  56  1   
 62  28  57  1   
 63  28  58  1   
@<TRIPOS>SUBSTRUCTURE
  1 ****   5 GROUP 4 **** **** 0

# MOE 2024.06 (io_trps.svl 2023.06)
