@<TRIPOS>MOLECULE
NONAME
59 63 1 0 0 
SMALL
USER_CHARGES


@<TRIPOS>ATOM
  1 S        1.5440    -1.8630    -0.5380 S.3   1 <1>  -0.0800 
  2 C       -0.0970    -1.2870    -0.6960 C.2   1 <1>   0.1980 
  3 C        2.0650    -0.2260    -0.2630 C.2   1 <1>  -0.1400 
  4 N       -0.2300    -0.0260    -0.5580 N.2   1 <1>  -0.5650 
  5 C       -1.1730    -2.3300    -0.9760 C.3   1 <1>   0.5230 
  6 C        0.9910     0.5820    -0.3140 C.2   1 <1>   0.0460 
  7 C        3.5500    -0.0150    -0.0320 C.3   1 <1>  -0.0600 
  8 N       -2.5290    -1.7030    -0.9140 N.4   1 <1>  -0.9590 
  9 C        0.9650     2.0860    -0.1350 C.3   1 <1>  -0.0590 
 10 C       -3.6830    -2.4880    -1.4300 C.3   1 <1>   0.3430 
 11 C       -2.9270    -1.2060     0.4380 C.3   1 <1>   0.3430 
 12 C       -4.8690    -1.6710    -0.9330 C.3   1 <1>   0.2800 
 13 C       -4.4640    -1.1320     0.4400 C.3   1 <1>  -0.0800 
 14 O       -4.9710    -0.4980    -1.6550 O.3   1 <1>  -0.5600 
 15 C       -6.3110    -2.1720    -0.9560 C.3   1 <1>  -0.1600 
 16 C       -5.1670     0.2450     0.4410 C.3   1 <1>  -0.0800 
 17 C       -5.9060     0.1800    -0.9060 C.3   1 <1>   0.2000 
 18 C       -7.0590    -0.8350    -0.8770 C.3   1 <1>  -0.1600 
 19 C       -4.2250     1.4600     0.5250 C.3   1 <1>   0.1400 
 20 N       -5.0250     2.6960     0.4380 N.am  1 <1>  -0.7300 
 21 C       -5.7320     3.2220     1.4750 C.2   1 <1>   0.5690 
 22 O       -5.5490     2.8660     2.6140 O.2   1 <1>  -0.5700 
 23 C       -6.8350     4.2180     1.1810 C.3   1 <1>   0.1570 
 24 N       -7.6840     3.6680     0.1050 N.pl3 1 <1>   0.0480 
 25 C       -8.5180     2.6000     0.1620 C.2   1 <1>   0.0060 
 26 C       -7.6500     4.0070    -1.1980 C.2   1 <1>  -0.3020 
 27 N       -8.9890     2.2490    -0.9880 N.2   1 <1>  -0.5650 
 28 C       -8.8680     1.8710     1.4460 C.3   1 <1>  -0.0600 
 29 C       -8.4540     3.1370    -1.8450 C.2   1 <1>   0.0770 
 30 H       -1.0970    -3.1240    -0.2530 H     1 <1>   0.0800 
 31 H       -1.0030    -2.7400    -1.9570 H     1 <1>   0.0800 
 32 H        3.7700     1.0240     0.1280 H     1 <1>   0.0800 
 33 H        4.1060    -0.3560    -0.8870 H     1 <1>   0.0800 
 34 H        3.8690    -0.5700     0.8320 H     1 <1>   0.0800 
 35 H       -2.4760    -0.8490    -1.4960 H     1 <1>   0.4500 
 36 H        1.9510     2.4710     0.0460 H     1 <1>   0.0800 
 37 H        0.3370     2.3420     0.6990 H     1 <1>   0.0800 
 38 H        0.5720     2.5490    -1.0210 H     1 <1>   0.0800 
 39 H       -3.6860    -2.5600    -2.5050 H     1 <1>   0.0800 
 40 H       -3.7030    -3.4700    -0.9880 H     1 <1>   0.0800 
 41 H       -2.6060    -1.9040     1.1940 H     1 <1>   0.0800 
 42 H       -2.4700    -0.2500     0.6410 H     1 <1>   0.0800 
 43 H       -4.8450    -1.7540     1.2320 H     1 <1>   0.0800 
 44 H       -6.5240    -2.6730    -1.8840 H     1 <1>   0.0800 
 45 H       -6.5380    -2.8220    -0.1300 H     1 <1>   0.0800 
 46 H       -5.8720     0.3020     1.2510 H     1 <1>   0.0800 
 47 H       -6.1660     1.1260    -1.3520 H     1 <1>   0.0800 
 48 H       -7.6550    -0.7340     0.0130 H     1 <1>   0.0800 
 49 H       -7.6930    -0.6900    -1.7360 H     1 <1>   0.0800 
 50 H       -3.5100     1.4510    -0.2810 H     1 <1>   0.0800 
 51 H       -3.6930     1.4520     1.4620 H     1 <1>   0.0800 
 52 H       -5.2830     2.9760    -0.5140 H     1 <1>   0.3700 
 53 H       -6.4100     5.1520     0.8670 H     1 <1>   0.0800 
 54 H       -7.4310     4.3750     2.0600 H     1 <1>   0.0800 
 55 H       -7.0760     4.8260    -1.5910 H     1 <1>   0.1500 
 56 H       -9.5540     1.0710     1.2340 H     1 <1>   0.0800 
 57 H       -9.3370     2.5480     2.1370 H     1 <1>   0.0800 
 58 H       -7.9870     1.4570     1.9000 H     1 <1>   0.0800 
 59 H       -8.6800     3.1000    -2.8990 H     1 <1>   0.1500 
@<TRIPOS>BOND
  1   1   2  1   
  2   1   3  1   
  3   2   4  2   
  4   2   5  1   
  5   3   6  2   
  6   3   7  1   
  7   4   6  1   
  8   5   8  1   
  9   5  30  1   
 10   5  31  1   
 11   6   9  1   
 12   7  32  1   
 13   7  33  1   
 14   7  34  1   
 15   8  10  1   
 16   8  11  1   
 17   8  35  1   
 18   9  36  1   
 19   9  37  1   
 20   9  38  1   
 21  10  12  1   
 22  10  39  1   
 23  10  40  1   
 24  11  13  1   
 25  11  41  1   
 26  11  42  1   
 27  12  13  1   
 28  12  14  1   
 29  12  15  1   
 30  13  16  1   
 31  13  43  1   
 32  14  17  1   
 33  15  18  1   
 34  15  44  1   
 35  15  45  1   
 36  16  17  1   
 37  16  19  1   
 38  16  46  1   
 39  17  18  1   
 40  17  47  1   
 41  18  48  1   
 42  18  49  1   
 43  19  20  1   
 44  19  50  1   
 45  19  51  1   
 46  20  21  am  
 47  20  52  1   
 48  21  22  2   
 49  21  23  1   
 50  23  24  1   
 51  23  53  1   
 52  23  54  1   
 53  24  25  1   
 54  24  26  1   
 55  25  27  2   
 56  25  28  1   
 57  26  29  2   
 58  26  55  1   
 59  27  29  1   
 60  28  56  1   
 61  28  57  1   
 62  28  58  1   
 63  29  59  1   
@<TRIPOS>SUBSTRUCTURE
  1 ****  19 GROUP 4 **** **** 0

# MOE 2024.06 (io_trps.svl 2023.06)
