@<TRIPOS>MOLECULE
NONAME
49 52 1 0 0 
SMALL
USER_CHARGES


@<TRIPOS>ATOM
  1 O        1.0230     0.4990     0.5770 O.2   1 <1>  -0.5700 
  2 C        1.8860    -0.3240     0.3320 C.2   1 <1>   0.6950 
  3 N        3.1830     0.1190     0.2700 N.2   1 <1>  -0.6610 
  4 C        1.5530    -1.7090     0.1170 C.ar  1 <1>   0.0860 
  5 C        4.1190    -0.7220     0.0130 C.2   1 <1>   0.4390 
  6 C        2.6040    -2.5840    -0.1590 C.ar  1 <1>   0.1000 
  7 C        0.2540    -2.2260     0.1660 C.ar  1 <1>  -0.1500 
  8 N        3.8790    -2.0510    -0.2030 N.pl3 1 <1>  -0.5500 
  9 C        5.5820    -0.2470    -0.0620 C.3   1 <1>   0.2700 
 10 C        2.3580    -3.9380    -0.3780 C.ar  1 <1>  -0.1500 
 11 C        0.0140    -3.5670    -0.0510 C.ar  1 <1>  -0.1500 
 12 N        5.7260     1.2180     0.1810 N.pl3 1 <1>  -0.8690 
 13 C        1.0710    -4.4260    -0.3240 C.ar  1 <1>  -0.1500 
 14 C        6.7970     2.0210     0.1750 C.ar  1 <1>   0.4100 
 15 N        6.5480     3.2840     0.4190 N.ar  1 <1>  -0.6200 
 16 C        8.0970     1.5480    -0.0750 C.ar  1 <1>  -0.1500 
 17 C        7.5630     4.1370     0.4310 C.ar  1 <1>   0.7710 
 18 C        9.1240     2.4310    -0.0670 C.ar  1 <1>   0.2180 
 19 N        8.8220     3.7270     0.1900 N.ar  1 <1>  -0.1790 
 20 N        7.3370     5.4550     0.6840 N.pl3 1 <1>  -0.8380 
 21 C       10.5710     2.0490    -0.3270 C.3   1 <1>  -0.0970 
 22 C        8.3570     6.5300     0.8890 C.3   1 <1>   0.2090 
 23 C        5.9420     6.0070     0.7760 C.3   1 <1>   0.2090 
 24 C        8.2180     7.5730    -0.2230 C.3   1 <1>  -0.1600 
 25 C        5.7460     7.0560    -0.3250 C.3   1 <1>  -0.1600 
 26 C        6.8030     8.1680    -0.2550 C.3   1 <1>  -0.1600 
 27 H       -0.5630    -1.5570     0.3790 H     1 <1>   0.1500 
 28 H        4.6550    -2.6840    -0.4030 H     1 <1>   0.4000 
 29 H        5.9690    -0.4770    -1.0390 H     1 <1>   0.0800 
 30 H        6.1550    -0.7790     0.6750 H     1 <1>   0.0800 
 31 H        3.1740    -4.6050    -0.5900 H     1 <1>   0.1500 
 32 H       -0.9910    -3.9510    -0.0100 H     1 <1>   0.1500 
 33 H        4.8080     1.6540     0.3720 H     1 <1>   0.4000 
 34 H        0.8760    -5.4720    -0.4930 H     1 <1>   0.1500 
 35 H        8.2420     0.5030    -0.2680 H     1 <1>   0.1500 
 36 H        9.5210     4.4570     0.1900 H     1 <1>   0.4570 
 37 H       10.6530     0.9920    -0.5130 H     1 <1>   0.0800 
 38 H       11.1820     2.2860     0.5260 H     1 <1>   0.0800 
 39 H       10.9490     2.5710    -1.1880 H     1 <1>   0.0800 
 40 H        9.3590     6.1430     0.9040 H     1 <1>   0.0800 
 41 H        8.1800     7.0030     1.8430 H     1 <1>   0.0800 
 42 H        5.8020     6.4630     1.7420 H     1 <1>   0.0800 
 43 H        5.1900     5.2440     0.6680 H     1 <1>   0.0800 
 44 H        8.4400     7.1170    -1.1720 H     1 <1>   0.0800 
 45 H        8.9310     8.3630    -0.0640 H     1 <1>   0.0800 
 46 H        4.7650     7.4870    -0.2300 H     1 <1>   0.0800 
 47 H        5.7920     6.5650    -1.2820 H     1 <1>   0.0800 
 48 H        6.6990     8.8230    -1.1040 H     1 <1>   0.0800 
 49 H        6.6420     8.7540     0.6340 H     1 <1>   0.0800 
@<TRIPOS>BOND
  1   1   2  2   
  2   2   3  1   
  3   2   4  1   
  4   3   5  2   
  5   4   6  ar  
  6   4   7  ar  
  7   5   8  1   
  8   5   9  1   
  9   6   8  1   
 10   6  10  ar  
 11   7  11  ar  
 12   7  27  1   
 13   8  28  1   
 14   9  12  1   
 15   9  29  1   
 16   9  30  1   
 17  10  13  ar  
 18  10  31  1   
 19  11  13  ar  
 20  11  32  1   
 21  12  14  1   
 22  12  33  1   
 23  13  34  1   
 24  14  15  ar  
 25  14  16  ar  
 26  15  17  ar  
 27  16  18  ar  
 28  16  35  1   
 29  17  19  ar  
 30  17  20  1   
 31  18  19  ar  
 32  18  21  1   
 33  19  36  1   
 34  20  22  1   
 35  20  23  1   
 36  21  37  1   
 37  21  38  1   
 38  21  39  1   
 39  22  24  1   
 40  22  40  1   
 41  22  41  1   
 42  23  25  1   
 43  23  42  1   
 44  23  43  1   
 45  24  26  1   
 46  24  44  1   
 47  24  45  1   
 48  25  26  1   
 49  25  46  1   
 50  25  47  1   
 51  26  48  1   
 52  26  49  1   
@<TRIPOS>SUBSTRUCTURE
  1 ****  12 GROUP 4 **** **** 0

# MOE 2024.06 (io_trps.svl 2023.06)
