@<TRIPOS>MOLECULE
NONAME
58 59 1 0 0 
SMALL
USER_CHARGES


@<TRIPOS>ATOM
  1 F       -0.7030    -0.7160     1.2490 F     1 <1>  -0.1900 
  2 C       -1.8540    -0.1180     1.0730 C.ar  1 <1>   0.1900 
  3 C       -1.9910     0.9980     0.2410 C.ar  1 <1>   0.0830 
  4 C       -2.9320    -0.6490     1.7560 C.ar  1 <1>  -0.1500 
  5 O       -1.0090     1.6130    -0.4780 O.3   1 <1>  -0.3630 
  6 C       -3.2530     1.5560     0.1190 C.ar  1 <1>  -0.1500 
  7 C       -4.1780    -0.0680     1.6110 C.ar  1 <1>  -0.1500 
  8 C        0.3410     1.2040    -0.4460 C.3   1 <1>   0.0400 
  9 C       -4.3650     1.0420     0.7870 C.ar  1 <1>   0.0530 
 10 C       -5.6560     1.6620     0.6330 C.2   1 <1>   0.0870 
 11 O       -5.7600     2.9600     0.7550 O.3   1 <1>  -0.0190 
 12 C       -6.9030     1.1860     0.3600 C.2   1 <1>  -0.0860 
 13 N       -6.9810     3.3920     0.5920 N.2   1 <1>  -0.4100 
 14 C       -7.6880     2.3460     0.3530 C.2   1 <1>   0.3720 
 15 C       -7.3660    -0.1440     0.0990 C.2   1 <1>   0.7160 
 16 N       -9.0710     2.4010     0.1100 N.pl3 1 <1>  -0.8210 
 17 O       -6.6330    -1.1130     0.1390 O.2   1 <1>  -0.5700 
 18 N       -8.6760    -0.3840    -0.1870 N.am  1 <1>  -0.7300 
 19 C       -9.3910     3.1750    -1.1250 C.3   1 <1>   0.1290 
 20 C       -9.8260     2.9540     1.2720 C.3   1 <1>   0.1290 
 21 C       -9.2180    -1.4820    -1.0450 C.3   1 <1>   0.1400 
 22 C       -9.6250    -2.7400    -0.2330 C.3   1 <1>   0.4230 
 23 N       -8.4310    -3.2050     0.5580 N.4   1 <1>  -0.9590 
 24 C      -10.2760    -3.8490    -1.1180 C.3   1 <1>  -0.0800 
 25 C       -7.4840    -4.1170    -0.1580 C.3   1 <1>   0.2630 
 26 C       -8.7800    -3.6960     1.9220 C.3   1 <1>   0.2630 
 27 C      -11.5090    -3.3270    -1.8820 C.3   1 <1>  -0.2400 
 28 C      -10.7310    -5.0820    -0.3120 C.3   1 <1>  -0.2400 
 29 H       -2.7900    -1.5050     2.3920 H     1 <1>   0.1500 
 30 H       -3.3730     2.4170    -0.5150 H     1 <1>   0.1500 
 31 H       -5.0170    -0.4740     2.1470 H     1 <1>   0.1500 
 32 H        0.9050     1.8630    -1.0800 H     1 <1>   0.0800 
 33 H        0.4100     0.1960    -0.8150 H     1 <1>   0.0800 
 34 H        0.7030     1.2710     0.5650 H     1 <1>   0.0800 
 35 H       -9.2350     0.4910    -0.1820 H     1 <1>   0.3700 
 36 H       -8.8160     2.8000    -1.9540 H     1 <1>   0.0800 
 37 H       -9.1510     4.2170    -0.9850 H     1 <1>   0.0800 
 38 H      -10.4380     3.0840    -1.3580 H     1 <1>   0.0800 
 39 H       -9.5510     2.4310     2.1720 H     1 <1>   0.0800 
 40 H      -10.8840     2.8410     1.1150 H     1 <1>   0.0800 
 41 H       -9.5990     4.0000     1.4020 H     1 <1>   0.0800 
 42 H       -8.4860    -1.7540    -1.7860 H     1 <1>   0.0800 
 43 H      -10.0750    -1.0920    -1.5630 H     1 <1>   0.0800 
 44 H      -10.3790    -2.4150     0.4630 H     1 <1>   0.0800 
 45 H       -7.8800    -2.3280     0.6830 H     1 <1>   0.4500 
 46 H       -9.5670    -4.1700    -1.8610 H     1 <1>   0.0800 
 47 H       -7.9460    -5.0680    -0.3600 H     1 <1>   0.0800 
 48 H       -6.6030    -4.2800     0.4420 H     1 <1>   0.0800 
 49 H       -7.1760    -3.6720    -1.0900 H     1 <1>   0.0800 
 50 H       -9.3450    -4.6110     1.8650 H     1 <1>   0.0800 
 51 H       -9.3690    -2.9590     2.4430 H     1 <1>   0.0800 
 52 H       -7.8830    -3.8810     2.4900 H     1 <1>   0.0800 
 53 H      -12.2320    -2.9020    -1.2060 H     1 <1>   0.0800 
 54 H      -11.9870    -4.1310    -2.4170 H     1 <1>   0.0800 
 55 H      -11.2400    -2.5870    -2.6150 H     1 <1>   0.0800 
 56 H      -11.4170    -4.7980     0.4680 H     1 <1>   0.0800 
 57 H       -9.9010    -5.6020     0.1270 H     1 <1>   0.0800 
 58 H      -11.2340    -5.7840    -0.9550 H     1 <1>   0.0800 
@<TRIPOS>BOND
  1   1   2  1   
  2   2   3  ar  
  3   2   4  ar  
  4   3   5  1   
  5   3   6  ar  
  6   4   7  ar  
  7   4  29  1   
  8   5   8  1   
  9   6   9  ar  
 10   6  30  1   
 11   7   9  ar  
 12   7  31  1   
 13   8  32  1   
 14   8  33  1   
 15   8  34  1   
 16   9  10  1   
 17  10  11  1   
 18  10  12  2   
 19  11  13  1   
 20  12  14  1   
 21  12  15  1   
 22  13  14  2   
 23  14  16  1   
 24  15  17  2   
 25  15  18  am  
 26  16  19  1   
 27  16  20  1   
 28  18  21  1   
 29  18  35  1   
 30  19  36  1   
 31  19  37  1   
 32  19  38  1   
 33  20  39  1   
 34  20  40  1   
 35  20  41  1   
 36  21  22  1   
 37  21  42  1   
 38  21  43  1   
 39  22  23  1   
 40  22  24  1   
 41  22  44  1   
 42  23  25  1   
 43  23  26  1   
 44  23  45  1   
 45  24  27  1   
 46  24  28  1   
 47  24  46  1   
 48  25  47  1   
 49  25  48  1   
 50  25  49  1   
 51  26  50  1   
 52  26  51  1   
 53  26  52  1   
 54  27  53  1   
 55  27  54  1   
 56  27  55  1   
 57  28  56  1   
 58  28  57  1   
 59  28  58  1   
@<TRIPOS>SUBSTRUCTURE
  1 ****  15 GROUP 4 **** **** 0

# MOE 2024.06 (io_trps.svl 2023.06)
