@<TRIPOS>MOLECULE
NONAME
51 53 1 0 0 
SMALL
USER_CHARGES


@<TRIPOS>ATOM
  1 O        3.9510    -0.6290     1.0470 O.2   1 <1>  -0.5700 
  2 C        2.9560    -0.8440     0.3770 C.2   1 <1>   0.7160 
  3 N        2.4730     0.2170    -0.3490 N.am  1 <1>  -0.6600 
  4 C        2.4230    -2.1760     0.2330 C.2   1 <1>  -0.0860 
  5 C        2.8500     0.3280    -1.7900 C.3   1 <1>   0.1400 
  6 C        2.0660     1.4840     0.3200 C.3   1 <1>   0.1400 
  7 C        1.1600    -2.5810    -0.2210 C.2   1 <1>   0.1080 
  8 C        3.0420    -3.3590     0.5030 C.2   1 <1>  -0.3020 
  9 C        4.3600     0.6170    -1.9640 C.3   1 <1>   0.3430 
 10 C        3.2600     2.3910     0.6650 C.3   1 <1>  -0.1600 
 11 N        1.0290    -3.8670    -0.2480 N.2   1 <1>  -0.7070 
 12 C        0.0100    -1.6860    -0.6330 C.3   1 <1>  -0.0590 
 13 N        2.1920    -4.3520     0.2100 N.pl3 1 <1>   0.3140 
 14 N        4.9400     1.3190    -0.7740 N.4   1 <1>  -0.9590 
 15 C        4.2780     2.6130    -0.4580 C.3   1 <1>   0.3430 
 16 C        2.4290    -5.8010     0.3580 C.3   1 <1>   0.0960 
 17 C        6.4210     1.3850    -0.7870 C.3   1 <1>   0.5240 
 18 C        2.1550    -6.2570     1.7980 C.3   1 <1>  -0.1600 
 19 C        6.8890     1.8510     0.5740 C.2   1 <1>  -0.1810 
 20 C        2.3980    -7.7610     1.9640 C.3   1 <1>  -0.2400 
 21 C        6.7310     1.2460     1.7730 C.2   1 <1>  -0.0100 
 22 C        7.5830     3.0410     0.8410 C.2   1 <1>  -0.1500 
 23 O        7.2630     1.9740     2.7310 O.3   1 <1>  -0.2800 
 24 C        7.7790     3.0520     2.1770 C.2   1 <1>  -0.0100 
 25 H        2.2780     1.1130    -2.2530 H     1 <1>   0.0800 
 26 H        2.6040    -0.5890    -2.3000 H     1 <1>   0.0800 
 27 H        1.5360     1.2450     1.2280 H     1 <1>   0.0800 
 28 H        1.3800     2.0130    -0.3200 H     1 <1>   0.0800 
 29 H        4.0300    -3.5250     0.8910 H     1 <1>   0.1500 
 30 H        4.5160     1.1960    -2.8590 H     1 <1>   0.0800 
 31 H        4.8640    -0.3270    -2.0930 H     1 <1>   0.0800 
 32 H        3.7660     2.0030     1.5320 H     1 <1>   0.0800 
 33 H        2.8690     3.3500     0.9540 H     1 <1>   0.0800 
 34 H       -0.1150    -0.8910     0.0790 H     1 <1>   0.0800 
 35 H       -0.9000    -2.2580    -0.6670 H     1 <1>   0.0800 
 36 H        0.1930    -1.2750    -1.6070 H     1 <1>   0.0800 
 37 H        4.7010     0.7080     0.0370 H     1 <1>   0.4500 
 38 H        5.0100     3.3290    -0.1180 H     1 <1>   0.0800 
 39 H        3.7920     3.0160    -1.3320 H     1 <1>   0.0800 
 40 H        3.4460    -6.0110     0.0860 H     1 <1>   0.0800 
 41 H        1.7760    -6.3180    -0.3230 H     1 <1>   0.0800 
 42 H        6.7610     2.0670    -1.5480 H     1 <1>   0.0800 
 43 H        6.8330     0.4090    -0.9850 H     1 <1>   0.0800 
 44 H        1.1310    -6.0330     2.0480 H     1 <1>   0.0800 
 45 H        2.7960    -5.7180     2.4750 H     1 <1>   0.0800 
 46 H        1.7500    -8.3210     1.3120 H     1 <1>   0.0800 
 47 H        2.1940    -8.0550     2.9790 H     1 <1>   0.0800 
 48 H        3.4200    -8.0080     1.7360 H     1 <1>   0.0800 
 49 H        6.2590     0.3150     2.0430 H     1 <1>   0.1500 
 50 H        7.8950     3.7810     0.1250 H     1 <1>   0.1500 
 51 H        8.2700     3.7740     2.8090 H     1 <1>   0.1500 
@<TRIPOS>BOND
  1   1   2  2   
  2   2   3  am  
  3   2   4  1   
  4   3   5  1   
  5   3   6  1   
  6   4   7  1   
  7   4   8  2   
  8   5   9  1   
  9   5  25  1   
 10   5  26  1   
 11   6  10  1   
 12   6  27  1   
 13   6  28  1   
 14   7  11  2   
 15   7  12  1   
 16   8  13  1   
 17   8  29  1   
 18   9  14  1   
 19   9  30  1   
 20   9  31  1   
 21  10  15  1   
 22  10  32  1   
 23  10  33  1   
 24  11  13  1   
 25  12  34  1   
 26  12  35  1   
 27  12  36  1   
 28  13  16  1   
 29  14  15  1   
 30  14  17  1   
 31  14  37  1   
 32  15  38  1   
 33  15  39  1   
 34  16  18  1   
 35  16  40  1   
 36  16  41  1   
 37  17  19  1   
 38  17  42  1   
 39  17  43  1   
 40  18  20  1   
 41  18  44  1   
 42  18  45  1   
 43  19  21  2   
 44  19  22  1   
 45  20  46  1   
 46  20  47  1   
 47  20  48  1   
 48  21  23  1   
 49  21  49  1   
 50  22  24  2   
 51  22  50  1   
 52  23  24  1   
 53  24  51  1   
@<TRIPOS>SUBSTRUCTURE
  1 ****   1 GROUP 4 **** **** 0

# MOE 2024.06 (io_trps.svl 2023.06)
