@<TRIPOS>MOLECULE
NONAME
47 48 1 0 0 
SMALL
USER_CHARGES


@<TRIPOS>ATOM
  1 S        0.5230    -0.2740     1.0100 S.o2  1 <1>   1.4970 
  2 O        0.7990    -1.4170     1.8550 O.2   1 <1>  -0.6500 
  3 O        0.9010     1.0590     1.4330 O.2   1 <1>  -0.6500 
  4 N        1.2160    -0.5560    -0.4850 N.2   1 <1>  -0.6380 
  5 C       -1.2470    -0.2670     0.6040 C.ar  1 <1>  -0.0090 
  6 C        2.4720    -0.6210    -0.5410 C.2   1 <1>   0.6410 
  7 C       -1.9840    -1.4450     0.5670 C.ar  1 <1>  -0.1500 
  8 C       -1.9140     0.9130     0.2900 C.ar  1 <1>  -0.1500 
  9 S        3.6390    -0.4500     0.7700 S.3   1 <1>  -0.2820 
 10 N        3.2220    -0.8460    -1.6660 N.pl3 1 <1>  -0.4080 
 11 C       -3.3280    -1.4470     0.2380 C.ar  1 <1>  -0.1500 
 12 C       -3.2580     0.9160    -0.0380 C.ar  1 <1>  -0.1500 
 13 C        4.9800    -0.6960    -0.3600 C.2   1 <1>   0.5300 
 14 N        4.6070    -0.8860    -1.5580 N.2   1 <1>  -0.4920 
 15 C       -3.9910    -0.2630    -0.0670 C.ar  1 <1>   0.1170 
 16 C        6.3830    -0.6590     0.2190 C.3   1 <1>  -0.0990 
 17 N       -5.3500    -0.2030    -0.4110 N.am  1 <1>  -0.5470 
 18 C        6.7980     0.7480     0.6760 C.3   1 <1>  -0.2400 
 19 C       -6.3680    -1.1010    -0.2440 C.2   1 <1>   0.5690 
 20 O       -6.2430    -2.1750     0.2880 O.2   1 <1>  -0.5700 
 21 C       -7.7390    -0.7050    -0.7590 C.3   1 <1>  -0.0990 
 22 C       -8.4170     0.3420     0.1400 C.3   1 <1>  -0.1600 
 23 C       -9.8030     0.7230    -0.3960 C.3   1 <1>  -0.1600 
 24 C      -10.4770     1.7630     0.5050 C.3   1 <1>  -0.1600 
 25 C      -11.8610     2.1420    -0.0300 C.3   1 <1>  -0.2400 
 26 H       -1.4990    -2.3790     0.8020 H     1 <1>   0.1500 
 27 H       -1.3700     1.8440     0.3050 H     1 <1>   0.1500 
 28 H        2.7500    -0.9780    -2.5660 H     1 <1>   0.4000 
 29 H       -3.8550    -2.3830     0.2200 H     1 <1>   0.1500 
 30 H       -3.7390     1.8490    -0.2690 H     1 <1>   0.1500 
 31 H        7.0690    -1.0030    -0.5340 H     1 <1>   0.0800 
 32 H        6.4320    -1.3410     1.0480 H     1 <1>   0.0800 
 33 H       -5.6430     0.6830    -0.8180 H     1 <1>   0.3700 
 34 H        6.7510     1.4380    -0.1490 H     1 <1>   0.0800 
 35 H        7.8060     0.7310     1.0530 H     1 <1>   0.0800 
 36 H        6.1470     1.1000     1.4580 H     1 <1>   0.0800 
 37 H       -8.3520    -1.5880    -0.8020 H     1 <1>   0.0800 
 38 H       -7.6400    -0.3270    -1.7600 H     1 <1>   0.0800 
 39 H       -7.8030     1.2240     0.2020 H     1 <1>   0.0800 
 40 H       -8.5170    -0.0630     1.1340 H     1 <1>   0.0800 
 41 H      -10.4220    -0.1580    -0.4470 H     1 <1>   0.0800 
 42 H       -9.7080     1.1220    -1.3920 H     1 <1>   0.0800 
 43 H       -9.8650     2.6480     0.5600 H     1 <1>   0.0800 
 44 H      -10.5800     1.3660     1.5010 H     1 <1>   0.0800 
 45 H      -11.7810     2.5620    -1.0170 H     1 <1>   0.0800 
 46 H      -12.3180     2.8710     0.6150 H     1 <1>   0.0800 
 47 H      -12.4980     1.2760    -0.0720 H     1 <1>   0.0800 
@<TRIPOS>BOND
  1   1   2  2   
  2   1   3  2   
  3   1   4  1   
  4   1   5  1   
  5   4   6  2   
  6   5   7  ar  
  7   5   8  ar  
  8   6   9  1   
  9   6  10  1   
 10   7  11  ar  
 11   7  26  1   
 12   8  12  ar  
 13   8  27  1   
 14   9  13  1   
 15  10  14  1   
 16  10  28  1   
 17  11  15  ar  
 18  11  29  1   
 19  12  15  ar  
 20  12  30  1   
 21  13  14  2   
 22  13  16  1   
 23  15  17  1   
 24  16  18  1   
 25  16  31  1   
 26  16  32  1   
 27  17  19  am  
 28  17  33  1   
 29  18  34  1   
 30  18  35  1   
 31  18  36  1   
 32  19  20  2   
 33  19  21  1   
 34  21  22  1   
 35  21  37  1   
 36  21  38  1   
 37  22  23  1   
 38  22  39  1   
 39  22  40  1   
 40  23  24  1   
 41  23  41  1   
 42  23  42  1   
 43  24  25  1   
 44  24  43  1   
 45  24  44  1   
 46  25  45  1   
 47  25  46  1   
 48  25  47  1   
@<TRIPOS>SUBSTRUCTURE
  1 ****   5 GROUP 4 **** **** 0

# MOE 2024.06 (io_trps.svl 2023.06)
