@<TRIPOS>MOLECULE
NONAME
43 45 1 0 0 
SMALL
USER_CHARGES


@<TRIPOS>ATOM
  1 O        1.5000    -0.1780     2.4660 O.2   1 <1>  -0.5700 
  2 C        1.9090    -0.9960     1.6620 C.2   1 <1>   0.7670 
  3 N        2.5120    -0.5670     0.5140 N.2   1 <1>  -0.6610 
  4 C        1.7490    -2.3840     1.9090 C.2   1 <1>  -0.1360 
  5 C        2.9310    -1.4450    -0.3140 C.2   1 <1>   0.4390 
  6 C        2.1870    -3.2930     1.0070 C.2   1 <1>  -0.0380 
  7 N        2.7960    -2.7920    -0.1240 N.pl3 1 <1>  -0.5500 
  8 C        3.6200    -1.0050    -1.5820 C.3   1 <1>  -0.1790 
  9 C        2.0230    -4.7970     1.2010 C.3   1 <1>   0.4810 
 10 N        0.6620    -5.2110     0.7580 N.4   1 <1>  -0.9590 
 11 C        0.2790    -4.8690    -0.6380 C.3   1 <1>   0.3430 
 12 C        0.3530    -6.6610     0.9270 C.3   1 <1>   0.3430 
 13 C       -0.9870    -5.6960    -0.8600 C.3   1 <1>   0.2000 
 14 C       -0.6590    -7.0250    -0.1760 C.3   1 <1>  -0.0800 
 15 O       -2.0100    -5.0900    -0.1420 O.3   1 <1>  -0.6800 
 16 C       -0.0750    -8.0490    -1.1680 C.3   1 <1>  -0.0170 
 17 C        0.5150    -9.2440    -0.4350 C.ar  1 <1>  -0.1430 
 18 C       -0.2650   -10.0870     0.3330 C.ar  1 <1>  -0.1500 
 19 C        1.8620    -9.5470    -0.4960 C.ar  1 <1>  -0.1500 
 20 C        0.3260   -11.1450     1.0040 C.ar  1 <1>   0.1600 
 21 C        2.3530   -10.6310     0.2130 C.ar  1 <1>   0.1600 
 22 N        1.6170   -11.4250     0.9710 N.ar  1 <1>  -0.6200 
 23 H        1.2660    -2.6370     2.8330 H     1 <1>   0.1500 
 24 H        3.2300    -3.3880    -0.8360 H     1 <1>   0.4000 
 25 H        3.0770    -1.3530    -2.4410 H     1 <1>   0.0800 
 26 H        4.6240    -1.3860    -1.6100 H     1 <1>   0.0800 
 27 H        3.6640     0.0690    -1.6210 H     1 <1>   0.0800 
 28 H        2.1470    -5.0330     2.2460 H     1 <1>   0.0800 
 29 H        2.7790    -5.3250     0.6450 H     1 <1>   0.0800 
 30 H       -0.0370    -4.7030     1.3250 H     1 <1>   0.4500 
 31 H        0.0860    -3.8150    -0.7600 H     1 <1>   0.0800 
 32 H        1.0470    -5.1830    -1.3250 H     1 <1>   0.0800 
 33 H        1.2470    -7.2540     0.8190 H     1 <1>   0.0800 
 34 H       -0.0700    -6.8450     1.9020 H     1 <1>   0.0800 
 35 H       -1.2750    -5.7730    -1.8960 H     1 <1>   0.0800 
 36 H       -1.5410    -7.4550     0.2690 H     1 <1>   0.0800 
 37 H       -2.8890    -5.4480    -0.3940 H     1 <1>   0.4000 
 38 H        0.6890    -7.5940    -1.7740 H     1 <1>   0.0800 
 39 H       -0.8490    -8.3950    -1.8320 H     1 <1>   0.0800 
 40 H       -1.3260    -9.9430     0.4180 H     1 <1>   0.1500 
 41 H        2.5420    -8.9640    -1.0900 H     1 <1>   0.1500 
 42 H       -0.2940   -11.7940     1.6000 H     1 <1>   0.1500 
 43 H        3.4040   -10.8580     0.1550 H     1 <1>   0.1500 
@<TRIPOS>BOND
  1   1   2  2   
  2   2   3  1   
  3   2   4  1   
  4   3   5  2   
  5   4   6  2   
  6   4  23  1   
  7   5   7  1   
  8   5   8  1   
  9   6   7  1   
 10   6   9  1   
 11   7  24  1   
 12   8  25  1   
 13   8  26  1   
 14   8  27  1   
 15   9  10  1   
 16   9  28  1   
 17   9  29  1   
 18  10  11  1   
 19  10  12  1   
 20  10  30  1   
 21  11  13  1   
 22  11  31  1   
 23  11  32  1   
 24  12  14  1   
 25  12  33  1   
 26  12  34  1   
 27  13  14  1   
 28  13  15  1   
 29  13  35  1   
 30  14  16  1   
 31  14  36  1   
 32  15  37  1   
 33  16  17  1   
 34  16  38  1   
 35  16  39  1   
 36  17  18  ar  
 37  17  19  ar  
 38  18  20  ar  
 39  18  40  1   
 40  19  21  ar  
 41  19  41  1   
 42  20  22  ar  
 43  20  42  1   
 44  21  22  ar  
 45  21  43  1   
@<TRIPOS>SUBSTRUCTURE
  1 ****  10 GROUP 4 **** **** 0

# MOE 2024.06 (io_trps.svl 2023.06)
