@<TRIPOS>MOLECULE
NONAME
58 62 1 0 0 
SMALL
USER_CHARGES


@<TRIPOS>ATOM
  1 O       -0.9440    -0.5490    -0.8260 O.2   1 <1>  -0.5700 
  2 C       -1.7780     0.3350    -0.7980 C.2   1 <1>   0.7160 
  3 N       -2.9540     0.1210    -1.4430 N.am  1 <1>  -0.7300 
  4 C       -1.5710     1.5570    -0.0780 C.2   1 <1>  -0.0860 
  5 C       -3.4170    -1.1410    -2.0410 C.3   1 <1>   0.2350 
  6 C       -2.5800     2.4400     0.3360 C.2   1 <1>   0.3720 
  7 C       -0.4310     2.1700     0.3470 C.2   1 <1>   0.0870 
  8 C       -4.4890    -1.7450    -1.1260 C.3   1 <1>  -0.1900 
  9 N       -2.0840     3.4690     0.9270 N.2   1 <1>  -0.4100 
 10 N       -3.9590     2.2300     0.1650 N.pl3 1 <1>  -0.8210 
 11 O       -0.7910     3.2900     0.9210 O.3   1 <1>  -0.0190 
 12 C        0.9690     1.8440     0.2680 C.ar  1 <1>   0.0530 
 13 C       -5.8510    -1.1160    -1.1530 C.3   1 <1>  -0.2000 
 14 C       -5.6310    -2.4760    -1.7650 C.3   1 <1>  -0.2000 
 15 C       -3.8620    -2.2620     0.1960 C.3   1 <1>   0.1910 
 16 C       -4.5750     1.4510     1.2780 C.3   1 <1>   0.2090 
 17 C       -4.7890     3.4470    -0.0750 C.3   1 <1>   0.2090 
 18 C        1.4620     0.5870     0.6160 C.ar  1 <1>  -0.1500 
 19 C        1.8930     2.8020    -0.1500 C.ar  1 <1>  -0.1500 
 20 N       -4.8430    -2.6810     1.2250 N.pl3 1 <1>   0.3140 
 21 C       -5.9470     2.0640     1.5090 C.3   1 <1>  -0.1600 
 22 C       -5.7800     3.5120     1.0790 C.3   1 <1>  -0.1600 
 23 C        2.8110     0.2900     0.5380 C.ar  1 <1>  -0.1500 
 24 C        3.2420     2.5150    -0.2280 C.ar  1 <1>  -0.1500 
 25 N       -5.2760    -1.8400     2.1900 N.2   1 <1>  -0.7070 
 26 C       -5.3790    -3.9090     1.3780 C.2   1 <1>  -0.3020 
 27 C        3.7150     1.2580     0.1120 C.ar  1 <1>   0.0830 
 28 C       -6.0810    -2.5530     2.9170 C.2   1 <1>   0.1390 
 29 C       -6.1870    -3.8600     2.4580 C.2   1 <1>  -0.1500 
 30 O        5.0490     1.0530     0.0060 O.3   1 <1>  -0.3630 
 31 C        5.6260    -0.2010     0.2940 C.3   1 <1>   0.0400 
 32 H       -3.6900     0.8080    -1.2180 H     1 <1>   0.3700 
 33 H       -2.5940    -1.8260    -2.1670 H     1 <1>   0.0800 
 34 H       -3.8280    -0.9300    -3.0140 H     1 <1>   0.0800 
 35 H       -6.0310    -0.2810    -1.8080 H     1 <1>   0.1000 
 36 H       -6.4360    -1.0530    -0.2510 H     1 <1>   0.1000 
 37 H       -6.0850    -3.3190    -1.2740 H     1 <1>   0.1000 
 38 H       -5.6760    -2.5630    -2.8370 H     1 <1>   0.1000 
 39 H       -3.2600    -1.4910     0.6380 H     1 <1>   0.0800 
 40 H       -3.2180    -3.0950    -0.0140 H     1 <1>   0.0800 
 41 H       -3.9770     1.5430     2.1710 H     1 <1>   0.0800 
 42 H       -4.6590     0.4130     1.0160 H     1 <1>   0.0800 
 43 H       -5.3180     3.3210    -1.0040 H     1 <1>   0.0800 
 44 H       -4.1980     4.3450    -0.1330 H     1 <1>   0.0800 
 45 H        0.7770    -0.1690     0.9540 H     1 <1>   0.1500 
 46 H        1.5440     3.7840    -0.4180 H     1 <1>   0.1500 
 47 H       -6.2570     1.9670     2.5340 H     1 <1>   0.0800 
 48 H       -6.6610     1.5660     0.8770 H     1 <1>   0.0800 
 49 H       -6.7090     3.9680     0.7870 H     1 <1>   0.0800 
 50 H       -5.3410     4.0840     1.8790 H     1 <1>   0.0800 
 51 H        3.1370    -0.6940     0.8130 H     1 <1>   0.1500 
 52 H        3.9420     3.2640    -0.5540 H     1 <1>   0.1500 
 53 H       -5.1600    -4.7320     0.7240 H     1 <1>   0.1500 
 54 H       -6.6020    -2.1680     3.7780 H     1 <1>   0.1500 
 55 H       -6.7880    -4.6390     2.8920 H     1 <1>   0.1500 
 56 H        6.6850    -0.1270     0.1280 H     1 <1>   0.0800 
 57 H        5.2030    -0.9390    -0.3650 H     1 <1>   0.0800 
 58 H        5.4330    -0.4460     1.3230 H     1 <1>   0.0800 
@<TRIPOS>BOND
  1   1   2  2   
  2   2   3  am  
  3   2   4  1   
  4   3   5  1   
  5   3  32  1   
  6   4   6  1   
  7   4   7  2   
  8   5   8  1   
  9   5  33  1   
 10   5  34  1   
 11   6   9  2   
 12   6  10  1   
 13   7  11  1   
 14   7  12  1   
 15   8  13  1   
 16   8  14  1   
 17   8  15  1   
 18   9  11  1   
 19  10  16  1   
 20  10  17  1   
 21  12  18  ar  
 22  12  19  ar  
 23  13  14  1   
 24  13  35  1   
 25  13  36  1   
 26  14  37  1   
 27  14  38  1   
 28  15  20  1   
 29  15  39  1   
 30  15  40  1   
 31  16  21  1   
 32  16  41  1   
 33  16  42  1   
 34  17  22  1   
 35  17  43  1   
 36  17  44  1   
 37  18  23  ar  
 38  18  45  1   
 39  19  24  ar  
 40  19  46  1   
 41  20  25  1   
 42  20  26  1   
 43  21  22  1   
 44  21  47  1   
 45  21  48  1   
 46  22  49  1   
 47  22  50  1   
 48  23  27  ar  
 49  23  51  1   
 50  24  27  ar  
 51  24  52  1   
 52  25  28  2   
 53  26  29  2   
 54  26  53  1   
 55  27  30  1   
 56  28  29  1   
 57  28  54  1   
 58  29  55  1   
 59  30  31  1   
 60  31  56  1   
 61  31  57  1   
 62  31  58  1   
@<TRIPOS>SUBSTRUCTURE
  1 ****   2 GROUP 4 **** **** 0

# MOE 2024.06 (io_trps.svl 2023.06)
