@<TRIPOS>MOLECULE
NONAME
49 51 1 0 0 
SMALL
USER_CHARGES


@<TRIPOS>ATOM
  1 S       -2.2450    -0.3950     0.6880 S.3   1 <1>  -0.0800 
  2 C       -1.4950    -1.5660    -0.3450 C.2   1 <1>   0.4420 
  3 C       -1.1140     0.7630     0.0790 C.2   1 <1>   0.1980 
  4 N       -0.5290    -1.0660    -1.0240 N.2   1 <1>  -0.3380 
  5 N       -2.0110    -2.8420    -0.3110 N.am  1 <1>  -0.4940 
  6 N       -0.3170     0.2630    -0.7770 N.2   1 <1>  -0.3380 
  7 C       -1.2070     2.1800     0.6210 C.3   1 <1>   0.0200 
  8 C       -1.6740    -3.9580    -1.0160 C.2   1 <1>   0.5690 
  9 C       -0.1580     3.1230     0.0100 C.3   1 <1>  -0.1600 
 10 O       -0.8090    -4.0060    -1.8520 O.2   1 <1>  -0.5700 
 11 C       -2.4780    -5.2190    -0.7020 C.3   1 <1>   0.1710 
 12 C       -0.2760     4.5430     0.5740 C.3   1 <1>  -0.2400 
 13 N       -3.8570    -4.9340    -0.2010 N.3   1 <1>  -0.8100 
 14 C       -4.5240    -6.1450     0.3450 C.3   1 <1>   0.1100 
 15 C       -4.7380    -4.3900    -1.2490 C.3   1 <1>   0.1100 
 16 C       -5.7400    -6.4720    -0.5380 C.3   1 <1>   0.4240 
 17 C       -6.0830    -5.0800    -1.0580 C.3   1 <1>  -0.1600 
 18 O       -5.3000    -7.1950    -1.6340 O.3   1 <1>  -0.6800 
 19 C       -6.8740    -7.2580     0.1640 C.ar  1 <1>  -0.1440 
 20 C       -6.6550    -8.4570     0.8560 C.ar  1 <1>  -0.1440 
 21 C       -8.1800    -6.7680     0.1130 C.ar  1 <1>  -0.1500 
 22 C       -7.7100    -9.0940     1.4940 C.ar  1 <1>  -0.1500 
 23 C       -5.2990    -9.1480     0.9520 C.3   1 <1>  -0.0970 
 24 C       -9.2250    -7.4140     0.7480 C.ar  1 <1>  -0.1500 
 25 C       -8.9890    -8.5780     1.4460 C.ar  1 <1>  -0.1500 
 26 H       -2.8140    -2.9990     0.3010 H     1 <1>   0.3700 
 27 H       -1.0780     2.1460     1.6880 H     1 <1>   0.0800 
 28 H       -2.1920     2.5600     0.4140 H     1 <1>   0.0800 
 29 H       -0.2850     3.1510    -1.0590 H     1 <1>   0.0800 
 30 H        0.8270     2.7380     0.2140 H     1 <1>   0.0800 
 31 H       -1.9330    -5.7600     0.0510 H     1 <1>   0.0800 
 32 H       -2.5190    -5.8350    -1.5840 H     1 <1>   0.0800 
 33 H       -1.2460     4.9570     0.3580 H     1 <1>   0.0800 
 34 H        0.4710     5.1760     0.1270 H     1 <1>   0.0800 
 35 H       -0.1270     4.5410     1.6400 H     1 <1>   0.0800 
 36 H       -4.8780    -5.9140     1.3350 H     1 <1>   0.0800 
 37 H       -3.8490    -6.9780     0.4110 H     1 <1>   0.0800 
 38 H       -4.3530    -4.6180    -2.2300 H     1 <1>   0.0800 
 39 H       -4.8320    -3.3200    -1.1540 H     1 <1>   0.0800 
 40 H       -6.6680    -5.1080    -1.9610 H     1 <1>   0.0800 
 41 H       -6.6230    -4.5340    -0.3060 H     1 <1>   0.0800 
 42 H       -4.5800    -6.6950    -2.0540 H     1 <1>   0.4000 
 43 H       -8.4240    -5.8740    -0.4270 H     1 <1>   0.1500 
 44 H       -7.5460   -10.0090     2.0340 H     1 <1>   0.1500 
 45 H       -4.7840    -9.1170     0.0100 H     1 <1>   0.0800 
 46 H       -5.4190   -10.1850     1.2110 H     1 <1>   0.0800 
 47 H       -4.6990    -8.6830     1.7110 H     1 <1>   0.0800 
 48 H      -10.2210    -7.0100     0.6950 H     1 <1>   0.1500 
 49 H       -9.7970    -9.0840     1.9450 H     1 <1>   0.1500 
@<TRIPOS>BOND
  1   1   2  1   
  2   1   3  1   
  3   2   4  2   
  4   2   5  1   
  5   3   6  2   
  6   3   7  1   
  7   4   6  1   
  8   5   8  am  
  9   5  26  1   
 10   7   9  1   
 11   7  27  1   
 12   7  28  1   
 13   8  10  2   
 14   8  11  1   
 15   9  12  1   
 16   9  29  1   
 17   9  30  1   
 18  11  13  1   
 19  11  31  1   
 20  11  32  1   
 21  12  33  1   
 22  12  34  1   
 23  12  35  1   
 24  13  14  1   
 25  13  15  1   
 26  14  16  1   
 27  14  36  1   
 28  14  37  1   
 29  15  17  1   
 30  15  38  1   
 31  15  39  1   
 32  16  17  1   
 33  16  18  1   
 34  16  19  1   
 35  17  40  1   
 36  17  41  1   
 37  18  42  1   
 38  19  20  ar  
 39  19  21  ar  
 40  20  22  ar  
 41  20  23  1   
 42  21  24  ar  
 43  21  43  1   
 44  22  25  ar  
 45  22  44  1   
 46  23  45  1   
 47  23  46  1   
 48  23  47  1   
 49  24  25  ar  
 50  24  48  1   
 51  25  49  1   
@<TRIPOS>SUBSTRUCTURE
  1 ****  13 GROUP 4 **** **** 0

# MOE 2024.06 (io_trps.svl 2023.06)
