@<TRIPOS>MOLECULE
NONAME
40 42 1 0 0 
SMALL
USER_CHARGES


@<TRIPOS>ATOM
  1 S       -2.0730    -0.4200     0.1750 S.3   1 <1>  -0.0800 
  2 C       -0.8500     0.7350    -0.2190 C.2   1 <1>   0.1980 
  3 C       -1.0850    -1.6000    -0.6150 C.2   1 <1>   0.1980 
  4 N        0.1280     0.2300    -0.8550 N.2   1 <1>  -0.3380 
  5 C       -1.0490     2.1810     0.2090 C.3   1 <1>   0.5230 
  6 N       -0.0070    -1.1100    -1.0790 N.2   1 <1>  -0.3380 
  7 C       -1.5800    -3.0290    -0.6710 C.3   1 <1>  -0.0600 
  8 N        0.2070     2.9780     0.0050 N.4   1 <1>  -0.9590 
  9 C        1.2610     2.5980     0.9920 C.3   1 <1>   0.3430 
 10 C       -0.0500     4.4430    -0.0200 C.3   1 <1>   0.3430 
 11 C        2.5650     3.3120     0.6480 C.3   1 <1>  -0.1600 
 12 C        1.2360     5.1860    -0.3780 C.3   1 <1>  -0.1600 
 13 C        2.3890     4.8440     0.5860 C.3   1 <1>  -0.0800 
 14 C        3.7070     5.5620     0.2130 C.3   1 <1>   0.3800 
 15 O        4.6480     5.2600     1.1750 O.3   1 <1>  -0.6800 
 16 C        3.5710     7.0730     0.1760 C.2   1 <1>  -0.1400 
 17 S        3.2840     7.8140    -1.3940 S.3   1 <1>  -0.0800 
 18 C        3.6330     8.0180     1.1340 C.2   1 <1>  -0.1500 
 19 C        3.2490     9.4170    -0.6830 C.2   1 <1>  -0.1100 
 20 C        3.4470     9.3510     0.6460 C.2   1 <1>  -0.1500 
 21 H       -1.3420     2.2130     1.2450 H     1 <1>   0.0800 
 22 H       -1.8460     2.5990    -0.3820 H     1 <1>   0.0800 
 23 H       -1.7100    -3.4120     0.3240 H     1 <1>   0.0800 
 24 H       -0.8650    -3.6420    -1.1890 H     1 <1>   0.0800 
 25 H       -2.5180    -3.0720    -1.1940 H     1 <1>   0.0800 
 26 H        0.5700     2.6890    -0.9170 H     1 <1>   0.4500 
 27 H        1.4260     1.5310     0.9690 H     1 <1>   0.0800 
 28 H        0.9520     2.8740     1.9870 H     1 <1>   0.0800 
 29 H       -0.3930     4.7720     0.9480 H     1 <1>   0.0800 
 30 H       -0.8100     4.6770    -0.7490 H     1 <1>   0.0800 
 31 H        2.9400     2.9400    -0.2900 H     1 <1>   0.0800 
 32 H        3.2920     3.0620     1.4020 H     1 <1>   0.0800 
 33 H        1.0280     6.2410    -0.3350 H     1 <1>   0.0800 
 34 H        1.5150     4.9540    -1.3920 H     1 <1>   0.0800 
 35 H        2.1090     5.1960     1.5660 H     1 <1>   0.0800 
 36 H        4.0860     5.2050    -0.7310 H     1 <1>   0.0800 
 37 H        5.4060     5.8680     1.0690 H     1 <1>   0.4000 
 38 H        3.8030     7.8360     2.1820 H     1 <1>   0.1500 
 39 H        3.0830    10.2500    -1.3430 H     1 <1>   0.1500 
 40 H        3.4730    10.1930     1.3160 H     1 <1>   0.1500 
@<TRIPOS>BOND
  1   1   2  1   
  2   1   3  1   
  3   2   4  2   
  4   2   5  1   
  5   3   6  2   
  6   3   7  1   
  7   4   6  1   
  8   5   8  1   
  9   5  21  1   
 10   5  22  1   
 11   7  23  1   
 12   7  24  1   
 13   7  25  1   
 14   8   9  1   
 15   8  10  1   
 16   8  26  1   
 17   9  11  1   
 18   9  27  1   
 19   9  28  1   
 20  10  12  1   
 21  10  29  1   
 22  10  30  1   
 23  11  13  1   
 24  11  31  1   
 25  11  32  1   
 26  12  13  1   
 27  12  33  1   
 28  12  34  1   
 29  13  14  1   
 30  13  35  1   
 31  14  15  1   
 32  14  16  1   
 33  14  36  1   
 34  15  37  1   
 35  16  17  1   
 36  16  18  2   
 37  17  19  1   
 38  18  20  1   
 39  18  38  1   
 40  19  20  2   
 41  19  39  1   
 42  20  40  1   
@<TRIPOS>SUBSTRUCTURE
  1 ****   8 GROUP 4 **** **** 0

# MOE 2024.06 (io_trps.svl 2023.06)
