@<TRIPOS>MOLECULE
NONAME
44 46 1 0 0 
SMALL
USER_CHARGES


@<TRIPOS>ATOM
  1 CL      -2.1420     0.8920     3.4140 Cl    1 <1>  -0.1770 
  2 C       -2.7650     1.3420     1.8480 C.ar  1 <1>   0.1770 
  3 C       -2.2210     2.4210     1.1700 C.ar  1 <1>   0.1600 
  4 C       -3.7990     0.6240     1.2950 C.ar  1 <1>  -0.1500 
  5 N       -2.6340     2.8290    -0.0230 N.ar  1 <1>  -0.6200 
  6 C       -4.2600     1.0310     0.0500 C.ar  1 <1>   0.0860 
  7 C       -3.6270     2.1210    -0.5470 C.ar  1 <1>   0.1600 
  8 C       -5.3490     0.3530    -0.6140 C.2   1 <1>   0.5440 
  9 O       -5.2640    -0.8450    -0.7970 O.2   1 <1>  -0.5700 
 10 N       -6.4770     1.0250    -1.0350 N.am  1 <1>  -0.6600 
 11 C       -7.5060     0.3770    -1.8890 C.3   1 <1>   0.1400 
 12 C       -6.8930     2.3640    -0.5440 C.3   1 <1>   0.1400 
 13 C       -8.8070     0.2290    -1.0970 C.3   1 <1>  -0.1600 
 14 C       -8.1820     2.2220     0.2660 C.3   1 <1>  -0.1600 
 15 C       -9.3360     1.5740    -0.5420 C.3   1 <1>   0.2800 
 16 O       -9.6380     2.3590    -1.6750 O.3   1 <1>  -0.5600 
 17 C      -10.6460     1.3650     0.2930 C.3   1 <1>   0.2000 
 18 C      -10.2060     3.6220    -1.4640 C.3   1 <1>   0.1200 
 19 O      -11.4970     0.4950    -0.4030 O.3   1 <1>  -0.6800 
 20 C      -11.4210     2.6890     0.5630 C.3   1 <1>   0.2800 
 21 C      -11.5500     3.4910    -0.7390 C.3   1 <1>  -0.1600 
 22 O      -10.7260     3.4680     1.4670 O.3   1 <1>  -0.6800 
 23 C      -12.7930     2.4690     1.2130 C.3   1 <1>  -0.2400 
 24 H       -1.4140     2.9640     1.6310 H     1 <1>   0.1500 
 25 H       -4.2330    -0.2210     1.8000 H     1 <1>   0.1500 
 26 H       -3.9720     2.4220    -1.5220 H     1 <1>   0.1500 
 27 H       -7.6760     0.9860    -2.7600 H     1 <1>   0.0800 
 28 H       -7.1730    -0.5910    -2.2220 H     1 <1>   0.0800 
 29 H       -6.1350     2.8050     0.0780 H     1 <1>   0.0800 
 30 H       -7.0600     3.0140    -1.3870 H     1 <1>   0.0800 
 31 H       -8.6360    -0.4530    -0.2840 H     1 <1>   0.0800 
 32 H       -9.5340    -0.2230    -1.7450 H     1 <1>   0.0800 
 33 H       -8.4470     3.1880     0.6410 H     1 <1>   0.0800 
 34 H       -7.9750     1.6090     1.1250 H     1 <1>   0.0800 
 35 H      -10.4180     0.8870     1.2290 H     1 <1>   0.0800 
 36 H       -9.5190     4.2340    -0.9060 H     1 <1>   0.0800 
 37 H      -10.3500     4.0750    -2.4290 H     1 <1>   0.0800 
 38 H      -11.5060     0.7730    -1.3420 H     1 <1>   0.4000 
 39 H      -12.2370     2.9920    -1.3990 H     1 <1>   0.0800 
 40 H      -11.9530     4.4660    -0.5390 H     1 <1>   0.0800 
 41 H      -11.2970     4.1980     1.7690 H     1 <1>   0.4000 
 42 H      -13.4340     1.9100     0.5550 H     1 <1>   0.0800 
 43 H      -13.2760     3.4040     1.4280 H     1 <1>   0.0800 
 44 H      -12.6830     1.9040     2.1220 H     1 <1>   0.0800 
@<TRIPOS>BOND
  1   1   2  1   
  2   2   3  ar  
  3   2   4  ar  
  4   3   5  ar  
  5   3  24  1   
  6   4   6  ar  
  7   4  25  1   
  8   5   7  ar  
  9   6   7  ar  
 10   6   8  1   
 11   7  26  1   
 12   8   9  2   
 13   8  10  am  
 14  10  11  1   
 15  10  12  1   
 16  11  13  1   
 17  11  27  1   
 18  11  28  1   
 19  12  14  1   
 20  12  29  1   
 21  12  30  1   
 22  13  15  1   
 23  13  31  1   
 24  13  32  1   
 25  14  15  1   
 26  14  33  1   
 27  14  34  1   
 28  15  16  1   
 29  15  17  1   
 30  16  18  1   
 31  17  19  1   
 32  17  20  1   
 33  17  35  1   
 34  18  21  1   
 35  18  36  1   
 36  18  37  1   
 37  19  38  1   
 38  20  21  1   
 39  20  22  1   
 40  20  23  1   
 41  21  39  1   
 42  21  40  1   
 43  22  41  1   
 44  23  42  1   
 45  23  43  1   
 46  23  44  1   
@<TRIPOS>SUBSTRUCTURE
  1 ****  12 GROUP 4 **** **** 0

# MOE 2024.06 (io_trps.svl 2023.06)
