@<TRIPOS>MOLECULE
NONAME
51 54 1 0 0 
SMALL
USER_CHARGES


@<TRIPOS>ATOM
  1 O        1.1100     1.0890     2.1800 O.2   1 <1>  -0.5700 
  2 C        1.9560     1.5640     1.4340 C.2   1 <1>   0.4690 
  3 C        3.3090     1.0840     1.4040 C.ar  1 <1>   0.0860 
  4 C        1.6170     2.6410     0.5850 C.2   1 <1>  -0.1360 
  5 C        4.2310     1.6750     0.5160 C.ar  1 <1>   0.1000 
  6 C        3.7380     0.0580     2.2550 C.ar  1 <1>  -0.1500 
  7 C        2.5040     3.1870    -0.2810 C.2   1 <1>  -0.0380 
  8 N        3.7950     2.6850    -0.3720 N.pl3 1 <1>  -0.5690 
  9 C        5.5640     1.2370     0.5670 C.ar  1 <1>  -0.1500 
 10 C        5.0450    -0.3680     2.2640 C.ar  1 <1>  -0.1500 
 11 C        2.0720     4.3610    -1.1520 C.3   1 <1>  -0.1020 
 12 C        4.7280     3.1910    -1.4570 C.3   1 <1>   0.2700 
 13 C        5.9640     0.2330     1.4190 C.ar  1 <1>  -0.1500 
 14 C        5.5650     4.3880    -1.0070 C.2   1 <1>   0.5690 
 15 O        6.2320     4.9690    -1.8300 O.2   1 <1>  -0.5700 
 16 N        5.4960     4.7510     0.3090 N.am  1 <1>  -0.4940 
 17 C        5.9440     5.9070     0.9890 C.2   1 <1>  -0.0880 
 18 N        7.1520     6.5360     0.8820 N.pl3 1 <1>   0.3140 
 19 C        5.2260     6.6020     1.9030 C.2   1 <1>  -0.1810 
 20 N        7.2010     7.6230     1.6990 N.2   1 <1>  -0.7070 
 21 C        8.3410     6.0980     0.0890 C.3   1 <1>   0.1760 
 22 C        6.0520     7.6460     2.2960 C.2   1 <1>   0.1390 
 23 C        3.8200     6.3490     2.4170 C.3   1 <1>  -0.0590 
 24 C        9.6160     5.9560     0.9300 C.3   1 <1>  -0.1600 
 25 C        8.6990     7.0780    -1.0410 C.3   1 <1>  -0.1600 
 26 C       10.7490     6.1700    -0.0680 C.3   1 <1>  -0.1600 
 27 C       10.2230     7.2550    -1.0050 C.3   1 <1>  -0.1600 
 28 H        0.6080     2.9970     0.6730 H     1 <1>   0.1500 
 29 H        3.0220    -0.4010     2.9170 H     1 <1>   0.1500 
 30 H        6.3180     1.6770    -0.0550 H     1 <1>   0.1500 
 31 H        5.3580    -1.1580     2.9260 H     1 <1>   0.1500 
 32 H        2.7440     5.1920    -1.0320 H     1 <1>   0.0800 
 33 H        1.0870     4.6940    -0.8780 H     1 <1>   0.0800 
 34 H        2.0410     4.0710    -2.1870 H     1 <1>   0.0800 
 35 H        4.1670     3.4800    -2.3240 H     1 <1>   0.0800 
 36 H        5.3810     2.4050    -1.7830 H     1 <1>   0.0800 
 37 H        6.9910    -0.0920     1.4360 H     1 <1>   0.1500 
 38 H        4.8220     4.1790     0.8300 H     1 <1>   0.3700 
 39 H        8.1360     5.1380    -0.3410 H     1 <1>   0.0800 
 40 H        5.7810     8.3990     3.0170 H     1 <1>   0.1500 
 41 H        3.3650     5.5240     1.8990 H     1 <1>   0.0800 
 42 H        3.2150     7.2240     2.2670 H     1 <1>   0.0800 
 43 H        3.8520     6.1220     3.4670 H     1 <1>   0.0800 
 44 H        9.6760     4.9940     1.4060 H     1 <1>   0.0800 
 45 H        9.6610     6.7310     1.6760 H     1 <1>   0.0800 
 46 H        8.2150     8.0290    -0.9000 H     1 <1>   0.0800 
 47 H        8.3910     6.6640    -1.9850 H     1 <1>   0.0800 
 48 H       10.9170     5.2630    -0.6250 H     1 <1>   0.0800 
 49 H       11.6650     6.4640     0.4160 H     1 <1>   0.0800 
 50 H       10.4530     8.2220    -0.5910 H     1 <1>   0.0800 
 51 H       10.6600     7.1820    -1.9860 H     1 <1>   0.0800 
@<TRIPOS>BOND
  1   1   2  2   
  2   2   3  1   
  3   2   4  1   
  4   3   5  ar  
  5   3   6  ar  
  6   4   7  2   
  7   4  28  1   
  8   5   8  1   
  9   5   9  ar  
 10   6  10  ar  
 11   6  29  1   
 12   7   8  1   
 13   7  11  1   
 14   8  12  1   
 15   9  13  ar  
 16   9  30  1   
 17  10  13  ar  
 18  10  31  1   
 19  11  32  1   
 20  11  33  1   
 21  11  34  1   
 22  12  14  1   
 23  12  35  1   
 24  12  36  1   
 25  13  37  1   
 26  14  15  2   
 27  14  16  am  
 28  16  17  1   
 29  16  38  1   
 30  17  18  1   
 31  17  19  2   
 32  18  20  1   
 33  18  21  1   
 34  19  22  1   
 35  19  23  1   
 36  20  22  2   
 37  21  24  1   
 38  21  25  1   
 39  21  39  1   
 40  22  40  1   
 41  23  41  1   
 42  23  42  1   
 43  23  43  1   
 44  24  26  1   
 45  24  44  1   
 46  24  45  1   
 47  25  27  1   
 48  25  46  1   
 49  25  47  1   
 50  26  27  1   
 51  26  48  1   
 52  26  49  1   
 53  27  50  1   
 54  27  51  1   
@<TRIPOS>SUBSTRUCTURE
  1 ****  16 GROUP 4 **** **** 0

# MOE 2024.06 (io_trps.svl 2023.06)
