@<TRIPOS>MOLECULE
NONAME
42 44 1 0 0 
SMALL
USER_CHARGES


@<TRIPOS>ATOM
  1 F       -0.4560     0.9900    -1.9220 F     1 <1>  -0.3400 
  2 C       -1.3070     1.6220    -1.1210 C.3   1 <1>   1.3000 
  3 F       -1.5310     2.8300    -1.6250 F     1 <1>  -0.3400 
  4 F       -2.4520     0.9560    -1.1430 F     1 <1>  -0.3400 
  5 O       -0.8150     1.6980     0.1990 O.3   1 <1>  -0.3630 
  6 C        0.3680     2.3170     0.3930 C.ar  1 <1>   0.0830 
  7 C        0.4030     3.6760     0.6610 C.ar  1 <1>  -0.1500 
  8 C        1.5420     1.5820     0.3530 C.ar  1 <1>  -0.1500 
  9 C        1.6110     4.3340     0.8810 C.ar  1 <1>   0.0860 
 10 C        2.7500     2.2140     0.5780 C.ar  1 <1>  -0.1500 
 11 C        1.6400     5.7580     1.1590 C.2   1 <1>   0.5440 
 12 C        2.7790     3.5720     0.8430 C.ar  1 <1>  -0.1500 
 13 O        0.9660     6.1840     2.0780 O.2   1 <1>  -0.5700 
 14 N        2.3840     6.6500     0.4080 N.am  1 <1>  -0.6600 
 15 C        2.6720     8.0200     0.9550 C.3   1 <1>   0.1400 
 16 C        2.8110     6.3550    -0.9990 C.3   1 <1>   0.1400 
 17 C        4.1490     8.4740     0.9110 C.3   1 <1>   0.2200 
 18 C        4.2920     6.6270    -1.3320 C.3   1 <1>  -0.0190 
 19 N        4.5250     8.9480    -0.4510 N.am  1 <1>  -0.6600 
 20 C        5.1780     7.4610     1.4710 C.3   1 <1>   0.1200 
 21 C        4.5560     8.1030    -1.5210 C.2   1 <1>   0.5690 
 22 C        5.3560     5.9960    -0.4170 C.3   1 <1>   0.1200 
 23 C        4.7970    10.4080    -0.5880 C.3   1 <1>   0.0600 
 24 O        5.0950     6.1650     0.9410 O.3   1 <1>  -0.5600 
 25 O        4.8010     8.4920    -2.6400 O.2   1 <1>  -0.5700 
 26 H       -0.5130     4.2380     0.7120 H     1 <1>   0.1500 
 27 H        1.5100     0.5240     0.1550 H     1 <1>   0.1500 
 28 H        3.6680     1.6500     0.5560 H     1 <1>   0.1500 
 29 H        3.7190     4.0570     1.0370 H     1 <1>   0.1500 
 30 H        2.0670     8.7380     0.4310 H     1 <1>   0.0800 
 31 H        2.3720     8.0530     1.9870 H     1 <1>   0.0800 
 32 H        2.6050     5.3260    -1.2280 H     1 <1>   0.0800 
 33 H        2.2010     6.9450    -1.6610 H     1 <1>   0.0800 
 34 H        4.2070     9.3310     1.5590 H     1 <1>   0.0800 
 35 H        4.4530     6.1890    -2.3010 H     1 <1>   0.0800 
 36 H        5.0140     7.3590     2.5290 H     1 <1>   0.0800 
 37 H        6.1790     7.8260     1.3230 H     1 <1>   0.0800 
 38 H        6.3320     6.3980    -0.6320 H     1 <1>   0.0800 
 39 H        5.3860     4.9350    -0.5930 H     1 <1>   0.0800 
 40 H        5.6100    10.6890     0.0590 H     1 <1>   0.0800 
 41 H        3.9180    10.9690    -0.3230 H     1 <1>   0.0800 
 42 H        5.0670    10.6540    -1.6010 H     1 <1>   0.0800 
@<TRIPOS>BOND
  1   1   2  1   
  2   2   3  1   
  3   2   4  1   
  4   2   5  1   
  5   5   6  1   
  6   6   7  ar  
  7   6   8  ar  
  8   7   9  ar  
  9   7  26  1   
 10   8  10  ar  
 11   8  27  1   
 12   9  11  1   
 13   9  12  ar  
 14  10  12  ar  
 15  10  28  1   
 16  11  13  2   
 17  11  14  am  
 18  12  29  1   
 19  14  15  1   
 20  14  16  1   
 21  15  17  1   
 22  15  30  1   
 23  15  31  1   
 24  16  18  1   
 25  16  32  1   
 26  16  33  1   
 27  17  19  1   
 28  17  20  1   
 29  17  34  1   
 30  18  21  1   
 31  18  22  1   
 32  18  35  1   
 33  19  21  am  
 34  19  23  1   
 35  20  24  1   
 36  20  36  1   
 37  20  37  1   
 38  21  25  2   
 39  22  24  1   
 40  22  38  1   
 41  22  39  1   
 42  23  40  1   
 43  23  41  1   
 44  23  42  1   
@<TRIPOS>SUBSTRUCTURE
  1 ****   9 GROUP 4 **** **** 0

# MOE 2024.06 (io_trps.svl 2023.06)
