@<TRIPOS>MOLECULE
NONAME
47 49 1 0 0 
SMALL
USER_CHARGES


@<TRIPOS>ATOM
  1 F        1.6080     0.1560    -2.0410 F     1 <1>  -0.3400 
  2 C        2.0600    -0.1450    -0.8290 C.3   1 <1>   1.1640 
  3 F        3.3740     0.0330    -0.8660 F     1 <1>  -0.3400 
  4 F        1.5790     0.7860    -0.0140 F     1 <1>  -0.3400 
  5 C        1.6840    -1.5730    -0.3960 C.ar  1 <1>  -0.1440 
  6 C        1.5950    -2.6010    -1.3300 C.ar  1 <1>  -0.1500 
  7 C        1.4370    -1.8770     0.9390 C.ar  1 <1>  -0.1500 
  8 C        1.2620    -3.8860    -0.9400 C.ar  1 <1>  -0.1500 
  9 C        1.1040    -3.1640     1.3220 C.ar  1 <1>  -0.1500 
 10 C        1.0020    -4.1970     0.3930 C.ar  1 <1>   0.0860 
 11 C        0.6520    -5.5410     0.8140 C.2   1 <1>   0.5440 
 12 O        1.3880    -6.1290     1.5830 O.2   1 <1>  -0.5700 
 13 N       -0.4850    -6.1840     0.3670 N.am  1 <1>  -0.6600 
 14 C       -0.7930    -7.5780     0.8400 C.3   1 <1>   0.1400 
 15 C       -1.4990    -5.5310    -0.5250 C.3   1 <1>   0.1400 
 16 C       -1.6750    -8.2840    -0.2040 C.3   1 <1>   0.4230 
 17 C       -2.9150    -6.0580    -0.2470 C.3   1 <1>  -0.1600 
 18 N       -1.8120    -9.7740    -0.0900 N.4   1 <1>  -0.9590 
 19 C       -3.0620    -7.6130    -0.2490 C.3   1 <1>  -0.1060 
 20 C       -2.4960   -10.3460    -1.2820 C.3   1 <1>   0.3430 
 21 C       -0.5740   -10.5090     0.2790 C.3   1 <1>   0.2630 
 22 C       -3.9040    -8.0250     0.9730 C.2   1 <1>   0.9060 
 23 C       -3.7480    -8.1100    -1.5440 C.3   1 <1>  -0.1600 
 24 C       -3.8380    -9.6490    -1.5490 C.3   1 <1>  -0.1600 
 25 O       -5.0110    -7.5120     1.1260 O.co2 1 <1>  -0.9000 
 26 O       -3.4860    -8.9090     1.7370 O.co2 1 <1>  -0.9000 
 27 H        1.7920    -2.4040    -2.3720 H     1 <1>   0.1500 
 28 H        1.5060    -1.1110     1.6950 H     1 <1>   0.1500 
 29 H        1.2090    -4.6690    -1.6760 H     1 <1>   0.1500 
 30 H        0.9220    -3.3860     2.3600 H     1 <1>   0.1500 
 31 H        0.1320    -8.1080     0.9670 H     1 <1>   0.0800 
 32 H       -1.2970    -7.5280     1.7900 H     1 <1>   0.0800 
 33 H       -1.4920    -4.4650    -0.3720 H     1 <1>   0.0800 
 34 H       -1.2390    -5.7240    -1.5520 H     1 <1>   0.0800 
 35 H       -1.1970    -8.0930    -1.1490 H     1 <1>   0.0800 
 36 H       -3.1970    -5.6780     0.7210 H     1 <1>   0.0800 
 37 H       -3.6070    -5.6190    -0.9440 H     1 <1>   0.0800 
 38 H       -2.4860    -9.8420     0.7220 H     1 <1>   0.4500 
 39 H       -1.8610   -10.2280    -2.1440 H     1 <1>   0.0800 
 40 H       -2.6700   -11.3980    -1.1310 H     1 <1>   0.0800 
 41 H        0.1870   -10.3630    -0.4700 H     1 <1>   0.0800 
 42 H       -0.7820   -11.5620     0.3690 H     1 <1>   0.0800 
 43 H       -0.2040   -10.1560     1.2280 H     1 <1>   0.0800 
 44 H       -4.7430    -7.7000    -1.6020 H     1 <1>   0.0800 
 45 H       -3.1990    -7.7730    -2.4060 H     1 <1>   0.0800 
 46 H       -4.2230    -9.9800    -2.4970 H     1 <1>   0.0800 
 47 H       -4.5440    -9.9680    -0.8000 H     1 <1>   0.0800 
@<TRIPOS>BOND
  1   1   2  1   
  2   2   3  1   
  3   2   4  1   
  4   2   5  1   
  5   5   6  ar  
  6   5   7  ar  
  7   6   8  ar  
  8   6  27  1   
  9   7   9  ar  
 10   7  28  1   
 11   8  10  ar  
 12   8  29  1   
 13   9  10  ar  
 14   9  30  1   
 15  10  11  1   
 16  11  12  2   
 17  11  13  am  
 18  13  14  1   
 19  13  15  1   
 20  14  16  1   
 21  14  31  1   
 22  14  32  1   
 23  15  17  1   
 24  15  33  1   
 25  15  34  1   
 26  16  18  1   
 27  16  19  1   
 28  16  35  1   
 29  17  19  1   
 30  17  36  1   
 31  17  37  1   
 32  18  20  1   
 33  18  21  1   
 34  18  38  1   
 35  19  22  1   
 36  19  23  1   
 37  20  24  1   
 38  20  39  1   
 39  20  40  1   
 40  21  41  1   
 41  21  42  1   
 42  21  43  1   
 43  22  25  ar  
 44  22  26  ar  
 45  23  24  1   
 46  23  44  1   
 47  23  45  1   
 48  24  46  1   
 49  24  47  1   
@<TRIPOS>SUBSTRUCTURE
  1 ****  13 GROUP 4 **** **** 0

# MOE 2024.06 (io_trps.svl 2023.06)
