@<TRIPOS>MOLECULE
NONAME
57 58 1 0 0 
SMALL
USER_CHARGES


@<TRIPOS>ATOM
  1 S       -0.0620    -0.2270     0.0760 S.o2  1 <1>   1.3330 
  2 O       -0.8370     0.7890    -0.6000 O.2   1 <1>  -0.6500 
  3 O       -0.2350    -0.4260     1.4970 O.2   1 <1>  -0.6500 
  4 N       -0.3470    -1.7130    -0.6930 N.am  1 <1>  -0.8490 
  5 C        1.6680     0.0740    -0.2910 C.3   1 <1>  -0.0550 
  6 C       -1.7360    -1.8490    -1.1430 C.3   1 <1>   0.1160 
  7 C        0.0280    -2.8730     0.1240 C.3   1 <1>   0.1160 
  8 C        2.1830     1.4310     0.2300 C.3   1 <1>  -0.0800 
  9 C        3.5720     1.7300    -0.3060 C.3   1 <1>   0.2200 
 10 C        2.4240     1.4130     1.7440 C.3   1 <1>   0.1200 
 11 N        3.8030     3.1910    -0.2640 N.am  1 <1>  -0.7300 
 12 C        4.4620     1.0420     0.7220 C.3   1 <1>   0.1200 
 13 O        3.7720     1.0960     1.9360 O.3   1 <1>  -0.5600 
 14 C        4.1060     3.9770    -1.3380 C.2   1 <1>   0.5440 
 15 O        4.2130     3.4480    -2.4270 O.2   1 <1>  -0.5700 
 16 C        4.3150     5.4040    -1.1720 C.ar  1 <1>   0.0860 
 17 C        3.6760     6.1290    -0.1650 C.ar  1 <1>  -0.1500 
 18 C        5.1740     6.1060    -2.0170 C.ar  1 <1>  -0.1500 
 19 C        3.8990     7.4840     0.0010 C.ar  1 <1>  -0.1500 
 20 C        5.4000     7.4600    -1.8560 C.ar  1 <1>  -0.1500 
 21 C        4.7660     8.1580    -0.8420 C.ar  1 <1>  -0.1440 
 22 C        5.0250     9.6440    -0.6590 C.3   1 <1>  -0.0170 
 23 C        6.2270     9.8560     0.2780 C.3   1 <1>  -0.1600 
 24 C        6.6270    11.3230     0.5090 C.3   1 <1>   0.2800 
 25 O        6.8810    11.8940    -0.7090 O.3   1 <1>  -0.6800 
 26 C        7.9220    11.4110     1.3140 C.3   1 <1>  -0.2400 
 27 C        5.5250    12.1510     1.1700 C.3   1 <1>  -0.2400 
 28 H        2.2640    -0.7190     0.1170 H     1 <1>   0.0800 
 29 H        1.7830     0.0540    -1.3580 H     1 <1>   0.0800 
 30 H       -1.8780    -2.7950    -1.6380 H     1 <1>   0.0800 
 31 H       -1.9760    -1.0660    -1.8430 H     1 <1>   0.0800 
 32 H       -2.4100    -1.7820    -0.3050 H     1 <1>   0.0800 
 33 H       -0.0860    -3.7790    -0.4470 H     1 <1>   0.0800 
 34 H       -0.5930    -2.9320     1.0030 H     1 <1>   0.0800 
 35 H        1.0560    -2.7940     0.4330 H     1 <1>   0.0800 
 36 H        1.4840     2.2010    -0.0520 H     1 <1>   0.0800 
 37 H        3.7360     1.3490    -1.3010 H     1 <1>   0.0800 
 38 H        1.8220     0.6960     2.2710 H     1 <1>   0.0800 
 39 H        2.2590     2.3900     2.1650 H     1 <1>   0.0800 
 40 H        3.8660     3.5810     0.6780 H     1 <1>   0.3700 
 41 H        5.4200     1.5200     0.8270 H     1 <1>   0.0800 
 42 H        4.5990     0.0050     0.4720 H     1 <1>   0.0800 
 43 H        2.9890     5.6310     0.4950 H     1 <1>   0.1500 
 44 H        5.6710     5.5760    -2.8120 H     1 <1>   0.1500 
 45 H        3.3950     8.0160     0.7890 H     1 <1>   0.1500 
 46 H        6.0740     7.9710    -2.5220 H     1 <1>   0.1500 
 47 H        5.2230    10.0930    -1.6170 H     1 <1>   0.0800 
 48 H        4.1460    10.1110    -0.2550 H     1 <1>   0.0800 
 49 H        7.0730     9.3310    -0.1300 H     1 <1>   0.0800 
 50 H        6.0050     9.4040     1.2280 H     1 <1>   0.0800 
 51 H        7.1720    12.8140    -0.5790 H     1 <1>   0.4000 
 52 H        7.7820    10.9660     2.2820 H     1 <1>   0.0800 
 53 H        8.2190    12.4350     1.4550 H     1 <1>   0.0800 
 54 H        8.7120    10.8820     0.8110 H     1 <1>   0.0800 
 55 H        5.2390    11.7010     2.1030 H     1 <1>   0.0800 
 56 H        4.6560    12.2080     0.5400 H     1 <1>   0.0800 
 57 H        5.8690    13.1490     1.3720 H     1 <1>   0.0800 
@<TRIPOS>BOND
  1   1   2  2   
  2   1   3  2   
  3   1   4  am  
  4   1   5  1   
  5   4   6  1   
  6   4   7  1   
  7   5   8  1   
  8   5  28  1   
  9   5  29  1   
 10   6  30  1   
 11   6  31  1   
 12   6  32  1   
 13   7  33  1   
 14   7  34  1   
 15   7  35  1   
 16   8   9  1   
 17   8  10  1   
 18   8  36  1   
 19   9  11  1   
 20   9  12  1   
 21   9  37  1   
 22  10  13  1   
 23  10  38  1   
 24  10  39  1   
 25  11  14  am  
 26  11  40  1   
 27  12  13  1   
 28  12  41  1   
 29  12  42  1   
 30  14  15  2   
 31  14  16  1   
 32  16  17  ar  
 33  16  18  ar  
 34  17  19  ar  
 35  17  43  1   
 36  18  20  ar  
 37  18  44  1   
 38  19  21  ar  
 39  19  45  1   
 40  20  21  ar  
 41  20  46  1   
 42  21  22  1   
 43  22  23  1   
 44  22  47  1   
 45  22  48  1   
 46  23  24  1   
 47  23  49  1   
 48  23  50  1   
 49  24  25  1   
 50  24  26  1   
 51  24  27  1   
 52  25  51  1   
 53  26  52  1   
 54  26  53  1   
 55  26  54  1   
 56  27  55  1   
 57  27  56  1   
 58  27  57  1   
@<TRIPOS>SUBSTRUCTURE
  1 ****  11 GROUP 4 **** **** 0

# MOE 2024.06 (io_trps.svl 2023.06)
