@<TRIPOS>MOLECULE
NONAME
52 56 1 0 0 
SMALL
USER_CHARGES


@<TRIPOS>ATOM
  1 S       -3.8010     0.3780    -2.6070 S.3   1 <1>  -0.4600 
  2 C       -3.9850     0.9820    -0.8980 C.3   1 <1>   0.2510 
  3 C       -3.5850    -1.3940    -2.2570 C.3   1 <1>   0.2510 
  4 C       -3.8990    -0.2820    -0.0760 C.2   1 <1>   0.1080 
  5 C       -3.7020    -1.4670    -0.7530 C.2   1 <1>  -0.1810 
  6 N       -3.9860    -0.4380     1.2060 N.2   1 <1>  -0.7070 
  7 C       -3.6610    -2.4270     0.1980 C.2   1 <1>  -0.0880 
  8 N       -3.8320    -1.7740     1.3890 N.pl3 1 <1>   0.3140 
  9 N       -3.4980    -3.8160    -0.0240 N.am  1 <1>  -0.4940 
 10 C       -3.9470    -2.3400     2.7400 C.3   1 <1>   0.0160 
 11 C       -2.8380    -4.7830     0.6990 C.2   1 <1>   0.5440 
 12 O       -2.2380    -4.4550     1.7050 O.2   1 <1>  -0.5700 
 13 C       -2.8560    -6.1800     0.3040 C.ar  1 <1>   0.0860 
 14 C       -3.0920    -6.6210    -1.0170 C.ar  1 <1>   0.3930 
 15 C       -2.6310    -7.1590     1.2690 C.ar  1 <1>  -0.1500 
 16 O       -3.3000    -5.7040    -1.9830 O.3   1 <1>  -0.3620 
 17 N       -3.1240    -7.9010    -1.4020 N.ar  1 <1>  -0.6200 
 18 C       -2.6610    -8.4830     0.8820 C.ar  1 <1>   0.0860 
 19 C       -3.5020    -6.0530    -3.3410 C.3   1 <1>   0.0400 
 20 C       -2.9080    -8.7780    -0.4420 C.ar  1 <1>   0.1670 
 21 C       -2.4840    -9.7070     1.6000 C.2   1 <1>   0.5440 
 22 C       -2.8900   -10.2890    -0.6280 C.3   1 <1>   0.2840 
 23 O       -2.2610    -9.8090     2.7890 O.2   1 <1>  -0.5700 
 24 N       -2.6090   -10.7690     0.7550 N.am  1 <1>  -0.6600 
 25 C       -2.4900   -12.1950     1.1500 C.3   1 <1>   0.2200 
 26 C       -1.3930   -12.8980     0.3540 C.3   1 <1>  -0.1600 
 27 C       -3.7600   -12.9700     0.8100 C.3   1 <1>  -0.1600 
 28 C       -2.0610   -13.5040    -0.8850 C.3   1 <1>  -0.1600 
 29 C       -3.5650   -13.5530    -0.5940 C.3   1 <1>  -0.1600 
 30 H       -4.9420     1.4610    -0.8040 H     1 <1>   0.0800 
 31 H       -3.1770     1.6570    -0.6840 H     1 <1>   0.0800 
 32 H       -2.6110    -1.6880    -2.6050 H     1 <1>   0.0800 
 33 H       -4.3690    -1.9320    -2.7580 H     1 <1>   0.0800 
 34 H       -3.7940    -4.1390    -0.9490 H     1 <1>   0.3700 
 35 H       -4.5210    -1.6730     3.3540 H     1 <1>   0.0800 
 36 H       -2.9620    -2.4540     3.1530 H     1 <1>   0.0800 
 37 H       -4.4330    -3.2950     2.6870 H     1 <1>   0.0800 
 38 H       -2.4360    -6.9060     2.2980 H     1 <1>   0.1500 
 39 H       -3.6320    -5.1510    -3.9120 H     1 <1>   0.0800 
 40 H       -4.3830    -6.6680    -3.4170 H     1 <1>   0.0800 
 41 H       -2.6400    -6.5920    -3.6950 H     1 <1>   0.0800 
 42 H       -2.1070   -10.5800    -1.3040 H     1 <1>   0.0800 
 43 H       -3.8460   -10.6400    -0.9710 H     1 <1>   0.0800 
 44 H       -2.2840   -12.2500     2.2070 H     1 <1>   0.0800 
 45 H       -1.0070   -13.7010     0.9590 H     1 <1>   0.0800 
 46 H       -0.5790   -12.2380     0.1110 H     1 <1>   0.0800 
 47 H       -4.6430   -12.3610     0.8920 H     1 <1>   0.0800 
 48 H       -3.8480   -13.7850     1.5070 H     1 <1>   0.0800 
 49 H       -1.6720   -14.4900    -1.0810 H     1 <1>   0.0800 
 50 H       -1.8740   -12.8890    -1.7480 H     1 <1>   0.0800 
 51 H       -4.0990   -12.9650    -1.3200 H     1 <1>   0.0800 
 52 H       -3.9350   -14.5630    -0.6380 H     1 <1>   0.0800 
@<TRIPOS>BOND
  1   1   2  1   
  2   1   3  1   
  3   2   4  1   
  4   2  30  1   
  5   2  31  1   
  6   3   5  1   
  7   3  32  1   
  8   3  33  1   
  9   4   5  1   
 10   4   6  2   
 11   5   7  2   
 12   6   8  1   
 13   7   8  1   
 14   7   9  1   
 15   8  10  1   
 16   9  11  am  
 17   9  34  1   
 18  10  35  1   
 19  10  36  1   
 20  10  37  1   
 21  11  12  2   
 22  11  13  1   
 23  13  14  ar  
 24  13  15  ar  
 25  14  16  1   
 26  14  17  ar  
 27  15  18  ar  
 28  15  38  1   
 29  16  19  1   
 30  17  20  ar  
 31  18  20  ar  
 32  18  21  1   
 33  19  39  1   
 34  19  40  1   
 35  19  41  1   
 36  20  22  1   
 37  21  23  2   
 38  21  24  am  
 39  22  24  1   
 40  22  42  1   
 41  22  43  1   
 42  24  25  1   
 43  25  26  1   
 44  25  27  1   
 45  25  44  1   
 46  26  28  1   
 47  26  45  1   
 48  26  46  1   
 49  27  29  1   
 50  27  47  1   
 51  27  48  1   
 52  28  29  1   
 53  28  49  1   
 54  28  50  1   
 55  29  51  1   
 56  29  52  1   
@<TRIPOS>SUBSTRUCTURE
  1 ****  13 GROUP 4 **** **** 0

# MOE 2024.06 (io_trps.svl 2023.06)
