@<TRIPOS>MOLECULE
NONAME
43 45 1 0 0 
SMALL
USER_CHARGES


@<TRIPOS>ATOM
  1 O       -1.0630     0.3210    -1.6880 O.2   1 <1>  -0.5700 
  2 C       -0.9680     0.1790    -0.4950 C.2   1 <1>   0.5690 
  3 N       -1.2320    -0.9990     0.1140 N.am  1 <1>  -0.7300 
  4 C       -0.5720     1.3660     0.3460 C.3   1 <1>  -0.0990 
  5 C       -1.6420    -2.2430    -0.5780 C.3   1 <1>   0.2200 
  6 C       -1.5120     2.5410     0.0550 C.3   1 <1>   0.0960 
  7 C       -3.1250    -2.5270    -0.3670 C.3   1 <1>  -0.0800 
  8 C       -1.0280    -3.4290     0.1510 C.3   1 <1>   0.1200 
  9 N       -1.1790     3.6900     0.9140 N.pl3 1 <1>   0.3140 
 10 C       -3.1510    -3.2500     0.9850 C.3   1 <1>   0.1200 
 11 C       -4.0630    -1.3090    -0.4540 C.3   1 <1>  -0.0170 
 12 O       -1.8300    -3.6060     1.2770 O.3   1 <1>  -0.5600 
 13 N       -1.5920     3.7800     2.1580 N.2   1 <1>  -0.4180 
 14 C       -0.4450     4.7610     0.6560 C.2   1 <1>   0.0060 
 15 C       -5.5160    -1.7270    -0.2990 C.ar  1 <1>  -0.1440 
 16 N       -1.1140     4.8790     2.6180 N.2   1 <1>   0.0000 
 17 N       -0.3940     5.5040     1.6930 N.2   1 <1>  -0.3380 
 18 C        0.2410     5.0700    -0.6620 C.3   1 <1>  -0.0600 
 19 C       -6.1960    -1.5890     0.8940 C.ar  1 <1>  -0.1500 
 20 C       -6.2310    -2.2680    -1.3490 C.ar  1 <1>  -0.1500 
 21 C       -7.5180    -1.9930     0.9800 C.ar  1 <1>   0.1600 
 22 C       -7.5520    -2.6390    -1.1580 C.ar  1 <1>   0.1600 
 23 N       -8.2120    -2.5160    -0.0170 N.ar  1 <1>  -0.6200 
 24 H       -1.1570    -1.1080     1.1300 H     1 <1>   0.3700 
 25 H       -0.6240     1.1070     1.3880 H     1 <1>   0.0800 
 26 H        0.4400     1.6330     0.1020 H     1 <1>   0.0800 
 27 H       -1.3660    -2.2120    -1.6200 H     1 <1>   0.0800 
 28 H       -2.5300     2.2560     0.2530 H     1 <1>   0.0800 
 29 H       -1.4360     2.8360    -0.9760 H     1 <1>   0.0800 
 30 H       -3.4310    -3.2380    -1.1150 H     1 <1>   0.0800 
 31 H       -0.0090    -3.2560     0.4500 H     1 <1>   0.0800 
 32 H       -1.0900    -4.3230    -0.4460 H     1 <1>   0.0800 
 33 H       -3.7540    -4.1420     0.9480 H     1 <1>   0.0800 
 34 H       -3.4980    -2.6100     1.7770 H     1 <1>   0.0800 
 35 H       -3.9310    -0.8250    -1.4070 H     1 <1>   0.0800 
 36 H       -3.8200    -0.5910     0.3090 H     1 <1>   0.0800 
 37 H        0.8040     5.9830    -0.5740 H     1 <1>   0.0800 
 38 H       -0.4900     5.1940    -1.4410 H     1 <1>   0.0800 
 39 H        0.9150     4.2770    -0.9280 H     1 <1>   0.0800 
 40 H       -5.7130    -1.1720     1.7590 H     1 <1>   0.1500 
 41 H       -5.7760    -2.4040    -2.3120 H     1 <1>   0.1500 
 42 H       -8.0320    -1.8780     1.9190 H     1 <1>   0.1500 
 43 H       -8.0940    -3.0600    -1.9870 H     1 <1>   0.1500 
@<TRIPOS>BOND
  1   1   2  2   
  2   2   3  am  
  3   2   4  1   
  4   3   5  1   
  5   3  24  1   
  6   4   6  1   
  7   4  25  1   
  8   4  26  1   
  9   5   7  1   
 10   5   8  1   
 11   5  27  1   
 12   6   9  1   
 13   6  28  1   
 14   6  29  1   
 15   7  10  1   
 16   7  11  1   
 17   7  30  1   
 18   8  12  1   
 19   8  31  1   
 20   8  32  1   
 21   9  13  1   
 22   9  14  1   
 23  10  12  1   
 24  10  33  1   
 25  10  34  1   
 26  11  15  1   
 27  11  35  1   
 28  11  36  1   
 29  13  16  2   
 30  14  17  2   
 31  14  18  1   
 32  15  19  ar  
 33  15  20  ar  
 34  16  17  1   
 35  18  37  1   
 36  18  38  1   
 37  18  39  1   
 38  19  21  ar  
 39  19  40  1   
 40  20  22  ar  
 41  20  41  1   
 42  21  23  ar  
 43  21  42  1   
 44  22  23  ar  
 45  22  43  1   
@<TRIPOS>SUBSTRUCTURE
  1 ****   3 GROUP 4 **** **** 0

# MOE 2024.06 (io_trps.svl 2023.06)
