@<TRIPOS>MOLECULE
NONAME
40 41 1 0 0 
SMALL
USER_CHARGES


@<TRIPOS>ATOM
  1 F        1.8330     0.7180    -1.2920 F     1 <1>  -0.1900 
  2 C        2.5020    -0.0510    -0.4750 C.ar  1 <1>   0.1900 
  3 C        3.4330     0.5010     0.4130 C.ar  1 <1>   0.0860 
  4 C        2.2330    -1.4050    -0.5520 C.ar  1 <1>  -0.1500 
  5 C        3.7300     1.9220     0.5180 C.2   1 <1>   0.5440 
  6 C        4.0980    -0.4170     1.2320 C.ar  1 <1>  -0.1500 
  7 C        2.9120    -2.2770     0.2790 C.ar  1 <1>  -0.1500 
  8 O        4.7360     2.2970     1.0920 O.2   1 <1>  -0.5700 
  9 N        2.9120     2.8850    -0.0050 N.am  1 <1>  -0.7300 
 10 C        3.8450    -1.7780     1.1710 C.ar  1 <1>  -0.1500 
 11 C        3.1330     4.3430     0.1150 C.3   1 <1>   0.1400 
 12 C        4.0850     4.8070    -0.9820 C.3   1 <1>  -0.0990 
 13 C        4.5030     6.2310    -0.7180 C.2   1 <1>   0.5690 
 14 O        3.8940     7.1300    -1.2430 O.2   1 <1>  -0.5700 
 15 N        5.5510     6.4470     0.1150 N.am  1 <1>  -0.7300 
 16 C        6.0680     7.7800     0.4980 C.3   1 <1>   0.1400 
 17 C        7.2460     8.1760    -0.4020 C.3   1 <1>  -0.0800 
 18 C        8.4620     7.2900    -0.1660 C.3   1 <1>   0.1200 
 19 C        7.8000     9.5400    -0.0150 C.3   1 <1>  -0.1600 
 20 O        9.0870     7.8350     0.9480 O.3   1 <1>  -0.5600 
 21 C        8.9220     9.2180     0.9720 C.3   1 <1>   0.1200 
 22 H        1.5050    -1.7720    -1.2550 H     1 <1>   0.1500 
 23 H        4.8300    -0.0540     1.9350 H     1 <1>   0.1500 
 24 H        2.7170    -3.3350     0.2330 H     1 <1>   0.1500 
 25 H        2.1130     2.5920    -0.5760 H     1 <1>   0.3700 
 26 H        4.3780    -2.4520     1.8200 H     1 <1>   0.1500 
 27 H        3.5600     4.5550     1.0820 H     1 <1>   0.0800 
 28 H        2.1930     4.8650     0.0410 H     1 <1>   0.0800 
 29 H        3.5990     4.7530    -1.9390 H     1 <1>   0.0800 
 30 H        4.9610     4.1850    -0.9990 H     1 <1>   0.0800 
 31 H        6.0190     5.6470     0.5500 H     1 <1>   0.3700 
 32 H        6.3750     7.7600     1.5310 H     1 <1>   0.0800 
 33 H        5.2790     8.5070     0.3960 H     1 <1>   0.0800 
 34 H        6.9320     8.1580    -1.4320 H     1 <1>   0.0800 
 35 H        9.1480     7.3500    -0.9930 H     1 <1>   0.0800 
 36 H        8.2150     6.2610     0.0300 H     1 <1>   0.0800 
 37 H        7.0600    10.1910     0.4170 H     1 <1>   0.0800 
 38 H        8.2220    10.0260    -0.8770 H     1 <1>   0.0800 
 39 H        8.6650     9.5040     1.9770 H     1 <1>   0.0800 
 40 H        9.8510     9.6800     0.6830 H     1 <1>   0.0800 
@<TRIPOS>BOND
  1   1   2  1   
  2   2   3  ar  
  3   2   4  ar  
  4   3   5  1   
  5   3   6  ar  
  6   4   7  ar  
  7   4  22  1   
  8   5   8  2   
  9   5   9  am  
 10   6  10  ar  
 11   6  23  1   
 12   7  10  ar  
 13   7  24  1   
 14   9  11  1   
 15   9  25  1   
 16  10  26  1   
 17  11  12  1   
 18  11  27  1   
 19  11  28  1   
 20  12  13  1   
 21  12  29  1   
 22  12  30  1   
 23  13  14  2   
 24  13  15  am  
 25  15  16  1   
 26  15  31  1   
 27  16  17  1   
 28  16  32  1   
 29  16  33  1   
 30  17  18  1   
 31  17  19  1   
 32  17  34  1   
 33  18  20  1   
 34  18  35  1   
 35  18  36  1   
 36  19  21  1   
 37  19  37  1   
 38  19  38  1   
 39  20  21  1   
 40  21  39  1   
 41  21  40  1   
@<TRIPOS>SUBSTRUCTURE
  1 ****  12 GROUP 4 **** **** 0

# MOE 2024.06 (io_trps.svl 2023.06)
