@<TRIPOS>MOLECULE
NONAME
47 49 1 0 0 
SMALL
USER_CHARGES


@<TRIPOS>ATOM
  1 CL       2.1540    -0.6690    -2.8830 Cl    1 <1>  -0.1770 
  2 C        1.7220    -1.4300    -1.3690 C.ar  1 <1>   0.1770 
  3 C        1.4670    -0.6650    -0.2420 C.ar  1 <1>   0.1770 
  4 C        1.6410    -2.8100    -1.3200 C.ar  1 <1>  -0.1500 
  5 CL       1.5670     1.0800    -0.3010 Cl    1 <1>  -0.1770 
  6 C        1.1280    -1.2740     0.9530 C.ar  1 <1>  -0.1500 
  7 C        1.2990    -3.4280    -0.1190 C.ar  1 <1>   0.0830 
  8 C        1.0460    -2.6570     1.0080 C.ar  1 <1>  -0.1500 
  9 O        1.1910    -4.7690     0.0300 O.3   1 <1>  -0.3630 
 10 C        1.3460    -5.6530    -1.0730 C.3   1 <1>   0.1810 
 11 C        1.1200    -7.1060    -0.6630 C.2   1 <1>   0.5690 
 12 O        2.0530    -7.8710    -0.7560 O.2   1 <1>  -0.5700 
 13 N       -0.1110    -7.5330    -0.2420 N.am  1 <1>  -0.6600 
 14 C       -1.3160    -6.6900    -0.0650 C.3   1 <1>   0.1400 
 15 C       -0.3910    -8.9390     0.1070 C.3   1 <1>   0.1400 
 16 C       -2.3070    -7.5610     0.7190 C.3   1 <1>  -0.0800 
 17 C       -1.8940    -9.0090     0.3910 C.3   1 <1>  -0.0800 
 18 C       -3.8200    -7.2420     0.5090 C.3   1 <1>   0.2800 
 19 C       -2.6960    -9.5510    -0.8020 C.3   1 <1>  -0.1600 
 20 O       -4.0270    -6.6860    -0.7400 O.3   1 <1>  -0.6800 
 21 C       -4.6460    -8.5420     0.5480 C.3   1 <1>  -0.1600 
 22 C       -4.3680    -6.2360     1.5450 C.3   1 <1>  -0.1600 
 23 C       -4.2060    -9.5860    -0.5010 C.3   1 <1>  -0.1600 
 24 C       -3.6880    -4.8560     1.5590 C.3   1 <1>  -0.2400 
 25 H        1.8490    -3.3660    -2.2140 H     1 <1>   0.1500 
 26 H        0.9330    -0.6740     1.8240 H     1 <1>   0.1500 
 27 H        0.7860    -3.1490     1.9290 H     1 <1>   0.1500 
 28 H        0.6350    -5.3840    -1.8300 H     1 <1>   0.0800 
 29 H        2.3460    -5.5450    -1.4510 H     1 <1>   0.0800 
 30 H       -1.0840    -5.7890     0.4730 H     1 <1>   0.0800 
 31 H       -1.6890    -6.4380    -1.0420 H     1 <1>   0.0800 
 32 H       -0.1000    -9.5940    -0.6970 H     1 <1>   0.0800 
 33 H        0.1700    -9.1940     0.9900 H     1 <1>   0.0800 
 34 H       -2.0840    -7.4230     1.7620 H     1 <1>   0.0800 
 35 H       -2.0640    -9.6530     1.2360 H     1 <1>   0.0800 
 36 H       -2.5230    -8.9110    -1.6520 H     1 <1>   0.0800 
 37 H       -2.3570   -10.5380    -1.0650 H     1 <1>   0.0800 
 38 H       -4.9830    -6.5860    -0.8910 H     1 <1>   0.4000 
 39 H       -4.5270    -8.9780     1.5250 H     1 <1>   0.0800 
 40 H       -5.6940    -8.3290     0.4300 H     1 <1>   0.0800 
 41 H       -5.4210    -6.0960     1.3710 H     1 <1>   0.0800 
 42 H       -4.2730    -6.6670     2.5270 H     1 <1>   0.0800 
 43 H       -4.4800   -10.5650    -0.1490 H     1 <1>   0.0800 
 44 H       -4.7380    -9.4150    -1.4220 H     1 <1>   0.0800 
 45 H       -3.7120    -4.4080     0.5800 H     1 <1>   0.0800 
 46 H       -2.6660    -4.9340     1.8810 H     1 <1>   0.0800 
 47 H       -4.2030    -4.2030     2.2410 H     1 <1>   0.0800 
@<TRIPOS>BOND
  1   1   2  1   
  2   2   3  ar  
  3   2   4  ar  
  4   3   5  1   
  5   3   6  ar  
  6   4   7  ar  
  7   4  25  1   
  8   6   8  ar  
  9   6  26  1   
 10   7   8  ar  
 11   7   9  1   
 12   8  27  1   
 13   9  10  1   
 14  10  11  1   
 15  10  28  1   
 16  10  29  1   
 17  11  12  2   
 18  11  13  am  
 19  13  14  1   
 20  13  15  1   
 21  14  16  1   
 22  14  30  1   
 23  14  31  1   
 24  15  17  1   
 25  15  32  1   
 26  15  33  1   
 27  16  17  1   
 28  16  18  1   
 29  16  34  1   
 30  17  19  1   
 31  17  35  1   
 32  18  20  1   
 33  18  21  1   
 34  18  22  1   
 35  19  23  1   
 36  19  36  1   
 37  19  37  1   
 38  20  38  1   
 39  21  23  1   
 40  21  39  1   
 41  21  40  1   
 42  22  24  1   
 43  22  41  1   
 44  22  42  1   
 45  23  43  1   
 46  23  44  1   
 47  24  45  1   
 48  24  46  1   
 49  24  47  1   
@<TRIPOS>SUBSTRUCTURE
  1 ****  14 GROUP 4 **** **** 0

# MOE 2024.06 (io_trps.svl 2023.06)
