@<TRIPOS>MOLECULE
NONAME
56 59 1 0 0 
SMALL
USER_CHARGES


@<TRIPOS>ATOM
  1 O        0.1890     1.3200     0.0750 O.2   1 <1>  -0.5700 
  2 C       -0.1900     2.4370    -0.1960 C.2   1 <1>   0.5690 
  3 N       -1.2960     3.0200     0.3630 N.am  1 <1>  -0.5090 
  4 C        0.6110     3.2450    -1.2080 C.3   1 <1>   0.1810 
  5 C       -1.7180     4.4030    -0.0370 C.3   1 <1>   0.3640 
  6 C       -1.9760     2.4400     1.5490 C.3   1 <1>   0.0490 
  7 O        0.6460     4.6000    -0.8430 O.3   1 <1>  -0.5600 
  8 C       -2.9710     4.3350    -0.9110 C.ar  1 <1>  -0.1440 
  9 C       -0.6290     5.2290    -0.7850 C.3   1 <1>   0.2610 
 10 C       -2.5520     1.0630     1.4430 C.3   1 <1>  -0.2000 
 11 C       -3.4620     2.2420     1.5610 C.3   1 <1>  -0.2000 
 12 C       -3.9610     5.2970    -0.7590 C.ar  1 <1>   0.1600 
 13 C       -3.1560     3.3460    -1.8620 C.ar  1 <1>  -0.1500 
 14 C       -0.5140     6.6170    -0.1460 C.2   1 <1>   0.5690 
 15 N       -5.0860     5.3460    -1.4540 N.ar  1 <1>  -0.6200 
 16 C       -4.3230     3.3840    -2.5940 C.ar  1 <1>  -0.1500 
 17 O       -1.5210     7.2570     0.0460 O.2   1 <1>  -0.5700 
 18 N        0.7130     7.0930     0.1980 N.am  1 <1>  -0.7300 
 19 C       -5.2410     4.3900    -2.3540 C.ar  1 <1>   0.1600 
 20 C        1.0020     8.4120     0.7970 C.3   1 <1>   0.1400 
 21 C        1.9710     9.1700    -0.1120 C.3   1 <1>  -0.1600 
 22 C        2.2340    10.6130     0.3580 C.3   1 <1>  -0.0800 
 23 C        3.0760    11.3550    -0.6950 C.3   1 <1>  -0.1600 
 24 C        2.9350    10.6600     1.7310 C.3   1 <1>  -0.1600 
 25 C        3.3820    12.7960    -0.2670 C.3   1 <1>  -0.1600 
 26 C        3.2470    12.1010     2.1580 C.3   1 <1>  -0.1600 
 27 C        4.0800    12.8300     1.0970 C.3   1 <1>  -0.1600 
 28 H        0.1780     3.1550    -2.1880 H     1 <1>   0.0800 
 29 H        1.6230     2.8840    -1.2340 H     1 <1>   0.0800 
 30 H       -1.9740     4.9250     0.8700 H     1 <1>   0.0800 
 31 H       -1.4850     2.7050     2.4710 H     1 <1>   0.1000 
 32 H       -0.9430     5.3810    -1.8020 H     1 <1>   0.0800 
 33 H       -2.4770     0.5490     0.5000 H     1 <1>   0.1000 
 34 H       -2.4530     0.4000     2.2830 H     1 <1>   0.1000 
 35 H       -3.9950     2.3750     2.4860 H     1 <1>   0.1000 
 36 H       -4.0650     2.4830     0.7050 H     1 <1>   0.1000 
 37 H       -3.8260     6.0770    -0.0260 H     1 <1>   0.1500 
 38 H       -2.4350     2.5650    -2.0290 H     1 <1>   0.1500 
 39 H       -4.5230     2.6410    -3.3440 H     1 <1>   0.1500 
 40 H        1.5170     6.4850     0.0120 H     1 <1>   0.3700 
 41 H       -6.1500     4.4100    -2.9310 H     1 <1>   0.1500 
 42 H        0.0880     8.9720     0.9070 H     1 <1>   0.0800 
 43 H        1.4310     8.2640     1.7730 H     1 <1>   0.0800 
 44 H        2.9030     8.6350    -0.1660 H     1 <1>   0.0800 
 45 H        1.5430     9.2050    -1.0990 H     1 <1>   0.0800 
 46 H        1.2870    11.1200     0.4430 H     1 <1>   0.0800 
 47 H        4.0050    10.8310    -0.8480 H     1 <1>   0.0800 
 48 H        2.5500    11.3730    -1.6340 H     1 <1>   0.0800 
 49 H        2.3130    10.2120     2.4840 H     1 <1>   0.0800 
 50 H        3.8550    10.1010     1.6840 H     1 <1>   0.0800 
 51 H        4.0090    13.2660    -1.0040 H     1 <1>   0.0800 
 52 H        2.4620    13.3540    -0.2110 H     1 <1>   0.0800 
 53 H        2.3240    12.6330     2.3120 H     1 <1>   0.0800 
 54 H        3.7820    12.0920     3.0920 H     1 <1>   0.0800 
 55 H        4.2350    13.8510     1.3990 H     1 <1>   0.0800 
 56 H        5.0450    12.3590     1.0160 H     1 <1>   0.0800 
@<TRIPOS>BOND
  1   1   2  2   
  2   2   3  am  
  3   2   4  1   
  4   3   5  1   
  5   3   6  1   
  6   4   7  1   
  7   4  28  1   
  8   4  29  1   
  9   5   8  1   
 10   5   9  1   
 11   5  30  1   
 12   6  10  1   
 13   6  11  1   
 14   6  31  1   
 15   7   9  1   
 16   8  12  ar  
 17   8  13  ar  
 18   9  14  1   
 19   9  32  1   
 20  10  11  1   
 21  10  33  1   
 22  10  34  1   
 23  11  35  1   
 24  11  36  1   
 25  12  15  ar  
 26  12  37  1   
 27  13  16  ar  
 28  13  38  1   
 29  14  17  2   
 30  14  18  am  
 31  15  19  ar  
 32  16  19  ar  
 33  16  39  1   
 34  18  20  1   
 35  18  40  1   
 36  19  41  1   
 37  20  21  1   
 38  20  42  1   
 39  20  43  1   
 40  21  22  1   
 41  21  44  1   
 42  21  45  1   
 43  22  23  1   
 44  22  24  1   
 45  22  46  1   
 46  23  25  1   
 47  23  47  1   
 48  23  48  1   
 49  24  26  1   
 50  24  49  1   
 51  24  50  1   
 52  25  27  1   
 53  25  51  1   
 54  25  52  1   
 55  26  27  1   
 56  26  53  1   
 57  26  54  1   
 58  27  55  1   
 59  27  56  1   
@<TRIPOS>SUBSTRUCTURE
  1 ****  14 GROUP 4 **** **** 0

# MOE 2024.06 (io_trps.svl 2023.06)
