@<TRIPOS>MOLECULE
NONAME
62 64 1 0 0 
SMALL
USER_CHARGES


@<TRIPOS>ATOM
  1 O       -0.8770     2.6560    -0.3450 O.3   1 <1>  -0.5320 
  2 C        0.0110     3.3430     0.3850 C.ar  1 <1>   0.0830 
  3 C        1.1740     3.7790    -0.2220 C.ar  1 <1>  -0.1500 
  4 C       -0.2320     3.6110     1.7210 C.ar  1 <1>  -0.1500 
  5 C        2.1090     4.5050     0.5020 C.ar  1 <1>  -0.1430 
  6 C        0.7050     4.3200     2.4510 C.ar  1 <1>  -0.1500 
  7 C        1.8700     4.7630     1.8470 C.ar  1 <1>  -0.1500 
  8 C        3.3810     5.0000    -0.1690 C.3   1 <1>   0.4860 
  9 N        3.1580     6.3190    -0.8370 N.4   1 <1>  -0.9590 
 10 C        2.6720     7.3530     0.1190 C.3   1 <1>   0.4860 
 11 C        2.2360     6.2120    -2.0120 C.3   1 <1>   0.2630 
 12 C        2.8100     8.7110    -0.5440 C.ar  1 <1>  -0.1430 
 13 C        4.0370     9.3630    -0.6910 C.ar  1 <1>  -0.1430 
 14 C        1.6500     9.2980    -1.0280 C.ar  1 <1>  -0.1500 
 15 C        4.0770    10.5910    -1.3520 C.ar  1 <1>  -0.1430 
 16 C        5.3390     8.7730    -0.1440 C.3   1 <1>  -0.0970 
 17 C        1.6910    10.5120    -1.6830 C.ar  1 <1>  -0.1430 
 18 C        2.9060    11.1470    -1.8450 C.ar  1 <1>  -0.1500 
 19 C        5.3710    11.3780    -1.5710 C.3   1 <1>   0.2530 
 20 C        0.4130    11.1400    -2.2140 C.3   1 <1>  -0.0970 
 21 N        5.8220    12.0450    -0.3310 N.3   1 <1>  -0.8100 
 22 C        4.8080    12.9830     0.2030 C.3   1 <1>   0.1100 
 23 C        7.1220    12.7150    -0.5320 C.3   1 <1>   0.1100 
 24 C        5.2840    13.6550     1.5060 C.3   1 <1>   0.3430 
 25 C        7.6240    13.3780     0.7680 C.3   1 <1>   0.3430 
 26 N        6.6130    14.3390     1.3320 N.4   1 <1>  -0.9590 
 27 C        7.0860    14.9280     2.6200 C.3   1 <1>   0.2630 
 28 H       -1.6450     2.3420     0.1680 H     1 <1>   0.4500 
 29 H        1.3260     3.5320    -1.2580 H     1 <1>   0.1500 
 30 H       -1.1360     3.2700     2.1930 H     1 <1>   0.1500 
 31 H        0.5250     4.5240     3.4940 H     1 <1>   0.1500 
 32 H        2.5850     5.3030     2.4450 H     1 <1>   0.1500 
 33 H        3.7050     4.2720    -0.8960 H     1 <1>   0.0800 
 34 H        4.1560     5.0920     0.5740 H     1 <1>   0.0800 
 35 H        4.0550     6.6760    -1.1860 H     1 <1>   0.4500 
 36 H        3.2540     7.3350     1.0250 H     1 <1>   0.0800 
 37 H        1.6420     7.1670     0.3770 H     1 <1>   0.0800 
 38 H        1.2470     5.9300    -1.6890 H     1 <1>   0.0800 
 39 H        2.5970     5.4730    -2.7080 H     1 <1>   0.0800 
 40 H        2.1710     7.1600    -2.5230 H     1 <1>   0.0800 
 41 H        0.6970     8.8120    -0.9020 H     1 <1>   0.1500 
 42 H        5.1910     7.9080     0.4710 H     1 <1>   0.0800 
 43 H        5.8410     9.5030     0.4650 H     1 <1>   0.0800 
 44 H        5.9910     8.5070    -0.9570 H     1 <1>   0.0800 
 45 H        2.9350    12.0910    -2.3600 H     1 <1>   0.1500 
 46 H        5.2240    12.1130    -2.3450 H     1 <1>   0.0800 
 47 H        6.1370    10.7040    -1.9150 H     1 <1>   0.0800 
 48 H       -0.2320    10.3870    -2.6290 H     1 <1>   0.0800 
 49 H        0.6320    11.8570    -2.9860 H     1 <1>   0.0800 
 50 H       -0.1060    11.6410    -1.4170 H     1 <1>   0.0800 
 51 H        3.9010    12.4450     0.4220 H     1 <1>   0.0800 
 52 H        4.5760    13.7350    -0.5310 H     1 <1>   0.0800 
 53 H        7.0400    13.4590    -1.3070 H     1 <1>   0.0800 
 54 H        7.8500    11.9870    -0.8490 H     1 <1>   0.0800 
 55 H        5.3650    12.8950     2.2650 H     1 <1>   0.0800 
 56 H        4.5420    14.3670     1.8270 H     1 <1>   0.0800 
 57 H        8.5490    13.8920     0.5690 H     1 <1>   0.0800 
 58 H        7.8240    12.6000     1.4870 H     1 <1>   0.0800 
 59 H        6.4840    15.0920     0.6430 H     1 <1>   0.4500 
 60 H        7.2280    14.1540     3.3560 H     1 <1>   0.0800 
 61 H        6.3630    15.6340     2.9960 H     1 <1>   0.0800 
 62 H        8.0230    15.4420     2.4750 H     1 <1>   0.0800 
@<TRIPOS>BOND
  1   1   2  1   
  2   1  28  1   
  3   2   3  ar  
  4   2   4  ar  
  5   3   5  ar  
  6   3  29  1   
  7   4   6  ar  
  8   4  30  1   
  9   5   7  ar  
 10   5   8  1   
 11   6   7  ar  
 12   6  31  1   
 13   7  32  1   
 14   8   9  1   
 15   8  33  1   
 16   8  34  1   
 17   9  10  1   
 18   9  11  1   
 19   9  35  1   
 20  10  12  1   
 21  10  36  1   
 22  10  37  1   
 23  11  38  1   
 24  11  39  1   
 25  11  40  1   
 26  12  13  ar  
 27  12  14  ar  
 28  13  15  ar  
 29  13  16  1   
 30  14  17  ar  
 31  14  41  1   
 32  15  18  ar  
 33  15  19  1   
 34  16  42  1   
 35  16  43  1   
 36  16  44  1   
 37  17  18  ar  
 38  17  20  1   
 39  18  45  1   
 40  19  21  1   
 41  19  46  1   
 42  19  47  1   
 43  20  48  1   
 44  20  49  1   
 45  20  50  1   
 46  21  22  1   
 47  21  23  1   
 48  22  24  1   
 49  22  51  1   
 50  22  52  1   
 51  23  25  1   
 52  23  53  1   
 53  23  54  1   
 54  24  26  1   
 55  24  55  1   
 56  24  56  1   
 57  25  26  1   
 58  25  57  1   
 59  25  58  1   
 60  26  27  1   
 61  26  59  1   
 62  27  60  1   
 63  27  61  1   
 64  27  62  1   
@<TRIPOS>SUBSTRUCTURE
  1 ****  12 GROUP 4 **** **** 0

# MOE 2024.06 (io_trps.svl 2023.06)
