@<TRIPOS>MOLECULE
NONAME
52 54 1 0 0 
SMALL
USER_CHARGES


@<TRIPOS>ATOM
  1 O       -1.1880    -1.4690    -0.5920 O.co2 1 <1>  -0.9000 
  2 C       -0.9280    -2.6520    -0.3520 C.2   1 <1>   1.0330 
  3 O       -1.8570    -3.3760     0.0740 O.co2 1 <1>  -0.9000 
  4 C        0.3770    -3.2120    -0.5540 C.2   1 <1>  -0.2330 
  5 C        0.6110    -4.5780    -0.6930 C.2   1 <1>   0.3720 
  6 C        1.6240    -2.6760    -0.6580 C.2   1 <1>   0.0870 
  7 N        1.8550    -4.8450    -0.8520 N.2   1 <1>  -0.4100 
  8 N       -0.3890    -5.5340    -0.6420 N.pl3 1 <1>  -0.8520 
  9 O        2.4520    -3.6830    -0.8360 O.3   1 <1>  -0.0190 
 10 C        2.1630    -1.3370    -0.5930 C.ar  1 <1>   0.0530 
 11 C       -0.1830    -6.6200     0.3540 C.3   1 <1>   0.2090 
 12 C        1.5630    -0.3240     0.1540 C.ar  1 <1>  -0.1500 
 13 C        3.3390    -1.0110    -1.2730 C.ar  1 <1>  -0.1500 
 14 C       -1.4610    -6.9770     1.1840 C.3   1 <1>   0.5030 
 15 C        2.1030     0.9470     0.2200 C.ar  1 <1>  -0.1500 
 16 C        3.8880     0.2570    -1.2110 C.ar  1 <1>  -0.1500 
 17 N       -2.7300    -7.0100     0.3810 N.4   1 <1>  -0.9590 
 18 C       -1.6190    -6.0030     2.3590 C.3   1 <1>  -0.2400 
 19 C       -1.2940    -8.3810     1.7770 C.3   1 <1>  -0.2400 
 20 C        3.2700     1.2420    -0.4620 C.ar  1 <1>  -0.1500 
 21 C       -2.6300    -7.7460    -0.9270 C.3   1 <1>   0.3430 
 22 C       -3.4090    -5.6920     0.1030 C.3   1 <1>   0.3430 
 23 C       -4.0030    -7.8250    -1.6420 C.3   1 <1>   0.1100 
 24 C       -4.8570    -5.9240    -0.3860 C.3   1 <1>   0.1100 
 25 N       -5.1050    -7.3370    -0.7820 N.3   1 <1>  -0.8100 
 26 C       -6.4080    -7.4760    -1.4430 C.3   1 <1>   0.0300 
 27 H       -1.2260    -4.9770    -0.3750 H     1 <1>   0.4000 
 28 H        0.6090    -6.3470     1.0320 H     1 <1>   0.0800 
 29 H        0.1560    -7.4910    -0.1790 H     1 <1>   0.0800 
 30 H        0.6550    -0.5310     0.6910 H     1 <1>   0.1500 
 31 H        3.8270    -1.7660    -1.8620 H     1 <1>   0.1500 
 32 H        1.6090     1.7060     0.8010 H     1 <1>   0.1500 
 33 H        4.7940     0.4780    -1.7470 H     1 <1>   0.1500 
 34 H       -3.4450    -7.5240     0.9080 H     1 <1>   0.4500 
 35 H       -1.6160    -4.9820     2.0220 H     1 <1>   0.0800 
 36 H       -0.7920    -6.1030     3.0380 H     1 <1>   0.0800 
 37 H       -2.5240    -6.1950     2.9060 H     1 <1>   0.0800 
 38 H       -1.1500    -9.1200     1.0100 H     1 <1>   0.0800 
 39 H       -2.1500    -8.6510     2.3700 H     1 <1>   0.0800 
 40 H       -0.4300    -8.4090     2.4170 H     1 <1>   0.0800 
 41 H        3.6900     2.2310    -0.4120 H     1 <1>   0.1500 
 42 H       -2.2730    -8.7470    -0.7570 H     1 <1>   0.0800 
 43 H       -1.9250    -7.2510    -1.5750 H     1 <1>   0.0800 
 44 H       -2.8770    -5.1680    -0.6730 H     1 <1>   0.0800 
 45 H       -3.4230    -5.0540     0.9700 H     1 <1>   0.0800 
 46 H       -4.1900    -8.8470    -1.9260 H     1 <1>   0.0800 
 47 H       -3.9600    -7.2390    -2.5450 H     1 <1>   0.0800 
 48 H       -5.0450    -5.2620    -1.2140 H     1 <1>   0.0800 
 49 H       -5.5370    -5.6550     0.4030 H     1 <1>   0.0800 
 50 H       -6.5930    -8.5100    -1.6800 H     1 <1>   0.0800 
 51 H       -6.4380    -6.8970    -2.3510 H     1 <1>   0.0800 
 52 H       -7.1910    -7.1360    -0.7860 H     1 <1>   0.0800 
@<TRIPOS>BOND
  1   1   2  ar  
  2   2   3  ar  
  3   2   4  1   
  4   4   5  1   
  5   4   6  2   
  6   5   7  2   
  7   5   8  1   
  8   6   9  1   
  9   6  10  1   
 10   7   9  1   
 11   8  11  1   
 12   8  27  1   
 13  10  12  ar  
 14  10  13  ar  
 15  11  14  1   
 16  11  28  1   
 17  11  29  1   
 18  12  15  ar  
 19  12  30  1   
 20  13  16  ar  
 21  13  31  1   
 22  14  17  1   
 23  14  18  1   
 24  14  19  1   
 25  15  20  ar  
 26  15  32  1   
 27  16  20  ar  
 28  16  33  1   
 29  17  21  1   
 30  17  22  1   
 31  17  34  1   
 32  18  35  1   
 33  18  36  1   
 34  18  37  1   
 35  19  38  1   
 36  19  39  1   
 37  19  40  1   
 38  20  41  1   
 39  21  23  1   
 40  21  42  1   
 41  21  43  1   
 42  22  24  1   
 43  22  44  1   
 44  22  45  1   
 45  23  25  1   
 46  23  46  1   
 47  23  47  1   
 48  24  25  1   
 49  24  48  1   
 50  24  49  1   
 51  25  26  1   
 52  26  50  1   
 53  26  51  1   
 54  26  52  1   
@<TRIPOS>SUBSTRUCTURE
  1 ****   5 GROUP 4 **** **** 0

# MOE 2024.06 (io_trps.svl 2023.06)
