@<TRIPOS>MOLECULE
NONAME
46 48 1 0 0 
SMALL
USER_CHARGES


@<TRIPOS>ATOM
  1 O       -0.9700    -0.6060     0.8710 O.2   1 <1>  -0.5700 
  2 C       -1.7900    -0.7830     0.0080 C.2   1 <1>   0.4230 
  3 C       -3.1830    -0.9750     0.2990 C.ar  1 <1>   0.0860 
  4 C       -1.2680    -0.8700    -1.4130 C.3   1 <1>  -0.1790 
  5 C       -4.2590    -0.4410    -0.4050 C.ar  1 <1>   0.1660 
  6 C       -3.5350    -1.7670     1.3790 C.ar  1 <1>   0.1600 
  7 N       -5.5000    -0.7270    -0.1080 N.ar  1 <1>  -0.6200 
  8 C       -4.0900     0.5370    -1.5560 C.3   1 <1>  -0.0960 
  9 N       -4.7690    -2.0570     1.6990 N.ar  1 <1>  -0.6200 
 10 C       -5.7200    -1.5330     0.9300 C.ar  1 <1>   0.7200 
 11 N       -7.0190    -1.8490     1.2180 N.pl3 1 <1>  -0.8380 
 12 C       -7.3950    -2.9760     2.1350 C.3   1 <1>   0.3900 
 13 C       -8.1770    -1.2080     0.5310 C.3   1 <1>   0.1290 
 14 C       -8.2800    -4.0080     1.4350 C.2   1 <1>   0.1080 
 15 N       -9.5280    -4.1990     1.7550 N.2   1 <1>  -0.7070 
 16 C       -7.8770    -4.8460     0.3930 C.2   1 <1>  -0.1810 
 17 N       -9.9490    -5.1650     0.9210 N.pl3 1 <1>   0.3000 
 18 C       -8.9710    -5.5720     0.0870 C.2   1 <1>  -0.3320 
 19 C       -6.5110    -4.9140    -0.2660 C.3   1 <1>   0.0210 
 20 C       -9.1480    -6.6390    -0.9750 C.3   1 <1>   0.0200 
 21 C       -5.9570    -6.3440    -0.3120 C.3   1 <1>  -0.1600 
 22 C       -8.0720    -7.7270    -0.8770 C.3   1 <1>  -0.1600 
 23 C       -6.6680    -7.2710    -1.3130 C.3   1 <1>  -0.1600 
 24 H       -1.9590    -1.3980    -2.0440 H     1 <1>   0.0800 
 25 H       -0.3330    -1.4000    -1.4150 H     1 <1>   0.0800 
 26 H       -1.0990     0.1160    -1.8020 H     1 <1>   0.0800 
 27 H       -2.7500    -2.1770     1.9930 H     1 <1>   0.1500 
 28 H       -3.2520     1.1870    -1.3900 H     1 <1>   0.0800 
 29 H       -4.9680     1.1520    -1.6460 H     1 <1>   0.0800 
 30 H       -3.9600     0.0010    -2.4780 H     1 <1>   0.0800 
 31 H       -7.9320    -2.5730     2.9740 H     1 <1>   0.0800 
 32 H       -6.5300    -3.4830     2.5190 H     1 <1>   0.0800 
 33 H       -7.9480    -0.1900     0.2690 H     1 <1>   0.0800 
 34 H       -9.0380    -1.2090     1.1770 H     1 <1>   0.0800 
 35 H       -8.4130    -1.7580    -0.3630 H     1 <1>   0.0800 
 36 H      -10.9090    -5.5250     0.9440 H     1 <1>   0.2700 
 37 H       -5.8200    -4.3060     0.2860 H     1 <1>   0.0800 
 38 H       -6.5770    -4.5070    -1.2590 H     1 <1>   0.0800 
 39 H       -9.1210    -6.1810    -1.9490 H     1 <1>   0.0800 
 40 H      -10.1130    -7.1000    -0.8580 H     1 <1>   0.0800 
 41 H       -5.9950    -6.7720     0.6750 H     1 <1>   0.0800 
 42 H       -4.9210    -6.2840    -0.5950 H     1 <1>   0.0800 
 43 H       -8.3680    -8.5400    -1.5160 H     1 <1>   0.0800 
 44 H       -8.0360    -8.1050     0.1300 H     1 <1>   0.0800 
 45 H       -6.0620    -8.1540    -1.4240 H     1 <1>   0.0800 
 46 H       -6.7190    -6.7990    -2.2790 H     1 <1>   0.0800 
@<TRIPOS>BOND
  1   1   2  2   
  2   2   3  1   
  3   2   4  1   
  4   3   5  ar  
  5   3   6  ar  
  6   4  24  1   
  7   4  25  1   
  8   4  26  1   
  9   5   7  ar  
 10   5   8  1   
 11   6   9  ar  
 12   6  27  1   
 13   7  10  ar  
 14   8  28  1   
 15   8  29  1   
 16   8  30  1   
 17   9  10  ar  
 18  10  11  1   
 19  11  12  1   
 20  11  13  1   
 21  12  14  1   
 22  12  31  1   
 23  12  32  1   
 24  13  33  1   
 25  13  34  1   
 26  13  35  1   
 27  14  15  2   
 28  14  16  1   
 29  15  17  1   
 30  16  18  2   
 31  16  19  1   
 32  17  18  1   
 33  17  36  1   
 34  18  20  1   
 35  19  21  1   
 36  19  37  1   
 37  19  38  1   
 38  20  22  1   
 39  20  39  1   
 40  20  40  1   
 41  21  23  1   
 42  21  41  1   
 43  21  42  1   
 44  22  23  1   
 45  22  43  1   
 46  22  44  1   
 47  23  45  1   
 48  23  46  1   
@<TRIPOS>SUBSTRUCTURE
  1 ****  10 GROUP 4 **** **** 0

# MOE 2024.06 (io_trps.svl 2023.06)
