@<TRIPOS>MOLECULE
NONAME
59 63 1 0 0 
SMALL
USER_CHARGES


@<TRIPOS>ATOM
  1 O        0.2240    -1.6790    -3.3100 O.2   1 <1>  -0.5700 
  2 C       -0.1910    -1.9380    -2.2030 C.2   1 <1>   0.5690 
  3 N        0.1430    -1.2560    -1.0740 N.am  1 <1>  -0.4930 
  4 C       -1.1660    -3.1020    -2.0170 C.3   1 <1>   0.1710 
  5 C        0.9480    -0.1060    -0.8900 C.2   1 <1>   0.0630 
  6 N       -2.0080    -2.9670    -0.7890 N.3   1 <1>  -0.8100 
  7 C        1.2920     0.5020     0.3200 C.2   1 <1>   0.1080 
  8 C        1.5450     0.6550    -1.8280 C.2   1 <1>  -0.3020 
  9 C       -3.0660    -1.9450    -0.9960 C.3   1 <1>   0.1100 
 10 C       -2.6080    -4.2540    -0.4080 C.3   1 <1>   0.1100 
 11 N        2.0310     1.5540     0.1500 N.2   1 <1>  -0.7070 
 12 C        0.8820     0.0300     1.6980 C.3   1 <1>  -0.0590 
 13 N        2.1910     1.6460    -1.1820 N.pl3 1 <1>   0.3140 
 14 C       -3.8620    -1.6840     0.2980 C.3   1 <1>   0.1430 
 15 C       -3.3780    -4.1020     0.9100 C.3   1 <1>  -0.1600 
 16 C        2.9940     2.7060    -1.7980 C.3   1 <1>   0.0160 
 17 C       -4.9200    -0.6340     0.0110 C.ar  1 <1>   0.1670 
 18 C       -4.4580    -3.0120     0.8100 C.3   1 <1>  -0.1600 
 19 C       -2.9840    -0.9810     1.3680 C.3   1 <1>  -0.1600 
 20 N       -6.0330    -0.8310    -0.6540 N.ar  1 <1>  -0.6200 
 21 C       -4.5670     0.5790     0.5180 C.ar  1 <1>  -0.1440 
 22 C       -3.2310     0.5300     1.2180 C.3   1 <1>  -0.0170 
 23 C       -6.8270     0.2390    -0.7980 C.ar  1 <1>   0.6200 
 24 C       -5.4290     1.6260     0.3260 C.ar  1 <1>   0.1600 
 25 N       -6.5590     1.4660    -0.3260 N.ar  1 <1>  -0.6200 
 26 C       -8.0770     0.0540    -1.5240 C.ar  1 <1>   0.0000 
 27 C       -9.1930     0.8610    -1.2810 C.ar  1 <1>  -0.1500 
 28 C       -8.2210    -0.9390    -2.4990 C.ar  1 <1>  -0.1500 
 29 C      -10.3820     0.6890    -1.9670 C.ar  1 <1>  -0.1500 
 30 C       -9.4060    -1.1170    -3.1890 C.ar  1 <1>  -0.1500 
 31 C      -10.4910    -0.3020    -2.9250 C.ar  1 <1>  -0.1500 
 32 H       -0.3520    -1.6140    -0.2530 H     1 <1>   0.3700 
 33 H       -0.5750    -3.9980    -1.9490 H     1 <1>   0.0800 
 34 H       -1.7910    -3.1820    -2.8890 H     1 <1>   0.0800 
 35 H        1.5400     0.5390    -2.8950 H     1 <1>   0.1500 
 36 H       -3.7460    -2.2770    -1.7630 H     1 <1>   0.0800 
 37 H       -2.6280    -1.0190    -1.3270 H     1 <1>   0.0800 
 38 H       -1.8330    -4.9910    -0.2800 H     1 <1>   0.0800 
 39 H       -3.2740    -4.5920    -1.1850 H     1 <1>   0.0800 
 40 H        0.7550    -1.0360     1.7090 H     1 <1>   0.0800 
 41 H       -0.0350     0.5080     1.9830 H     1 <1>   0.0800 
 42 H        1.6460     0.2940     2.4070 H     1 <1>   0.0800 
 43 H       -2.6830    -3.8630     1.6940 H     1 <1>   0.0800 
 44 H       -3.8400    -5.0410     1.1590 H     1 <1>   0.0800 
 45 H        2.4620     3.1130    -2.6360 H     1 <1>   0.0800 
 46 H        3.9300     2.2910    -2.1220 H     1 <1>   0.0800 
 47 H        3.1730     3.4770    -1.0720 H     1 <1>   0.0800 
 48 H       -5.2140    -3.3410     0.1170 H     1 <1>   0.0800 
 49 H       -4.9370    -2.8660     1.7620 H     1 <1>   0.0800 
 50 H       -1.9430    -1.2300     1.2750 H     1 <1>   0.0800 
 51 H       -3.3150    -1.2770     2.3480 H     1 <1>   0.0800 
 52 H       -2.4780     0.9790     0.5930 H     1 <1>   0.0800 
 53 H       -3.2600     1.0240     2.1740 H     1 <1>   0.0800 
 54 H       -5.1930     2.6050     0.7080 H     1 <1>   0.1500 
 55 H       -9.1280     1.6370    -0.5380 H     1 <1>   0.1500 
 56 H       -7.3890    -1.5830    -2.7200 H     1 <1>   0.1500 
 57 H      -11.2210     1.3280    -1.7560 H     1 <1>   0.1500 
 58 H       -9.4840    -1.8900    -3.9330 H     1 <1>   0.1500 
 59 H      -11.4150    -0.4370    -3.4600 H     1 <1>   0.1500 
@<TRIPOS>BOND
  1   1   2  2   
  2   2   3  am  
  3   2   4  1   
  4   3   5  1   
  5   3  32  1   
  6   4   6  1   
  7   4  33  1   
  8   4  34  1   
  9   5   7  1   
 10   5   8  2   
 11   6   9  1   
 12   6  10  1   
 13   7  11  2   
 14   7  12  1   
 15   8  13  1   
 16   8  35  1   
 17   9  14  1   
 18   9  36  1   
 19   9  37  1   
 20  10  15  1   
 21  10  38  1   
 22  10  39  1   
 23  11  13  1   
 24  12  40  1   
 25  12  41  1   
 26  12  42  1   
 27  13  16  1   
 28  14  17  1   
 29  14  18  1   
 30  14  19  1   
 31  15  18  1   
 32  15  43  1   
 33  15  44  1   
 34  16  45  1   
 35  16  46  1   
 36  16  47  1   
 37  17  20  ar  
 38  17  21  ar  
 39  18  48  1   
 40  18  49  1   
 41  19  22  1   
 42  19  50  1   
 43  19  51  1   
 44  20  23  ar  
 45  21  22  1   
 46  21  24  ar  
 47  22  52  1   
 48  22  53  1   
 49  23  25  ar  
 50  23  26  1   
 51  24  25  ar  
 52  24  54  1   
 53  26  27  ar  
 54  26  28  ar  
 55  27  29  ar  
 56  27  55  1   
 57  28  30  ar  
 58  28  56  1   
 59  29  31  ar  
 60  29  57  1   
 61  30  31  ar  
 62  30  58  1   
 63  31  59  1   
@<TRIPOS>SUBSTRUCTURE
  1 ****   9 GROUP 4 **** **** 0

# MOE 2024.06 (io_trps.svl 2023.06)
