@<TRIPOS>MOLECULE
NONAME
51 53 1 0 0 
SMALL
USER_CHARGES


@<TRIPOS>ATOM
  1 F       -2.1480    -2.0580    -3.5070 F     1 <1>  -0.1900 
  2 C       -2.5720    -2.4360    -2.3270 C.ar  1 <1>   0.1900 
  3 C       -3.1920    -3.6540    -2.2010 C.ar  1 <1>  -0.1500 
  4 C       -2.3660    -1.5680    -1.2510 C.ar  1 <1>  -0.1500 
  5 C       -3.6330    -4.0320    -0.9280 C.ar  1 <1>   0.0000 
  6 C       -2.8010    -1.9400     0.0010 C.ar  1 <1>  -0.1500 
  7 C       -3.4360    -3.1780     0.1530 C.ar  1 <1>  -0.1520 
  8 C       -4.2910    -5.1710    -0.4220 C.2   1 <1>  -0.1500 
  9 N       -3.9540    -3.7750     1.2730 N.pl3 1 <1>   0.0330 
 10 C       -4.4710    -4.9960     0.9150 C.2   1 <1>  -0.3320 
 11 C       -5.1210    -5.8930     1.9490 C.3   1 <1>   0.5230 
 12 N       -5.2750    -7.2340     1.3560 N.4   1 <1>  -0.9590 
 13 C       -6.3390    -8.0250     2.0230 C.3   1 <1>   0.5240 
 14 C       -3.9700    -7.9640     1.2780 C.3   1 <1>   0.2630 
 15 C       -6.6930    -9.1770     1.1100 C.2   1 <1>  -0.1810 
 16 C       -7.5340    -9.2540     0.0460 C.2   1 <1>  -0.0400 
 17 C       -6.1360   -10.4510     1.2510 C.2   1 <1>  -0.1500 
 18 O       -7.4910   -10.4750    -0.4480 O.3   1 <1>  -0.2800 
 19 C       -8.4710    -8.2610    -0.6650 C.3   1 <1>   0.1800 
 20 C       -6.6550   -11.2230     0.2620 C.2   1 <1>   0.0550 
 21 C       -9.8880    -8.8510    -0.7110 C.3   1 <1>  -0.2400 
 22 C       -7.9710    -8.0420    -2.0990 C.3   1 <1>  -0.2400 
 23 C       -8.5510    -6.8960     0.0340 C.3   1 <1>  -0.2400 
 24 C       -6.4180   -12.6110    -0.0600 C.2   1 <1>   0.7150 
 25 O       -5.6060   -13.2710     0.5540 O.2   1 <1>  -0.5700 
 26 N       -7.0850   -13.2300    -1.0580 N.am  1 <1>  -0.8000 
 27 H       -3.3350    -4.2970    -3.0480 H     1 <1>   0.1500 
 28 H       -1.8730    -0.6280    -1.4220 H     1 <1>   0.1500 
 29 H       -2.6570    -1.2920     0.8490 H     1 <1>   0.1500 
 30 H       -4.5670    -5.9920    -1.0620 H     1 <1>   0.1500 
 31 H       -3.9360    -3.3350     2.2010 H     1 <1>   0.2700 
 32 H       -6.0830    -5.4850     2.2130 H     1 <1>   0.0800 
 33 H       -4.5100    -5.9490     2.8360 H     1 <1>   0.0800 
 34 H       -5.5990    -7.0800     0.3930 H     1 <1>   0.4500 
 35 H       -7.2120    -7.4170     2.1850 H     1 <1>   0.0800 
 36 H       -5.9980    -8.3970     2.9750 H     1 <1>   0.0800 
 37 H       -3.6010    -8.1880     2.2660 H     1 <1>   0.0800 
 38 H       -3.2360    -7.3620     0.7660 H     1 <1>   0.0800 
 39 H       -4.0880    -8.8880     0.7350 H     1 <1>   0.0800 
 40 H       -5.4320   -10.7780     1.9980 H     1 <1>   0.1500 
 41 H       -9.8940    -9.7810    -1.2510 H     1 <1>   0.0800 
 42 H      -10.5690    -8.1770    -1.2000 H     1 <1>   0.0800 
 43 H      -10.2480    -9.0400     0.2850 H     1 <1>   0.0800 
 44 H       -7.9570    -8.9740    -2.6360 H     1 <1>   0.0800 
 45 H       -6.9730    -7.6430    -2.0960 H     1 <1>   0.0800 
 46 H       -8.6130    -7.3610    -2.6270 H     1 <1>   0.0800 
 47 H       -8.9110    -7.0080     1.0410 H     1 <1>   0.0800 
 48 H       -9.2440    -6.2580    -0.4880 H     1 <1>   0.0800 
 49 H       -7.5990    -6.4030     0.0350 H     1 <1>   0.0800 
 50 H       -6.9090   -14.2160    -1.2500 H     1 <1>   0.3700 
 51 H       -7.7960   -12.7520    -1.6100 H     1 <1>   0.3700 
@<TRIPOS>BOND
  1   1   2  1   
  2   2   3  ar  
  3   2   4  ar  
  4   3   5  ar  
  5   3  27  1   
  6   4   6  ar  
  7   4  28  1   
  8   5   7  ar  
  9   5   8  1   
 10   6   7  ar  
 11   6  29  1   
 12   7   9  1   
 13   8  10  2   
 14   8  30  1   
 15   9  10  1   
 16   9  31  1   
 17  10  11  1   
 18  11  12  1   
 19  11  32  1   
 20  11  33  1   
 21  12  13  1   
 22  12  14  1   
 23  12  34  1   
 24  13  15  1   
 25  13  35  1   
 26  13  36  1   
 27  14  37  1   
 28  14  38  1   
 29  14  39  1   
 30  15  16  2   
 31  15  17  1   
 32  16  18  1   
 33  16  19  1   
 34  17  20  2   
 35  17  40  1   
 36  18  20  1   
 37  19  21  1   
 38  19  22  1   
 39  19  23  1   
 40  20  24  1   
 41  21  41  1   
 42  21  42  1   
 43  21  43  1   
 44  22  44  1   
 45  22  45  1   
 46  22  46  1   
 47  23  47  1   
 48  23  48  1   
 49  23  49  1   
 50  24  25  2   
 51  24  26  am  
 52  26  50  1   
 53  26  51  1   
@<TRIPOS>SUBSTRUCTURE
  1 ****  12 GROUP 4 **** **** 0

# MOE 2024.06 (io_trps.svl 2023.06)
