@<TRIPOS>MOLECULE
NONAME
54 57 1 0 0 
SMALL
USER_CHARGES


@<TRIPOS>ATOM
  1 O       -0.8790    -1.3740     0.5850 O.2   1 <1>  -0.5700 
  2 C        0.0510    -2.0810     0.3000 C.2   1 <1>   0.5690 
  3 N        0.0390    -2.8560    -0.8040 N.am  1 <1>  -0.7300 
  4 C        1.2800    -2.1380     1.1800 C.3   1 <1>  -0.0990 
  5 C        1.1510    -3.7570    -1.1720 C.3   1 <1>   0.1400 
  6 C        2.5590    -2.1250     0.3200 C.3   1 <1>  -0.0800 
  7 C        2.5010    -3.0560    -0.9170 C.3   1 <1>  -0.0800 
  8 C        3.8160    -2.5160     1.1100 C.3   1 <1>  -0.1600 
  9 C        3.6630    -4.0440    -0.7510 C.3   1 <1>  -0.1600 
 10 C        4.6720    -3.2920     0.1140 C.3   1 <1>   0.2200 
 11 N        5.6820    -4.1720     0.7760 N.am  1 <1>  -0.6600 
 12 C        7.0400    -3.9700     0.6150 C.2   1 <1>   0.5440 
 13 C        5.2030    -5.4010     1.4840 C.3   1 <1>   0.0600 
 14 O        7.8040    -4.8840     0.8620 O.2   1 <1>  -0.5700 
 15 C        7.5820    -2.7090     0.1520 C.ar  1 <1>   0.0860 
 16 C        7.3420    -1.5180     0.8390 C.ar  1 <1>  -0.1500 
 17 C        8.3610    -2.6450    -1.0030 C.ar  1 <1>  -0.1500 
 18 C        7.8400    -0.3110     0.3840 C.ar  1 <1>  -0.1500 
 19 C        8.8650    -1.4430    -1.4650 C.ar  1 <1>  -0.1500 
 20 C        8.6100    -0.2690    -0.7730 C.ar  1 <1>   0.0820 
 21 O        9.1180     0.8850    -1.2640 O.3   1 <1>  -0.1650 
 22 C        9.4740     1.9140    -0.4560 C.ar  1 <1>   0.0820 
 23 C        9.1170     3.2010    -0.8280 C.ar  1 <1>  -0.1500 
 24 C       10.1930     1.7030     0.7130 C.ar  1 <1>  -0.1500 
 25 C        9.4580     4.2800    -0.0290 C.ar  1 <1>  -0.1440 
 26 C       10.5360     2.7790     1.5130 C.ar  1 <1>  -0.1500 
 27 C       10.1680     4.0620     1.1420 C.ar  1 <1>  -0.1500 
 28 C        9.0680     5.6920    -0.4260 C.3   1 <1>  -0.0970 
 29 H       -0.8060    -2.8460    -1.3800 H     1 <1>   0.3700 
 30 H        1.2770    -1.3010     1.8550 H     1 <1>   0.0800 
 31 H        1.2230    -3.0410     1.7590 H     1 <1>   0.0800 
 32 H        1.0720    -4.6490    -0.5730 H     1 <1>   0.0800 
 33 H        1.0700    -4.0350    -2.2090 H     1 <1>   0.0800 
 34 H        2.6890    -1.1190    -0.0470 H     1 <1>   0.0800 
 35 H        2.7130    -2.4480    -1.7820 H     1 <1>   0.0800 
 36 H        3.5500    -3.1460     1.9390 H     1 <1>   0.0800 
 37 H        4.3300    -1.6470     1.4770 H     1 <1>   0.0800 
 38 H        4.0890    -4.3210    -1.6980 H     1 <1>   0.0800 
 39 H        3.3100    -4.9220    -0.2430 H     1 <1>   0.0800 
 40 H        5.1650    -2.5790    -0.5250 H     1 <1>   0.0800 
 41 H        4.2550    -5.2280     1.9590 H     1 <1>   0.0800 
 42 H        5.9130    -5.6910     2.2400 H     1 <1>   0.0800 
 43 H        5.1080    -6.2070     0.7780 H     1 <1>   0.0800 
 44 H        6.7590    -1.5490     1.7420 H     1 <1>   0.1500 
 45 H        8.5690    -3.5560    -1.5370 H     1 <1>   0.1500 
 46 H        7.6270     0.5940     0.9250 H     1 <1>   0.1500 
 47 H        9.4620    -1.4090    -2.3590 H     1 <1>   0.1500 
 48 H        8.5710     3.3450    -1.7430 H     1 <1>   0.1500 
 49 H       10.4850     0.7070     0.9940 H     1 <1>   0.1500 
 50 H       11.0910     2.6200     2.4210 H     1 <1>   0.1500 
 51 H       10.4390     4.8930     1.7690 H     1 <1>   0.1500 
 52 H        8.6520     6.2110     0.4180 H     1 <1>   0.0800 
 53 H        8.3350     5.6800    -1.2130 H     1 <1>   0.0800 
 54 H        9.9350     6.2250    -0.7710 H     1 <1>   0.0800 
@<TRIPOS>BOND
  1   1   2  2   
  2   2   3  am  
  3   2   4  1   
  4   3   5  1   
  5   3  29  1   
  6   4   6  1   
  7   4  30  1   
  8   4  31  1   
  9   5   7  1   
 10   5  32  1   
 11   5  33  1   
 12   6   7  1   
 13   6   8  1   
 14   6  34  1   
 15   7   9  1   
 16   7  35  1   
 17   8  10  1   
 18   8  36  1   
 19   8  37  1   
 20   9  10  1   
 21   9  38  1   
 22   9  39  1   
 23  10  11  1   
 24  10  40  1   
 25  11  12  am  
 26  11  13  1   
 27  12  14  2   
 28  12  15  1   
 29  13  41  1   
 30  13  42  1   
 31  13  43  1   
 32  15  16  ar  
 33  15  17  ar  
 34  16  18  ar  
 35  16  44  1   
 36  17  19  ar  
 37  17  45  1   
 38  18  20  ar  
 39  18  46  1   
 40  19  20  ar  
 41  19  47  1   
 42  20  21  1   
 43  21  22  1   
 44  22  23  ar  
 45  22  24  ar  
 46  23  25  ar  
 47  23  48  1   
 48  24  26  ar  
 49  24  49  1   
 50  25  27  ar  
 51  25  28  1   
 52  26  27  ar  
 53  26  50  1   
 54  27  51  1   
 55  28  52  1   
 56  28  53  1   
 57  28  54  1   
@<TRIPOS>SUBSTRUCTURE
  1 ****  16 GROUP 4 **** **** 0

# MOE 2024.06 (io_trps.svl 2023.06)
