@<TRIPOS>MOLECULE
NONAME
55 59 1 0 0 
SMALL
USER_CHARGES


@<TRIPOS>ATOM
  1 S       -1.9360     2.0320    -0.8270 S.3   1 <1>  -0.0800 
  2 C       -0.5460     3.0900    -0.9400 C.2   1 <1>  -0.1400 
  3 C       -1.1300     1.0740     0.4050 C.2   1 <1>  -0.1100 
  4 C        0.4280     2.7300    -0.0950 C.2   1 <1>  -0.1810 
  5 C       -0.4940     4.2530    -1.8910 C.3   1 <1>   0.0200 
  6 C        0.0950     1.5650     0.6770 C.2   1 <1>  -0.1500 
  7 C        1.7250     3.5300    -0.0080 C.3   1 <1>   0.4610 
  8 C        0.9850     4.6340    -2.0530 C.3   1 <1>   0.1200 
  9 O        1.6440     4.7040    -0.8030 O.3   1 <1>  -0.5600 
 10 C        1.9610     4.0110     1.4240 C.3   1 <1>  -0.1600 
 11 C        2.9430     2.7160    -0.4660 C.3   1 <1>  -0.1600 
 12 C        3.2090     4.8890     1.5510 C.3   1 <1>   0.3430 
 13 C        4.2800     3.2960     0.0100 C.3   1 <1>   0.3430 
 14 N        4.1300     4.7360     0.3760 N.4   1 <1>  -0.9590 
 15 C        5.4140     5.5020     0.4950 C.3   1 <1>   0.4230 
 16 C        5.1250     6.9730     0.8450 C.3   1 <1>  -0.1600 
 17 C        6.2050     5.4030    -0.8200 C.3   1 <1>  -0.1600 
 18 C        6.3880     7.8380     0.8320 C.3   1 <1>   0.1400 
 19 C        7.4590     6.2720    -0.7860 C.3   1 <1>   0.1400 
 20 N        7.0690     7.6660    -0.4720 N.am  1 <1>  -0.6600 
 21 C        7.3080     8.6990    -1.3690 C.2   1 <1>   0.5440 
 22 O        7.3530     8.3940    -2.5490 O.2   1 <1>  -0.5700 
 23 C        7.4910    10.1030    -0.9860 C.ar  1 <1>   0.3960 
 24 N        7.9220    10.4370     0.2450 N.ar  1 <1>  -0.6200 
 25 C        7.2190    11.0920    -1.9420 C.ar  1 <1>   0.1600 
 26 C        8.0500    11.7390     0.4230 C.ar  1 <1>   0.1600 
 27 N        7.3360    12.3990    -1.7600 N.ar  1 <1>  -0.6200 
 28 C        7.7650    12.6910    -0.5470 C.ar  1 <1>   0.1600 
 29 H       -1.6700     0.2310     0.8010 H     1 <1>   0.1500 
 30 H       -1.0570     5.0800    -1.4960 H     1 <1>   0.0800 
 31 H       -0.9070     3.9770    -2.8450 H     1 <1>   0.0800 
 32 H        0.7730     1.1450     1.3980 H     1 <1>   0.1500 
 33 H        1.0670     5.5960    -2.5280 H     1 <1>   0.0800 
 34 H        1.4860     3.9040    -2.6650 H     1 <1>   0.0800 
 35 H        2.0680     3.1610     2.0730 H     1 <1>   0.0800 
 36 H        1.0990     4.5560     1.7660 H     1 <1>   0.0800 
 37 H        2.9420     2.6200    -1.5360 H     1 <1>   0.0800 
 38 H        2.8670     1.7170    -0.0760 H     1 <1>   0.0800 
 39 H        3.7270     4.6460     2.4650 H     1 <1>   0.0800 
 40 H        2.8890     5.9170     1.6120 H     1 <1>   0.0800 
 41 H        5.0030     3.1700    -0.7780 H     1 <1>   0.0800 
 42 H        4.6260     2.7460     0.8700 H     1 <1>   0.0800 
 43 H        3.5970     5.1570    -0.4090 H     1 <1>   0.4500 
 44 H        6.0120     5.0760     1.2850 H     1 <1>   0.0800 
 45 H        4.7010     7.0530     1.8280 H     1 <1>   0.0800 
 46 H        4.4300     7.3890     0.1360 H     1 <1>   0.0800 
 47 H        5.5990     5.7240    -1.6490 H     1 <1>   0.0800 
 48 H        6.5320     4.3960    -0.9990 H     1 <1>   0.0800 
 49 H        7.0600     7.5520     1.6230 H     1 <1>   0.0800 
 50 H        6.1070     8.8650     0.9850 H     1 <1>   0.0800 
 51 H        7.9660     6.2240    -1.7370 H     1 <1>   0.0800 
 52 H        8.1440     5.9210    -0.0330 H     1 <1>   0.0800 
 53 H        6.8840    10.7730    -2.9140 H     1 <1>   0.1500 
 54 H        8.3980    12.0750     1.3840 H     1 <1>   0.1500 
 55 H        7.8980    13.7320    -0.3080 H     1 <1>   0.1500 
@<TRIPOS>BOND
  1   1   2  1   
  2   1   3  1   
  3   2   4  2   
  4   2   5  1   
  5   3   6  2   
  6   3  29  1   
  7   4   6  1   
  8   4   7  1   
  9   5   8  1   
 10   5  30  1   
 11   5  31  1   
 12   6  32  1   
 13   7   9  1   
 14   7  10  1   
 15   7  11  1   
 16   8   9  1   
 17   8  33  1   
 18   8  34  1   
 19  10  12  1   
 20  10  35  1   
 21  10  36  1   
 22  11  13  1   
 23  11  37  1   
 24  11  38  1   
 25  12  14  1   
 26  12  39  1   
 27  12  40  1   
 28  13  14  1   
 29  13  41  1   
 30  13  42  1   
 31  14  15  1   
 32  14  43  1   
 33  15  16  1   
 34  15  17  1   
 35  15  44  1   
 36  16  18  1   
 37  16  45  1   
 38  16  46  1   
 39  17  19  1   
 40  17  47  1   
 41  17  48  1   
 42  18  20  1   
 43  18  49  1   
 44  18  50  1   
 45  19  20  1   
 46  19  51  1   
 47  19  52  1   
 48  20  21  am  
 49  21  22  2   
 50  21  23  1   
 51  23  24  ar  
 52  23  25  ar  
 53  24  26  ar  
 54  25  27  ar  
 55  25  53  1   
 56  26  28  ar  
 57  26  54  1   
 58  27  28  ar  
 59  28  55  1   
@<TRIPOS>SUBSTRUCTURE
  1 ****  14 GROUP 4 **** **** 0

# MOE 2024.06 (io_trps.svl 2023.06)
