@<TRIPOS>MOLECULE
NONAME
50 53 1 0 0 
SMALL
USER_CHARGES


@<TRIPOS>ATOM
  1 F       -1.9330    -0.9410    -1.9050 F     1 <1>  -0.1900 
  2 C       -2.2730    -1.9320    -1.1200 C.ar  1 <1>   0.1900 
  3 C       -3.3730    -2.6880    -1.4420 C.ar  1 <1>  -0.1500 
  4 C       -1.4900    -2.1660     0.0130 C.ar  1 <1>  -0.1500 
  5 C       -3.7220    -3.7400    -0.5870 C.ar  1 <1>   0.0000 
  6 C       -1.8260    -3.2020     0.8540 C.ar  1 <1>  -0.1500 
  7 C       -2.9450    -3.9850     0.5440 C.ar  1 <1>  -0.1520 
  8 C       -4.7590    -4.7030    -0.5750 C.2   1 <1>  -0.1810 
  9 N       -3.4810    -5.0590     1.2060 N.pl3 1 <1>   0.0330 
 10 C       -4.5780    -5.4880     0.5160 C.2   1 <1>  -0.3320 
 11 C       -5.8600    -4.7820    -1.6310 C.3   1 <1>   0.0820 
 12 C       -5.3910    -6.6780     0.9990 C.3   1 <1>  -0.0600 
 13 C       -7.2750    -4.7930    -1.0600 C.2   1 <1>   0.5690 
 14 O       -7.9520    -5.7680    -1.2980 O.2   1 <1>  -0.5700 
 15 N       -7.7760    -3.7380    -0.3310 N.am  1 <1>  -0.6600 
 16 C       -9.1430    -3.7950     0.2700 C.3   1 <1>   0.1400 
 17 C       -7.0420    -2.4820    -0.0110 C.3   1 <1>   0.1400 
 18 C      -10.0160    -2.6110    -0.2130 C.3   1 <1>   0.0000 
 19 C       -7.8600    -1.2670    -0.4640 C.3   1 <1>  -0.1600 
 20 C      -11.4310    -2.6400     0.4030 C.3   1 <1>   0.2000 
 21 C       -9.2900    -1.2860     0.1050 C.3   1 <1>  -0.1600 
 22 C      -10.3300    -2.7570    -1.7130 C.3   1 <1>  -0.1600 
 23 O      -11.4440    -3.0870     1.7130 O.3   1 <1>  -0.6800 
 24 C      -12.2800    -3.5620    -0.4760 C.3   1 <1>  -0.1600 
 25 C      -11.5060    -3.7340    -1.7880 C.3   1 <1>  -0.1600 
 26 H       -3.9470    -2.4800    -2.3230 H     1 <1>   0.1500 
 27 H       -0.6410    -1.5360     0.2050 H     1 <1>   0.1500 
 28 H       -1.2460    -3.4140     1.7340 H     1 <1>   0.1500 
 29 H       -3.1100    -5.4660     2.0690 H     1 <1>   0.2700 
 30 H       -5.7130    -5.6800    -2.2020 H     1 <1>   0.0800 
 31 H       -5.7850    -3.9580    -2.3130 H     1 <1>   0.0800 
 32 H       -6.1290    -6.9610     0.2720 H     1 <1>   0.0800 
 33 H       -5.8950    -6.4320     1.9170 H     1 <1>   0.0800 
 34 H       -4.7480    -7.5230     1.1670 H     1 <1>   0.0800 
 35 H       -9.6230    -4.7270     0.0330 H     1 <1>   0.0800 
 36 H       -9.0320    -3.7500     1.3400 H     1 <1>   0.0800 
 37 H       -6.8790    -2.4380     1.0520 H     1 <1>   0.0800 
 38 H       -6.0850    -2.4530    -0.4930 H     1 <1>   0.0800 
 39 H       -7.3600    -0.3700    -0.1450 H     1 <1>   0.0800 
 40 H       -7.8940    -1.2530    -1.5390 H     1 <1>   0.0800 
 41 H      -11.8510    -1.6480     0.3900 H     1 <1>   0.0800 
 42 H       -9.8450    -0.4520    -0.2880 H     1 <1>   0.0800 
 43 H       -9.2400    -1.1680     1.1740 H     1 <1>   0.0800 
 44 H      -10.6440    -1.8080    -2.1120 H     1 <1>   0.0800 
 45 H       -9.4900    -3.1070    -2.2870 H     1 <1>   0.0800 
 46 H      -11.2640    -4.0450     1.7380 H     1 <1>   0.4000 
 47 H      -12.4370    -4.5220    -0.0170 H     1 <1>   0.0800 
 48 H      -13.2340    -3.1000    -0.6630 H     1 <1>   0.0800 
 49 H      -11.1280    -4.7410    -1.8560 H     1 <1>   0.0800 
 50 H      -12.1240    -3.5390    -2.6480 H     1 <1>   0.0800 
@<TRIPOS>BOND
  1   1   2  1   
  2   2   3  ar  
  3   2   4  ar  
  4   3   5  ar  
  5   3  26  1   
  6   4   6  ar  
  7   4  27  1   
  8   5   7  ar  
  9   5   8  1   
 10   6   7  ar  
 11   6  28  1   
 12   7   9  1   
 13   8  10  2   
 14   8  11  1   
 15   9  10  1   
 16   9  29  1   
 17  10  12  1   
 18  11  13  1   
 19  11  30  1   
 20  11  31  1   
 21  12  32  1   
 22  12  33  1   
 23  12  34  1   
 24  13  14  2   
 25  13  15  am  
 26  15  16  1   
 27  15  17  1   
 28  16  18  1   
 29  16  35  1   
 30  16  36  1   
 31  17  19  1   
 32  17  37  1   
 33  17  38  1   
 34  18  20  1   
 35  18  21  1   
 36  18  22  1   
 37  19  21  1   
 38  19  39  1   
 39  19  40  1   
 40  20  23  1   
 41  20  24  1   
 42  20  41  1   
 43  21  42  1   
 44  21  43  1   
 45  22  25  1   
 46  22  44  1   
 47  22  45  1   
 48  23  46  1   
 49  24  25  1   
 50  24  47  1   
 51  24  48  1   
 52  25  49  1   
 53  25  50  1   
@<TRIPOS>SUBSTRUCTURE
  1 ****  17 GROUP 4 **** **** 0

# MOE 2024.06 (io_trps.svl 2023.06)
