@<TRIPOS>MOLECULE
NONAME
49 51 1 0 0 
SMALL
USER_CHARGES


@<TRIPOS>ATOM
  1 O       -3.7110     1.3190    -3.1420 O.2   1 <1>  -0.5700 
  2 C       -2.9240     1.4740    -2.2400 C.2   1 <1>   0.5690 
  3 N       -2.4690     0.4260    -1.5060 N.am  1 <1>  -0.7300 
  4 C       -2.4370     2.8830    -1.9210 C.3   1 <1>   0.1810 
  5 C       -2.8540    -0.9900    -1.6880 C.3   1 <1>   0.2200 
  6 O       -1.6350     2.9000    -0.7470 O.3   1 <1>  -0.3630 
  7 C       -3.7320    -1.4200    -0.5260 C.3   1 <1>  -0.0800 
  8 C       -1.6300    -1.8880    -1.5150 C.3   1 <1>   0.1200 
  9 C       -1.0950     4.0540    -0.2830 C.ar  1 <1>   0.0820 
 10 C       -2.6890    -1.7810     0.5330 C.3   1 <1>   0.1200 
 11 C       -4.6200    -2.6220    -0.9030 C.3   1 <1>  -0.0160 
 12 O       -1.5480    -2.2040    -0.1550 O.3   1 <1>  -0.5600 
 13 C       -0.3170     3.9650     0.8590 C.ar  1 <1>  -0.1500 
 14 C       -1.2820     5.2940    -0.8840 C.ar  1 <1>  -0.1500 
 15 C       -5.5080    -3.0450     0.2570 C.ar  1 <1>  -0.1440 
 16 C        0.2780     5.0890     1.4100 C.ar  1 <1>  -0.1440 
 17 C       -0.6900     6.4190    -0.3370 C.ar  1 <1>  -0.1500 
 18 C       -5.2440    -4.1720     1.0090 C.ar  1 <1>  -0.1500 
 19 C       -6.6260    -2.3200     0.6170 C.ar  1 <1>  -0.1500 
 20 C        0.0900     6.3280     0.8070 C.ar  1 <1>  -0.1440 
 21 C        1.1250     4.9350     2.6660 C.3   1 <1>  -0.0970 
 22 C       -6.0840    -4.5070     2.0580 C.ar  1 <1>   0.1600 
 23 C       -7.4010    -2.7430     1.6840 C.ar  1 <1>   0.1600 
 24 C        0.7210     7.5920     1.3730 C.3   1 <1>  -0.0970 
 25 N       -7.1570    -3.8190     2.4150 N.ar  1 <1>  -0.6200 
 26 H       -1.8120     0.6170    -0.7430 H     1 <1>   0.3700 
 27 H       -3.2860     3.5230    -1.7620 H     1 <1>   0.0800 
 28 H       -1.8480     3.2480    -2.7420 H     1 <1>   0.0800 
 29 H       -3.3240    -1.1260    -2.6480 H     1 <1>   0.0800 
 30 H       -4.3610    -0.6140    -0.1920 H     1 <1>   0.0800 
 31 H       -0.7200    -1.4100    -1.8300 H     1 <1>   0.0800 
 32 H       -1.7600    -2.8110    -2.0520 H     1 <1>   0.0800 
 33 H       -3.0080    -2.5610     1.2020 H     1 <1>   0.0800 
 34 H       -2.4170    -0.9110     1.1060 H     1 <1>   0.0800 
 35 H       -4.0110    -3.4540    -1.2120 H     1 <1>   0.0800 
 36 H       -5.2480    -2.3530    -1.7360 H     1 <1>   0.0800 
 37 H       -0.1820     3.0000     1.3110 H     1 <1>   0.1500 
 38 H       -1.8770     5.4100    -1.7690 H     1 <1>   0.1500 
 39 H       -0.8420     7.3730    -0.8110 H     1 <1>   0.1500 
 40 H       -4.3930    -4.7910     0.7920 H     1 <1>   0.1500 
 41 H       -6.9010    -1.4320     0.0790 H     1 <1>   0.1500 
 42 H        1.1550     3.9100     2.9880 H     1 <1>   0.0800 
 43 H        0.7120     5.5260     3.4630 H     1 <1>   0.0800 
 44 H        2.1320     5.2580     2.4730 H     1 <1>   0.0800 
 45 H       -5.8620    -5.3890     2.6340 H     1 <1>   0.1500 
 46 H       -8.2690    -2.1640     1.9510 H     1 <1>   0.1500 
 47 H        0.4690     8.4510     0.7790 H     1 <1>   0.0800 
 48 H        1.7920     7.4940     1.3870 H     1 <1>   0.0800 
 49 H        0.3710     7.7610     2.3750 H     1 <1>   0.0800 
@<TRIPOS>BOND
  1   1   2  2   
  2   2   3  am  
  3   2   4  1   
  4   3   5  1   
  5   3  26  1   
  6   4   6  1   
  7   4  27  1   
  8   4  28  1   
  9   5   7  1   
 10   5   8  1   
 11   5  29  1   
 12   6   9  1   
 13   7  10  1   
 14   7  11  1   
 15   7  30  1   
 16   8  12  1   
 17   8  31  1   
 18   8  32  1   
 19   9  13  ar  
 20   9  14  ar  
 21  10  12  1   
 22  10  33  1   
 23  10  34  1   
 24  11  15  1   
 25  11  35  1   
 26  11  36  1   
 27  13  16  ar  
 28  13  37  1   
 29  14  17  ar  
 30  14  38  1   
 31  15  18  ar  
 32  15  19  ar  
 33  16  20  ar  
 34  16  21  1   
 35  17  20  ar  
 36  17  39  1   
 37  18  22  ar  
 38  18  40  1   
 39  19  23  ar  
 40  19  41  1   
 41  20  24  1   
 42  21  42  1   
 43  21  43  1   
 44  21  44  1   
 45  22  25  ar  
 46  22  45  1   
 47  23  25  ar  
 48  23  46  1   
 49  24  47  1   
 50  24  48  1   
 51  24  49  1   
@<TRIPOS>SUBSTRUCTURE
  1 ****   3 GROUP 4 **** **** 0

# MOE 2024.06 (io_trps.svl 2023.06)
