@<TRIPOS>MOLECULE
NONAME
63 67 1 0 0 
SMALL
USER_CHARGES


@<TRIPOS>ATOM
  1 O        0.3380     1.7980    -1.7290 O.2   1 <1>  -0.5700 
  2 C       -0.4760     2.3060    -0.9900 C.2   1 <1>   0.5690 
  3 N       -1.8270     2.2040    -1.2130 N.am  1 <1>  -0.6600 
  4 C        0.0920     3.0550     0.2300 C.3   1 <1>   0.4040 
  5 C       -2.9010     2.8710    -0.4060 C.3   1 <1>   0.1400 
  6 C       -2.3670     1.3530    -2.3170 C.3   1 <1>   0.1400 
  7 N        1.4680     2.5740     0.6290 N.4   1 <1>  -0.9590 
  8 C       -3.7940     3.7610    -1.2950 C.3   1 <1>   0.1430 
  9 C       -3.2610     2.1870    -3.2430 C.3   1 <1>  -0.1600 
 10 C        1.4250     1.2150     1.2250 C.3   1 <1>   0.3430 
 11 C        2.2010     3.5310     1.4940 C.3   1 <1>   0.3430 
 12 C       -4.9300     4.3490    -0.4800 C.ar  1 <1>   0.1670 
 13 C       -4.3620     2.9340    -2.4680 C.3   1 <1>  -0.1600 
 14 C       -3.0630     5.0370    -1.7950 C.3   1 <1>  -0.1600 
 15 C        2.5160     0.3360     0.6140 C.3   1 <1>  -0.1600 
 16 C        3.7150     3.3870     1.3170 C.3   1 <1>  -0.1600 
 17 N       -5.6760     3.6820     0.3670 N.ar  1 <1>  -0.6200 
 18 C       -5.0900     5.6770    -0.7230 C.ar  1 <1>  -0.1440 
 19 C       -4.0880     6.1850    -1.7290 C.3   1 <1>  -0.0170 
 20 C        3.8960     0.9900     0.4200 C.3   1 <1>  -0.1600 
 21 C        4.2950     1.9750     1.5300 C.3   1 <1>  -0.1600 
 22 C       -6.6350     4.3890     0.9820 C.ar  1 <1>   0.6200 
 23 C       -6.0900     6.3320    -0.0530 C.ar  1 <1>   0.1600 
 24 N       -6.8630     5.6980     0.7990 N.ar  1 <1>  -0.6200 
 25 C       -7.4890     3.6800     1.9260 C.ar  1 <1>   0.0000 
 26 C       -7.7550     2.3140     1.7920 C.ar  1 <1>  -0.1500 
 27 C       -8.0830     4.3320     3.0110 C.ar  1 <1>  -0.1500 
 28 C       -8.5620     1.6360     2.6880 C.ar  1 <1>  -0.1500 
 29 C       -8.8920     3.6620     3.9110 C.ar  1 <1>  -0.1500 
 30 C       -9.1340     2.3100     3.7510 C.ar  1 <1>  -0.1500 
 31 H       -0.5850     2.9430     1.0580 H     1 <1>   0.0800 
 32 H        0.1400     4.0980    -0.0290 H     1 <1>   0.0800 
 33 H       -2.4920     3.4640     0.3900 H     1 <1>   0.0800 
 34 H       -3.5140     2.1060     0.0420 H     1 <1>   0.0800 
 35 H       -2.9440     0.5500    -1.8890 H     1 <1>   0.0800 
 36 H       -1.5690     0.9140    -2.8920 H     1 <1>   0.0800 
 37 H        1.9820     2.4590    -0.2620 H     1 <1>   0.4500 
 38 H       -3.7170     1.5340    -3.9670 H     1 <1>   0.0800 
 39 H       -2.6440     2.8800    -3.7870 H     1 <1>   0.0800 
 40 H        0.4680     0.7510     1.0440 H     1 <1>   0.0800 
 41 H        1.5710     1.2800     2.2920 H     1 <1>   0.0800 
 42 H        1.9390     3.3660     2.5270 H     1 <1>   0.0800 
 43 H        1.9260     4.5410     1.2370 H     1 <1>   0.0800 
 44 H       -4.9140     3.5710    -3.1380 H     1 <1>   0.0800 
 45 H       -5.0550     2.2100    -2.0730 H     1 <1>   0.0800 
 46 H       -2.6580     4.9320    -2.7850 H     1 <1>   0.0800 
 47 H       -2.2570     5.2750    -1.1260 H     1 <1>   0.0800 
 48 H        2.1710    -0.0360    -0.3360 H     1 <1>   0.0800 
 49 H        2.6300    -0.5220     1.2530 H     1 <1>   0.0800 
 50 H        4.1850     4.0480     2.0240 H     1 <1>   0.0800 
 51 H        3.9900     3.7440     0.3390 H     1 <1>   0.0800 
 52 H       -4.5710     6.3210    -2.6820 H     1 <1>   0.0800 
 53 H       -3.6340     7.1090    -1.4130 H     1 <1>   0.0800 
 54 H        3.9350     1.4880    -0.5350 H     1 <1>   0.0800 
 55 H        4.6300     0.2020     0.3790 H     1 <1>   0.0800 
 56 H        4.0270     1.5890     2.4990 H     1 <1>   0.0800 
 57 H        5.3690     2.0630     1.5160 H     1 <1>   0.0800 
 58 H       -6.2600     7.3830    -0.2140 H     1 <1>   0.1500 
 59 H       -7.3220     1.7720     0.9690 H     1 <1>   0.1500 
 60 H       -7.9080     5.3840     3.1530 H     1 <1>   0.1500 
 61 H       -8.7470     0.5840     2.5570 H     1 <1>   0.1500 
 62 H       -9.3350     4.1930     4.7350 H     1 <1>   0.1500 
 63 H       -9.7630     1.7860     4.4500 H     1 <1>   0.1500 
@<TRIPOS>BOND
  1   1   2  2   
  2   2   3  am  
  3   2   4  1   
  4   3   5  1   
  5   3   6  1   
  6   4   7  1   
  7   4  31  1   
  8   4  32  1   
  9   5   8  1   
 10   5  33  1   
 11   5  34  1   
 12   6   9  1   
 13   6  35  1   
 14   6  36  1   
 15   7  10  1   
 16   7  11  1   
 17   7  37  1   
 18   8  12  1   
 19   8  13  1   
 20   8  14  1   
 21   9  13  1   
 22   9  38  1   
 23   9  39  1   
 24  10  15  1   
 25  10  40  1   
 26  10  41  1   
 27  11  16  1   
 28  11  42  1   
 29  11  43  1   
 30  12  17  ar  
 31  12  18  ar  
 32  13  44  1   
 33  13  45  1   
 34  14  19  1   
 35  14  46  1   
 36  14  47  1   
 37  15  20  1   
 38  15  48  1   
 39  15  49  1   
 40  16  21  1   
 41  16  50  1   
 42  16  51  1   
 43  17  22  ar  
 44  18  19  1   
 45  18  23  ar  
 46  19  52  1   
 47  19  53  1   
 48  20  21  1   
 49  20  54  1   
 50  20  55  1   
 51  21  56  1   
 52  21  57  1   
 53  22  24  ar  
 54  22  25  1   
 55  23  24  ar  
 56  23  58  1   
 57  25  26  ar  
 58  25  27  ar  
 59  26  28  ar  
 60  26  59  1   
 61  27  29  ar  
 62  27  60  1   
 63  28  30  ar  
 64  28  61  1   
 65  29  30  ar  
 66  29  62  1   
 67  30  63  1   
@<TRIPOS>SUBSTRUCTURE
  1 ****   5 GROUP 4 **** **** 0

# MOE 2024.06 (io_trps.svl 2023.06)
