@<TRIPOS>MOLECULE
NONAME
57 59 1 0 0 
SMALL
USER_CHARGES


@<TRIPOS>ATOM
  1 O       -0.2510     0.2390     0.7720 O.2   1 <1>  -0.5700 
  2 C       -0.9770     1.0270     0.1940 C.2   1 <1>   0.7150 
  3 N       -2.2570     0.6340    -0.1380 N.am  1 <1>  -0.6600 
  4 C       -0.4700     2.3230    -0.1450 C.2   1 <1>  -0.2370 
  5 C       -2.7870    -0.7140     0.2480 C.3   1 <1>   0.1400 
  6 C       -3.1150     1.3720    -1.1110 C.3   1 <1>   0.1400 
  7 N        0.7000     2.5180    -0.8020 N.pl3 1 <1>   0.3140 
  8 C       -0.9610     3.5720     0.0850 C.2   1 <1>  -0.1500 
  9 C       -3.8960    -0.6240     1.3060 C.3   1 <1>   0.1400 
 10 C       -4.2030     2.2180    -0.4320 C.3   1 <1>  -0.1600 
 11 N        0.9480     3.8160    -1.0260 N.2   1 <1>  -0.7070 
 12 C        1.6460     1.4850    -1.2510 C.3   1 <1>   0.0160 
 13 C       -0.0500     4.4430    -0.4820 C.2   1 <1>   0.1080 
 14 N       -5.0250     0.2580     0.8680 N.am  1 <1>  -0.6600 
 15 C       -4.7050     1.7100     0.9240 C.3   1 <1>   0.1400 
 16 C       -0.1700     5.9570    -0.4850 C.3   1 <1>   0.0210 
 17 C       -6.2620    -0.1660     0.4580 C.2   1 <1>   0.5690 
 18 C       -0.0520     6.5670     0.9260 C.3   1 <1>  -0.0800 
 19 O       -7.1120     0.6140     0.0960 O.2   1 <1>  -0.5700 
 20 C       -6.6010    -1.6460     0.4380 C.3   1 <1>  -0.0990 
 21 C       -0.2920     8.0810     0.8760 C.3   1 <1>  -0.2400 
 22 C        1.3220     6.2820     1.5500 C.3   1 <1>  -0.2400 
 23 C       -8.0180    -1.9140    -0.0880 C.3   1 <1>   0.0960 
 24 N       -8.2970    -3.3610    -0.0880 N.pl3 1 <1>   0.0480 
 25 C       -8.1560    -4.2390    -1.0820 C.2   1 <1>   0.0360 
 26 C       -8.7300    -4.1260     0.9150 C.2   1 <1>   0.0360 
 27 N       -8.4700    -5.4330    -0.7160 N.2   1 <1>  -0.3380 
 28 N       -8.8380    -5.3600     0.5650 N.2   1 <1>  -0.3380 
 29 H       -1.9970    -1.3310     0.6380 H     1 <1>   0.0800 
 30 H       -3.1690    -1.2120    -0.6250 H     1 <1>   0.0800 
 31 H       -3.5940     0.6550    -1.7560 H     1 <1>   0.0800 
 32 H       -2.5100     2.0020    -1.7410 H     1 <1>   0.0800 
 33 H       -1.8570     3.8500     0.6050 H     1 <1>   0.1500 
 34 H       -3.4740    -0.2360     2.2180 H     1 <1>   0.0800 
 35 H       -4.2490    -1.6150     1.5230 H     1 <1>   0.0800 
 36 H       -5.0420     2.2910    -1.1010 H     1 <1>   0.0800 
 37 H       -3.8380     3.2180    -0.3020 H     1 <1>   0.0800 
 38 H        1.1250     0.7590    -1.8460 H     1 <1>   0.0800 
 39 H        2.0780     1.0090    -0.3910 H     1 <1>   0.0800 
 40 H        2.4200     1.9450    -1.8360 H     1 <1>   0.0800 
 41 H       -5.5830     2.2640     1.2110 H     1 <1>   0.0800 
 42 H       -3.9520     1.8850     1.6750 H     1 <1>   0.0800 
 43 H       -1.1210     6.2160    -0.9130 H     1 <1>   0.0800 
 44 H        0.5960     6.3640    -1.1210 H     1 <1>   0.0800 
 45 H       -0.8070     6.1250     1.5530 H     1 <1>   0.0800 
 46 H       -6.5210    -2.0230     1.4410 H     1 <1>   0.0800 
 47 H       -5.8890    -2.1490    -0.1900 H     1 <1>   0.0800 
 48 H        0.4470     8.5620     0.2600 H     1 <1>   0.0800 
 49 H       -0.2380     8.4990     1.8660 H     1 <1>   0.0800 
 50 H       -1.2670     8.2940     0.4740 H     1 <1>   0.0800 
 51 H        2.1080     6.6900     0.9390 H     1 <1>   0.0800 
 52 H        1.4820     5.2220     1.6430 H     1 <1>   0.0800 
 53 H        1.3870     6.7180     2.5320 H     1 <1>   0.0800 
 54 H       -8.1190    -1.5380    -1.0910 H     1 <1>   0.0800 
 55 H       -8.7440    -1.4190     0.5330 H     1 <1>   0.0800 
 56 H       -7.8190    -3.9700    -2.0670 H     1 <1>   0.1500 
 57 H       -8.9570    -3.7440     1.8940 H     1 <1>   0.1500 
@<TRIPOS>BOND
  1   1   2  2   
  2   2   3  am  
  3   2   4  1   
  4   3   5  1   
  5   3   6  1   
  6   4   7  1   
  7   4   8  2   
  8   5   9  1   
  9   5  29  1   
 10   5  30  1   
 11   6  10  1   
 12   6  31  1   
 13   6  32  1   
 14   7  11  1   
 15   7  12  1   
 16   8  13  1   
 17   8  33  1   
 18   9  14  1   
 19   9  34  1   
 20   9  35  1   
 21  10  15  1   
 22  10  36  1   
 23  10  37  1   
 24  11  13  2   
 25  12  38  1   
 26  12  39  1   
 27  12  40  1   
 28  13  16  1   
 29  14  15  1   
 30  14  17  am  
 31  15  41  1   
 32  15  42  1   
 33  16  18  1   
 34  16  43  1   
 35  16  44  1   
 36  17  19  2   
 37  17  20  1   
 38  18  21  1   
 39  18  22  1   
 40  18  45  1   
 41  20  23  1   
 42  20  46  1   
 43  20  47  1   
 44  21  48  1   
 45  21  49  1   
 46  21  50  1   
 47  22  51  1   
 48  22  52  1   
 49  22  53  1   
 50  23  24  1   
 51  23  54  1   
 52  23  55  1   
 53  24  25  1   
 54  24  26  1   
 55  25  27  2   
 56  25  56  1   
 57  26  28  2   
 58  26  57  1   
 59  27  28  1   
@<TRIPOS>SUBSTRUCTURE
  1 ****   3 GROUP 4 **** **** 0

# MOE 2024.06 (io_trps.svl 2023.06)
