@<TRIPOS>MOLECULE
NONAME
51 53 1 0 0 
SMALL
USER_CHARGES


@<TRIPOS>ATOM
  1 O        2.4270     1.3270     0.6120 O.co2 1 <1>  -0.9000 
  2 C        1.3160     1.5810     1.0850 C.2   1 <1>   0.9060 
  3 O        0.6410     0.7790     1.7300 O.co2 1 <1>  -0.9000 
  4 C        0.7330     2.9390     0.8560 C.3   1 <1>  -0.1860 
  5 C       -0.5990     2.8020     0.1180 C.3   1 <1>   0.2000 
  6 C        1.7090     3.7680     0.0520 C.3   1 <1>   0.3430 
  7 O       -1.5640     2.6790     1.0890 O.3   1 <1>  -0.6800 
  8 C       -0.9410     4.0170    -0.7520 C.3   1 <1>  -0.1600 
  9 N        1.1760     5.1550    -0.1560 N.4   1 <1>  -0.9590 
 10 C       -0.3170     5.2760    -0.1620 C.3   1 <1>   0.3430 
 11 C        1.7900     6.0720     0.8260 C.3   1 <1>   0.4860 
 12 C        1.5560     7.5120     0.4010 C.ar  1 <1>  -0.1440 
 13 C        1.9100     7.9740    -0.8660 C.ar  1 <1>   0.0820 
 14 C        0.9830     8.3980     1.3030 C.ar  1 <1>  -0.1500 
 15 O        2.4480     7.1440    -1.7860 O.3   1 <1>  -0.3620 
 16 C        1.6850     9.2950    -1.2210 C.ar  1 <1>  -0.1500 
 17 C        0.7640     9.7180     0.9480 C.ar  1 <1>  -0.1500 
 18 C        3.8540     7.1910    -1.9560 C.3   1 <1>   0.2630 
 19 C        1.1140    10.1670    -0.3130 C.ar  1 <1>  -0.1500 
 20 C        4.4420     6.0690    -1.1210 C.ar  1 <1>  -0.1440 
 21 C        4.3320     4.7580    -1.5580 C.ar  1 <1>  -0.1500 
 22 C        5.0530     6.3340     0.0960 C.ar  1 <1>  -0.1500 
 23 C        4.7840     3.7200    -0.7640 C.ar  1 <1>  -0.1500 
 24 C        5.5050     5.2920     0.8880 C.ar  1 <1>  -0.1500 
 25 C        5.3570     3.9810     0.4680 C.ar  1 <1>  -0.1440 
 26 C        5.8040     2.8180     1.3360 C.3   1 <1>  -0.0970 
 27 H        0.6050     3.3960     1.8190 H     1 <1>   0.0800 
 28 H       -0.6230     1.9040    -0.4800 H     1 <1>   0.0800 
 29 H        1.8620     3.2840    -0.8990 H     1 <1>   0.0800 
 30 H        2.6620     3.7930     0.5560 H     1 <1>   0.0800 
 31 H       -1.3150     1.8890     1.6330 H     1 <1>   0.4000 
 32 H       -0.5570     3.8700    -1.7450 H     1 <1>   0.0800 
 33 H       -2.0080     4.1260    -0.8290 H     1 <1>   0.0800 
 34 H        1.5400     5.4950    -1.0600 H     1 <1>   0.4500 
 35 H       -0.6780     5.3870     0.8480 H     1 <1>   0.0800 
 36 H       -0.6140     6.1450    -0.7270 H     1 <1>   0.0800 
 37 H        1.3670     5.8970     1.8010 H     1 <1>   0.0800 
 38 H        2.8480     5.8830     0.8840 H     1 <1>   0.0800 
 39 H        0.7030     8.0730     2.2910 H     1 <1>   0.1500 
 40 H        1.9490     9.6390    -2.2060 H     1 <1>   0.1500 
 41 H        0.3200    10.4020     1.6530 H     1 <1>   0.1500 
 42 H        4.0690     7.0410    -2.9990 H     1 <1>   0.0800 
 43 H        4.2240     8.1560    -1.6520 H     1 <1>   0.0800 
 44 H        0.9400    11.1940    -0.5870 H     1 <1>   0.1500 
 45 H        3.8840     4.5350    -2.5110 H     1 <1>   0.1500 
 46 H        5.1690     7.3480     0.4390 H     1 <1>   0.1500 
 47 H        4.6790     2.6980    -1.0960 H     1 <1>   0.1500 
 48 H        5.9720     5.5040     1.8340 H     1 <1>   0.1500 
 49 H        5.0310     2.0680     1.3700 H     1 <1>   0.0800 
 50 H        6.0070     3.1410     2.3400 H     1 <1>   0.0800 
 51 H        6.6940     2.3760     0.9260 H     1 <1>   0.0800 
@<TRIPOS>BOND
  1   1   2  ar  
  2   2   3  ar  
  3   2   4  1   
  4   4   5  1   
  5   4   6  1   
  6   4  27  1   
  7   5   7  1   
  8   5   8  1   
  9   5  28  1   
 10   6   9  1   
 11   6  29  1   
 12   6  30  1   
 13   7  31  1   
 14   8  10  1   
 15   8  32  1   
 16   8  33  1   
 17   9  10  1   
 18   9  11  1   
 19   9  34  1   
 20  10  35  1   
 21  10  36  1   
 22  11  12  1   
 23  11  37  1   
 24  11  38  1   
 25  12  13  ar  
 26  12  14  ar  
 27  13  15  1   
 28  13  16  ar  
 29  14  17  ar  
 30  14  39  1   
 31  15  18  1   
 32  16  19  ar  
 33  16  40  1   
 34  17  19  ar  
 35  17  41  1   
 36  18  20  1   
 37  18  42  1   
 38  18  43  1   
 39  19  44  1   
 40  20  21  ar  
 41  20  22  ar  
 42  21  23  ar  
 43  21  45  1   
 44  22  24  ar  
 45  22  46  1   
 46  23  25  ar  
 47  23  47  1   
 48  24  25  ar  
 49  24  48  1   
 50  25  26  1   
 51  26  49  1   
 52  26  50  1   
 53  26  51  1   
@<TRIPOS>SUBSTRUCTURE
  1 ****   9 GROUP 4 **** **** 0

# MOE 2024.06 (io_trps.svl 2023.06)
