@<TRIPOS>MOLECULE
NONAME
60 63 1 0 0 
SMALL
USER_CHARGES


@<TRIPOS>ATOM
  1 O        0.9800    -0.7960    -2.9260 O.2   1 <1>  -0.5700 
  2 C        1.4430    -1.3430    -1.9520 C.2   1 <1>   0.5690 
  3 N        2.1680    -0.6460    -1.0210 N.am  1 <1>  -0.6600 
  4 C        1.2310    -2.8480    -1.8190 C.3   1 <1>   0.1810 
  5 C        2.7480    -1.1950     0.2240 C.3   1 <1>   0.1400 
  6 C        2.3860     0.8120    -1.1130 C.3   1 <1>   0.1400 
  7 O        0.6110    -3.1840    -0.5850 O.3   1 <1>  -0.3620 
  8 C        3.5930    -0.0590     0.7890 C.3   1 <1>  -0.1600 
  9 C        2.9390     1.2110     0.2500 C.3   1 <1>  -0.1600 
 10 C        0.3460    -4.4680    -0.2520 C.ar  1 <1>   0.0820 
 11 C        0.5940    -5.5550    -1.0850 C.ar  1 <1>  -0.1500 
 12 C       -0.2050    -4.6820     0.9990 C.ar  1 <1>  -0.1500 
 13 C        0.2750    -6.8340    -0.6640 C.ar  1 <1>  -0.1500 
 14 C       -0.5210    -5.9600     1.4190 C.ar  1 <1>  -0.1500 
 15 C       -0.2980    -7.0450     0.5840 C.ar  1 <1>  -0.1430 
 16 C       -0.6930    -8.4410     1.0240 C.3   1 <1>   0.4860 
 17 N       -1.7260    -8.9160     0.0620 N.4   1 <1>  -0.9590 
 18 C       -3.1030    -9.0610     0.6320 C.3   1 <1>   0.4230 
 19 C       -1.2470   -10.1620    -0.6160 C.3   1 <1>   0.2630 
 20 C       -4.1140    -9.1840    -0.5100 C.3   1 <1>  -0.1600 
 21 C       -3.5850    -7.7720     1.3040 C.3   1 <1>  -0.1600 
 22 C       -4.3260    -7.7500    -1.0250 C.3   1 <1>  -0.0800 
 23 C       -3.9740    -6.8310     0.1540 C.3   1 <1>  -0.0800 
 24 C       -5.7760    -7.4270    -1.4190 C.3   1 <1>  -0.1600 
 25 C       -5.2180    -5.9740     0.4340 C.3   1 <1>  -0.1600 
 26 C       -6.3900    -6.6850    -0.2360 C.3   1 <1>   0.2000 
 27 O       -6.8960    -7.6150     0.6440 O.3   1 <1>  -0.6800 
 28 H        2.1800    -3.3460    -1.8720 H     1 <1>   0.0800 
 29 H        0.5940    -3.1840    -2.6170 H     1 <1>   0.0800 
 30 H        1.9510    -1.4400     0.9060 H     1 <1>   0.0800 
 31 H        3.3420    -2.0700     0.0270 H     1 <1>   0.0800 
 32 H        3.1060     1.0090    -1.8890 H     1 <1>   0.0800 
 33 H        1.4650     1.3250    -1.3380 H     1 <1>   0.0800 
 34 H        3.6250    -0.0800     1.8640 H     1 <1>   0.0800 
 35 H        4.5950    -0.1440     0.4060 H     1 <1>   0.0800 
 36 H        3.6300     2.0320     0.1770 H     1 <1>   0.0800 
 37 H        2.1190     1.4980     0.8860 H     1 <1>   0.0800 
 38 H        1.0310    -5.4220    -2.0570 H     1 <1>   0.1500 
 39 H       -0.3840    -3.8350     1.6400 H     1 <1>   0.1500 
 40 H        0.4840    -7.6570    -1.3260 H     1 <1>   0.1500 
 41 H       -0.9430    -6.0870     2.4020 H     1 <1>   0.1500 
 42 H       -1.0800    -8.4260     2.0300 H     1 <1>   0.0800 
 43 H        0.1750    -9.0810     1.0020 H     1 <1>   0.0800 
 44 H       -1.7950    -8.1550    -0.6290 H     1 <1>   0.4500 
 45 H       -3.1510    -9.9020     1.3060 H     1 <1>   0.0800 
 46 H       -1.2200   -10.9830     0.0830 H     1 <1>   0.0800 
 47 H       -0.2560   -10.0150    -1.0130 H     1 <1>   0.0800 
 48 H       -1.8980   -10.4270    -1.4330 H     1 <1>   0.0800 
 49 H       -3.8260    -9.8560    -1.2960 H     1 <1>   0.0800 
 50 H       -5.0350    -9.5570    -0.0970 H     1 <1>   0.0800 
 51 H       -4.4610    -8.0130     1.8790 H     1 <1>   0.0800 
 52 H       -2.8870    -7.3260     1.9840 H     1 <1>   0.0800 
 53 H       -3.6690    -7.5560    -1.8570 H     1 <1>   0.0800 
 54 H       -3.1400    -6.1960    -0.1020 H     1 <1>   0.0800 
 55 H       -6.3520    -8.2890    -1.7060 H     1 <1>   0.0800 
 56 H       -5.7570    -6.7490    -2.2540 H     1 <1>   0.0800 
 57 H       -5.0900    -5.0230    -0.0540 H     1 <1>   0.0800 
 58 H       -5.3930    -5.7890     1.4800 H     1 <1>   0.0800 
 59 H       -7.1880    -6.0170    -0.5190 H     1 <1>   0.0800 
 60 H       -6.1900    -8.2190     0.9200 H     1 <1>   0.4000 
@<TRIPOS>BOND
  1   1   2  2   
  2   2   3  am  
  3   2   4  1   
  4   3   5  1   
  5   3   6  1   
  6   4   7  1   
  7   4  28  1   
  8   4  29  1   
  9   5   8  1   
 10   5  30  1   
 11   5  31  1   
 12   6   9  1   
 13   6  32  1   
 14   6  33  1   
 15   7  10  1   
 16   8   9  1   
 17   8  34  1   
 18   8  35  1   
 19   9  36  1   
 20   9  37  1   
 21  10  11  ar  
 22  10  12  ar  
 23  11  13  ar  
 24  11  38  1   
 25  12  14  ar  
 26  12  39  1   
 27  13  15  ar  
 28  13  40  1   
 29  14  15  ar  
 30  14  41  1   
 31  15  16  1   
 32  16  17  1   
 33  16  42  1   
 34  16  43  1   
 35  17  18  1   
 36  17  19  1   
 37  17  44  1   
 38  18  20  1   
 39  18  21  1   
 40  18  45  1   
 41  19  46  1   
 42  19  47  1   
 43  19  48  1   
 44  20  22  1   
 45  20  49  1   
 46  20  50  1   
 47  21  23  1   
 48  21  51  1   
 49  21  52  1   
 50  22  23  1   
 51  22  24  1   
 52  22  53  1   
 53  23  25  1   
 54  23  54  1   
 55  24  26  1   
 56  24  55  1   
 57  24  56  1   
 58  25  26  1   
 59  25  57  1   
 60  25  58  1   
 61  26  27  1   
 62  26  59  1   
 63  27  60  1   
@<TRIPOS>SUBSTRUCTURE
  1 ****  10 GROUP 4 **** **** 0

# MOE 2024.06 (io_trps.svl 2023.06)
