@<TRIPOS>MOLECULE
NONAME
50 52 1 0 0 
SMALL
USER_CHARGES


@<TRIPOS>ATOM
  1 O        1.6760     0.2640    -1.3600 O.2   1 <1>  -0.5700 
  2 C        2.0990    -0.4760    -0.4920 C.2   1 <1>   0.5440 
  3 N        2.8430     0.0710     0.5340 N.am  1 <1>  -0.6600 
  4 C        1.8250    -1.9000    -0.5750 C.ar  1 <1>   0.0860 
  5 C        3.8920    -0.6900     1.2800 C.3   1 <1>   0.1400 
  6 C        2.8540     1.5360     0.7890 C.3   1 <1>   0.1400 
  7 C        1.9760    -2.5890    -1.7780 C.ar  1 <1>  -0.1500 
  8 C        1.3950    -2.6310     0.5340 C.ar  1 <1>  -0.1500 
  9 C        5.2850    -0.1350     0.9540 C.3   1 <1>   0.2000 
 10 C        4.2120     2.1050     0.3760 C.3   1 <1>  -0.1600 
 11 C        1.7280    -3.9460    -1.8700 C.ar  1 <1>  -0.1500 
 12 C        1.1460    -3.9890     0.4510 C.ar  1 <1>  -0.1500 
 13 O        6.1980    -0.7450     1.8040 O.3   1 <1>  -0.6800 
 14 C        5.3540     1.4020     1.1190 C.3   1 <1>   0.2200 
 15 C        1.3140    -4.6500    -0.7530 C.ar  1 <1>  -0.1500 
 16 N        6.6360     1.9500     0.6080 N.am  1 <1>  -0.7300 
 17 C        7.8280     1.8850     1.2480 C.2   1 <1>   0.5690 
 18 O        7.9540     1.2880     2.2880 O.2   1 <1>  -0.5700 
 19 C        9.0320     2.5490     0.6220 C.3   1 <1>  -0.0990 
 20 C        9.8800     1.5350    -0.1520 C.3   1 <1>  -0.0170 
 21 C       11.0520     2.2320    -0.8230 C.ar  1 <1>  -0.1430 
 22 C       12.2200     2.4660    -0.1150 C.ar  1 <1>  -0.1500 
 23 C       10.9630     2.6450    -2.1440 C.ar  1 <1>  -0.1500 
 24 C       13.2880     3.1070    -0.7200 C.ar  1 <1>  -0.1500 
 25 C       12.0300     3.2860    -2.7500 C.ar  1 <1>  -0.1500 
 26 C       13.1930     3.5180    -2.0370 C.ar  1 <1>  -0.1500 
 27 H        3.7050    -0.5970     2.3350 H     1 <1>   0.0800 
 28 H        3.8710    -1.7320     1.0160 H     1 <1>   0.0800 
 29 H        2.0690     2.0220     0.2350 H     1 <1>   0.0800 
 30 H        2.6770     1.7130     1.8360 H     1 <1>   0.0800 
 31 H        2.2900    -2.0420    -2.6510 H     1 <1>   0.1500 
 32 H        1.2540    -2.1210     1.4710 H     1 <1>   0.1500 
 33 H        5.5440    -0.4040    -0.0550 H     1 <1>   0.0800 
 34 H        4.2290     3.1560     0.5990 H     1 <1>   0.0800 
 35 H        4.3210     1.9760    -0.6870 H     1 <1>   0.0800 
 36 H        1.8540    -4.4550    -2.8100 H     1 <1>   0.1500 
 37 H        0.8190    -4.5320     1.3210 H     1 <1>   0.1500 
 38 H        6.9350    -0.1090     2.0050 H     1 <1>   0.4000 
 39 H        5.2670     1.6310     2.1680 H     1 <1>   0.0800 
 40 H        1.1200    -5.7070    -0.8210 H     1 <1>   0.1500 
 41 H        6.5770     2.4150    -0.2980 H     1 <1>   0.3700 
 42 H        8.7120     3.3360    -0.0360 H     1 <1>   0.0800 
 43 H        9.6250     2.9910     1.4020 H     1 <1>   0.0800 
 44 H        9.2760     1.0430    -0.8950 H     1 <1>   0.0800 
 45 H       10.2460     0.7800     0.5220 H     1 <1>   0.0800 
 46 H       12.3040     2.1510     0.9100 H     1 <1>   0.1500 
 47 H       10.0640     2.4700    -2.7090 H     1 <1>   0.1500 
 48 H       14.1920     3.2860    -0.1640 H     1 <1>   0.1500 
 49 H       11.9560     3.6040    -3.7750 H     1 <1>   0.1500 
 50 H       14.0230     4.0160    -2.5080 H     1 <1>   0.1500 
@<TRIPOS>BOND
  1   1   2  2   
  2   2   3  am  
  3   2   4  1   
  4   3   5  1   
  5   3   6  1   
  6   4   7  ar  
  7   4   8  ar  
  8   5   9  1   
  9   5  27  1   
 10   5  28  1   
 11   6  10  1   
 12   6  29  1   
 13   6  30  1   
 14   7  11  ar  
 15   7  31  1   
 16   8  12  ar  
 17   8  32  1   
 18   9  13  1   
 19   9  14  1   
 20   9  33  1   
 21  10  14  1   
 22  10  34  1   
 23  10  35  1   
 24  11  15  ar  
 25  11  36  1   
 26  12  15  ar  
 27  12  37  1   
 28  13  38  1   
 29  14  16  1   
 30  14  39  1   
 31  15  40  1   
 32  16  17  am  
 33  16  41  1   
 34  17  18  2   
 35  17  19  1   
 36  19  20  1   
 37  19  42  1   
 38  19  43  1   
 39  20  21  1   
 40  20  44  1   
 41  20  45  1   
 42  21  22  ar  
 43  21  23  ar  
 44  22  24  ar  
 45  22  46  1   
 46  23  25  ar  
 47  23  47  1   
 48  24  26  ar  
 49  24  48  1   
 50  25  26  ar  
 51  25  49  1   
 52  26  50  1   
@<TRIPOS>SUBSTRUCTURE
  1 ****   9 GROUP 4 **** **** 0

# MOE 2024.06 (io_trps.svl 2023.06)
