@<TRIPOS>MOLECULE
NONAME
44 46 1 0 0 
SMALL
USER_CHARGES


@<TRIPOS>ATOM
  1 S       -0.1980    -0.2610    -0.0960 S.3   1 <1>  -0.0800 
  2 C       -0.7070     1.3210     0.4750 C.2   1 <1>   0.0600 
  3 C       -1.5230    -1.0630     0.7290 C.2   1 <1>  -0.1400 
  4 C        0.0650     2.4540     0.0780 C.1   1 <1>  -0.0200 
  5 C       -1.8110     1.1880     1.2400 C.2   1 <1>  -0.1500 
  6 C       -2.2740    -0.1560     1.3870 C.2   1 <1>  -0.1500 
  7 C       -1.5730    -2.5670     0.5590 C.3   1 <1>   0.5230 
  8 C        0.7140     3.3940    -0.2590 C.1   1 <1>  -0.2000 
  9 N       -2.9290    -3.0690     0.8920 N.4   1 <1>  -0.9590 
 10 C        1.5310     4.5610    -0.6850 C.3   1 <1>   0.3200 
 11 C       -4.0140    -2.5830    -0.0030 C.3   1 <1>   0.3430 
 12 C       -3.0620    -4.5530     0.9330 C.3   1 <1>   0.3430 
 13 O        2.3640     4.1300    -1.6940 O.3   1 <1>  -0.6800 
 14 C       -5.1790    -3.5160     0.3240 C.3   1 <1>   0.2000 
 15 C       -4.4980    -4.8780     0.4820 C.3   1 <1>  -0.0800 
 16 O       -5.6800    -3.1420     1.5650 O.3   1 <1>  -0.6800 
 17 C       -4.5090    -5.6760    -0.8370 C.3   1 <1>  -0.0170 
 18 C       -3.6030    -6.8930    -0.7480 C.ar  1 <1>  -0.1430 
 19 C       -2.4710    -7.0200    -1.5280 C.ar  1 <1>  -0.1500 
 20 C       -3.8630    -7.9340     0.1230 C.ar  1 <1>  -0.1500 
 21 C       -1.6640    -8.1380    -1.3880 C.ar  1 <1>   0.1600 
 22 C       -2.9910    -9.0080     0.1870 C.ar  1 <1>   0.1600 
 23 N       -1.8930    -9.1250    -0.5400 N.ar  1 <1>  -0.6200 
 24 H       -2.3230     2.0080     1.7140 H     1 <1>   0.1500 
 25 H       -3.1470    -0.3530     1.9870 H     1 <1>   0.1500 
 26 H       -0.8370    -3.0200     1.2040 H     1 <1>   0.0800 
 27 H       -1.3320    -2.8190    -0.4610 H     1 <1>   0.0800 
 28 H       -3.1850    -2.7220     1.8290 H     1 <1>   0.4500 
 29 H        2.1370     4.9230     0.1270 H     1 <1>   0.0800 
 30 H        0.9150     5.3560    -1.0680 H     1 <1>   0.0800 
 31 H       -4.2710    -1.5540     0.1880 H     1 <1>   0.0800 
 32 H       -3.7270    -2.7010    -1.0340 H     1 <1>   0.0800 
 33 H       -2.3510    -5.0150     0.2680 H     1 <1>   0.0800 
 34 H       -2.8890    -4.9180     1.9330 H     1 <1>   0.0800 
 35 H        2.6700     3.2270    -1.4840 H     1 <1>   0.4000 
 36 H       -5.9720    -3.4840    -0.4050 H     1 <1>   0.0800 
 37 H       -4.9910    -5.4690     1.2350 H     1 <1>   0.0800 
 38 H       -6.5380    -3.5810     1.7530 H     1 <1>   0.4000 
 39 H       -4.1880    -5.0550    -1.6560 H     1 <1>   0.0800 
 40 H       -5.5120    -6.0030    -1.0560 H     1 <1>   0.0800 
 41 H       -2.2010    -6.2720    -2.2510 H     1 <1>   0.1500 
 42 H       -4.7350    -7.9310     0.7520 H     1 <1>   0.1500 
 43 H       -0.7850    -8.2260    -2.0050 H     1 <1>   0.1500 
 44 H       -3.2060    -9.8120     0.8700 H     1 <1>   0.1500 
@<TRIPOS>BOND
  1   1   2  1   
  2   1   3  1   
  3   2   4  1   
  4   2   5  2   
  5   3   6  2   
  6   3   7  1   
  7   4   8  3   
  8   5   6  1   
  9   5  24  1   
 10   6  25  1   
 11   7   9  1   
 12   7  26  1   
 13   7  27  1   
 14   8  10  1   
 15   9  11  1   
 16   9  12  1   
 17   9  28  1   
 18  10  13  1   
 19  10  29  1   
 20  10  30  1   
 21  11  14  1   
 22  11  31  1   
 23  11  32  1   
 24  12  15  1   
 25  12  33  1   
 26  12  34  1   
 27  13  35  1   
 28  14  15  1   
 29  14  16  1   
 30  14  36  1   
 31  15  17  1   
 32  15  37  1   
 33  16  38  1   
 34  17  18  1   
 35  17  39  1   
 36  17  40  1   
 37  18  19  ar  
 38  18  20  ar  
 39  19  21  ar  
 40  19  41  1   
 41  20  22  ar  
 42  20  42  1   
 43  21  23  ar  
 44  21  43  1   
 45  22  23  ar  
 46  22  44  1   
@<TRIPOS>SUBSTRUCTURE
  1 ****   7 GROUP 4 **** **** 0

# MOE 2024.06 (io_trps.svl 2023.06)
