@<TRIPOS>MOLECULE
NONAME
54 56 1 0 0 
SMALL
USER_CHARGES


@<TRIPOS>ATOM
  1 O       -0.7260     0.8700     1.6790 O.2   1 <1>  -0.5700 
  2 C       -1.1250     1.3110     0.6110 C.2   1 <1>   0.7160 
  3 N       -2.0700     0.5510    -0.0650 N.am  1 <1>  -0.6600 
  4 C       -0.5940     2.5960     0.1580 C.2   1 <1>   0.2030 
  5 C       -2.5360    -0.7640     0.4770 C.3   1 <1>   0.1400 
  6 C       -2.8750     1.0170    -1.2300 C.3   1 <1>   0.1400 
  7 N       -0.8200     3.2360    -0.9540 N.2   1 <1>  -0.4100 
  8 C        0.2900     3.3620     0.9070 C.2   1 <1>  -0.1500 
  9 C       -3.8080    -0.6280     1.3340 C.3   1 <1>   0.1400 
 10 C       -4.0020     1.9580    -0.7870 C.3   1 <1>  -0.1600 
 11 O       -0.1520     4.3630    -0.9860 O.3   1 <1>  -0.0190 
 12 C        0.5170     4.4320     0.1420 C.2   1 <1>  -0.0400 
 13 N       -4.9130     0.1030     0.6270 N.am  1 <1>  -0.6600 
 14 C       -4.6880     1.5750     0.5320 C.3   1 <1>   0.1400 
 15 C        1.3950     5.6390     0.3940 C.3   1 <1>  -0.0600 
 16 C       -6.0560    -0.4500     0.0940 C.2   1 <1>   0.5690 
 17 O       -6.8170     0.2260    -0.5610 O.2   1 <1>  -0.5700 
 18 C       -6.4010    -1.9350     0.2940 C.3   1 <1>  -0.0190 
 19 C       -5.6930    -2.8160    -0.7520 C.3   1 <1>  -0.1600 
 20 C       -7.9200    -2.2050     0.2520 C.3   1 <1>  -0.1600 
 21 C       -6.0050    -4.3040    -0.5420 C.3   1 <1>  -0.1600 
 22 C       -8.2410    -3.6910     0.4650 C.3   1 <1>  -0.1600 
 23 C       -7.5190    -4.5800    -0.5650 C.3   1 <1>  -0.0800 
 24 C       -7.7740    -6.0800    -0.3210 C.3   1 <1>  -0.1600 
 25 C       -9.2430    -6.4850    -0.4980 C.3   1 <1>  -0.2400 
 26 H       -1.7600    -1.2100     1.0750 H     1 <1>   0.0800 
 27 H       -2.7230    -1.4390    -0.3390 H     1 <1>   0.0800 
 28 H       -3.3190     0.1640    -1.7140 H     1 <1>   0.0800 
 29 H       -2.2490     1.4930    -1.9630 H     1 <1>   0.0800 
 30 H        0.6750     3.1060     1.8770 H     1 <1>   0.1500 
 31 H       -3.5570    -0.0990     2.2380 H     1 <1>   0.0800 
 32 H       -4.1210    -1.6110     1.6280 H     1 <1>   0.0800 
 33 H       -4.7450     1.9850    -1.5640 H     1 <1>   0.0800 
 34 H       -3.6160     2.9560    -0.6950 H     1 <1>   0.0800 
 35 H       -5.6300     2.0930     0.6080 H     1 <1>   0.0800 
 36 H       -4.0780     1.8970     1.3580 H     1 <1>   0.0800 
 37 H        1.8770     5.5570     1.3510 H     1 <1>   0.0800 
 38 H        0.7970     6.5330     0.3800 H     1 <1>   0.0800 
 39 H        2.1470     5.7090    -0.3710 H     1 <1>   0.0800 
 40 H       -6.0760    -2.2260     1.2730 H     1 <1>   0.0800 
 41 H       -4.6310    -2.6670    -0.7000 H     1 <1>   0.0800 
 42 H       -6.0160    -2.5190    -1.7360 H     1 <1>   0.0800 
 43 H       -8.3130    -1.8950    -0.7020 H     1 <1>   0.0800 
 44 H       -8.4090    -1.6180     1.0110 H     1 <1>   0.0800 
 45 H       -5.5980    -4.6210     0.4030 H     1 <1>   0.0800 
 46 H       -5.5240    -4.8760    -1.3170 H     1 <1>   0.0800 
 47 H       -9.3050    -3.8220     0.3830 H     1 <1>   0.0800 
 48 H       -7.9480    -3.9800     1.4600 H     1 <1>   0.0800 
 49 H       -7.8880    -4.3290    -1.5460 H     1 <1>   0.0800 
 50 H       -7.4490    -6.3480     0.6700 H     1 <1>   0.0800 
 51 H       -7.1860    -6.6490    -1.0200 H     1 <1>   0.0800 
 52 H       -9.8610    -6.0430     0.2630 H     1 <1>   0.0800 
 53 H       -9.3370    -7.5540    -0.4230 H     1 <1>   0.0800 
 54 H       -9.6050    -6.1790    -1.4640 H     1 <1>   0.0800 
@<TRIPOS>BOND
  1   1   2  2   
  2   2   3  am  
  3   2   4  1   
  4   3   5  1   
  5   3   6  1   
  6   4   7  2   
  7   4   8  1   
  8   5   9  1   
  9   5  26  1   
 10   5  27  1   
 11   6  10  1   
 12   6  28  1   
 13   6  29  1   
 14   7  11  1   
 15   8  12  2   
 16   8  30  1   
 17   9  13  1   
 18   9  31  1   
 19   9  32  1   
 20  10  14  1   
 21  10  33  1   
 22  10  34  1   
 23  11  12  1   
 24  12  15  1   
 25  13  14  1   
 26  13  16  am  
 27  14  35  1   
 28  14  36  1   
 29  15  37  1   
 30  15  38  1   
 31  15  39  1   
 32  16  17  2   
 33  16  18  1   
 34  18  19  1   
 35  18  20  1   
 36  18  40  1   
 37  19  21  1   
 38  19  41  1   
 39  19  42  1   
 40  20  22  1   
 41  20  43  1   
 42  20  44  1   
 43  21  23  1   
 44  21  45  1   
 45  21  46  1   
 46  22  23  1   
 47  22  47  1   
 48  22  48  1   
 49  23  24  1   
 50  23  49  1   
 51  24  25  1   
 52  24  50  1   
 53  24  51  1   
 54  25  52  1   
 55  25  53  1   
 56  25  54  1   
@<TRIPOS>SUBSTRUCTURE
  1 ****  13 GROUP 4 **** **** 0

# MOE 2024.06 (io_trps.svl 2023.06)
