@<TRIPOS>MOLECULE
NONAME
57 58 1 0 0 
SMALL
USER_CHARGES


@<TRIPOS>ATOM
  1 O        1.5180    -0.7520    -2.0030 O.2   1 <1>  -0.5700 
  2 C        1.9020    -0.6240    -0.8600 C.2   1 <1>   0.5440 
  3 N        1.2570    -1.3710     0.0660 N.am  1 <1>  -0.8000 
  4 C        2.9770     0.2900    -0.5110 C.ar  1 <1>   0.0860 
  5 C        3.7040     0.1670     0.6760 C.ar  1 <1>  -0.1500 
  6 C        3.3280     1.3410    -1.3620 C.ar  1 <1>  -0.1500 
  7 C        4.7160     1.0520     0.9980 C.ar  1 <1>  -0.1500 
  8 C        4.3390     2.2310    -1.0490 C.ar  1 <1>  -0.1500 
  9 C        5.0430     2.0920     0.1440 C.ar  1 <1>   0.0820 
 10 O        6.0440     2.9140     0.5320 O.3   1 <1>  -0.3630 
 11 C        6.4730     3.9910    -0.2590 C.3   1 <1>   0.1200 
 12 C        7.6150     4.6700     0.4990 C.3   1 <1>  -0.1600 
 13 C        8.1700     5.8590    -0.2850 C.3   1 <1>   0.3430 
 14 N        9.2210     6.5690     0.5170 N.4   1 <1>  -0.9590 
 15 C        9.3560     7.9920     0.0200 C.3   1 <1>   0.3430 
 16 C       10.4900     5.7750     0.5570 C.3   1 <1>   0.3430 
 17 C       10.4700     8.8610     0.6710 C.3   1 <1>   0.3430 
 18 C       11.3810     6.2560     1.7020 C.3   1 <1>  -0.1600 
 19 N       11.8750     8.3790     0.3890 N.4   1 <1>  -0.9590 
 20 C       12.3900     7.3510     1.3450 C.3   1 <1>   0.3430 
 21 C       12.8430     9.5260     0.3730 C.3   1 <1>   0.3430 
 22 C       12.6790    10.3950    -0.8880 C.3   1 <1>  -0.0800 
 23 C       12.7420     9.5780    -2.1910 C.3   1 <1>  -0.2400 
 24 C       13.7810    11.4620    -0.9110 C.3   1 <1>  -0.2400 
 25 H        0.4880    -1.9670    -0.2440 H     1 <1>   0.3700 
 26 H        1.3800    -1.2640     1.0710 H     1 <1>   0.3700 
 27 H        3.4820    -0.6360     1.3550 H     1 <1>   0.1500 
 28 H        2.7890     1.4550    -2.2880 H     1 <1>   0.1500 
 29 H        5.2630     0.9400     1.9180 H     1 <1>   0.1500 
 30 H        4.5590     3.0180    -1.7440 H     1 <1>   0.1500 
 31 H        5.6390     4.6590    -0.3980 H     1 <1>   0.0800 
 32 H        6.8040     3.6000    -1.2060 H     1 <1>   0.0800 
 33 H        8.3800     3.9320     0.6620 H     1 <1>   0.0800 
 34 H        7.2320     5.0040     1.4470 H     1 <1>   0.0800 
 35 H        7.3550     6.5340    -0.4950 H     1 <1>   0.0800 
 36 H        8.5780     5.5230    -1.2260 H     1 <1>   0.0800 
 37 H        8.8490     6.5930     1.4810 H     1 <1>   0.4500 
 38 H        8.4150     8.4960     0.1780 H     1 <1>   0.0800 
 39 H        9.5230     7.9800    -1.0450 H     1 <1>   0.0800 
 40 H       11.0100     5.8290    -0.3870 H     1 <1>   0.0800 
 41 H       10.2530     4.7380     0.7380 H     1 <1>   0.0800 
 42 H       10.3080     8.9240     1.7350 H     1 <1>   0.0800 
 43 H       10.3590     9.8590     0.2800 H     1 <1>   0.0800 
 44 H       11.9570     5.4120     2.0410 H     1 <1>   0.0800 
 45 H       10.7860     6.5600     2.5450 H     1 <1>   0.0800 
 46 H       11.9290     7.9990    -0.5670 H     1 <1>   0.4500 
 47 H       13.2660     6.8890     0.9150 H     1 <1>   0.0800 
 48 H       12.7050     7.8310     2.2590 H     1 <1>   0.0800 
 49 H       13.8520     9.1430     0.3800 H     1 <1>   0.0800 
 50 H       12.7180    10.1360     1.2540 H     1 <1>   0.0800 
 51 H       11.7390    10.9180    -0.8480 H     1 <1>   0.0800 
 52 H       13.6580     9.0130    -2.2460 H     1 <1>   0.0800 
 53 H       12.7190    10.2420    -3.0390 H     1 <1>   0.0800 
 54 H       11.9070     8.9100    -2.2900 H     1 <1>   0.0800 
 55 H       14.7570    11.0130    -0.9760 H     1 <1>   0.0800 
 56 H       13.7440    12.0720    -0.0240 H     1 <1>   0.0800 
 57 H       13.6560    12.1130    -1.7610 H     1 <1>   0.0800 
@<TRIPOS>BOND
  1   1   2  2   
  2   2   3  am  
  3   2   4  1   
  4   3  25  1   
  5   3  26  1   
  6   4   5  ar  
  7   4   6  ar  
  8   5   7  ar  
  9   5  27  1   
 10   6   8  ar  
 11   6  28  1   
 12   7   9  ar  
 13   7  29  1   
 14   8   9  ar  
 15   8  30  1   
 16   9  10  1   
 17  10  11  1   
 18  11  12  1   
 19  11  31  1   
 20  11  32  1   
 21  12  13  1   
 22  12  33  1   
 23  12  34  1   
 24  13  14  1   
 25  13  35  1   
 26  13  36  1   
 27  14  15  1   
 28  14  16  1   
 29  14  37  1   
 30  15  17  1   
 31  15  38  1   
 32  15  39  1   
 33  16  18  1   
 34  16  40  1   
 35  16  41  1   
 36  17  19  1   
 37  17  42  1   
 38  17  43  1   
 39  18  20  1   
 40  18  44  1   
 41  18  45  1   
 42  19  20  1   
 43  19  21  1   
 44  19  46  1   
 45  20  47  1   
 46  20  48  1   
 47  21  22  1   
 48  21  49  1   
 49  21  50  1   
 50  22  23  1   
 51  22  24  1   
 52  22  51  1   
 53  23  52  1   
 54  23  53  1   
 55  23  54  1   
 56  24  55  1   
 57  24  56  1   
 58  24  57  1   
@<TRIPOS>SUBSTRUCTURE
  1 ****  12 GROUP 4 **** **** 0

# MOE 2024.06 (io_trps.svl 2023.06)
