@<TRIPOS>MOLECULE
NONAME
50 53 1 0 0 
SMALL
USER_CHARGES


@<TRIPOS>ATOM
  1 S       -1.7810     2.2500     0.0060 S.3   1 <1>  -0.0800 
  2 C       -0.5500     3.4480    -0.3290 C.2   1 <1>  -0.1400 
  3 C       -0.6030     1.2430     0.8320 C.2   1 <1>  -0.1100 
  4 C        0.6460     3.0840     0.1470 C.2   1 <1>  -0.1810 
  5 C       -0.8500     4.7250    -1.0650 C.3   1 <1>   0.0200 
  6 C        0.6170     1.8160     0.8220 C.2   1 <1>  -0.1500 
  7 C        1.8720     3.9730    -0.0530 C.3   1 <1>   0.4610 
  8 C        0.3030     5.6960    -0.7680 C.3   1 <1>   0.1200 
  9 O        1.5600     5.0650    -0.9070 O.3   1 <1>  -0.5600 
 10 C        2.4060     4.5260     1.2780 C.3   1 <1>  -0.1600 
 11 C        2.9900     3.1950    -0.7560 C.3   1 <1>  -0.1600 
 12 C        3.8120     5.1280     1.1760 C.3   1 <1>   0.3430 
 13 C        4.2390     4.0420    -1.0230 C.3   1 <1>   0.3430 
 14 N        4.1950     5.3130    -0.2500 N.4   1 <1>  -0.9590 
 15 C        5.3770     6.1850    -0.4370 C.3   1 <1>   0.5240 
 16 C        4.9980     7.5570     0.0680 C.2   1 <1>  -0.1810 
 17 C        5.7120     8.3350     0.9720 C.2   1 <1>   0.1080 
 18 C        3.9020     8.2940    -0.2270 C.2   1 <1>  -0.3020 
 19 N        5.1090     9.4490     1.2270 N.2   1 <1>  -0.7070 
 20 C        7.0340     7.9840     1.6200 C.3   1 <1>  -0.0590 
 21 N        3.9900     9.4410     0.4800 N.pl3 1 <1>   0.3140 
 22 C        3.0340    10.5750     0.5130 C.3   1 <1>   0.2340 
 23 C        2.1310    10.6090    -0.7180 C.2   1 <1>  -0.2880 
 24 C        0.8000    10.4870    -0.7060 C.2   1 <1>  -0.3000 
 25 H       -0.9560     0.3140     1.2450 H     1 <1>   0.1500 
 26 H       -1.7790     5.1460    -0.7250 H     1 <1>   0.0800 
 27 H       -0.9220     4.5350    -2.1210 H     1 <1>   0.0800 
 28 H        1.4960     1.3860     1.2670 H     1 <1>   0.1500 
 29 H        0.2170     6.0740     0.2350 H     1 <1>   0.0800 
 30 H        0.2690     6.5270    -1.4520 H     1 <1>   0.0800 
 31 H        2.4460     3.7300     1.9980 H     1 <1>   0.0800 
 32 H        1.7240     5.2540     1.6760 H     1 <1>   0.0800 
 33 H        2.6180     2.7960    -1.6830 H     1 <1>   0.0800 
 34 H        3.2720     2.3540    -0.1490 H     1 <1>   0.0800 
 35 H        4.5220     4.4740     1.6570 H     1 <1>   0.0800 
 36 H        3.8280     6.0770     1.6920 H     1 <1>   0.0800 
 37 H        4.2840     4.2710    -2.0760 H     1 <1>   0.0800 
 38 H        5.1200     3.4760    -0.7640 H     1 <1>   0.0800 
 39 H        3.3980     5.8370    -0.6560 H     1 <1>   0.4500 
 40 H        5.6360     6.2490    -1.4810 H     1 <1>   0.0800 
 41 H        6.2200     5.8000     0.1120 H     1 <1>   0.0800 
 42 H        3.0750     8.0890    -0.8840 H     1 <1>   0.1500 
 43 H        7.7440     7.6690     0.8790 H     1 <1>   0.0800 
 44 H        6.8950     7.2050     2.3460 H     1 <1>   0.0800 
 45 H        7.4300     8.8500     2.1220 H     1 <1>   0.0800 
 46 H        3.6000    11.4870     0.5740 H     1 <1>   0.0800 
 47 H        2.4450    10.4850     1.4060 H     1 <1>   0.0800 
 48 H        2.6910    10.7510    -1.6280 H     1 <1>   0.1500 
 49 H        0.1880    10.5210    -1.5920 H     1 <1>   0.1500 
 50 H        0.2050    10.3500     0.1820 H     1 <1>   0.1500 
@<TRIPOS>BOND
  1   1   2  1   
  2   1   3  1   
  3   2   4  2   
  4   2   5  1   
  5   3   6  2   
  6   3  25  1   
  7   4   6  1   
  8   4   7  1   
  9   5   8  1   
 10   5  26  1   
 11   5  27  1   
 12   6  28  1   
 13   7   9  1   
 14   7  10  1   
 15   7  11  1   
 16   8   9  1   
 17   8  29  1   
 18   8  30  1   
 19  10  12  1   
 20  10  31  1   
 21  10  32  1   
 22  11  13  1   
 23  11  33  1   
 24  11  34  1   
 25  12  14  1   
 26  12  35  1   
 27  12  36  1   
 28  13  14  1   
 29  13  37  1   
 30  13  38  1   
 31  14  15  1   
 32  14  39  1   
 33  15  16  1   
 34  15  40  1   
 35  15  41  1   
 36  16  17  1   
 37  16  18  2   
 38  17  19  2   
 39  17  20  1   
 40  18  21  1   
 41  18  42  1   
 42  19  21  1   
 43  20  43  1   
 44  20  44  1   
 45  20  45  1   
 46  21  22  1   
 47  22  23  1   
 48  22  46  1   
 49  22  47  1   
 50  23  24  2   
 51  23  48  1   
 52  24  49  1   
 53  24  50  1   
@<TRIPOS>SUBSTRUCTURE
  1 ****   9 GROUP 4 **** **** 0

# MOE 2024.06 (io_trps.svl 2023.06)
