@<TRIPOS>MOLECULE
NONAME
49 51 1 0 0 
SMALL
USER_CHARGES


@<TRIPOS>ATOM
  1 CL       1.6070     1.3750    -0.3970 Cl    1 <1>  -0.1770 
  2 C       -0.0760     1.8400    -0.4720 C.ar  1 <1>   0.1770 
  3 C       -0.6020     2.7900     0.4020 C.ar  1 <1>  -0.1440 
  4 C       -0.8580     1.2220    -1.4300 C.ar  1 <1>  -0.1500 
  5 C       -1.9550     3.1040     0.3070 C.ar  1 <1>  -0.1500 
  6 C        0.2460     3.4960     1.4650 C.3   1 <1>   0.0450 
  7 C       -2.1910     1.5680    -1.4980 C.ar  1 <1>   0.1900 
  8 C       -2.7570     2.4970    -0.6460 C.ar  1 <1>  -0.1500 
  9 C        0.0440     5.0070     1.4430 C.2   1 <1>   0.5690 
 10 F       -2.9440     0.9980    -2.3980 F     1 <1>  -0.1900 
 11 O       -0.6990     5.4710     2.2770 O.2   1 <1>  -0.5700 
 12 N        0.6420     5.8040     0.4980 N.am  1 <1>  -0.6600 
 13 C        1.6480     5.3120    -0.4850 C.3   1 <1>   0.2840 
 14 C        0.3360     7.2690     0.4150 C.3   1 <1>   0.1400 
 15 C        2.9910     5.0110     0.1740 C.ar  1 <1>  -0.1430 
 16 C       -0.6900     7.5660    -0.6900 C.3   1 <1>   0.2000 
 17 C        3.7790     3.9930    -0.3410 C.ar  1 <1>  -0.1500 
 18 C        3.4520     5.7250     1.2720 C.ar  1 <1>  -0.1500 
 19 O       -0.8870     8.9430    -0.7800 O.3   1 <1>  -0.5600 
 20 C       -2.0710     6.9650    -0.4570 C.3   1 <1>  -0.1600 
 21 C        4.9990     3.6750     0.2310 C.ar  1 <1>  -0.1430 
 22 C        4.6720     5.4170     1.8460 C.ar  1 <1>  -0.1500 
 23 C       -2.2260     9.2650    -1.0060 C.3   1 <1>   0.1200 
 24 C       -2.9740     7.9480    -1.1700 C.3   1 <1>  -0.1600 
 25 C        5.4450     4.3940     1.3270 C.ar  1 <1>  -0.1500 
 26 C        5.8380     2.5490    -0.3450 C.3   1 <1>  -0.0970 
 27 H       -0.4420     0.4930    -2.1000 H     1 <1>   0.1500 
 28 H       -2.3940     3.8250     0.9780 H     1 <1>   0.1500 
 29 H        1.2900     3.2790     1.3670 H     1 <1>   0.0800 
 30 H       -0.0530     3.1320     2.4310 H     1 <1>   0.0800 
 31 H       -3.8020     2.7360    -0.7260 H     1 <1>   0.1500 
 32 H        1.7990     6.0500    -1.2540 H     1 <1>   0.0800 
 33 H        1.2690     4.4260    -0.9620 H     1 <1>   0.0800 
 34 H        1.2430     7.8110     0.2100 H     1 <1>   0.0800 
 35 H       -0.0530     7.6180     1.3550 H     1 <1>   0.0800 
 36 H       -0.3080     7.2500    -1.6450 H     1 <1>   0.0800 
 37 H        3.4420     3.4340    -1.1970 H     1 <1>   0.1500 
 38 H        2.8660     6.5230     1.6930 H     1 <1>   0.1500 
 39 H       -2.2920     6.9530     0.5970 H     1 <1>   0.0800 
 40 H       -2.1460     5.9660    -0.8470 H     1 <1>   0.0800 
 41 H        5.0210     5.9750     2.6980 H     1 <1>   0.1500 
 42 H       -2.2960     9.8870    -1.8820 H     1 <1>   0.0800 
 43 H       -2.5800     9.8040    -0.1440 H     1 <1>   0.0800 
 44 H       -3.9610     7.9890    -0.7470 H     1 <1>   0.0800 
 45 H       -3.0430     7.7060    -2.2160 H     1 <1>   0.0800 
 46 H        6.3920     4.1610     1.7800 H     1 <1>   0.1500 
 47 H        5.2060     1.7410    -0.6680 H     1 <1>   0.0800 
 48 H        6.5210     2.1690     0.3940 H     1 <1>   0.0800 
 49 H        6.4030     2.9080    -1.1860 H     1 <1>   0.0800 
@<TRIPOS>BOND
  1   1   2  1   
  2   2   3  ar  
  3   2   4  ar  
  4   3   5  ar  
  5   3   6  1   
  6   4   7  ar  
  7   4  27  1   
  8   5   8  ar  
  9   5  28  1   
 10   6   9  1   
 11   6  29  1   
 12   6  30  1   
 13   7   8  ar  
 14   7  10  1   
 15   8  31  1   
 16   9  11  2   
 17   9  12  am  
 18  12  13  1   
 19  12  14  1   
 20  13  15  1   
 21  13  32  1   
 22  13  33  1   
 23  14  16  1   
 24  14  34  1   
 25  14  35  1   
 26  15  17  ar  
 27  15  18  ar  
 28  16  19  1   
 29  16  20  1   
 30  16  36  1   
 31  17  21  ar  
 32  17  37  1   
 33  18  22  ar  
 34  18  38  1   
 35  19  23  1   
 36  20  24  1   
 37  20  39  1   
 38  20  40  1   
 39  21  25  ar  
 40  21  26  1   
 41  22  25  ar  
 42  22  41  1   
 43  23  24  1   
 44  23  42  1   
 45  23  43  1   
 46  24  44  1   
 47  24  45  1   
 48  25  46  1   
 49  26  47  1   
 50  26  48  1   
 51  26  49  1   
@<TRIPOS>SUBSTRUCTURE
  1 ****  12 GROUP 4 **** **** 0

# MOE 2024.06 (io_trps.svl 2023.06)
