@<TRIPOS>MOLECULE
NONAME
50 51 1 0 0 
SMALL
USER_CHARGES


@<TRIPOS>ATOM
  1 O       -0.5930     0.7190    -1.1450 O.2   1 <1>  -0.5700 
  2 C       -1.4790     0.9240    -0.3410 C.2   1 <1>   0.5690 
  3 N       -2.2760    -0.1070     0.1050 N.am  1 <1>  -0.6600 
  4 C       -1.6510     2.3760     0.1570 C.3   1 <1>   0.1710 
  5 C       -2.0790    -1.4770    -0.4580 C.3   1 <1>   0.3200 
  6 C       -3.3050     0.0250     1.1910 C.3   1 <1>   0.1400 
  7 N       -0.3690     3.1260     0.3270 N.3   1 <1>  -0.8100 
  8 C       -3.4080    -2.1220    -0.8010 C.2   1 <1>  -0.3320 
  9 C       -4.6700     0.5300     0.6860 C.3   1 <1>   0.1200 
 10 C       -0.5390     4.5940     0.3790 C.3   1 <1>   0.1100 
 11 C        0.4730     2.5920     1.4090 C.3   1 <1>   0.1100 
 12 N       -4.0030    -3.0920    -0.0800 N.pl3 1 <1>   0.0330 
 13 C       -4.2240    -1.8760    -1.8480 C.2   1 <1>   0.0770 
 14 O       -4.5850     1.8450     0.2440 O.3   1 <1>  -0.6800 
 15 C        0.7740     5.3290     0.0270 C.3   1 <1>   0.3430 
 16 C        1.9060     2.4210     0.8940 C.3   1 <1>  -0.1600 
 17 C       -5.1550    -3.3610    -0.7310 C.2   1 <1>   0.0070 
 18 N       -5.3260    -2.6480    -1.7930 N.2   1 <1>  -0.5650 
 19 N        1.7320     4.3720    -0.6040 N.4   1 <1>  -0.9590 
 20 C        2.5860     3.7050     0.4090 C.3   1 <1>   0.3430 
 21 C       -6.1420    -4.4060    -0.2560 C.3   1 <1>  -0.0600 
 22 C        2.4890     4.9360    -1.7550 C.3   1 <1>   0.2630 
 23 H       -2.1890     2.4020     1.0840 H     1 <1>   0.0800 
 24 H       -2.2540     2.8750    -0.5790 H     1 <1>   0.0800 
 25 H       -1.5420    -2.0800     0.2540 H     1 <1>   0.0800 
 26 H       -1.4890    -1.4350    -1.3580 H     1 <1>   0.0800 
 27 H       -2.9490     0.6770     1.9670 H     1 <1>   0.0800 
 28 H       -3.4510    -0.9370     1.6490 H     1 <1>   0.0800 
 29 H       -5.3900     0.4990     1.4850 H     1 <1>   0.0800 
 30 H       -5.0290    -0.0790    -0.1240 H     1 <1>   0.0800 
 31 H       -0.8970     4.9030     1.3470 H     1 <1>   0.0800 
 32 H       -1.2810     4.8870    -0.3450 H     1 <1>   0.0800 
 33 H        0.1110     1.6250     1.7200 H     1 <1>   0.0800 
 34 H        0.4470     3.2410     2.2700 H     1 <1>   0.0800 
 35 H       -3.6630    -3.5490     0.7700 H     1 <1>   0.2700 
 36 H       -4.0760    -1.1660    -2.6460 H     1 <1>   0.1500 
 37 H       -5.4110     2.0950    -0.2190 H     1 <1>   0.4000 
 38 H        1.2050     5.7530     0.9180 H     1 <1>   0.0800 
 39 H        0.5470     6.1360    -0.6490 H     1 <1>   0.0800 
 40 H        1.8990     1.6990     0.0950 H     1 <1>   0.0800 
 41 H        2.5020     2.0030     1.6840 H     1 <1>   0.0800 
 42 H        1.0920     3.6060    -0.9170 H     1 <1>   0.4500 
 43 H        3.5370     3.4460    -0.0270 H     1 <1>   0.0800 
 44 H        2.7630     4.3690     1.2390 H     1 <1>   0.0800 
 45 H       -6.5010    -4.1590     0.7260 H     1 <1>   0.0800 
 46 H       -5.6760    -5.3730    -0.2360 H     1 <1>   0.0800 
 47 H       -6.9800    -4.4430    -0.9290 H     1 <1>   0.0800 
 48 H        3.1390     5.7280    -1.4240 H     1 <1>   0.0800 
 49 H        1.8070     5.3290    -2.4910 H     1 <1>   0.0800 
 50 H        3.0850     4.1670    -2.2190 H     1 <1>   0.0800 
@<TRIPOS>BOND
  1   1   2  2   
  2   2   3  am  
  3   2   4  1   
  4   3   5  1   
  5   3   6  1   
  6   4   7  1   
  7   4  23  1   
  8   4  24  1   
  9   5   8  1   
 10   5  25  1   
 11   5  26  1   
 12   6   9  1   
 13   6  27  1   
 14   6  28  1   
 15   7  10  1   
 16   7  11  1   
 17   8  12  1   
 18   8  13  2   
 19   9  14  1   
 20   9  29  1   
 21   9  30  1   
 22  10  15  1   
 23  10  31  1   
 24  10  32  1   
 25  11  16  1   
 26  11  33  1   
 27  11  34  1   
 28  12  17  1   
 29  12  35  1   
 30  13  18  1   
 31  13  36  1   
 32  14  37  1   
 33  15  19  1   
 34  15  38  1   
 35  15  39  1   
 36  16  20  1   
 37  16  40  1   
 38  16  41  1   
 39  17  18  2   
 40  17  21  1   
 41  19  20  1   
 42  19  22  1   
 43  19  42  1   
 44  20  43  1   
 45  20  44  1   
 46  21  45  1   
 47  21  46  1   
 48  21  47  1   
 49  22  48  1   
 50  22  49  1   
 51  22  50  1   
@<TRIPOS>SUBSTRUCTURE
  1 ****   2 GROUP 4 **** **** 0

# MOE 2024.06 (io_trps.svl 2023.06)
