@<TRIPOS>MOLECULE
NONAME
47 48 1 0 0 
SMALL
USER_CHARGES


@<TRIPOS>ATOM
  1 O        0.3650    -0.7000    -1.2110 O.3   1 <1>  -0.6800 
  2 C        1.3250    -0.8810    -0.2250 C.3   1 <1>   0.2000 
  3 C        2.5370     0.0840    -0.4310 C.3   1 <1>   0.4230 
  4 C        1.7400    -2.3560    -0.2970 C.3   1 <1>  -0.1600 
  5 N        2.2780     1.5720    -0.3140 N.4   1 <1>  -0.9590 
  6 C        3.6460    -0.2680     0.5810 C.3   1 <1>  -0.1600 
  7 C        2.8560    -2.6710     0.7050 C.3   1 <1>  -0.1600 
  8 C        3.3570     2.3500    -0.9790 C.3   1 <1>   0.5240 
  9 C        0.9590     2.0840    -0.7940 C.3   1 <1>   0.3430 
 10 C        4.0580    -1.7450     0.4980 C.3   1 <1>  -0.1600 
 11 C        3.3850     3.7240    -0.3550 C.2   1 <1>  -0.1810 
 12 C       -0.0380     2.1860     0.3670 C.3   1 <1>  -0.1600 
 13 C        3.9230     4.0340     0.8880 C.2   1 <1>   0.1390 
 14 C        2.9150     4.9010    -0.8270 C.2   1 <1>  -0.3020 
 15 C        0.4550     3.0450     1.5430 C.3   1 <1>  -0.2400 
 16 N        3.7840     5.2870     1.1770 N.2   1 <1>  -0.7070 
 17 N        3.1690     5.8340     0.1140 N.pl3 1 <1>   0.3140 
 18 C        2.8460     7.2750     0.0540 C.3   1 <1>   0.0960 
 19 C        3.8150     8.0230    -0.8710 C.3   1 <1>  -0.2400 
 20 H       -0.3220    -1.3980    -1.1520 H     1 <1>   0.4000 
 21 H        0.8680    -0.6960     0.7320 H     1 <1>   0.0800 
 22 H        2.9140    -0.1220    -1.4190 H     1 <1>   0.0800 
 23 H        0.8940    -2.9860    -0.0810 H     1 <1>   0.0800 
 24 H        2.0890    -2.5860    -1.2900 H     1 <1>   0.0800 
 25 H        2.3120     1.8270     0.6770 H     1 <1>   0.4500 
 26 H        4.5280     0.3210     0.4120 H     1 <1>   0.0800 
 27 H        3.2950    -0.0680     1.5790 H     1 <1>   0.0800 
 28 H        2.4830    -2.5620     1.7100 H     1 <1>   0.0800 
 29 H        3.1680    -3.6950     0.5850 H     1 <1>   0.0800 
 30 H        4.3170     1.8830    -0.8390 H     1 <1>   0.0800 
 31 H        3.1660     2.4250    -2.0370 H     1 <1>   0.0800 
 32 H        1.0830     3.0760    -1.1970 H     1 <1>   0.0800 
 33 H        0.5680     1.4670    -1.5860 H     1 <1>   0.0800 
 34 H        4.5040    -1.9470    -0.4620 H     1 <1>   0.0800 
 35 H        4.8000    -1.9550     1.2510 H     1 <1>   0.0800 
 36 H       -0.9380     2.6310    -0.0200 H     1 <1>   0.0800 
 37 H       -0.3100     1.2080     0.7180 H     1 <1>   0.0800 
 38 H        4.4030     3.3370     1.5560 H     1 <1>   0.1500 
 39 H        2.4250     5.1400    -1.7540 H     1 <1>   0.1500 
 40 H        0.7590     4.0210     1.2030 H     1 <1>   0.0800 
 41 H        1.2780     2.5850     2.0600 H     1 <1>   0.0800 
 42 H       -0.3430     3.1770     2.2530 H     1 <1>   0.0800 
 43 H        1.8360     7.3860    -0.2950 H     1 <1>   0.0800 
 44 H        2.9100     7.6760     1.0500 H     1 <1>   0.0800 
 45 H        3.7480     7.6450    -1.8760 H     1 <1>   0.0800 
 46 H        4.8240     7.9120    -0.5140 H     1 <1>   0.0800 
 47 H        3.5720     9.0700    -0.8830 H     1 <1>   0.0800 
@<TRIPOS>BOND
  1   1   2  1   
  2   1  20  1   
  3   2   3  1   
  4   2   4  1   
  5   2  21  1   
  6   3   5  1   
  7   3   6  1   
  8   3  22  1   
  9   4   7  1   
 10   4  23  1   
 11   4  24  1   
 12   5   8  1   
 13   5   9  1   
 14   5  25  1   
 15   6  10  1   
 16   6  26  1   
 17   6  27  1   
 18   7  10  1   
 19   7  28  1   
 20   7  29  1   
 21   8  11  1   
 22   8  30  1   
 23   8  31  1   
 24   9  12  1   
 25   9  32  1   
 26   9  33  1   
 27  10  34  1   
 28  10  35  1   
 29  11  13  1   
 30  11  14  2   
 31  12  15  1   
 32  12  36  1   
 33  12  37  1   
 34  13  16  2   
 35  13  38  1   
 36  14  17  1   
 37  14  39  1   
 38  15  40  1   
 39  15  41  1   
 40  15  42  1   
 41  16  17  1   
 42  17  18  1   
 43  18  19  1   
 44  18  43  1   
 45  18  44  1   
 46  19  45  1   
 47  19  46  1   
 48  19  47  1   
@<TRIPOS>SUBSTRUCTURE
  1 ****   5 GROUP 4 **** **** 0

# MOE 2024.06 (io_trps.svl 2023.06)
