@<TRIPOS>MOLECULE
NONAME
46 48 1 0 0 
SMALL
USER_CHARGES


@<TRIPOS>ATOM
  1 O        2.4830    -0.8350    -1.9930 O.2   1 <1>  -0.5700 
  2 C        1.6960    -1.2890    -1.1970 C.2   1 <1>   0.5690 
  3 N        1.3760    -0.6880    -0.0220 N.am  1 <1>  -0.4930 
  4 C        1.0040    -2.6190    -1.5010 C.3   1 <1>   0.1710 
  5 C        1.8020     0.5110     0.5420 C.2   1 <1>   0.3520 
  6 N       -0.2360    -2.8460    -0.6990 N.3   1 <1>  -0.8100 
  7 N        1.3180     0.9480     1.6520 N.2   1 <1>  -0.4100 
  8 C        2.7600     1.3930     0.0400 C.2   1 <1>  -0.1500 
  9 C       -0.5860    -4.2820    -0.6810 C.3   1 <1>   0.1100 
 10 C       -1.3600    -2.0460    -1.2240 C.3   1 <1>   0.1100 
 11 O        1.9280     2.0820     1.8890 O.3   1 <1>  -0.0190 
 12 C        2.7900     2.3750     0.9510 C.2   1 <1>  -0.0400 
 13 C       -1.8030    -4.5420     0.2260 C.3   1 <1>   0.2000 
 14 C       -2.5900    -2.2170    -0.3250 C.3   1 <1>  -0.1600 
 15 C        3.6010     3.6490     1.0390 C.3   1 <1>  -0.0600 
 16 O       -2.1810    -5.8790     0.1250 O.3   1 <1>  -0.5600 
 17 C       -3.0000    -3.6930    -0.2120 C.3   1 <1>  -0.1600 
 18 C       -1.5020    -6.7480     0.9930 C.3   1 <1>   0.2630 
 19 C       -1.7680    -8.2140     0.6590 C.ar  1 <1>   0.1670 
 20 N       -0.8940    -9.0780     1.1600 N.ar  1 <1>  -0.6200 
 21 C       -2.8610    -8.5880    -0.1130 C.ar  1 <1>  -0.1500 
 22 C       -1.1150   -10.3520     0.8780 C.ar  1 <1>   0.1600 
 23 C       -3.0790    -9.9190    -0.3970 C.ar  1 <1>  -0.1500 
 24 C       -2.1730   -10.8200     0.1180 C.ar  1 <1>  -0.1500 
 25 H        0.6570    -1.1840     0.5100 H     1 <1>   0.3700 
 26 H        1.7170    -3.3940    -1.2830 H     1 <1>   0.0800 
 27 H        0.7790    -2.6660    -2.5520 H     1 <1>   0.0800 
 28 H        3.3170     1.2710    -0.8690 H     1 <1>   0.1500 
 29 H        0.2530    -4.8440    -0.3110 H     1 <1>   0.0800 
 30 H       -0.8120    -4.6130    -1.6810 H     1 <1>   0.0800 
 31 H       -1.5970    -2.3600    -2.2270 H     1 <1>   0.0800 
 32 H       -1.0910    -1.0030    -1.2530 H     1 <1>   0.0800 
 33 H       -1.5560    -4.3160     1.2500 H     1 <1>   0.0800 
 34 H       -3.4070    -1.6470    -0.7290 H     1 <1>   0.0800 
 35 H       -2.3660    -1.8230     0.6510 H     1 <1>   0.0800 
 36 H        4.2560     3.7320     0.1900 H     1 <1>   0.0800 
 37 H        4.1910     3.6440     1.9370 H     1 <1>   0.0800 
 38 H        2.9430     4.4990     1.0570 H     1 <1>   0.0800 
 39 H       -3.7980    -3.7980     0.5010 H     1 <1>   0.0800 
 40 H       -3.3450    -4.0380    -1.1710 H     1 <1>   0.0800 
 41 H       -1.8240    -6.5460     1.9990 H     1 <1>   0.0800 
 42 H       -0.4460    -6.5660     0.9150 H     1 <1>   0.0800 
 43 H       -3.5400    -7.8440    -0.4900 H     1 <1>   0.1500 
 44 H       -0.4130   -11.0640     1.2760 H     1 <1>   0.1500 
 45 H       -3.9160   -10.2370    -0.9930 H     1 <1>   0.1500 
 46 H       -2.2830   -11.8730    -0.0650 H     1 <1>   0.1500 
@<TRIPOS>BOND
  1   1   2  2   
  2   2   3  am  
  3   2   4  1   
  4   3   5  1   
  5   3  25  1   
  6   4   6  1   
  7   4  26  1   
  8   4  27  1   
  9   5   7  2   
 10   5   8  1   
 11   6   9  1   
 12   6  10  1   
 13   7  11  1   
 14   8  12  2   
 15   8  28  1   
 16   9  13  1   
 17   9  29  1   
 18   9  30  1   
 19  10  14  1   
 20  10  31  1   
 21  10  32  1   
 22  11  12  1   
 23  12  15  1   
 24  13  16  1   
 25  13  17  1   
 26  13  33  1   
 27  14  17  1   
 28  14  34  1   
 29  14  35  1   
 30  15  36  1   
 31  15  37  1   
 32  15  38  1   
 33  16  18  1   
 34  17  39  1   
 35  17  40  1   
 36  18  19  1   
 37  18  41  1   
 38  18  42  1   
 39  19  20  ar  
 40  19  21  ar  
 41  20  22  ar  
 42  21  23  ar  
 43  21  43  1   
 44  22  24  ar  
 45  22  44  1   
 46  23  24  ar  
 47  23  45  1   
 48  24  46  1   
@<TRIPOS>SUBSTRUCTURE
  1 ****   6 GROUP 4 **** **** 0

# MOE 2024.06 (io_trps.svl 2023.06)
