@<TRIPOS>MOLECULE
NONAME
42 43 1 0 0 
SMALL
USER_CHARGES


@<TRIPOS>ATOM
  1 O       -1.0630     0.7620     1.8770 O.3   1 <1>  -0.0190 
  2 N       -0.0290     1.5470     1.8710 N.2   1 <1>  -0.4100 
  3 C       -1.5460     0.8660     0.6640 C.2   1 <1>   0.2980 
  4 C        0.0500     2.0580     0.7070 C.2   1 <1>   0.3350 
  5 N       -0.9130     1.6540    -0.1130 N.2   1 <1>  -0.5650 
  6 C       -2.7960     0.0720     0.3020 C.3   1 <1>   0.2900 
  7 C        1.1360     3.0400     0.2660 C.3   1 <1>   0.1010 
  8 N       -2.6000    -1.4020     0.2360 N.3   1 <1>  -0.8100 
  9 C        0.5330     4.3900    -0.1500 C.3   1 <1>  -0.2400 
 10 C        1.9800     2.4580    -0.8770 C.3   1 <1>  -0.2400 
 11 C       -3.8910    -2.0790     0.0160 C.3   1 <1>   0.2480 
 12 C       -1.6030    -1.7850    -0.7830 C.3   1 <1>   0.1100 
 13 C       -3.8110    -3.5710     0.3370 C.2   1 <1>  -0.0380 
 14 C       -0.2650    -2.0810    -0.1110 C.3   1 <1>  -0.2400 
 15 N       -4.6130    -4.4480    -0.3520 N.pl3 1 <1>  -0.5500 
 16 C       -3.0000    -4.1090     1.2770 C.2   1 <1>  -0.1360 
 17 C       -4.5770    -5.7890    -0.1000 C.2   1 <1>   0.4390 
 18 C       -2.9970    -5.5090     1.5020 C.2   1 <1>   0.7670 
 19 N       -3.8190    -6.3300     0.7770 N.2   1 <1>  -0.6610 
 20 C       -5.4990    -6.6530    -0.9240 C.3   1 <1>  -0.1790 
 21 O       -2.2660    -6.0070     2.3440 O.2   1 <1>  -0.5700 
 22 H       -3.1570     0.4270    -0.6480 H     1 <1>   0.0800 
 23 H       -3.5410     0.2960     1.0440 H     1 <1>   0.0800 
 24 H        1.7840     3.2080     1.1080 H     1 <1>   0.0800 
 25 H       -0.1140     4.2640    -1.0000 H     1 <1>   0.0800 
 26 H        1.3110     5.0870    -0.4050 H     1 <1>   0.0800 
 27 H       -0.0430     4.7980     0.6620 H     1 <1>   0.0800 
 28 H        1.3670     2.2840    -1.7440 H     1 <1>   0.0800 
 29 H        2.4130     1.5220    -0.5720 H     1 <1>   0.0800 
 30 H        2.7730     3.1340    -1.1420 H     1 <1>   0.0800 
 31 H       -4.1960    -1.9380    -1.0070 H     1 <1>   0.0800 
 32 H       -4.6430    -1.6470     0.6540 H     1 <1>   0.0800 
 33 H       -1.4830    -1.0040    -1.5170 H     1 <1>   0.0800 
 34 H       -1.9160    -2.6760    -1.3020 H     1 <1>   0.0800 
 35 H        0.1350    -1.2060     0.3660 H     1 <1>   0.0800 
 36 H        0.4420    -2.4090    -0.8500 H     1 <1>   0.0800 
 37 H       -0.3770    -2.8610     0.6190 H     1 <1>   0.0800 
 38 H       -5.2540    -4.1190    -1.0770 H     1 <1>   0.4000 
 39 H       -2.3380    -3.5200     1.8800 H     1 <1>   0.1500 
 40 H       -6.5200    -6.3640    -0.7580 H     1 <1>   0.0800 
 41 H       -5.3850    -7.6840    -0.6400 H     1 <1>   0.0800 
 42 H       -5.2600    -6.5560    -1.9660 H     1 <1>   0.0800 
@<TRIPOS>BOND
  1   1   2  1   
  2   1   3  1   
  3   2   4  2   
  4   3   5  2   
  5   3   6  1   
  6   4   5  1   
  7   4   7  1   
  8   6   8  1   
  9   6  22  1   
 10   6  23  1   
 11   7   9  1   
 12   7  10  1   
 13   7  24  1   
 14   8  11  1   
 15   8  12  1   
 16   9  25  1   
 17   9  26  1   
 18   9  27  1   
 19  10  28  1   
 20  10  29  1   
 21  10  30  1   
 22  11  13  1   
 23  11  31  1   
 24  11  32  1   
 25  12  14  1   
 26  12  33  1   
 27  12  34  1   
 28  13  15  1   
 29  13  16  2   
 30  14  35  1   
 31  14  36  1   
 32  14  37  1   
 33  15  17  1   
 34  15  38  1   
 35  16  18  1   
 36  16  39  1   
 37  17  19  2   
 38  17  20  1   
 39  18  19  1   
 40  18  21  2   
 41  20  40  1   
 42  20  41  1   
 43  20  42  1   
@<TRIPOS>SUBSTRUCTURE
  1 ****   8 GROUP 4 **** **** 0

# MOE 2024.06 (io_trps.svl 2023.06)
