@<TRIPOS>MOLECULE
NONAME
50 53 1 0 0 
SMALL
USER_CHARGES


@<TRIPOS>ATOM
  1 O       -0.5220     0.2320     0.1200 O.2   1 <1>  -0.5700 
  2 C       -1.5160     0.8740     0.4270 C.2   1 <1>   0.7160 
  3 N       -2.7090     0.1730     0.5170 N.am  1 <1>  -0.6600 
  4 C       -1.3970     2.3150     0.6670 C.2   1 <1>   0.2030 
  5 C       -2.7570    -1.3180     0.6440 C.3   1 <1>   0.1400 
  6 C       -4.0620     0.7970     0.4100 C.3   1 <1>   0.1400 
  7 N       -2.2640     3.1240     1.2730 N.2   1 <1>  -0.7070 
  8 C       -0.2780     3.0680     0.2820 C.2   1 <1>  -0.1810 
  9 C       -3.6880    -1.9370    -0.4120 C.3   1 <1>   0.3440 
 10 C       -4.9460     0.0490    -0.6160 C.3   1 <1>   0.2000 
 11 N       -1.6990     4.3470     1.2680 N.pl3 1 <1>   0.3000 
 12 C       -0.5000     4.3160     0.6670 C.2   1 <1>  -0.3320 
 13 C        1.0530     2.9080    -0.3970 C.3   1 <1>   0.0210 
 14 O       -4.9510    -1.3280    -0.3520 O.3   1 <1>  -0.5600 
 15 C       -3.8340    -3.4400    -0.1880 C.ar  1 <1>  -0.1430 
 16 C       -6.4150     0.5310    -0.6600 C.3   1 <1>  -0.0800 
 17 C        0.6110     5.2730     0.3400 C.3   1 <1>   0.0200 
 18 C        1.5930     4.3620    -0.4400 C.3   1 <1>  -0.1600 
 19 C       -2.9780    -4.3160    -0.8400 C.ar  1 <1>  -0.1500 
 20 C       -4.7990    -3.9530     0.6690 C.ar  1 <1>  -0.1500 
 21 C       -6.5230     2.0050    -1.0810 C.3   1 <1>  -0.2400 
 22 C       -7.1760     0.3140     0.6600 C.3   1 <1>  -0.2400 
 23 C       -3.0840    -5.6820    -0.6400 C.ar  1 <1>  -0.1500 
 24 C       -4.9060    -5.3190     0.8700 C.ar  1 <1>  -0.1500 
 25 C       -4.0480    -6.1840     0.2150 C.ar  1 <1>  -0.1500 
 26 H       -1.7760    -1.7460     0.5390 H     1 <1>   0.0800 
 27 H       -3.1200    -1.5760     1.6220 H     1 <1>   0.0800 
 28 H       -4.5260     0.7860     1.3790 H     1 <1>   0.0800 
 29 H       -3.9770     1.8180     0.0920 H     1 <1>   0.0800 
 30 H       -3.2830    -1.7640    -1.3940 H     1 <1>   0.0800 
 31 H       -4.5200     0.1860    -1.5960 H     1 <1>   0.0800 
 32 H       -2.1480     5.1730     1.6820 H     1 <1>   0.2700 
 33 H        1.6900     2.2690     0.1890 H     1 <1>   0.0800 
 34 H        0.9320     2.4990    -1.3850 H     1 <1>   0.0800 
 35 H       -6.9050    -0.0530    -1.4210 H     1 <1>   0.0800 
 36 H        0.2600     6.0860    -0.2720 H     1 <1>   0.0800 
 37 H        1.0630     5.6500     1.2410 H     1 <1>   0.0800 
 38 H        1.6480     4.6900    -1.4630 H     1 <1>   0.0800 
 39 H        2.5770     4.4110    -0.0090 H     1 <1>   0.0800 
 40 H       -2.2220    -3.9400    -1.5070 H     1 <1>   0.1500 
 41 H       -5.4720    -3.2870     1.1790 H     1 <1>   0.1500 
 42 H       -6.1110     2.6550    -0.3290 H     1 <1>   0.0800 
 43 H       -7.5550     2.2720    -1.2260 H     1 <1>   0.0800 
 44 H       -6.0010     2.1710    -2.0060 H     1 <1>   0.0800 
 45 H       -6.7760     0.9270     1.4470 H     1 <1>   0.0800 
 46 H       -7.1140    -0.7170     0.9600 H     1 <1>   0.0800 
 47 H       -8.2140     0.5620     0.5320 H     1 <1>   0.0800 
 48 H       -2.4170    -6.3540    -1.1510 H     1 <1>   0.1500 
 49 H       -5.6590    -5.7060     1.5340 H     1 <1>   0.1500 
 50 H       -4.1320    -7.2460     0.3700 H     1 <1>   0.1500 
@<TRIPOS>BOND
  1   1   2  2   
  2   2   3  am  
  3   2   4  1   
  4   3   5  1   
  5   3   6  1   
  6   4   7  2   
  7   4   8  1   
  8   5   9  1   
  9   5  26  1   
 10   5  27  1   
 11   6  10  1   
 12   6  28  1   
 13   6  29  1   
 14   7  11  1   
 15   8  12  2   
 16   8  13  1   
 17   9  14  1   
 18   9  15  1   
 19   9  30  1   
 20  10  14  1   
 21  10  16  1   
 22  10  31  1   
 23  11  12  1   
 24  11  32  1   
 25  12  17  1   
 26  13  18  1   
 27  13  33  1   
 28  13  34  1   
 29  15  19  ar  
 30  15  20  ar  
 31  16  21  1   
 32  16  22  1   
 33  16  35  1   
 34  17  18  1   
 35  17  36  1   
 36  17  37  1   
 37  18  38  1   
 38  18  39  1   
 39  19  23  ar  
 40  19  40  1   
 41  20  24  ar  
 42  20  41  1   
 43  21  42  1   
 44  21  43  1   
 45  21  44  1   
 46  22  45  1   
 47  22  46  1   
 48  22  47  1   
 49  23  25  ar  
 50  23  48  1   
 51  24  25  ar  
 52  24  49  1   
 53  25  50  1   
@<TRIPOS>SUBSTRUCTURE
  1 ****   3 GROUP 4 **** **** 0

# MOE 2024.06 (io_trps.svl 2023.06)
