@<TRIPOS>MOLECULE
NONAME
52 55 1 0 0 
SMALL
USER_CHARGES


@<TRIPOS>ATOM
  1 O       -0.5210     0.1260     1.8440 O.2   1 <1>  -0.5700 
  2 C       -1.4970     0.7520     1.4740 C.2   1 <1>   0.5440 
  3 N       -2.6770     0.0720     1.2540 N.am  1 <1>  -0.6600 
  4 C       -1.3830     2.1780     1.2780 C.ar  1 <1>   0.0860 
  5 C       -2.7630    -1.4200     1.2930 C.3   1 <1>   0.1400 
  6 C       -3.9180     0.6920     0.6950 C.3   1 <1>   0.1400 
  7 C       -1.4040     2.7650     0.0040 C.ar  1 <1>   0.0830 
  8 C       -1.2570     3.0280     2.3770 C.ar  1 <1>  -0.1500 
  9 C       -3.1940    -1.9740    -0.0780 C.3   1 <1>   0.3440 
 10 C       -4.2790     0.0430    -0.6600 C.3   1 <1>   0.2950 
 11 O       -1.5040     2.0160    -1.1130 O.3   1 <1>  -0.3630 
 12 C       -1.3460     4.1400    -0.1540 C.ar  1 <1>  -0.1500 
 13 C       -1.1860     4.3980     2.2210 C.ar  1 <1>  -0.1500 
 14 O       -4.3750    -1.3450    -0.5110 O.3   1 <1>  -0.5600 
 15 C       -3.4130    -3.4820    -0.0040 C.ar  1 <1>  -0.1430 
 16 C       -5.6110     0.5190    -1.2680 C.3   1 <1>  -0.1950 
 17 C       -0.3570     1.2930    -1.5100 C.3   1 <1>   0.0400 
 18 C       -1.2370     4.9670     0.9570 C.ar  1 <1>   0.0830 
 19 C       -2.3520    -4.3410    -0.2550 C.ar  1 <1>  -0.1500 
 20 C       -4.6500    -4.0200     0.3250 C.ar  1 <1>  -0.1500 
 21 C       -6.1480     1.9090    -1.1060 C.3   1 <1>  -0.2000 
 22 C       -6.8600     0.7460    -0.4730 C.3   1 <1>  -0.2000 
 23 O       -1.1730     6.3150     0.8900 O.3   1 <1>  -0.3630 
 24 C       -2.5240    -5.7130    -0.1790 C.ar  1 <1>  -0.1500 
 25 C       -4.8240    -5.3910     0.4010 C.ar  1 <1>  -0.1500 
 26 C       -1.2060     6.9980    -0.3440 C.3   1 <1>   0.0400 
 27 C       -3.7600    -6.2390     0.1500 C.ar  1 <1>  -0.1500 
 28 H       -1.8170    -1.8540     1.5650 H     1 <1>   0.0800 
 29 H       -3.4820    -1.7170     2.0360 H     1 <1>   0.0800 
 30 H       -4.7230     0.5400     1.3910 H     1 <1>   0.0800 
 31 H       -3.7940     1.7490     0.5630 H     1 <1>   0.0800 
 32 H       -1.2160     2.5960     3.3620 H     1 <1>   0.1500 
 33 H       -2.4270    -1.7650    -0.8030 H     1 <1>   0.0800 
 34 H       -3.4930     0.2500    -1.3660 H     1 <1>   0.0800 
 35 H       -1.3860     4.5380    -1.1490 H     1 <1>   0.1500 
 36 H       -1.0910     5.0420     3.0780 H     1 <1>   0.1500 
 37 H       -5.7440     0.0800    -2.2420 H     1 <1>   0.1000 
 38 H       -0.5560     0.8450    -2.4670 H     1 <1>   0.0800 
 39 H       -0.1450     0.5270    -0.7860 H     1 <1>   0.0800 
 40 H        0.4740     1.9720    -1.5870 H     1 <1>   0.0800 
 41 H       -1.3840    -3.9470    -0.5100 H     1 <1>   0.1500 
 42 H       -5.4850    -3.3690     0.5200 H     1 <1>   0.1500 
 43 H       -5.6600     2.6170    -0.4590 H     1 <1>   0.1000 
 44 H       -6.6000     2.3860    -1.9590 H     1 <1>   0.1000 
 45 H       -7.7940     0.4130    -0.8930 H     1 <1>   0.1000 
 46 H       -6.8380     0.6390     0.5970 H     1 <1>   0.1000 
 47 H       -1.6960    -6.3710    -0.3760 H     1 <1>   0.1500 
 48 H       -5.7880    -5.7960     0.6550 H     1 <1>   0.1500 
 49 H       -1.1390     8.0520    -0.1440 H     1 <1>   0.0800 
 50 H       -2.1340     6.7780    -0.8400 H     1 <1>   0.0800 
 51 H       -0.3660     6.6850    -0.9390 H     1 <1>   0.0800 
 52 H       -3.8950    -7.3050     0.2080 H     1 <1>   0.1500 
@<TRIPOS>BOND
  1   1   2  2   
  2   2   3  am  
  3   2   4  1   
  4   3   5  1   
  5   3   6  1   
  6   4   7  ar  
  7   4   8  ar  
  8   5   9  1   
  9   5  28  1   
 10   5  29  1   
 11   6  10  1   
 12   6  30  1   
 13   6  31  1   
 14   7  11  1   
 15   7  12  ar  
 16   8  13  ar  
 17   8  32  1   
 18   9  14  1   
 19   9  15  1   
 20   9  33  1   
 21  10  14  1   
 22  10  16  1   
 23  10  34  1   
 24  11  17  1   
 25  12  18  ar  
 26  12  35  1   
 27  13  18  ar  
 28  13  36  1   
 29  15  19  ar  
 30  15  20  ar  
 31  16  21  1   
 32  16  22  1   
 33  16  37  1   
 34  17  38  1   
 35  17  39  1   
 36  17  40  1   
 37  18  23  1   
 38  19  24  ar  
 39  19  41  1   
 40  20  25  ar  
 41  20  42  1   
 42  21  22  1   
 43  21  43  1   
 44  21  44  1   
 45  22  45  1   
 46  22  46  1   
 47  23  26  1   
 48  24  27  ar  
 49  24  47  1   
 50  25  27  ar  
 51  25  48  1   
 52  26  49  1   
 53  26  50  1   
 54  26  51  1   
 55  27  52  1   
@<TRIPOS>SUBSTRUCTURE
  1 ****   3 GROUP 4 **** **** 0

# MOE 2024.06 (io_trps.svl 2023.06)
