@<TRIPOS>MOLECULE
NONAME
57 60 1 0 0 
SMALL
USER_CHARGES


@<TRIPOS>ATOM
  1 CL      -0.5320    -0.0700    -0.3340 Cl    1 <1>  -0.1770 
  2 C       -2.0410    -0.9500    -0.2860 C.ar  1 <1>   0.1770 
  3 C       -2.5190    -1.4110     0.9270 C.ar  1 <1>  -0.1500 
  4 C       -2.7330    -1.1730    -1.4620 C.ar  1 <1>  -0.1500 
  5 C       -3.7140    -2.1070     0.9590 C.ar  1 <1>  -0.1500 
  6 C       -3.9280    -1.8700    -1.4200 C.ar  1 <1>  -0.1500 
  7 C       -4.4290    -2.3430    -0.2100 C.ar  1 <1>   0.1000 
  8 N       -5.6250    -3.0460    -0.1480 N.pl3 1 <1>  -0.8380 
  9 C       -5.5910    -4.4340    -0.6450 C.3   1 <1>   0.2090 
 10 C       -6.8480    -2.2960    -0.4920 C.3   1 <1>   0.2090 
 11 C       -6.7400    -5.1900     0.0130 C.3   1 <1>  -0.1600 
 12 C       -8.0270    -3.0040     0.1700 C.3   1 <1>  -0.1600 
 13 C       -8.0810    -4.4840    -0.2410 C.3   1 <1>   0.4230 
 14 N       -9.1640    -5.1780     0.5150 N.4   1 <1>  -0.9590 
 15 C      -10.5110    -4.5740     0.3240 C.3   1 <1>   0.3430 
 16 C       -9.3260    -6.6210     0.1720 C.3   1 <1>   0.3430 
 17 C      -11.4950    -5.6490     0.7660 C.3   1 <1>  -0.0800 
 18 C      -10.8060    -6.9680     0.3650 C.3   1 <1>  -0.0800 
 19 C      -12.9290    -5.4450     0.2120 C.3   1 <1>   0.2800 
 20 C      -11.3870    -7.5790    -0.9210 C.3   1 <1>  -0.1600 
 21 O      -12.8390    -4.8910    -1.0500 O.3   1 <1>  -0.6800 
 22 C      -13.6360    -6.8050     0.0760 C.3   1 <1>  -0.1600 
 23 C      -13.7890    -4.4920     1.0720 C.3   1 <1>  -0.1600 
 24 C      -12.9010    -7.8250    -0.8170 C.3   1 <1>  -0.1600 
 25 C      -13.2540    -3.0600     1.2500 C.3   1 <1>  -0.2400 
 26 H       -1.9630    -1.2250     1.8280 H     1 <1>   0.1500 
 27 H       -2.3390    -0.8040    -2.3910 H     1 <1>   0.1500 
 28 H       -4.1060    -2.4740     1.8890 H     1 <1>   0.1500 
 29 H       -4.4750    -2.0510    -2.3260 H     1 <1>   0.1500 
 30 H       -5.6890    -4.4400    -1.7180 H     1 <1>   0.0800 
 31 H       -4.6480    -4.8880    -0.3850 H     1 <1>   0.0800 
 32 H       -6.7680    -1.2850    -0.1250 H     1 <1>   0.0800 
 33 H       -6.9690    -2.2640    -1.5620 H     1 <1>   0.0800 
 34 H       -6.5400    -5.2430     1.0690 H     1 <1>   0.0800 
 35 H       -6.7480    -6.1860    -0.3890 H     1 <1>   0.0800 
 36 H       -8.9210    -2.4890    -0.1280 H     1 <1>   0.0800 
 37 H       -7.9120    -2.9150     1.2350 H     1 <1>   0.0800 
 38 H       -8.2960    -4.5340    -1.2970 H     1 <1>   0.0800 
 39 H       -8.9370    -5.1150     1.5140 H     1 <1>   0.4500 
 40 H      -10.6270    -3.6680     0.8940 H     1 <1>   0.0800 
 41 H      -10.6610    -4.3570    -0.7210 H     1 <1>   0.0800 
 42 H       -9.0580    -6.7840    -0.8590 H     1 <1>   0.0800 
 43 H       -8.7000    -7.2380     0.7970 H     1 <1>   0.0800 
 44 H      -11.5480    -5.6300     1.8400 H     1 <1>   0.0800 
 45 H      -10.9070    -7.6880     1.1600 H     1 <1>   0.0800 
 46 H      -11.2100    -6.9050    -1.7430 H     1 <1>   0.0800 
 47 H      -10.8930    -8.5070    -1.1550 H     1 <1>   0.0800 
 48 H      -13.7310    -4.8470    -1.4470 H     1 <1>   0.4000 
 49 H      -13.7190    -7.2300     1.0620 H     1 <1>   0.0800 
 50 H      -14.6420    -6.6730    -0.2840 H     1 <1>   0.0800 
 51 H      -14.7720    -4.4320     0.6380 H     1 <1>   0.0800 
 52 H      -13.9150    -4.9260     2.0490 H     1 <1>   0.0800 
 53 H      -13.0810    -8.8130    -0.4300 H     1 <1>   0.0800 
 54 H      -13.3180    -7.7940    -1.8100 H     1 <1>   0.0800 
 55 H      -13.0450    -2.6050     0.2970 H     1 <1>   0.0800 
 56 H      -12.3680    -3.0470     1.8560 H     1 <1>   0.0800 
 57 H      -13.9970    -2.4600     1.7470 H     1 <1>   0.0800 
@<TRIPOS>BOND
  1   1   2  1   
  2   2   3  ar  
  3   2   4  ar  
  4   3   5  ar  
  5   3  26  1   
  6   4   6  ar  
  7   4  27  1   
  8   5   7  ar  
  9   5  28  1   
 10   6   7  ar  
 11   6  29  1   
 12   7   8  1   
 13   8   9  1   
 14   8  10  1   
 15   9  11  1   
 16   9  30  1   
 17   9  31  1   
 18  10  12  1   
 19  10  32  1   
 20  10  33  1   
 21  11  13  1   
 22  11  34  1   
 23  11  35  1   
 24  12  13  1   
 25  12  36  1   
 26  12  37  1   
 27  13  14  1   
 28  13  38  1   
 29  14  15  1   
 30  14  16  1   
 31  14  39  1   
 32  15  17  1   
 33  15  40  1   
 34  15  41  1   
 35  16  18  1   
 36  16  42  1   
 37  16  43  1   
 38  17  18  1   
 39  17  19  1   
 40  17  44  1   
 41  18  20  1   
 42  18  45  1   
 43  19  21  1   
 44  19  22  1   
 45  19  23  1   
 46  20  24  1   
 47  20  46  1   
 48  20  47  1   
 49  21  48  1   
 50  22  24  1   
 51  22  49  1   
 52  22  50  1   
 53  23  25  1   
 54  23  51  1   
 55  23  52  1   
 56  24  53  1   
 57  24  54  1   
 58  25  55  1   
 59  25  56  1   
 60  25  57  1   
@<TRIPOS>SUBSTRUCTURE
  1 ****  13 GROUP 4 **** **** 0

# MOE 2024.06 (io_trps.svl 2023.06)
