@<TRIPOS>MOLECULE
NONAME
42 45 1 0 0 
SMALL
USER_CHARGES


@<TRIPOS>ATOM
  1 S        1.4030    -2.0100    -1.2010 S.3   1 <1>  -0.0800 
  2 C        0.5780    -2.0430     0.3410 C.2   1 <1>   0.4620 
  3 C       -0.1270    -1.7460    -1.9760 C.2   1 <1>  -0.1100 
  4 N       -0.6850    -1.8790     0.2680 N.2   1 <1>  -0.5650 
  5 N        1.3050    -2.2310     1.4670 N.pl3 1 <1>  -0.8840 
  6 C       -1.1190    -1.7100    -1.0580 C.2   1 <1>   0.1410 
  7 C       -2.5240    -1.4860    -1.4030 C.2   1 <1>   0.7160 
  8 O       -2.7770    -0.8760    -2.4280 O.2   1 <1>  -0.5700 
  9 N       -3.5890    -1.9350    -0.6410 N.am  1 <1>  -0.6600 
 10 C       -4.9740    -1.4060    -0.8830 C.3   1 <1>   0.1400 
 11 C       -3.4380    -2.9450     0.4490 C.3   1 <1>   0.1400 
 12 C       -5.7830    -1.3130     0.4250 C.3   1 <1>   0.1440 
 13 C       -4.7590    -3.6730     0.7200 C.3   1 <1>  -0.1600 
 14 C       -7.1290    -0.6830     0.1060 C.ar  1 <1>   0.1670 
 15 C       -5.9160    -2.7170     1.0750 C.3   1 <1>  -0.1600 
 16 C       -5.1560    -0.2660     1.3940 C.3   1 <1>  -0.1600 
 17 N       -8.1240    -1.2770    -0.5160 N.ar  1 <1>  -0.6200 
 18 C       -7.1910     0.6140     0.5230 C.ar  1 <1>  -0.1430 
 19 C       -5.9090     1.0580     1.1790 C.3   1 <1>  -0.0170 
 20 C       -9.1960    -0.5170    -0.6900 C.ar  1 <1>   0.4770 
 21 C       -8.3510     1.3090     0.2890 C.ar  1 <1>   0.1600 
 22 N       -9.3720     0.7450    -0.3220 N.ar  1 <1>  -0.6200 
 23 C      -10.3650    -1.1610    -1.3960 C.3   1 <1>  -0.0970 
 24 H       -0.1470    -1.6360    -3.0450 H     1 <1>   0.1500 
 25 H        0.8530    -2.1560     2.3780 H     1 <1>   0.4000 
 26 H        2.3250    -2.2540     1.4520 H     1 <1>   0.4000 
 27 H       -5.4830    -2.0600    -1.5700 H     1 <1>   0.0800 
 28 H       -4.9220    -0.4310    -1.3370 H     1 <1>   0.0800 
 29 H       -3.1100    -2.4470     1.3460 H     1 <1>   0.0800 
 30 H       -2.6860    -3.6660     0.1720 H     1 <1>   0.0800 
 31 H       -4.6220    -4.3840     1.5150 H     1 <1>   0.0800 
 32 H       -5.0170    -4.2300    -0.1640 H     1 <1>   0.0800 
 33 H       -6.8270    -3.1830     0.7410 H     1 <1>   0.0800 
 34 H       -5.9980    -2.6270     2.1430 H     1 <1>   0.0800 
 35 H       -4.0990    -0.1370     1.2440 H     1 <1>   0.0800 
 36 H       -5.3120    -0.5670     2.4140 H     1 <1>   0.0800 
 37 H       -5.3640     1.7000     0.5080 H     1 <1>   0.0800 
 38 H       -6.0910     1.5670     2.1090 H     1 <1>   0.0800 
 39 H       -8.4460     2.3350     0.6020 H     1 <1>   0.1500 
 40 H      -10.1410    -2.1810    -1.6460 H     1 <1>   0.0800 
 41 H      -10.5800    -0.6170    -2.2960 H     1 <1>   0.0800 
 42 H      -11.2250    -1.1370    -0.7540 H     1 <1>   0.0800 
@<TRIPOS>BOND
  1   1   2  1   
  2   1   3  1   
  3   2   4  2   
  4   2   5  1   
  5   3   6  2   
  6   3  24  1   
  7   4   6  1   
  8   5  25  1   
  9   5  26  1   
 10   6   7  1   
 11   7   8  2   
 12   7   9  am  
 13   9  10  1   
 14   9  11  1   
 15  10  12  1   
 16  10  27  1   
 17  10  28  1   
 18  11  13  1   
 19  11  29  1   
 20  11  30  1   
 21  12  14  1   
 22  12  15  1   
 23  12  16  1   
 24  13  15  1   
 25  13  31  1   
 26  13  32  1   
 27  14  17  ar  
 28  14  18  ar  
 29  15  33  1   
 30  15  34  1   
 31  16  19  1   
 32  16  35  1   
 33  16  36  1   
 34  17  20  ar  
 35  18  19  1   
 36  18  21  ar  
 37  19  37  1   
 38  19  38  1   
 39  20  22  ar  
 40  20  23  1   
 41  21  22  ar  
 42  21  39  1   
 43  23  40  1   
 44  23  41  1   
 45  23  42  1   
@<TRIPOS>SUBSTRUCTURE
  1 ****  10 GROUP 4 **** **** 0

# MOE 2024.06 (io_trps.svl 2023.06)
