@<TRIPOS>MOLECULE
NONAME
46 49 1 0 0 
SMALL
USER_CHARGES


@<TRIPOS>ATOM
  1 S        0.0740     0.4480    -2.0670 S.3   1 <1>  -0.0800 
  2 C       -1.0310     1.0640    -0.8470 C.2   1 <1>  -0.1400 
  3 C       -1.1000    -0.7640    -2.5640 C.2   1 <1>  -0.1100 
  4 C       -2.1840     0.3820    -0.8650 C.2   1 <1>  -0.1810 
  5 C       -0.6770     2.2200     0.0800 C.3   1 <1>   0.4600 
  6 C       -2.2300    -0.6670    -1.8370 C.2   1 <1>  -0.1500 
  7 C       -3.2880     0.7590     0.0970 C.3   1 <1>   0.0210 
  8 O       -1.7090     2.3630     1.0380 O.3   1 <1>  -0.5600 
  9 C       -0.5280     3.5370    -0.6930 C.3   1 <1>  -0.1600 
 10 C        0.6030     1.9190     0.8670 C.3   1 <1>  -0.1600 
 11 C       -3.0400     2.1910     0.6110 C.3   1 <1>   0.1200 
 12 C       -0.1300     4.6940     0.2270 C.3   1 <1>   0.1400 
 13 C        0.9890     3.0850     1.7780 C.3   1 <1>   0.1400 
 14 N        1.1090     4.3310     0.9680 N.am  1 <1>  -0.6600 
 15 C        2.3010     5.0290     0.8720 C.2   1 <1>   0.7150 
 16 O        3.3270     4.4660     1.2150 O.2   1 <1>  -0.5700 
 17 C        2.3760     6.3850     0.3700 C.2   1 <1>   0.0550 
 18 O        1.4310     7.2760     0.6500 O.3   1 <1>  -0.2800 
 19 C        3.3190     6.9870    -0.3850 C.2   1 <1>   0.0460 
 20 C        1.8740     8.3550     0.0390 C.2   1 <1>   0.2980 
 21 N        2.9830     8.2530    -0.5980 N.2   1 <1>  -0.5650 
 22 C        4.6050     6.4410    -0.9720 C.3   1 <1>  -0.0590 
 23 C        1.0200     9.6100     0.1550 C.3   1 <1>   0.0200 
 24 C        1.5820    10.8200    -0.6050 C.3   1 <1>  -0.2400 
 25 H       -0.8150    -1.4300    -3.3580 H     1 <1>   0.1500 
 26 H       -3.1000    -1.2920    -1.9440 H     1 <1>   0.1500 
 27 H       -3.3020     0.0710     0.9230 H     1 <1>   0.0800 
 28 H       -4.2410     0.7180    -0.3980 H     1 <1>   0.0800 
 29 H       -1.4400     3.7700    -1.2070 H     1 <1>   0.0800 
 30 H        0.2350     3.4200    -1.4400 H     1 <1>   0.0800 
 31 H        1.4150     1.7360     0.1880 H     1 <1>   0.0800 
 32 H        0.4590     1.0290     1.4510 H     1 <1>   0.0800 
 33 H       -3.6820     2.4000     1.4490 H     1 <1>   0.0800 
 34 H       -3.2440     2.9070    -0.1650 H     1 <1>   0.0800 
 35 H       -0.9180     4.8930     0.9340 H     1 <1>   0.0800 
 36 H        0.0170     5.5740    -0.3720 H     1 <1>   0.0800 
 37 H        1.9140     2.8610     2.2810 H     1 <1>   0.0800 
 38 H        0.2310     3.2280     2.5300 H     1 <1>   0.0800 
 39 H        4.7120     5.3930    -0.7630 H     1 <1>   0.0800 
 40 H        5.4420     6.9670    -0.5500 H     1 <1>   0.0800 
 41 H        4.6050     6.5850    -2.0360 H     1 <1>   0.0800 
 42 H        0.9290     9.8580     1.1960 H     1 <1>   0.0800 
 43 H        0.0380     9.3840    -0.2190 H     1 <1>   0.0800 
 44 H        2.5590    11.0700    -0.2300 H     1 <1>   0.0800 
 45 H        0.9360    11.6700    -0.4850 H     1 <1>   0.0800 
 46 H        1.6670    10.5930    -1.6530 H     1 <1>   0.0800 
@<TRIPOS>BOND
  1   1   2  1   
  2   1   3  1   
  3   2   4  2   
  4   2   5  1   
  5   3   6  2   
  6   3  25  1   
  7   4   6  1   
  8   4   7  1   
  9   5   8  1   
 10   5   9  1   
 11   5  10  1   
 12   6  26  1   
 13   7  11  1   
 14   7  27  1   
 15   7  28  1   
 16   8  11  1   
 17   9  12  1   
 18   9  29  1   
 19   9  30  1   
 20  10  13  1   
 21  10  31  1   
 22  10  32  1   
 23  11  33  1   
 24  11  34  1   
 25  12  14  1   
 26  12  35  1   
 27  12  36  1   
 28  13  14  1   
 29  13  37  1   
 30  13  38  1   
 31  14  15  am  
 32  15  16  2   
 33  15  17  1   
 34  17  18  1   
 35  17  19  2   
 36  18  20  1   
 37  19  21  1   
 38  19  22  1   
 39  20  21  2   
 40  20  23  1   
 41  22  39  1   
 42  22  40  1   
 43  22  41  1   
 44  23  24  1   
 45  23  42  1   
 46  23  43  1   
 47  24  44  1   
 48  24  45  1   
 49  24  46  1   
@<TRIPOS>SUBSTRUCTURE
  1 ****  12 GROUP 4 **** **** 0

# MOE 2024.06 (io_trps.svl 2023.06)
