@<TRIPOS>MOLECULE
NONAME
43 45 1 0 0 
SMALL
USER_CHARGES


@<TRIPOS>ATOM
  1 F        1.0790     1.0080    -0.5370 F     1 <1>  -0.1900 
  2 C        0.9560     2.2330    -0.1010 C.ar  1 <1>   0.1900 
  3 C        1.3570     3.2720    -0.9190 C.ar  1 <1>  -0.1500 
  4 C        0.4320     2.4420     1.1590 C.ar  1 <1>  -0.1500 
  5 C        1.2360     4.5750    -0.4580 C.ar  1 <1>  -0.1440 
  6 C        0.3050     3.7430     1.6120 C.ar  1 <1>  -0.1500 
  7 C        0.7030     4.8000     0.8060 C.ar  1 <1>  -0.1500 
  8 C        1.6800     5.7480    -1.3290 C.3   1 <1>   0.0450 
  9 C        2.5620     6.7560    -0.5970 C.2   1 <1>   0.5690 
 10 O        2.2630     7.9240    -0.6820 O.2   1 <1>  -0.5700 
 11 N        3.6810     6.3840     0.1090 N.am  1 <1>  -0.6600 
 12 C        4.2380     7.2920     1.1680 C.3   1 <1>   0.1400 
 13 C        4.4130     5.0960    -0.0660 C.3   1 <1>   0.1400 
 14 C        5.6740     7.8250     0.9040 C.3   1 <1>   0.4230 
 15 C        5.8340     5.3350    -0.6250 C.3   1 <1>  -0.0800 
 16 N        6.0840     7.9190    -0.5550 N.4   1 <1>  -0.9590 
 17 C        6.7280     7.0670     1.7390 C.3   1 <1>   0.1200 
 18 C        6.9470     5.1100     0.4100 C.3   1 <1>   0.1200 
 19 C        5.9600     6.6670    -1.3850 C.3   1 <1>   0.3430 
 20 C        5.3170     9.0210    -1.2210 C.3   1 <1>   0.2630 
 21 O        6.6150     5.6830     1.6300 O.3   1 <1>  -0.5600 
 22 H        1.7500     3.0480    -1.8940 H     1 <1>   0.1500 
 23 H        0.1310     1.6070     1.7660 H     1 <1>   0.1500 
 24 H       -0.1050     3.9360     2.5890 H     1 <1>   0.1500 
 25 H        0.5910     5.8060     1.1750 H     1 <1>   0.1500 
 26 H        0.7990     6.2570    -1.6790 H     1 <1>   0.0800 
 27 H        2.2090     5.3960    -2.1940 H     1 <1>   0.0800 
 28 H        3.5890     8.1410     1.2910 H     1 <1>   0.0800 
 29 H        4.2200     6.7700     2.1090 H     1 <1>   0.0800 
 30 H        4.4520     4.5720     0.8750 H     1 <1>   0.0800 
 31 H        3.8820     4.4640    -0.7540 H     1 <1>   0.0800 
 32 H        5.6890     8.8280     1.2970 H     1 <1>   0.0800 
 33 H        5.9860     4.5690    -1.3660 H     1 <1>   0.0800 
 34 H        7.0760     8.1840    -0.5590 H     1 <1>   0.4500 
 35 H        6.5750     7.2980     2.7790 H     1 <1>   0.0800 
 36 H        7.7290     7.3620     1.4800 H     1 <1>   0.0800 
 37 H        7.9000     5.4890     0.0800 H     1 <1>   0.0800 
 38 H        7.0540     4.0530     0.5920 H     1 <1>   0.0800 
 39 H        5.0890     6.7560    -2.0150 H     1 <1>   0.0800 
 40 H        6.8140     6.6070    -2.0400 H     1 <1>   0.0800 
 41 H        4.2670     8.7850    -1.2460 H     1 <1>   0.0800 
 42 H        5.6590     9.1600    -2.2330 H     1 <1>   0.0800 
 43 H        5.4450     9.9480    -0.6860 H     1 <1>   0.0800 
@<TRIPOS>BOND
  1   1   2  1   
  2   2   3  ar  
  3   2   4  ar  
  4   3   5  ar  
  5   3  22  1   
  6   4   6  ar  
  7   4  23  1   
  8   5   7  ar  
  9   5   8  1   
 10   6   7  ar  
 11   6  24  1   
 12   7  25  1   
 13   8   9  1   
 14   8  26  1   
 15   8  27  1   
 16   9  10  2   
 17   9  11  am  
 18  11  12  1   
 19  11  13  1   
 20  12  14  1   
 21  12  28  1   
 22  12  29  1   
 23  13  15  1   
 24  13  30  1   
 25  13  31  1   
 26  14  16  1   
 27  14  17  1   
 28  14  32  1   
 29  15  18  1   
 30  15  19  1   
 31  15  33  1   
 32  16  19  1   
 33  16  20  1   
 34  16  34  1   
 35  17  21  1   
 36  17  35  1   
 37  17  36  1   
 38  18  21  1   
 39  18  37  1   
 40  18  38  1   
 41  19  39  1   
 42  19  40  1   
 43  20  41  1   
 44  20  42  1   
 45  20  43  1   
@<TRIPOS>SUBSTRUCTURE
  1 ****  11 GROUP 4 **** **** 0

# MOE 2024.06 (io_trps.svl 2023.06)
