@<TRIPOS>MOLECULE
NONAME
52 55 1 0 0 
SMALL
USER_CHARGES


@<TRIPOS>ATOM
  1 O        0.4210    -2.7650    -1.2650 O.2   1 <1>  -0.5700 
  2 C       -0.6880    -2.2640    -1.3550 C.2   1 <1>   0.7670 
  3 N       -0.8500    -1.2850    -2.3030 N.2   1 <1>  -0.6610 
  4 C       -1.7770    -2.6750    -0.5230 C.2   1 <1>   0.0290 
  5 C       -1.9860    -0.7020    -2.3870 C.2   1 <1>   0.4400 
  6 C       -1.6030    -3.7380     0.4260 C.2   1 <1>   0.6160 
  7 C       -2.9560    -2.0010    -0.6550 C.2   1 <1>  -0.0500 
  8 N       -3.0520    -1.0160    -1.5910 N.pl3 1 <1>  -0.5500 
  9 O       -2.1160    -3.6400     1.5260 O.2   1 <1>  -0.5700 
 10 N       -0.9470    -4.9230     0.1610 N.am  1 <1>  -0.6600 
 11 C       -0.2980    -5.6520     1.2960 C.3   1 <1>   0.2200 
 12 C       -0.8960    -5.5180    -1.1980 C.3   1 <1>   0.1400 
 13 C        1.0100    -6.3790     0.8920 C.3   1 <1>   0.1200 
 14 C       -1.3450    -6.5650     1.9780 C.3   1 <1>   0.3430 
 15 C       -1.0390    -7.0440    -1.1660 C.3   1 <1>  -0.0800 
 16 O        0.7840    -7.6620     0.3630 O.3   1 <1>  -0.5600 
 17 N       -1.7280    -7.7760     1.1720 N.4   1 <1>  -0.9590 
 18 C        0.3300    -7.7320    -0.9580 C.3   1 <1>   0.1200 
 19 C       -2.1790    -7.5120    -0.2320 C.3   1 <1>   0.3430 
 20 C       -2.6310    -8.6900     1.9130 C.3   1 <1>   0.4860 
 21 C       -2.6940   -10.0080     1.1680 C.ar  1 <1>  -0.1430 
 22 C       -3.8760   -10.4120     0.5650 C.ar  1 <1>  -0.1500 
 23 C       -1.5690   -10.8140     1.0670 C.ar  1 <1>  -0.1500 
 24 C       -3.9280   -11.6020    -0.1390 C.ar  1 <1>  -0.1500 
 25 C       -1.6250   -12.0030     0.3620 C.ar  1 <1>  -0.1500 
 26 C       -2.8020   -12.4010    -0.2480 C.ar  1 <1>  -0.1430 
 27 C       -2.8620   -13.7080    -1.0180 C.3   1 <1>  -0.0970 
 28 H       -2.1350     0.0780    -3.1140 H     1 <1>   0.0600 
 29 H       -3.8160    -2.2210    -0.0400 H     1 <1>   0.1500 
 30 H       -3.9180    -0.4780    -1.7110 H     1 <1>   0.4000 
 31 H       -0.0120    -4.9060     2.0190 H     1 <1>   0.0800 
 32 H       -1.6960    -5.1060    -1.7900 H     1 <1>   0.0800 
 33 H        0.0310    -5.2440    -1.6760 H     1 <1>   0.0800 
 34 H        1.6120    -6.5190     1.7730 H     1 <1>   0.0800 
 35 H        1.5840    -5.7930     0.1930 H     1 <1>   0.0800 
 36 H       -2.2200    -5.9730     2.1910 H     1 <1>   0.0800 
 37 H       -0.9340    -6.8900     2.9180 H     1 <1>   0.0800 
 38 H       -1.3420    -7.3110    -2.1620 H     1 <1>   0.0800 
 39 H       -0.8300    -8.2770     1.0380 H     1 <1>   0.4500 
 40 H        1.0830    -7.3010    -1.5970 H     1 <1>   0.0800 
 41 H        0.2500    -8.7780    -1.2040 H     1 <1>   0.0800 
 42 H       -2.5740    -8.4260    -0.6460 H     1 <1>   0.0800 
 43 H       -2.9730    -6.7840    -0.2320 H     1 <1>   0.0800 
 44 H       -2.2500    -8.8640     2.9070 H     1 <1>   0.0800 
 45 H       -3.6150    -8.2590     1.9920 H     1 <1>   0.0800 
 46 H       -4.7690    -9.8140     0.6350 H     1 <1>   0.1500 
 47 H       -0.6390   -10.5350     1.5340 H     1 <1>   0.1500 
 48 H       -4.8500   -11.9090    -0.6020 H     1 <1>   0.1500 
 49 H       -0.7470   -12.6240     0.2910 H     1 <1>   0.1500 
 50 H       -3.5790   -13.6430    -1.8170 H     1 <1>   0.0800 
 51 H       -3.1510   -14.5060    -0.3580 H     1 <1>   0.0800 
 52 H       -1.9030   -13.9410    -1.4430 H     1 <1>   0.0800 
@<TRIPOS>BOND
  1   1   2  2   
  2   2   3  1   
  3   2   4  1   
  4   3   5  2   
  5   4   6  1   
  6   4   7  2   
  7   5   8  1   
  8   5  28  1   
  9   6   9  2   
 10   6  10  am  
 11   7   8  1   
 12   7  29  1   
 13   8  30  1   
 14  10  11  1   
 15  10  12  1   
 16  11  13  1   
 17  11  14  1   
 18  11  31  1   
 19  12  15  1   
 20  12  32  1   
 21  12  33  1   
 22  13  16  1   
 23  13  34  1   
 24  13  35  1   
 25  14  17  1   
 26  14  36  1   
 27  14  37  1   
 28  15  18  1   
 29  15  19  1   
 30  15  38  1   
 31  16  18  1   
 32  17  19  1   
 33  17  20  1   
 34  17  39  1   
 35  18  40  1   
 36  18  41  1   
 37  19  42  1   
 38  19  43  1   
 39  20  21  1   
 40  20  44  1   
 41  20  45  1   
 42  21  22  ar  
 43  21  23  ar  
 44  22  24  ar  
 45  22  46  1   
 46  23  25  ar  
 47  23  47  1   
 48  24  26  ar  
 49  24  48  1   
 50  25  26  ar  
 51  25  49  1   
 52  26  27  1   
 53  27  50  1   
 54  27  51  1   
 55  27  52  1   
@<TRIPOS>SUBSTRUCTURE
  1 ****  19 GROUP 4 **** **** 0

# MOE 2024.06 (io_trps.svl 2023.06)
