@<TRIPOS>MOLECULE
NONAME
46 48 1 0 0 
SMALL
USER_CHARGES


@<TRIPOS>ATOM
  1 S        0.5480    -0.5930    -1.0080 S.o2  1 <1>   1.5760 
  2 O       -0.6780    -0.2200    -1.6700 O.2   1 <1>  -0.6500 
  3 O        1.7130    -1.0430    -1.7330 O.2   1 <1>  -0.6500 
  4 N        0.9920     0.6490     0.0370 N.am  1 <1>  -0.8490 
  5 N        0.1290    -1.6950     0.1670 N.am  1 <1>  -0.9140 
  6 C        2.2930     0.3860     0.6630 C.3   1 <1>   0.1960 
  7 C        0.9990     1.9380    -0.6580 C.3   1 <1>   0.1960 
  8 C       -0.5850    -2.8590    -0.3390 C.3   1 <1>   0.2760 
  9 C        2.6060     1.4610     1.7080 C.3   1 <1>  -0.1600 
 10 C        1.2730     3.0770     0.3320 C.3   1 <1>  -0.1600 
 11 C       -1.2820    -3.5590     0.8420 C.3   1 <1>   0.1400 
 12 C        0.3930    -3.8340    -1.0170 C.3   1 <1>  -0.1600 
 13 C        2.5900     2.8620     1.0860 C.3   1 <1>  -0.1600 
 14 N       -1.9350    -4.8340     0.4130 N.am  1 <1>  -0.6600 
 15 C       -0.3020    -5.1490    -1.4080 C.3   1 <1>  -0.1600 
 16 C       -3.3090    -4.9590     0.3810 C.2   1 <1>   0.7150 
 17 C       -1.0120    -5.8110    -0.2220 C.3   1 <1>   0.1400 
 18 O       -3.9730    -3.9400     0.3130 O.2   1 <1>  -0.5700 
 19 C       -3.9870    -6.2330     0.4060 C.2   1 <1>  -0.0450 
 20 S       -3.3110    -7.5900     1.3210 S.3   1 <1>  -0.0800 
 21 C       -5.1630    -6.6320    -0.1430 C.2   1 <1>  -0.1500 
 22 C       -4.6460    -8.6390     0.8970 C.2   1 <1>  -0.1100 
 23 C       -5.5310    -7.9830     0.1260 C.2   1 <1>  -0.1500 
 24 H       -0.5540    -1.1460     0.6810 H     1 <1>   0.4200 
 25 H        3.0680     0.3710    -0.0880 H     1 <1>   0.0800 
 26 H        2.2790    -0.5780     1.1450 H     1 <1>   0.0800 
 27 H        0.0400     2.1090    -1.1200 H     1 <1>   0.0800 
 28 H        1.7490     1.9330    -1.4330 H     1 <1>   0.0800 
 29 H       -1.3470    -2.5540    -1.0390 H     1 <1>   0.0800 
 30 H        3.5720     1.2670     2.1410 H     1 <1>   0.0800 
 31 H        1.8750     1.4020     2.4950 H     1 <1>   0.0800 
 32 H        0.4570     3.1260     1.0320 H     1 <1>   0.0800 
 33 H        1.3080     4.0110    -0.2000 H     1 <1>   0.0800 
 34 H       -2.0130    -2.8960     1.2710 H     1 <1>   0.0800 
 35 H       -0.5520    -3.7890     1.5980 H     1 <1>   0.0800 
 36 H        1.2050    -4.0480    -0.3440 H     1 <1>   0.0800 
 37 H        0.8000    -3.3940    -1.9090 H     1 <1>   0.0800 
 38 H        3.4150     2.9580     0.4000 H     1 <1>   0.0800 
 39 H        2.7030     3.6090     1.8530 H     1 <1>   0.0800 
 40 H        0.4250    -5.8320    -1.8110 H     1 <1>   0.0800 
 41 H       -1.0270    -4.9560    -2.1800 H     1 <1>   0.0800 
 42 H       -1.5510    -6.6720    -0.5780 H     1 <1>   0.0800 
 43 H       -0.2900    -6.1400     0.5060 H     1 <1>   0.0800 
 44 H       -5.7960    -5.9930    -0.7360 H     1 <1>   0.1500 
 45 H       -4.6300    -9.6460     1.2740 H     1 <1>   0.1500 
 46 H       -6.4420    -8.3990    -0.2690 H     1 <1>   0.1500 
@<TRIPOS>BOND
  1   1   2  2   
  2   1   3  2   
  3   1   4  am  
  4   1   5  am  
  5   4   6  1   
  6   4   7  1   
  7   5   8  1   
  8   5  24  1   
  9   6   9  1   
 10   6  25  1   
 11   6  26  1   
 12   7  10  1   
 13   7  27  1   
 14   7  28  1   
 15   8  11  1   
 16   8  12  1   
 17   8  29  1   
 18   9  13  1   
 19   9  30  1   
 20   9  31  1   
 21  10  13  1   
 22  10  32  1   
 23  10  33  1   
 24  11  14  1   
 25  11  34  1   
 26  11  35  1   
 27  12  15  1   
 28  12  36  1   
 29  12  37  1   
 30  13  38  1   
 31  13  39  1   
 32  14  16  am  
 33  14  17  1   
 34  15  17  1   
 35  15  40  1   
 36  15  41  1   
 37  16  18  2   
 38  16  19  1   
 39  17  42  1   
 40  17  43  1   
 41  19  20  1   
 42  19  21  2   
 43  20  22  1   
 44  21  23  1   
 45  21  44  1   
 46  22  23  2   
 47  22  45  1   
 48  23  46  1   
@<TRIPOS>SUBSTRUCTURE
  1 ****   8 GROUP 4 **** **** 0

# MOE 2024.06 (io_trps.svl 2023.06)
