@<TRIPOS>MOLECULE
NONAME
62 65 1 0 0 
SMALL
USER_CHARGES


@<TRIPOS>ATOM
  1 O        0.9220    -0.4730    -1.3080 O.2   1 <1>  -0.5700 
  2 C        1.0880     0.7140    -1.1360 C.2   1 <1>   0.5690 
  3 N        0.0230     1.5580    -0.9240 N.am  1 <1>  -0.6600 
  4 C        2.5250     1.2240    -1.1880 C.3   1 <1>   0.0440 
  5 C        0.1760     3.0270    -0.7310 C.3   1 <1>   0.1400 
  6 C       -1.3600     1.0120    -0.7900 C.3   1 <1>   0.1400 
  7 C        3.1200     1.4890     0.1970 C.ar  1 <1>  -0.1440 
  8 C       -1.1170     3.7530    -1.0840 C.3   1 <1>  -0.1600 
  9 C       -2.1640     1.8390     0.2180 C.3   1 <1>  -0.1600 
 10 C        3.4040     2.7720     0.6630 C.ar  1 <1>   0.0820 
 11 C        3.3920     0.3970     1.0060 C.ar  1 <1>  -0.1500 
 12 C       -2.2890     3.3340    -0.1660 C.3   1 <1>   0.2800 
 13 O        3.0940     3.8310    -0.1300 O.3   1 <1>  -0.3630 
 14 C        3.9860     2.9370     1.9180 C.ar  1 <1>  -0.1500 
 15 C        3.9540     0.5670     2.2590 C.ar  1 <1>  -0.1500 
 16 O       -2.2050     4.0210     1.0540 O.3   1 <1>  -0.5600 
 17 C       -3.6680     3.6130    -0.8090 C.3   1 <1>  -0.1600 
 18 C        2.9200     5.1270     0.4090 C.3   1 <1>   0.2630 
 19 C        4.2560     1.8370     2.7120 C.ar  1 <1>  -0.1500 
 20 C       -2.4670     5.3940     1.1060 C.3   1 <1>   0.1200 
 21 C       -4.0880     5.0880    -0.8180 C.3   1 <1>   0.2800 
 22 C        1.9830     5.9310    -0.4860 C.ar  1 <1>  -0.1440 
 23 C       -3.8690     5.6860     0.5730 C.3   1 <1>  -0.1600 
 24 O       -3.2850     5.7800    -1.7140 O.3   1 <1>  -0.6800 
 25 C       -5.5540     5.2470    -1.2830 C.3   1 <1>   0.1200 
 26 C        1.0170     6.7490     0.0820 C.ar  1 <1>  -0.1500 
 27 C        2.0770     5.8600    -1.8690 C.ar  1 <1>  -0.1500 
 28 O       -5.8570     6.5860    -1.4910 O.3   1 <1>  -0.6800 
 29 C        0.1560     7.4810    -0.7190 C.ar  1 <1>  -0.1500 
 30 C        1.2120     6.5840    -2.6710 C.ar  1 <1>  -0.1500 
 31 C        0.2500     7.3950    -2.0960 C.ar  1 <1>  -0.1500 
 32 H        2.5850     2.0880    -1.8190 H     1 <1>   0.0800 
 33 H        3.1220     0.4700    -1.6660 H     1 <1>   0.0800 
 34 H        0.9510     3.4020    -1.3720 H     1 <1>   0.0800 
 35 H        0.4420     3.2280     0.2930 H     1 <1>   0.0800 
 36 H       -1.3180    -0.0110    -0.4560 H     1 <1>   0.0800 
 37 H       -1.8400     1.0300    -1.7530 H     1 <1>   0.0800 
 38 H       -1.3510     3.5140    -2.1060 H     1 <1>   0.0800 
 39 H       -0.9290     4.8040    -1.0490 H     1 <1>   0.0800 
 40 H       -1.6590     1.7510     1.1650 H     1 <1>   0.0800 
 41 H       -3.1300     1.3880     0.3380 H     1 <1>   0.0800 
 42 H        3.1630    -0.5980     0.6610 H     1 <1>   0.1500 
 43 H        4.2420     3.9090     2.2920 H     1 <1>   0.1500 
 44 H        4.1580    -0.2910     2.8760 H     1 <1>   0.1500 
 45 H       -4.4110     3.0820    -0.2420 H     1 <1>   0.0800 
 46 H       -3.7010     3.2150    -1.8080 H     1 <1>   0.0800 
 47 H        3.8850     5.5970     0.4740 H     1 <1>   0.0800 
 48 H        2.4870     5.0340     1.3900 H     1 <1>   0.0800 
 49 H        4.7020     1.9680     3.6830 H     1 <1>   0.1500 
 50 H       -1.7160     5.9230     0.5530 H     1 <1>   0.0800 
 51 H       -2.3970     5.6940     2.1370 H     1 <1>   0.0800 
 52 H       -4.0420     6.7480     0.5520 H     1 <1>   0.0800 
 53 H       -4.5810     5.2630     1.2590 H     1 <1>   0.0800 
 54 H       -2.3500     5.6620    -1.4610 H     1 <1>   0.4000 
 55 H       -6.2390     4.8570    -0.5500 H     1 <1>   0.0800 
 56 H       -5.7050     4.7250    -2.2120 H     1 <1>   0.0800 
 57 H        0.9300     6.8240     1.1520 H     1 <1>   0.1500 
 58 H        2.8260     5.2350    -2.3260 H     1 <1>   0.1500 
 59 H       -5.0930     6.9850    -1.9620 H     1 <1>   0.4000 
 60 H       -0.5860     8.1200    -0.2720 H     1 <1>   0.1500 
 61 H        1.2910     6.5190    -3.7420 H     1 <1>   0.1500 
 62 H       -0.4210     7.9610    -2.7200 H     1 <1>   0.1500 
@<TRIPOS>BOND
  1   1   2  2   
  2   2   3  am  
  3   2   4  1   
  4   3   5  1   
  5   3   6  1   
  6   4   7  1   
  7   4  32  1   
  8   4  33  1   
  9   5   8  1   
 10   5  34  1   
 11   5  35  1   
 12   6   9  1   
 13   6  36  1   
 14   6  37  1   
 15   7  10  ar  
 16   7  11  ar  
 17   8  12  1   
 18   8  38  1   
 19   8  39  1   
 20   9  12  1   
 21   9  40  1   
 22   9  41  1   
 23  10  13  1   
 24  10  14  ar  
 25  11  15  ar  
 26  11  42  1   
 27  12  16  1   
 28  12  17  1   
 29  13  18  1   
 30  14  19  ar  
 31  14  43  1   
 32  15  19  ar  
 33  15  44  1   
 34  16  20  1   
 35  17  21  1   
 36  17  45  1   
 37  17  46  1   
 38  18  22  1   
 39  18  47  1   
 40  18  48  1   
 41  19  49  1   
 42  20  23  1   
 43  20  50  1   
 44  20  51  1   
 45  21  23  1   
 46  21  24  1   
 47  21  25  1   
 48  22  26  ar  
 49  22  27  ar  
 50  23  52  1   
 51  23  53  1   
 52  24  54  1   
 53  25  28  1   
 54  25  55  1   
 55  25  56  1   
 56  26  29  ar  
 57  26  57  1   
 58  27  30  ar  
 59  27  58  1   
 60  28  59  1   
 61  29  31  ar  
 62  29  60  1   
 63  30  31  ar  
 64  30  61  1   
 65  31  62  1   
@<TRIPOS>SUBSTRUCTURE
  1 ****   5 GROUP 4 **** **** 0

# MOE 2024.06 (io_trps.svl 2023.06)
