@<TRIPOS>MOLECULE
NONAME
58 61 1 0 0 
SMALL
USER_CHARGES


@<TRIPOS>ATOM
  1 O       -0.6250     0.5430    -0.8820 O.2   1 <1>  -0.5740 
  2 C       -1.2380     0.9380     0.0890 C.2   1 <1>   0.5400 
  3 N       -2.1210     0.0870     0.6870 N.am  1 <1>  -0.7330 
  4 C       -1.0280     2.2910     0.5800 C.ar  1 <1>   0.0800 
  5 C       -2.3510    -1.3260     0.3050 C.3   1 <1>   0.2140 
  6 C       -0.3750     3.2300    -0.2160 C.ar  1 <1>  -0.1150 
  7 C       -1.4570     2.7040     1.8590 C.ar  1 <1>  -0.1560 
  8 C       -3.7260    -1.4550    -0.3320 C.3   1 <1>  -0.0870 
  9 C       -2.5240    -2.1600     1.5680 C.3   1 <1>   0.1140 
 10 C       -0.1700     4.5160     0.2550 C.ar  1 <1>   0.3040 
 11 C       -1.2560     3.9890     2.3250 C.ar  1 <1>  -0.1150 
 12 C       -4.6470    -1.6180     0.8860 C.3   1 <1>   0.1140 
 13 C       -3.7920    -2.6660    -1.2810 C.3   1 <1>  -0.0230 
 14 O       -3.8370    -1.9390     1.9810 O.3   1 <1>  -0.5640 
 15 N        0.4300     5.6230    -0.3020 N.pl3 1 <1>  -0.7030 
 16 C       -0.6040     4.9050     1.5070 C.ar  1 <1>   0.3040 
 17 C       -5.1610    -2.7930    -1.9330 C.ar  1 <1>  -0.1500 
 18 C        0.3570     6.6310     0.5440 C.cat 1 <1>   1.0690 
 19 N       -0.2620     6.2450     1.6690 N.pl3 1 <1>  -0.7670 
 20 C       -5.5620    -1.9490    -2.9480 C.ar  1 <1>  -0.1560 
 21 C       -6.0720    -3.7560    -1.5480 C.ar  1 <1>  -0.1560 
 22 N        0.8220     7.8530     0.3070 N.pl3 1 <1>  -0.7170 
 23 C       -0.5570     7.0190     2.9030 C.3   1 <1>   0.2680 
 24 C       -6.8180    -2.1010    -3.5100 C.ar  1 <1>   0.1540 
 25 C       -7.3050    -3.8230    -2.1750 C.ar  1 <1>   0.1540 
 26 C        1.7130     8.2900    -0.8110 C.3   1 <1>   0.1610 
 27 N       -7.7020    -3.0170    -3.1470 N.ar  1 <1>  -0.6240 
 28 C        1.0010     8.3720    -2.1710 C.3   1 <1>   0.1140 
 29 O        0.5740     7.1000    -2.5540 O.3   1 <1>  -0.5640 
 30 C       -0.0310     7.0720    -3.8110 C.3   1 <1>   0.0330 
 31 H       -2.7200     0.3900     1.4560 H     1 <1>   0.3650 
 32 H       -1.5520    -1.6890    -0.3200 H     1 <1>   0.0730 
 33 H       -0.0250     2.9620    -1.1980 H     1 <1>   0.1440 
 34 H       -1.9520     1.9930     2.4990 H     1 <1>   0.1440 
 35 H       -3.9790    -0.5700    -0.8890 H     1 <1>   0.0730 
 36 H       -1.8430    -1.8780     2.3510 H     1 <1>   0.0730 
 37 H       -2.4190    -3.2090     1.3520 H     1 <1>   0.0730 
 38 H       -1.5940     4.2800     3.3040 H     1 <1>   0.1440 
 39 H       -5.3760    -2.3990     0.7580 H     1 <1>   0.0730 
 40 H       -5.1510    -0.6950     1.1130 H     1 <1>   0.0730 
 41 H       -3.5630    -3.5720    -0.7470 H     1 <1>   0.0730 
 42 H       -3.0540    -2.5510    -2.0560 H     1 <1>   0.0730 
 43 H        0.6820     5.7920    -1.2870 H     1 <1>   0.4450 
 44 H       -4.9080    -1.1760    -3.3080 H     1 <1>   0.1440 
 45 H       -5.8370    -4.4540    -0.7660 H     1 <1>   0.1440 
 46 H        0.6270     8.5710     0.9990 H     1 <1>   0.4450 
 47 H       -0.1370     6.5160     3.7580 H     1 <1>   0.0730 
 48 H       -1.6230     7.1000     3.0360 H     1 <1>   0.0730 
 49 H       -0.1380     8.0080     2.8490 H     1 <1>   0.0730 
 50 H       -7.1120    -1.4330    -4.3010 H     1 <1>   0.1440 
 51 H       -8.0020    -4.5800    -1.8600 H     1 <1>   0.1440 
 52 H        2.1120     9.2620    -0.5750 H     1 <1>   0.0730 
 53 H        2.5480     7.6130    -0.8960 H     1 <1>   0.0730 
 54 H        1.6860     8.7390    -2.9170 H     1 <1>   0.0730 
 55 H        0.1490     9.0290    -2.1170 H     1 <1>   0.0730 
 56 H       -0.3270     6.0590    -4.0240 H     1 <1>   0.0730 
 57 H        0.6740     7.4030    -4.5550 H     1 <1>   0.0730 
 58 H       -0.8990     7.7090    -3.8060 H     1 <1>   0.0730 
@<TRIPOS>BOND
  1   1   2  2   
  2   2   3  am  
  3   2   4  1   
  4   3   5  1   
  5   3  31  1   
  6   4   6  ar  
  7   4   7  ar  
  8   5   8  1   
  9   5   9  1   
 10   5  32  1   
 11   6  10  ar  
 12   6  33  1   
 13   7  11  ar  
 14   7  34  1   
 15   8  12  1   
 16   8  13  1   
 17   8  35  1   
 18   9  14  1   
 19   9  36  1   
 20   9  37  1   
 21  10  15  1   
 22  10  16  ar  
 23  11  16  ar  
 24  11  38  1   
 25  12  14  1   
 26  12  39  1   
 27  12  40  1   
 28  13  17  1   
 29  13  41  1   
 30  13  42  1   
 31  15  18  ar  
 32  15  43  1   
 33  16  19  1   
 34  17  20  ar  
 35  17  21  ar  
 36  18  19  ar  
 37  18  22  ar  
 38  19  23  1   
 39  20  24  ar  
 40  20  44  1   
 41  21  25  ar  
 42  21  45  1   
 43  22  26  1   
 44  22  46  1   
 45  23  47  1   
 46  23  48  1   
 47  23  49  1   
 48  24  27  ar  
 49  24  50  1   
 50  25  27  ar  
 51  25  51  1   
 52  26  28  1   
 53  26  52  1   
 54  26  53  1   
 55  28  29  1   
 56  28  54  1   
 57  28  55  1   
 58  29  30  1   
 59  30  56  1   
 60  30  57  1   
 61  30  58  1   
@<TRIPOS>SUBSTRUCTURE
  1 ****   2 GROUP 4 **** **** 0

# MOE 2024.06 (io_trps.svl 2023.06)
