@<TRIPOS>MOLECULE
NONAME
48 51 1 0 0 
SMALL
USER_CHARGES


@<TRIPOS>ATOM
  1 O       -2.0170     0.4540     2.3380 O.2   1 <1>  -0.5700 
  2 C       -2.5400     0.8850     1.3280 C.2   1 <1>   0.5440 
  3 N       -3.5560     0.1680     0.7480 N.am  1 <1>  -0.6600 
  4 C       -2.0910     2.1280     0.7380 C.ar  1 <1>   0.0860 
  5 C       -4.3380     0.5980    -0.4350 C.3   1 <1>   0.1400 
  6 C       -3.8050    -1.2630     1.0490 C.3   1 <1>   0.1400 
  7 C       -1.0440     2.1650    -0.1940 C.ar  1 <1>  -0.1440 
  8 C       -2.7210     3.3250     1.0770 C.ar  1 <1>  -0.1500 
  9 C       -5.3730    -0.5120    -0.6270 C.3   1 <1>   0.2000 
 10 C       -4.6800    -1.7740    -0.1070 C.3   1 <1>  -0.0800 
 11 C       -0.6530     3.3670    -0.7630 C.ar  1 <1>  -0.1500 
 12 C       -0.3210     0.8820    -0.5830 C.3   1 <1>  -0.0960 
 13 C       -2.3370     4.5200     0.5040 C.ar  1 <1>   0.0830 
 14 O       -6.4540    -0.2490     0.1980 O.3   1 <1>  -0.6800 
 15 C       -3.8450    -2.4290    -1.2270 C.3   1 <1>  -0.0170 
 16 C       -1.2890     4.5460    -0.4170 C.ar  1 <1>   0.0830 
 17 O       -2.9990     5.6550     0.8460 O.3   1 <1>  -0.3630 
 18 C       -3.1490    -3.6980    -0.7630 C.ar  1 <1>   0.1670 
 19 O       -0.8760     5.7070    -0.9760 O.3   1 <1>  -0.3630 
 20 C       -2.7990     6.7890     0.0210 C.3   1 <1>   0.1200 
 21 N       -1.8600    -3.5920    -0.4830 N.ar  1 <1>  -0.6200 
 22 C       -3.8720    -4.8770    -0.6580 C.ar  1 <1>  -0.1500 
 23 C       -1.3200     6.9080    -0.3740 C.3   1 <1>   0.1200 
 24 C       -1.2680    -4.7040    -0.0750 C.ar  1 <1>   0.1600 
 25 C       -3.2430    -6.0280    -0.2340 C.ar  1 <1>  -0.1500 
 26 C       -1.9020    -5.9270     0.0650 C.ar  1 <1>  -0.1500 
 27 H       -4.8040     1.5560    -0.2800 H     1 <1>   0.0800 
 28 H       -3.6850     0.6480    -1.2890 H     1 <1>   0.0800 
 29 H       -2.8750    -1.7980     1.1410 H     1 <1>   0.0800 
 30 H       -4.3370    -1.3320     1.9830 H     1 <1>   0.0800 
 31 H       -3.5200     3.3170     1.7950 H     1 <1>   0.1500 
 32 H       -5.7320    -0.5910    -1.6390 H     1 <1>   0.0800 
 33 H       -5.3990    -2.4910     0.2470 H     1 <1>   0.0800 
 34 H        0.1510     3.4080    -1.4750 H     1 <1>   0.1500 
 35 H        0.4610     1.0760    -1.2950 H     1 <1>   0.0800 
 36 H       -1.0110     0.1800    -1.0170 H     1 <1>   0.0800 
 37 H        0.1200     0.4310     0.2890 H     1 <1>   0.0800 
 38 H       -6.1180    -0.0350     1.0930 H     1 <1>   0.4000 
 39 H       -3.1030    -1.7390    -1.5910 H     1 <1>   0.0800 
 40 H       -4.4870    -2.6770    -2.0530 H     1 <1>   0.0800 
 41 H       -3.4110     6.6770    -0.8560 H     1 <1>   0.0800 
 42 H       -3.1200     7.6570     0.5680 H     1 <1>   0.0800 
 43 H       -4.9180    -4.8960    -0.9040 H     1 <1>   0.1500 
 44 H       -0.7140     7.0900     0.4960 H     1 <1>   0.0800 
 45 H       -1.1750     7.7060    -1.0790 H     1 <1>   0.0800 
 46 H       -0.2200    -4.6360     0.1610 H     1 <1>   0.1500 
 47 H       -3.7740    -6.9600    -0.1400 H     1 <1>   0.1500 
 48 H       -1.3500    -6.7850     0.4030 H     1 <1>   0.1500 
@<TRIPOS>BOND
  1   1   2  2   
  2   2   3  am  
  3   2   4  1   
  4   3   5  1   
  5   3   6  1   
  6   4   7  ar  
  7   4   8  ar  
  8   5   9  1   
  9   5  27  1   
 10   5  28  1   
 11   6  10  1   
 12   6  29  1   
 13   6  30  1   
 14   7  11  ar  
 15   7  12  1   
 16   8  13  ar  
 17   8  31  1   
 18   9  10  1   
 19   9  14  1   
 20   9  32  1   
 21  10  15  1   
 22  10  33  1   
 23  11  16  ar  
 24  11  34  1   
 25  12  35  1   
 26  12  36  1   
 27  12  37  1   
 28  13  16  ar  
 29  13  17  1   
 30  14  38  1   
 31  15  18  1   
 32  15  39  1   
 33  15  40  1   
 34  16  19  1   
 35  17  20  1   
 36  18  21  ar  
 37  18  22  ar  
 38  19  23  1   
 39  20  23  1   
 40  20  41  1   
 41  20  42  1   
 42  21  24  ar  
 43  22  25  ar  
 44  22  43  1   
 45  23  44  1   
 46  23  45  1   
 47  24  26  ar  
 48  24  46  1   
 49  25  26  ar  
 50  25  47  1   
 51  26  48  1   
@<TRIPOS>SUBSTRUCTURE
  1 ****   3 GROUP 4 **** **** 0

# MOE 2024.06 (io_trps.svl 2023.06)
