@<TRIPOS>MOLECULE
NONAME
53 56 1 0 0 
SMALL
USER_CHARGES


@<TRIPOS>ATOM
  1 O       -1.2090     1.0720    -1.8850 O.2   1 <1>  -0.5700 
  2 C       -0.8450     2.0340    -1.2500 C.2   1 <1>   0.5690 
  3 N       -1.7000     3.0310    -0.8520 N.am  1 <1>  -0.5090 
  4 C        0.6480     2.1360    -0.9220 C.3   1 <1>   0.1810 
  5 C       -1.1860     4.2850    -0.2170 C.3   1 <1>   0.3640 
  6 C       -3.1730     2.9220    -0.9950 C.3   1 <1>   0.0490 
  7 O        0.9540     3.1460     0.0090 O.3   1 <1>  -0.5600 
  8 C       -1.8060     5.5140    -0.8840 C.ar  1 <1>  -0.1440 
  9 C        0.3550     4.3900    -0.2830 C.3   1 <1>   0.2610 
 10 C       -4.0270     3.0440     0.2300 C.3   1 <1>  -0.2000 
 11 C       -3.8790     1.7210    -0.4490 C.3   1 <1>  -0.2000 
 12 C       -2.3800     6.5060    -0.1010 C.ar  1 <1>   0.1600 
 13 C       -1.8020     5.6760    -2.2580 C.ar  1 <1>  -0.1500 
 14 C        0.8810     5.5000     0.6410 C.2   1 <1>   0.5690 
 15 N       -2.9230     7.6200    -0.5660 N.ar  1 <1>  -0.6200 
 16 C       -2.3740     6.8250    -2.7580 C.ar  1 <1>  -0.1500 
 17 O        0.2030     5.8410     1.5870 O.2   1 <1>  -0.5700 
 18 N        2.0670     6.1300     0.3640 N.am  1 <1>  -0.6600 
 19 C       -2.9130     7.7510    -1.8820 C.ar  1 <1>   0.1600 
 20 C        2.4770     7.3670     1.0960 C.3   1 <1>   0.3200 
 21 C        3.0450     5.6910    -0.6740 C.3   1 <1>   0.0600 
 22 C        2.5590     8.5450     0.1340 C.2   1 <1>   0.0070 
 23 N        3.6750     8.9730    -0.3690 N.2   1 <1>  -0.5650 
 24 N        1.4710     9.2420    -0.2830 N.pl3 1 <1>   0.0480 
 25 C        3.3030    10.0010    -1.1520 C.2   1 <1>   0.0770 
 26 C        1.9660    10.1780    -1.1130 C.2   1 <1>  -0.3020 
 27 C        0.0440     9.0530     0.0560 C.3   1 <1>   0.0960 
 28 C       -0.3330     9.8570     1.3030 C.3   1 <1>  -0.2400 
 29 H        1.1980     2.3290    -1.8250 H     1 <1>   0.0800 
 30 H        0.9820     1.2010    -0.5100 H     1 <1>   0.0800 
 31 H       -1.4800     4.2580     0.8180 H     1 <1>   0.0800 
 32 H       -3.5330     3.3410    -1.9200 H     1 <1>   0.1000 
 33 H        0.6310     4.6510    -1.2880 H     1 <1>   0.0800 
 34 H       -3.5760     3.1580     1.1990 H     1 <1>   0.1000 
 35 H       -4.9730     3.5500     0.1510 H     1 <1>   0.1000 
 36 H       -4.7150     1.3260    -0.9990 H     1 <1>   0.1000 
 37 H       -3.2910     0.9500     0.0180 H     1 <1>   0.1000 
 38 H       -2.3850     6.3840     0.9710 H     1 <1>   0.1500 
 39 H       -1.3810     4.9360    -2.9180 H     1 <1>   0.1500 
 40 H       -2.4060     7.0040    -3.8180 H     1 <1>   0.1500 
 41 H       -3.3610     8.6440    -2.2850 H     1 <1>   0.1500 
 42 H        1.7900     7.5960     1.8910 H     1 <1>   0.0800 
 43 H        3.4440     7.2080     1.5390 H     1 <1>   0.0800 
 44 H        4.0490     5.8670    -0.3280 H     1 <1>   0.0800 
 45 H        2.8930     6.2560    -1.5780 H     1 <1>   0.0800 
 46 H        2.9430     4.6410    -0.8820 H     1 <1>   0.0800 
 47 H        4.0280    10.5690    -1.7110 H     1 <1>   0.1500 
 48 H        1.3550    10.9040    -1.6170 H     1 <1>   0.1500 
 49 H       -0.5550     9.3690    -0.7790 H     1 <1>   0.0800 
 50 H       -0.1420     8.0110     0.2220 H     1 <1>   0.0800 
 51 H       -0.1630    10.9060     1.1380 H     1 <1>   0.0800 
 52 H        0.2400     9.5290     2.1510 H     1 <1>   0.0800 
 53 H       -1.3760     9.7090     1.5200 H     1 <1>   0.0800 
@<TRIPOS>BOND
  1   1   2  2   
  2   2   3  am  
  3   2   4  1   
  4   3   5  1   
  5   3   6  1   
  6   4   7  1   
  7   4  29  1   
  8   4  30  1   
  9   5   8  1   
 10   5   9  1   
 11   5  31  1   
 12   6  10  1   
 13   6  11  1   
 14   6  32  1   
 15   7   9  1   
 16   8  12  ar  
 17   8  13  ar  
 18   9  14  1   
 19   9  33  1   
 20  10  11  1   
 21  10  34  1   
 22  10  35  1   
 23  11  36  1   
 24  11  37  1   
 25  12  15  ar  
 26  12  38  1   
 27  13  16  ar  
 28  13  39  1   
 29  14  17  2   
 30  14  18  am  
 31  15  19  ar  
 32  16  19  ar  
 33  16  40  1   
 34  18  20  1   
 35  18  21  1   
 36  19  41  1   
 37  20  22  1   
 38  20  42  1   
 39  20  43  1   
 40  21  44  1   
 41  21  45  1   
 42  21  46  1   
 43  22  23  2   
 44  22  24  1   
 45  23  25  1   
 46  24  26  1   
 47  24  27  1   
 48  25  26  2   
 49  25  47  1   
 50  26  48  1   
 51  27  28  1   
 52  27  49  1   
 53  27  50  1   
 54  28  51  1   
 55  28  52  1   
 56  28  53  1   
@<TRIPOS>SUBSTRUCTURE
  1 ****   9 GROUP 4 **** **** 0

# MOE 2024.06 (io_trps.svl 2023.06)
