@<TRIPOS>MOLECULE
NONAME
41 42 1 0 0 
SMALL
USER_CHARGES


@<TRIPOS>ATOM
  1 CL      -0.5990     2.8380     0.0390 Cl    1 <1>  -0.1770 
  2 C        1.1420     2.9400     0.0060 C.ar  1 <1>   0.1770 
  3 C        1.8520     2.7940     1.1820 C.ar  1 <1>  -0.1500 
  4 C        1.7850     3.1660    -1.1960 C.ar  1 <1>  -0.1500 
  5 C        3.2340     2.8760     1.1530 C.ar  1 <1>  -0.1500 
  6 C        3.1680     3.2480    -1.2190 C.ar  1 <1>  -0.1500 
  7 C        3.8960     3.1040    -0.0460 C.ar  1 <1>  -0.1440 
  8 C        5.4130     3.1980    -0.0680 C.3   1 <1>  -0.0160 
  9 C        5.8620     4.6110     0.3240 C.3   1 <1>  -0.1600 
 10 C        7.3930     4.7520     0.2920 C.3   1 <1>  -0.0990 
 11 C        7.8450     6.1250     0.7530 C.2   1 <1>   0.5690 
 12 O        8.3100     6.2320     1.8620 O.2   1 <1>  -0.5700 
 13 N        7.6990     7.1690    -0.1080 N.am  1 <1>  -0.4930 
 14 C        8.0350     8.5330     0.0870 C.2   1 <1>   0.0630 
 15 C        8.5920     9.1590     1.2020 C.2   1 <1>   0.1390 
 16 C        7.8710     9.5260    -0.8110 C.2   1 <1>  -0.3020 
 17 N        8.7620    10.4340     1.0190 N.2   1 <1>  -0.7070 
 18 N        8.3140    10.6670    -0.2330 N.pl3 1 <1>   0.3140 
 19 C        8.3230    12.0170    -0.8660 C.3   1 <1>   0.1760 
 20 C        9.7580    12.5500    -0.9870 C.3   1 <1>  -0.2400 
 21 C        7.4430    12.9940    -0.0730 C.3   1 <1>  -0.2400 
 22 H        1.3290     2.6190     2.1050 H     1 <1>   0.1500 
 23 H        1.2100     3.2750    -2.0970 H     1 <1>   0.1500 
 24 H        3.7920     2.7650     2.0670 H     1 <1>   0.1500 
 25 H        3.6710     3.4240    -2.1540 H     1 <1>   0.1500 
 26 H        5.7770     2.9560    -1.0520 H     1 <1>   0.0800 
 27 H        5.8250     2.4790     0.6190 H     1 <1>   0.0800 
 28 H        5.5100     4.8290     1.3190 H     1 <1>   0.0800 
 29 H        5.4140     5.3240    -0.3460 H     1 <1>   0.0800 
 30 H        7.7630     4.5760    -0.7010 H     1 <1>   0.0800 
 31 H        7.8350     4.0180     0.9420 H     1 <1>   0.0800 
 32 H        7.2810     6.9610    -1.0120 H     1 <1>   0.3700 
 33 H        8.8530     8.6490     2.1140 H     1 <1>   0.1500 
 34 H        7.4730     9.4920    -1.8060 H     1 <1>   0.1500 
 35 H        7.9130    11.9140    -1.8540 H     1 <1>   0.0800 
 36 H       10.1940    12.6700    -0.0110 H     1 <1>   0.0800 
 37 H        9.7610    13.5030    -1.4830 H     1 <1>   0.0800 
 38 H       10.3600    11.8650    -1.5570 H     1 <1>   0.0800 
 39 H        7.8330    13.1220     0.9220 H     1 <1>   0.0800 
 40 H        6.4380    12.6180    -0.0080 H     1 <1>   0.0800 
 41 H        7.4190    13.9530    -0.5580 H     1 <1>   0.0800 
@<TRIPOS>BOND
  1   1   2  1   
  2   2   3  ar  
  3   2   4  ar  
  4   3   5  ar  
  5   3  22  1   
  6   4   6  ar  
  7   4  23  1   
  8   5   7  ar  
  9   5  24  1   
 10   6   7  ar  
 11   6  25  1   
 12   7   8  1   
 13   8   9  1   
 14   8  26  1   
 15   8  27  1   
 16   9  10  1   
 17   9  28  1   
 18   9  29  1   
 19  10  11  1   
 20  10  30  1   
 21  10  31  1   
 22  11  12  2   
 23  11  13  am  
 24  13  14  1   
 25  13  32  1   
 26  14  15  1   
 27  14  16  2   
 28  15  17  2   
 29  15  33  1   
 30  16  18  1   
 31  16  34  1   
 32  17  18  1   
 33  18  19  1   
 34  19  20  1   
 35  19  21  1   
 36  19  35  1   
 37  20  36  1   
 38  20  37  1   
 39  20  38  1   
 40  21  39  1   
 41  21  40  1   
 42  21  41  1   
@<TRIPOS>SUBSTRUCTURE
  1 ****  13 GROUP 4 **** **** 0

# MOE 2024.06 (io_trps.svl 2023.06)
