@<TRIPOS>MOLECULE
NONAME
48 50 1 0 0 
SMALL
USER_CHARGES


@<TRIPOS>ATOM
  1 O        0.1220     0.2600    -0.3650 O.3   1 <1>  -0.5600 
  2 C        1.3730    -0.3600    -0.4830 C.3   1 <1>   0.3440 
  3 C        0.0880     1.6230    -0.7090 C.3   1 <1>   0.2000 
  4 C        1.2550    -1.8280    -0.0960 C.ar  1 <1>  -0.1440 
  5 C        2.3910     0.3370     0.4480 C.3   1 <1>   0.3430 
  6 C       -1.3830     2.1270    -0.6830 C.3   1 <1>   0.0000 
  7 C        1.0210     2.4100     0.2420 C.3   1 <1>   0.3430 
  8 C        0.3930    -2.2410     0.9120 C.ar  1 <1>  -0.1500 
  9 C        2.0350    -2.7750    -0.7460 C.ar  1 <1>  -0.1500 
 10 N        2.4070     1.8320     0.2770 N.4   1 <1>  -0.9590 
 11 C       -1.4540     3.6110    -1.0890 C.3   1 <1>  -0.2400 
 12 C       -2.2210     1.3240    -1.6950 C.3   1 <1>  -0.2400 
 13 C       -2.0250     1.9700     0.7090 C.3   1 <1>  -0.2400 
 14 C        0.3190    -3.5760     1.2690 C.ar  1 <1>  -0.1500 
 15 C        1.9610    -4.1100    -0.3890 C.ar  1 <1>  -0.1500 
 16 C        3.2800     2.5420     1.2460 C.3   1 <1>   0.5240 
 17 C        1.1040    -4.5110     0.6200 C.ar  1 <1>  -0.1500 
 18 C        3.6350     3.8830     0.6160 C.2   1 <1>   0.0460 
 19 N        3.8390     3.9650    -0.7180 N.2   1 <1>  -0.5650 
 20 C        3.7810     5.0940     1.1990 C.2   1 <1>  -0.3020 
 21 C        4.1160     5.2150    -0.9120 C.2   1 <1>   0.0360 
 22 N        4.0970     5.9580     0.2150 N.pl3 1 <1>   0.0330 
 23 H        1.6880    -0.2840    -1.5090 H     1 <1>   0.0800 
 24 H        0.4550     1.7160    -1.7170 H     1 <1>   0.0800 
 25 H        3.3700    -0.0690     0.2600 H     1 <1>   0.0800 
 26 H        2.1240     0.0910     1.4620 H     1 <1>   0.0800 
 27 H        0.5930     2.3890     1.2300 H     1 <1>   0.0800 
 28 H        1.0660     3.4380    -0.0790 H     1 <1>   0.0800 
 29 H       -0.2330    -1.5280     1.4220 H     1 <1>   0.1500 
 30 H        2.7050    -2.4890    -1.5380 H     1 <1>   0.1500 
 31 H        2.8460     2.0880    -0.6270 H     1 <1>   0.4500 
 32 H       -2.4800     3.9300    -1.1520 H     1 <1>   0.0800 
 33 H       -1.0020     3.7640    -2.0540 H     1 <1>   0.0800 
 34 H       -0.9620     4.2440    -0.3730 H     1 <1>   0.0800 
 35 H       -3.2370     1.6780    -1.7170 H     1 <1>   0.0800 
 36 H       -2.2410     0.2810    -1.4320 H     1 <1>   0.0800 
 37 H       -1.8130     1.4130    -2.6870 H     1 <1>   0.0800 
 38 H       -3.0560     2.2750     0.6800 H     1 <1>   0.0800 
 39 H       -1.5260     2.5690     1.4480 H     1 <1>   0.0800 
 40 H       -1.9960     0.9410     1.0240 H     1 <1>   0.0800 
 41 H       -0.3540    -3.8890     2.0500 H     1 <1>   0.1500 
 42 H        2.5660    -4.8410    -0.8970 H     1 <1>   0.1500 
 43 H        2.7850     2.6800     2.1930 H     1 <1>   0.0800 
 44 H        4.1890     1.9850     1.3980 H     1 <1>   0.0800 
 45 H        1.0450    -5.5500     0.8970 H     1 <1>   0.1500 
 46 H        3.6890     5.3930     2.2290 H     1 <1>   0.1500 
 47 H        4.3450     5.6470    -1.8730 H     1 <1>   0.1500 
 48 H        4.2910     6.9630     0.2940 H     1 <1>   0.2700 
@<TRIPOS>BOND
  1   1   2  1   
  2   1   3  1   
  3   2   4  1   
  4   2   5  1   
  5   2  23  1   
  6   3   6  1   
  7   3   7  1   
  8   3  24  1   
  9   4   8  ar  
 10   4   9  ar  
 11   5  10  1   
 12   5  25  1   
 13   5  26  1   
 14   6  11  1   
 15   6  12  1   
 16   6  13  1   
 17   7  10  1   
 18   7  27  1   
 19   7  28  1   
 20   8  14  ar  
 21   8  29  1   
 22   9  15  ar  
 23   9  30  1   
 24  10  16  1   
 25  10  31  1   
 26  11  32  1   
 27  11  33  1   
 28  11  34  1   
 29  12  35  1   
 30  12  36  1   
 31  12  37  1   
 32  13  38  1   
 33  13  39  1   
 34  13  40  1   
 35  14  17  ar  
 36  14  41  1   
 37  15  17  ar  
 38  15  42  1   
 39  16  18  1   
 40  16  43  1   
 41  16  44  1   
 42  17  45  1   
 43  18  19  1   
 44  18  20  2   
 45  19  21  2   
 46  20  22  1   
 47  20  46  1   
 48  21  22  1   
 49  21  47  1   
 50  22  48  1   
@<TRIPOS>SUBSTRUCTURE
  1 ****   5 GROUP 4 **** **** 0

# MOE 2024.06 (io_trps.svl 2023.06)
