@<TRIPOS>MOLECULE
NONAME
48 50 1 0 0 
SMALL
USER_CHARGES


@<TRIPOS>ATOM
  1 O        0.3430     0.4340    -0.0400 O.3   1 <1>  -0.5600 
  2 C        0.3000     1.8010     0.2690 C.3   1 <1>   0.2000 
  3 C        1.6320    -0.1080     0.0120 C.3   1 <1>   0.2000 
  4 C       -1.1750     2.2560     0.3800 C.3   1 <1>  -0.0800 
  5 C        1.1110     2.5960    -0.7800 C.3   1 <1>   0.2090 
  6 C        2.5580     0.6030    -1.0070 C.3   1 <1>   0.2090 
  7 C        1.4880    -1.6130    -0.2490 C.3   1 <1>  -0.1600 
  8 C       -1.8720     1.5550     1.5570 C.3   1 <1>  -0.2400 
  9 C       -1.9900     2.0260    -0.9050 C.3   1 <1>  -0.2400 
 10 N        2.5180     2.0990    -0.8920 N.pl3 1 <1>  -0.8220 
 11 C        2.8100    -2.3800    -0.0780 C.3   1 <1>  -0.1600 
 12 C        3.4160     2.6610     0.0290 C.2   1 <1>   0.2710 
 13 C        2.5970    -3.8880    -0.2520 C.3   1 <1>  -0.1600 
 14 N        3.7120     2.1410     1.1850 N.2   1 <1>  -0.3380 
 15 N        4.0720     3.8190    -0.1680 N.pl3 1 <1>   0.3340 
 16 C        3.9140    -4.6520    -0.0840 C.3   1 <1>  -0.2400 
 17 N        4.5740     2.9590     1.7890 N.2   1 <1>  -0.3380 
 18 C        4.7870     3.9590     0.9790 C.2   1 <1>   0.1410 
 19 C        4.1400     4.7660    -1.1900 C.2   1 <1>  -0.1810 
 20 C        5.6140     5.1020     1.1350 C.2   1 <1>  -0.1050 
 21 C        4.9290     5.8620    -1.0480 C.2   1 <1>  -0.1500 
 22 C        5.6850     6.0360     0.1450 C.2   1 <1>  -0.1500 
 23 H        0.7670     1.9370     1.2300 H     1 <1>   0.0800 
 24 H        2.0140     0.0390     1.0080 H     1 <1>   0.0800 
 25 H       -1.1750     3.3120     0.5900 H     1 <1>   0.0800 
 26 H        1.1170     3.6370    -0.5060 H     1 <1>   0.0800 
 27 H        0.6400     2.5110    -1.7420 H     1 <1>   0.0800 
 28 H        2.2630     0.3240    -2.0030 H     1 <1>   0.0800 
 29 H        3.5690     0.2670    -0.8610 H     1 <1>   0.0800 
 30 H        0.7690    -2.0040     0.4490 H     1 <1>   0.0800 
 31 H        1.1080    -1.7650    -1.2440 H     1 <1>   0.0800 
 32 H       -1.9150     0.4930     1.3880 H     1 <1>   0.0800 
 33 H       -2.8740     1.9250     1.6770 H     1 <1>   0.0800 
 34 H       -1.3330     1.7320     2.4710 H     1 <1>   0.0800 
 35 H       -1.9820     0.9830    -1.1710 H     1 <1>   0.0800 
 36 H       -1.5900     2.5930    -1.7250 H     1 <1>   0.0800 
 37 H       -3.0110     2.3310    -0.7580 H     1 <1>   0.0800 
 38 H        3.5290    -2.0430    -0.8040 H     1 <1>   0.0800 
 39 H        3.2090    -2.1870     0.9040 H     1 <1>   0.0800 
 40 H        1.8890    -4.2410     0.4790 H     1 <1>   0.0800 
 41 H        2.1940    -4.0870    -1.2300 H     1 <1>   0.0800 
 42 H        4.3230    -4.4840     0.8970 H     1 <1>   0.0800 
 43 H        4.6310    -4.3330    -0.8190 H     1 <1>   0.0800 
 44 H        3.7450    -5.7080    -0.2070 H     1 <1>   0.0800 
 45 H        3.5440     4.5590    -2.0610 H     1 <1>   0.1500 
 46 H        6.1680     5.1910     2.0530 H     1 <1>   0.1500 
 47 H        5.0060     6.6130    -1.8170 H     1 <1>   0.1500 
 48 H        6.3050     6.9130     0.2380 H     1 <1>   0.1500 
@<TRIPOS>BOND
  1   1   2  1   
  2   1   3  1   
  3   2   4  1   
  4   2   5  1   
  5   2  23  1   
  6   3   6  1   
  7   3   7  1   
  8   3  24  1   
  9   4   8  1   
 10   4   9  1   
 11   4  25  1   
 12   5  10  1   
 13   5  26  1   
 14   5  27  1   
 15   6  10  1   
 16   6  28  1   
 17   6  29  1   
 18   7  11  1   
 19   7  30  1   
 20   7  31  1   
 21   8  32  1   
 22   8  33  1   
 23   8  34  1   
 24   9  35  1   
 25   9  36  1   
 26   9  37  1   
 27  10  12  1   
 28  11  13  1   
 29  11  38  1   
 30  11  39  1   
 31  12  14  2   
 32  12  15  1   
 33  13  16  1   
 34  13  40  1   
 35  13  41  1   
 36  14  17  1   
 37  15  18  1   
 38  15  19  1   
 39  16  42  1   
 40  16  43  1   
 41  16  44  1   
 42  17  18  2   
 43  18  20  1   
 44  19  21  2   
 45  19  45  1   
 46  20  22  2   
 47  20  46  1   
 48  21  22  1   
 49  21  47  1   
 50  22  48  1   
@<TRIPOS>SUBSTRUCTURE
  1 ****  10 GROUP 4 **** **** 0

# MOE 2024.06 (io_trps.svl 2023.06)
