@<TRIPOS>MOLECULE
NONAME
52 55 1 0 0 
SMALL
USER_CHARGES


@<TRIPOS>ATOM
  1 O        0.1040    -0.0600    -0.2610 O.2   1 <1>  -0.5700 
  2 C       -0.9260     0.5040     0.0530 C.2   1 <1>   0.7160 
  3 N       -2.0480    -0.2450     0.2160 N.am  1 <1>  -0.7300 
  4 C       -0.9870     1.9240     0.2400 C.2   1 <1>  -0.0860 
  5 C       -2.1950    -1.6880     0.0060 C.3   1 <1>   0.2200 
  6 C       -2.1580     2.6940     0.2820 C.2   1 <1>   0.3720 
  7 C       -0.0020     2.8520     0.4020 C.2   1 <1>   0.0870 
  8 C       -2.9490    -1.9160    -1.3100 C.3   1 <1>  -0.1600 
  9 C       -2.9530    -2.2800     1.2000 C.3   1 <1>  -0.1600 
 10 N       -1.8930     3.9410     0.4440 N.2   1 <1>  -0.4100 
 11 N       -3.4650     2.2040     0.1420 N.pl3 1 <1>  -0.8210 
 12 O       -0.5930     4.0160     0.5110 O.3   1 <1>  -0.0190 
 13 C        1.4360     2.7870     0.4800 C.ar  1 <1>   0.0530 
 14 C       -3.2530    -3.4070    -1.5280 C.3   1 <1>  -0.1600 
 15 C       -3.2590    -3.7710     0.9850 C.3   1 <1>  -0.1600 
 16 C       -4.4760     2.8710     1.0230 C.3   1 <1>   0.2090 
 17 C       -3.9410     2.2330    -1.2750 C.3   1 <1>   0.2090 
 18 C        2.0990     1.7520     1.1390 C.ar  1 <1>  -0.1500 
 19 C        2.2220     3.7870    -0.0940 C.ar  1 <1>  -0.1500 
 20 C       -4.0120    -3.9870    -0.3310 C.3   1 <1>   0.2000 
 21 C       -5.8690     2.2470     0.8220 C.3   1 <1>   0.1200 
 22 C       -5.3570     1.6390    -1.3910 C.3   1 <1>   0.1200 
 23 C        3.4790     1.7100     1.2150 C.ar  1 <1>  -0.1500 
 24 C        3.6030     3.7540    -0.0210 C.ar  1 <1>  -0.1500 
 25 O       -4.1640    -5.3390    -0.5280 O.3   1 <1>  -0.6800 
 26 O       -6.2470     2.2890    -0.5270 O.3   1 <1>  -0.5600 
 27 C        4.2350     2.7120     0.6340 C.ar  1 <1>  -0.1500 
 28 H       -2.9090     0.2970     0.3720 H     1 <1>   0.3700 
 29 H       -1.2210    -2.1470    -0.0580 H     1 <1>   0.0800 
 30 H       -2.3510    -1.5520    -2.1280 H     1 <1>   0.0800 
 31 H       -3.8760    -1.3710    -1.2930 H     1 <1>   0.0800 
 32 H       -3.8800    -1.7500     1.3360 H     1 <1>   0.0800 
 33 H       -2.3610    -2.1630     2.0900 H     1 <1>   0.0800 
 34 H       -2.3250    -3.9350    -1.6620 H     1 <1>   0.0800 
 35 H       -3.8470    -3.5240    -2.4180 H     1 <1>   0.0800 
 36 H       -3.8570    -4.1340     1.8020 H     1 <1>   0.0800 
 37 H       -2.3320    -4.3170     0.9670 H     1 <1>   0.0800 
 38 H       -4.5270     3.9230     0.7960 H     1 <1>   0.0800 
 39 H       -4.1790     2.7660     2.0520 H     1 <1>   0.0800 
 40 H       -3.2650     1.6680    -1.8930 H     1 <1>   0.0800 
 41 H       -3.9510     3.2490    -1.6340 H     1 <1>   0.0800 
 42 H        1.5270     0.9660     1.5990 H     1 <1>   0.1500 
 43 H        1.7420     4.6020    -0.6060 H     1 <1>   0.1500 
 44 H       -4.9970    -3.5540    -0.2700 H     1 <1>   0.0800 
 45 H       -6.6040     2.7940     1.3850 H     1 <1>   0.0800 
 46 H       -5.8740     1.2220     1.1490 H     1 <1>   0.0800 
 47 H       -5.3480     0.5910    -1.1470 H     1 <1>   0.0800 
 48 H       -5.7280     1.7590    -2.3930 H     1 <1>   0.0800 
 49 H        3.9640     0.8960     1.7240 H     1 <1>   0.1500 
 50 H        4.1860     4.5370    -0.4730 H     1 <1>   0.1500 
 51 H       -3.2900    -5.7680    -0.5880 H     1 <1>   0.4000 
 52 H        5.3090     2.6820     0.6920 H     1 <1>   0.1500 
@<TRIPOS>BOND
  1   1   2  2   
  2   2   3  am  
  3   2   4  1   
  4   3   5  1   
  5   3  28  1   
  6   4   6  1   
  7   4   7  2   
  8   5   8  1   
  9   5   9  1   
 10   5  29  1   
 11   6  10  2   
 12   6  11  1   
 13   7  12  1   
 14   7  13  1   
 15   8  14  1   
 16   8  30  1   
 17   8  31  1   
 18   9  15  1   
 19   9  32  1   
 20   9  33  1   
 21  10  12  1   
 22  11  16  1   
 23  11  17  1   
 24  13  18  ar  
 25  13  19  ar  
 26  14  20  1   
 27  14  34  1   
 28  14  35  1   
 29  15  20  1   
 30  15  36  1   
 31  15  37  1   
 32  16  21  1   
 33  16  38  1   
 34  16  39  1   
 35  17  22  1   
 36  17  40  1   
 37  17  41  1   
 38  18  23  ar  
 39  18  42  1   
 40  19  24  ar  
 41  19  43  1   
 42  20  25  1   
 43  20  44  1   
 44  21  26  1   
 45  21  45  1   
 46  21  46  1   
 47  22  26  1   
 48  22  47  1   
 49  22  48  1   
 50  23  27  ar  
 51  23  49  1   
 52  24  27  ar  
 53  24  50  1   
 54  25  51  1   
 55  27  52  1   
@<TRIPOS>SUBSTRUCTURE
  1 ****   2 GROUP 4 **** **** 0

# MOE 2024.06 (io_trps.svl 2023.06)
