@<TRIPOS>MOLECULE
NONAME
43 45 1 0 0 
SMALL
USER_CHARGES


@<TRIPOS>ATOM
  1 O       -0.6480    -0.3690     0.0210 O.3   1 <1>  -0.2800 
  2 C       -0.6750     0.8170    -0.4970 C.2   1 <1>   0.2980 
  3 C       -0.9940    -1.1410    -0.9580 C.2   1 <1>   0.2980 
  4 N       -1.0120     0.7940    -1.7330 N.2   1 <1>  -0.3380 
  5 C       -0.3260     2.0220     0.3750 C.3   1 <1>   0.1000 
  6 N       -1.2200    -0.4880    -2.0350 N.2   1 <1>  -0.3380 
  7 C       -1.0980    -2.6500    -0.7590 C.3   1 <1>   0.2900 
  8 C       -0.6830     3.3560    -0.2990 C.3   1 <1>  -0.2400 
  9 C        1.1630     2.0080     0.7470 C.3   1 <1>  -0.2400 
 10 N       -2.1730    -3.0350     0.1860 N.3   1 <1>  -0.8100 
 11 C       -3.4990    -2.5780    -0.2450 C.3   1 <1>   0.1100 
 12 C       -2.2880    -4.4900     0.3540 C.3   1 <1>   0.1100 
 13 C       -4.4570    -3.4190     0.5890 C.3   1 <1>   0.2000 
 14 C       -3.7730    -4.7860     0.6410 C.3   1 <1>  -0.0800 
 15 O       -4.4560    -2.9000     1.8690 O.3   1 <1>  -0.6800 
 16 C       -4.3880    -5.7520    -0.3900 C.3   1 <1>  -0.0170 
 17 C       -3.7390    -7.1270    -0.3380 C.ar  1 <1>   0.1670 
 18 N       -2.7780    -7.3660    -1.2170 N.ar  1 <1>  -0.6200 
 19 C       -4.1680    -8.0580     0.6060 C.ar  1 <1>   0.1600 
 20 C       -2.2840    -8.5870    -1.0920 C.ar  1 <1>   0.1600 
 21 N       -3.6710    -9.2770     0.7350 N.ar  1 <1>  -0.6200 
 22 C       -2.7160    -9.5110    -0.1480 C.ar  1 <1>   0.1600 
 23 H       -0.9040     1.9400     1.2800 H     1 <1>   0.0800 
 24 H       -0.1550    -3.0060    -0.3830 H     1 <1>   0.0800 
 25 H       -1.2740    -3.1090    -1.7160 H     1 <1>   0.0800 
 26 H       -0.1200     3.4790    -1.2070 H     1 <1>   0.0800 
 27 H       -0.4700     4.1800     0.3580 H     1 <1>   0.0800 
 28 H       -1.7310     3.3750    -0.5430 H     1 <1>   0.0800 
 29 H        1.7690     2.0700    -0.1400 H     1 <1>   0.0800 
 30 H        1.4070     1.0960     1.2640 H     1 <1>   0.0800 
 31 H        1.3990     2.8380     1.3890 H     1 <1>   0.0800 
 32 H       -3.6360    -1.5230    -0.0720 H     1 <1>   0.0800 
 33 H       -3.6450    -2.7920    -1.2900 H     1 <1>   0.0800 
 34 H       -1.9670    -4.9930    -0.5430 H     1 <1>   0.0800 
 35 H       -1.6660    -4.8140     1.1720 H     1 <1>   0.0800 
 36 H       -5.4680    -3.4300     0.2190 H     1 <1>   0.0800 
 37 H       -3.8800    -5.2210     1.6190 H     1 <1>   0.0800 
 38 H       -3.5200    -2.6940     2.0810 H     1 <1>   0.4000 
 39 H       -4.2860    -5.3490    -1.3820 H     1 <1>   0.0800 
 40 H       -5.4390    -5.8590    -0.1920 H     1 <1>   0.0800 
 41 H       -4.9540    -7.7820     1.2860 H     1 <1>   0.1500 
 42 H       -1.4990    -8.8720    -1.7690 H     1 <1>   0.1500 
 43 H       -2.2510   -10.4810    -0.1230 H     1 <1>   0.1500 
@<TRIPOS>BOND
  1   1   2  1   
  2   1   3  1   
  3   2   4  2   
  4   2   5  1   
  5   3   6  2   
  6   3   7  1   
  7   4   6  1   
  8   5   8  1   
  9   5   9  1   
 10   5  23  1   
 11   7  10  1   
 12   7  24  1   
 13   7  25  1   
 14   8  26  1   
 15   8  27  1   
 16   8  28  1   
 17   9  29  1   
 18   9  30  1   
 19   9  31  1   
 20  10  11  1   
 21  10  12  1   
 22  11  13  1   
 23  11  32  1   
 24  11  33  1   
 25  12  14  1   
 26  12  34  1   
 27  12  35  1   
 28  13  14  1   
 29  13  15  1   
 30  13  36  1   
 31  14  16  1   
 32  14  37  1   
 33  15  38  1   
 34  16  17  1   
 35  16  39  1   
 36  16  40  1   
 37  17  18  ar  
 38  17  19  ar  
 39  18  20  ar  
 40  19  21  ar  
 41  19  41  1   
 42  20  22  ar  
 43  20  42  1   
 44  21  22  ar  
 45  22  43  1   
@<TRIPOS>SUBSTRUCTURE
  1 ****  10 GROUP 4 **** **** 0

# MOE 2024.06 (io_trps.svl 2023.06)
