@<TRIPOS>MOLECULE
NONAME
53 56 1 0 0 
SMALL
USER_CHARGES


@<TRIPOS>ATOM
  1 S       -0.4590     0.9070     1.6400 S.3   1 <1>  -0.0800 
  2 C       -1.3490     1.4200     0.2150 C.2   1 <1>  -0.1400 
  3 C       -1.7540    -0.1950     2.0920 C.2   1 <1>  -0.1100 
  4 C       -2.5290     0.7890     0.1420 C.2   1 <1>  -0.1810 
  5 C       -0.8080     2.4490    -0.7710 C.3   1 <1>   0.4600 
  6 C       -2.7660    -0.1390     1.2050 C.2   1 <1>  -0.1500 
  7 C       -3.4680     1.0960    -1.0030 C.3   1 <1>   0.0210 
  8 O       -1.6900     2.5200    -1.8760 O.3   1 <1>  -0.5600 
  9 C        0.5480     2.0080    -1.3360 C.3   1 <1>  -0.1600 
 10 C       -0.7000     3.8410    -0.1290 C.3   1 <1>  -0.1600 
 11 C       -3.0750     2.4500    -1.6260 C.3   1 <1>   0.1200 
 12 C        1.1390     3.0550    -2.2830 C.3   1 <1>   0.1400 
 13 C       -0.1060     4.8560    -1.1060 C.3   1 <1>   0.1400 
 14 N        1.2180     4.3580    -1.5670 N.am  1 <1>  -0.6600 
 15 C        2.4260     4.9930    -1.3220 C.2   1 <1>   0.5440 
 16 O        3.3890     4.6610    -1.9950 O.2   1 <1>  -0.5700 
 17 C        2.6020     6.0490    -0.3210 C.ar  1 <1>   0.3960 
 18 N        2.0030     5.9850     0.8670 N.ar  1 <1>  -0.6200 
 19 C        3.4220     7.1250    -0.6150 C.ar  1 <1>  -0.1500 
 20 C        2.2300     6.9930     1.6780 C.ar  1 <1>   0.7200 
 21 C        3.5900     8.1110     0.3250 C.ar  1 <1>   0.1670 
 22 N        2.9880     8.0530     1.4860 N.ar  1 <1>  -0.6200 
 23 N        1.6290     6.9250     2.8660 N.pl3 1 <1>  -0.9000 
 24 C        4.4840     9.3110     0.0480 C.3   1 <1>  -0.0170 
 25 C        5.8310     9.2350     0.7910 C.3   1 <1>  -0.0800 
 26 C        6.6380    10.5190     0.5640 C.3   1 <1>  -0.2400 
 27 C        6.6600     8.0190     0.3510 C.3   1 <1>  -0.2400 
 28 H       -1.6170    -0.7760     2.9870 H     1 <1>   0.1500 
 29 H       -3.6730    -0.7140     1.2520 H     1 <1>   0.1500 
 30 H       -4.4810     1.1480    -0.6480 H     1 <1>   0.0800 
 31 H       -3.4040     0.3200    -1.7440 H     1 <1>   0.0800 
 32 H        0.4300     1.0710    -1.8490 H     1 <1>   0.0800 
 33 H        1.2420     1.8530    -0.5300 H     1 <1>   0.0800 
 34 H       -0.0600     3.7850     0.7330 H     1 <1>   0.0800 
 35 H       -1.6620     4.1710     0.2120 H     1 <1>   0.0800 
 36 H       -3.3440     3.2560    -0.9670 H     1 <1>   0.0800 
 37 H       -3.5840     2.5880    -2.5640 H     1 <1>   0.0800 
 38 H        0.5140     3.1650    -3.1530 H     1 <1>   0.0800 
 39 H        2.1140     2.7350    -2.6090 H     1 <1>   0.0800 
 40 H       -0.0220     5.8190    -0.6370 H     1 <1>   0.0800 
 41 H       -0.7550     4.9630    -1.9590 H     1 <1>   0.0800 
 42 H        3.9180     7.1720    -1.5660 H     1 <1>   0.1500 
 43 H        2.0240     7.5330     3.5780 H     1 <1>   0.4000 
 44 H        1.3550     5.9940     3.1650 H     1 <1>   0.4000 
 45 H        3.9570    10.1970     0.3570 H     1 <1>   0.0800 
 46 H        4.6610     9.3960    -1.0090 H     1 <1>   0.0800 
 47 H        5.6300     9.1450     1.8470 H     1 <1>   0.0800 
 48 H        6.8660    10.6460    -0.4800 H     1 <1>   0.0800 
 49 H        7.5620    10.4810     1.1140 H     1 <1>   0.0800 
 50 H        6.0820    11.3750     0.9030 H     1 <1>   0.0800 
 51 H        6.8520     8.0500    -0.7070 H     1 <1>   0.0800 
 52 H        6.1440     7.1040     0.5820 H     1 <1>   0.0800 
 53 H        7.6030     8.0050     0.8690 H     1 <1>   0.0800 
@<TRIPOS>BOND
  1   1   2  1   
  2   1   3  1   
  3   2   4  2   
  4   2   5  1   
  5   3   6  2   
  6   3  28  1   
  7   4   6  1   
  8   4   7  1   
  9   5   8  1   
 10   5   9  1   
 11   5  10  1   
 12   6  29  1   
 13   7  11  1   
 14   7  30  1   
 15   7  31  1   
 16   8  11  1   
 17   9  12  1   
 18   9  32  1   
 19   9  33  1   
 20  10  13  1   
 21  10  34  1   
 22  10  35  1   
 23  11  36  1   
 24  11  37  1   
 25  12  14  1   
 26  12  38  1   
 27  12  39  1   
 28  13  14  1   
 29  13  40  1   
 30  13  41  1   
 31  14  15  am  
 32  15  16  2   
 33  15  17  1   
 34  17  18  ar  
 35  17  19  ar  
 36  18  20  ar  
 37  19  21  ar  
 38  19  42  1   
 39  20  22  ar  
 40  20  23  1   
 41  21  22  ar  
 42  21  24  1   
 43  23  43  1   
 44  23  44  1   
 45  24  25  1   
 46  24  45  1   
 47  24  46  1   
 48  25  26  1   
 49  25  27  1   
 50  25  47  1   
 51  26  48  1   
 52  26  49  1   
 53  26  50  1   
 54  27  51  1   
 55  27  52  1   
 56  27  53  1   
@<TRIPOS>SUBSTRUCTURE
  1 ****  14 GROUP 4 **** **** 0

# MOE 2024.06 (io_trps.svl 2023.06)
