@<TRIPOS>MOLECULE
NONAME
45 48 1 0 0 
SMALL
USER_CHARGES


@<TRIPOS>ATOM
  1 S       -0.6240     0.8190    -0.0880 S.3   1 <1>  -0.0800 
  2 C        0.0350     2.4410    -0.2350 C.ar  1 <1>   0.2970 
  3 C        0.9560     0.1560     0.3170 C.2   1 <1>  -0.1400 
  4 N       -0.7220     3.4770    -0.5250 N.ar  1 <1>  -0.5670 
  5 C        1.3910     2.4470    -0.0040 C.ar  1 <1>   0.0000 
  6 C        1.8950     1.1240     0.3280 C.2   1 <1>  -0.1810 
  7 C        0.9710    -1.3400     0.5770 C.3   1 <1>  -0.0600 
  8 C       -0.0420     4.5990    -0.5770 C.ar  1 <1>   0.4700 
  9 C        1.9780     3.7160    -0.1250 C.ar  1 <1>   0.4100 
 10 C        3.3570     0.8820     0.6700 C.3   1 <1>  -0.0590 
 11 N        1.2590     4.7930    -0.3920 N.ar  1 <1>  -0.6200 
 12 N        3.3280     3.9480     0.0080 N.pl3 1 <1>  -0.8380 
 13 C        3.8540     4.6490     1.2220 C.3   1 <1>   0.2090 
 14 C        4.2630     3.6040    -1.0980 C.3   1 <1>   0.2090 
 15 C        4.6700     5.9560     0.9830 C.3   1 <1>   0.4230 
 16 C        4.9090     4.8570    -1.7200 C.3   1 <1>  -0.0800 
 17 N        4.2410     6.8210    -0.1890 N.4   1 <1>  -0.9590 
 18 C        6.1920     5.6930     0.9510 C.3   1 <1>   0.1200 
 19 C        6.3850     5.0330    -1.3270 C.3   1 <1>   0.1200 
 20 C        4.0500     6.1100    -1.5020 C.3   1 <1>   0.3430 
 21 C        2.9720     7.5340     0.1440 C.3   1 <1>   0.2630 
 22 O        6.5770     4.7330     0.0180 O.3   1 <1>  -0.5600 
 23 H        1.9630    -1.6940     0.7790 H     1 <1>   0.0800 
 24 H        0.5930    -1.8610    -0.2840 H     1 <1>   0.0800 
 25 H        0.3440    -1.5680     1.4200 H     1 <1>   0.0800 
 26 H       -0.6220     5.4790    -0.8020 H     1 <1>   0.1500 
 27 H        3.6940     1.6040     1.3890 H     1 <1>   0.0800 
 28 H        3.9570     0.9530    -0.2170 H     1 <1>   0.0800 
 29 H        3.5010    -0.0930     1.0930 H     1 <1>   0.0800 
 30 H        3.0170     4.8960     1.8530 H     1 <1>   0.0800 
 31 H        4.4600     3.9560     1.7800 H     1 <1>   0.0800 
 32 H        5.0200     2.9280    -0.7370 H     1 <1>   0.0800 
 33 H        3.7070     3.0830    -1.8610 H     1 <1>   0.0800 
 34 H        4.5240     6.5470     1.8710 H     1 <1>   0.0800 
 35 H        4.9110     4.6880    -2.7810 H     1 <1>   0.0800 
 36 H        4.9790     7.5200    -0.3310 H     1 <1>   0.4500 
 37 H        6.5000     5.3180     1.9120 H     1 <1>   0.0800 
 38 H        6.7410     6.5990     0.7640 H     1 <1>   0.0800 
 39 H        6.7530     6.0230    -1.5350 H     1 <1>   0.0800 
 40 H        6.9840     4.3290    -1.8810 H     1 <1>   0.0800 
 41 H        3.0190     5.8140    -1.5980 H     1 <1>   0.0800 
 42 H        4.2500     6.8050    -2.3000 H     1 <1>   0.0800 
 43 H        2.1870     6.8230     0.3400 H     1 <1>   0.0800 
 44 H        2.6660     8.1620    -0.6770 H     1 <1>   0.0800 
 45 H        3.1030     8.1500     1.0190 H     1 <1>   0.0800 
@<TRIPOS>BOND
  1   1   2  1   
  2   1   3  1   
  3   2   4  ar  
  4   2   5  ar  
  5   3   6  2   
  6   3   7  1   
  7   4   8  ar  
  8   5   6  1   
  9   5   9  ar  
 10   6  10  1   
 11   7  23  1   
 12   7  24  1   
 13   7  25  1   
 14   8  11  ar  
 15   8  26  1   
 16   9  11  ar  
 17   9  12  1   
 18  10  27  1   
 19  10  28  1   
 20  10  29  1   
 21  12  13  1   
 22  12  14  1   
 23  13  15  1   
 24  13  30  1   
 25  13  31  1   
 26  14  16  1   
 27  14  32  1   
 28  14  33  1   
 29  15  17  1   
 30  15  18  1   
 31  15  34  1   
 32  16  19  1   
 33  16  20  1   
 34  16  35  1   
 35  17  20  1   
 36  17  21  1   
 37  17  36  1   
 38  18  22  1   
 39  18  37  1   
 40  18  38  1   
 41  19  22  1   
 42  19  39  1   
 43  19  40  1   
 44  20  41  1   
 45  20  42  1   
 46  21  43  1   
 47  21  44  1   
 48  21  45  1   
@<TRIPOS>SUBSTRUCTURE
  1 ****  12 GROUP 4 **** **** 0

# MOE 2024.06 (io_trps.svl 2023.06)
