@<TRIPOS>MOLECULE
NONAME
43 45 1 0 0 
SMALL
USER_CHARGES


@<TRIPOS>ATOM
  1 S       -0.0720     0.3140    -1.0320 S.3   1 <1>  -0.0800 
  2 C       -1.5260    -0.0120    -0.0820 C.2   1 <1>  -0.0450 
  3 C        0.5290     1.4760     0.1320 C.2   1 <1>  -0.1400 
  4 C       -2.4860    -0.9710    -0.5780 C.2   1 <1>   0.7150 
  5 C       -1.4870     0.7600     1.0350 C.2   1 <1>  -0.1500 
  6 C       -0.3360     1.5910     1.1570 C.2   1 <1>  -0.1500 
  7 C        1.8600     2.1310    -0.1920 C.3   1 <1>   0.0200 
  8 O       -2.5200    -1.2610    -1.7610 O.2   1 <1>  -0.5700 
  9 N       -3.3850    -1.5790     0.2780 N.am  1 <1>  -0.6600 
 10 C        2.2960     3.1260     0.8870 C.3   1 <1>  -0.2400 
 11 C       -4.6670    -2.1240    -0.2650 C.3   1 <1>   0.2200 
 12 C       -2.9070    -2.1090     1.5900 C.3   1 <1>   0.0600 
 13 C       -5.6450    -2.6190     0.8040 C.3   1 <1>  -0.1600 
 14 C       -5.4750    -1.0440    -0.9850 C.3   1 <1>  -0.1600 
 15 C       -7.0150    -2.6220     0.1160 C.3   1 <1>  -0.0800 
 16 C       -6.9180    -1.5620    -1.0060 C.3   1 <1>  -0.0800 
 17 C       -8.1840    -2.4480     1.1060 C.3   1 <1>   0.1400 
 18 C       -7.9650    -0.4340    -0.9090 C.3   1 <1>  -0.0990 
 19 N       -9.3780    -1.9540     0.3910 N.am  1 <1>  -0.7300 
 20 C       -9.3250    -0.9990    -0.5610 C.2   1 <1>   0.5690 
 21 O      -10.3200    -0.6000    -1.1100 O.2   1 <1>  -0.5700 
 22 H       -2.2530     0.7750     1.7900 H     1 <1>   0.1500 
 23 H       -0.2120     2.2370     2.0080 H     1 <1>   0.1500 
 24 H        2.6090     1.3650    -0.2950 H     1 <1>   0.0800 
 25 H        1.7760     2.6410    -1.1360 H     1 <1>   0.0800 
 26 H        2.4040     2.6250     1.8320 H     1 <1>   0.0800 
 27 H        1.5650     3.9090     0.9860 H     1 <1>   0.0800 
 28 H        3.2400     3.5670     0.6200 H     1 <1>   0.0800 
 29 H       -4.4520    -2.9260    -0.9530 H     1 <1>   0.0800 
 30 H       -3.4420    -1.6350     2.3950 H     1 <1>   0.0800 
 31 H       -1.8550    -1.9220     1.7180 H     1 <1>   0.0800 
 32 H       -3.0610    -3.1730     1.6350 H     1 <1>   0.0800 
 33 H       -5.3850    -3.6000     1.1600 H     1 <1>   0.0800 
 34 H       -5.6600    -1.9200     1.6210 H     1 <1>   0.0800 
 35 H       -5.4150    -0.1280    -0.4240 H     1 <1>   0.0800 
 36 H       -5.1110    -0.8760    -1.9840 H     1 <1>   0.0800 
 37 H       -7.1390    -3.5800    -0.3620 H     1 <1>   0.0800 
 38 H       -7.0790    -2.0740    -1.9410 H     1 <1>   0.0800 
 39 H       -7.9270    -1.7290     1.8660 H     1 <1>   0.0800 
 40 H       -8.4060    -3.3870     1.5850 H     1 <1>   0.0800 
 41 H       -8.0230     0.0980    -1.8410 H     1 <1>   0.0800 
 42 H       -7.6980     0.2640    -0.1380 H     1 <1>   0.0800 
 43 H      -10.3000    -2.3110     0.6520 H     1 <1>   0.3700 
@<TRIPOS>BOND
  1   1   2  1   
  2   1   3  1   
  3   2   4  1   
  4   2   5  2   
  5   3   6  2   
  6   3   7  1   
  7   4   8  2   
  8   4   9  am  
  9   5   6  1   
 10   5  22  1   
 11   6  23  1   
 12   7  10  1   
 13   7  24  1   
 14   7  25  1   
 15   9  11  1   
 16   9  12  1   
 17  10  26  1   
 18  10  27  1   
 19  10  28  1   
 20  11  13  1   
 21  11  14  1   
 22  11  29  1   
 23  12  30  1   
 24  12  31  1   
 25  12  32  1   
 26  13  15  1   
 27  13  33  1   
 28  13  34  1   
 29  14  16  1   
 30  14  35  1   
 31  14  36  1   
 32  15  16  1   
 33  15  17  1   
 34  15  37  1   
 35  16  18  1   
 36  16  38  1   
 37  17  19  1   
 38  17  39  1   
 39  17  40  1   
 40  18  20  1   
 41  18  41  1   
 42  18  42  1   
 43  19  20  am  
 44  19  43  1   
 45  20  21  2   
@<TRIPOS>SUBSTRUCTURE
  1 ****   9 GROUP 4 **** **** 0

# MOE 2024.06 (io_trps.svl 2023.06)
