@<TRIPOS>MOLECULE
NONAME
58 61 1 0 0 
SMALL
USER_CHARGES


@<TRIPOS>ATOM
  1 O       -3.2710     1.2540    -2.1530 O.2   1 <1>  -0.5700 
  2 C       -2.7430     1.3140    -1.0710 C.2   1 <1>   0.5690 
  3 N       -2.2380     0.2180    -0.4590 N.am  1 <1>  -0.7300 
  4 C       -2.6510     2.6490    -0.3600 C.3   1 <1>  -0.0990 
  5 C       -2.1760    -1.1380    -1.0510 C.3   1 <1>   0.2200 
  6 C       -1.2020     3.1540    -0.2720 C.3   1 <1>  -0.1600 
  7 C       -3.2310    -2.0600    -0.4510 C.3   1 <1>  -0.0800 
  8 C       -0.9060    -1.8190    -0.5620 C.3   1 <1>   0.1200 
  9 C       -1.1150     4.5220     0.4130 C.3   1 <1>  -0.0170 
 10 C       -2.5690    -2.5110     0.8590 C.3   1 <1>   0.1200 
 11 C       -4.6300    -1.4300    -0.2850 C.3   1 <1>  -0.0170 
 12 O       -1.2010    -2.2420     0.7350 O.3   1 <1>  -0.5600 
 13 C        0.3360     4.9630     0.5120 C.ar  1 <1>  -0.1440 
 14 C       -5.7490    -2.3570     0.2070 C.ar  1 <1>  -0.1440 
 15 C        0.9280     5.6580    -0.5310 C.ar  1 <1>  -0.1500 
 16 C        1.0820     4.6650     1.6410 C.ar  1 <1>  -0.1500 
 17 C       -7.0120    -1.8080     0.5420 C.ar  1 <1>   0.0000 
 18 C       -5.6090    -3.7100     0.3400 C.ar  1 <1>  -0.1500 
 19 C        2.2520     6.0540    -0.4490 C.ar  1 <1>  -0.1500 
 20 C        2.4060     5.0590     1.7250 C.ar  1 <1>  -0.1500 
 21 C       -8.0150    -2.6870     1.0210 C.ar  1 <1>   0.3100 
 22 C       -7.3420    -0.4360     0.4230 C.ar  1 <1>  -0.1500 
 23 C       -6.6700    -4.4920     0.8140 C.ar  1 <1>   0.1600 
 24 C        3.0010     5.7530     0.6850 C.ar  1 <1>   0.0820 
 25 N       -7.8280    -4.0230     1.1520 N.ar  1 <1>  -0.6200 
 26 C       -9.2690    -2.1630     1.3750 C.ar  1 <1>  -0.1500 
 27 C       -8.5760     0.0410     0.7730 C.ar  1 <1>  -0.1500 
 28 O        4.3020     6.1000     0.8470 O.3   1 <1>  -0.3620 
 29 C       -9.5530    -0.8300     1.2590 C.ar  1 <1>  -0.1500 
 30 C        4.9960     6.8190    -0.1480 C.3   1 <1>   0.0400 
 31 H       -1.8090     0.2850     0.4670 H     1 <1>   0.3700 
 32 H       -3.2490     3.3620    -0.9000 H     1 <1>   0.0800 
 33 H       -3.0680     2.5440     0.6240 H     1 <1>   0.0800 
 34 H       -2.2280    -1.0870    -2.1270 H     1 <1>   0.0800 
 35 H       -0.6030     2.4480     0.2760 H     1 <1>   0.0800 
 36 H       -0.7920     3.2300    -1.2650 H     1 <1>   0.0800 
 37 H       -3.3120    -2.9120    -1.1010 H     1 <1>   0.0800 
 38 H       -0.0560    -1.1600    -0.5470 H     1 <1>   0.0800 
 39 H       -0.6850    -2.6910    -1.1530 H     1 <1>   0.0800 
 40 H       -1.5420     4.4680     1.3990 H     1 <1>   0.0800 
 41 H       -1.6750     5.2510    -0.1480 H     1 <1>   0.0800 
 42 H       -2.6980    -3.5630     1.0390 H     1 <1>   0.0800 
 43 H       -2.9360    -1.9510     1.7010 H     1 <1>   0.0800 
 44 H       -4.9290    -1.0170    -1.2330 H     1 <1>   0.0800 
 45 H       -4.5500    -0.6150     0.4120 H     1 <1>   0.0800 
 46 H        0.3590     5.8930    -1.4130 H     1 <1>   0.1500 
 47 H        0.6400     4.1250     2.4590 H     1 <1>   0.1500 
 48 H       -4.7050    -4.2300     0.0940 H     1 <1>   0.1500 
 49 H        2.6800     6.5910    -1.2740 H     1 <1>   0.1500 
 50 H        2.9880     4.8290     2.5990 H     1 <1>   0.1500 
 51 H       -6.6130     0.2550     0.0430 H     1 <1>   0.1500 
 52 H       -6.5110    -5.5520     0.9050 H     1 <1>   0.1500 
 53 H      -10.0050    -2.8540     1.7420 H     1 <1>   0.1500 
 54 H       -8.8100     1.0880     0.6780 H     1 <1>   0.1500 
 55 H      -10.5190    -0.4430     1.5340 H     1 <1>   0.1500 
 56 H        6.0000     6.9840     0.2000 H     1 <1>   0.0800 
 57 H        4.5040     7.7620    -0.3040 H     1 <1>   0.0800 
 58 H        5.0130     6.2360    -1.0510 H     1 <1>   0.0800 
@<TRIPOS>BOND
  1   1   2  2   
  2   2   3  am  
  3   2   4  1   
  4   3   5  1   
  5   3  31  1   
  6   4   6  1   
  7   4  32  1   
  8   4  33  1   
  9   5   7  1   
 10   5   8  1   
 11   5  34  1   
 12   6   9  1   
 13   6  35  1   
 14   6  36  1   
 15   7  10  1   
 16   7  11  1   
 17   7  37  1   
 18   8  12  1   
 19   8  38  1   
 20   8  39  1   
 21   9  13  1   
 22   9  40  1   
 23   9  41  1   
 24  10  12  1   
 25  10  42  1   
 26  10  43  1   
 27  11  14  1   
 28  11  44  1   
 29  11  45  1   
 30  13  15  ar  
 31  13  16  ar  
 32  14  17  ar  
 33  14  18  ar  
 34  15  19  ar  
 35  15  46  1   
 36  16  20  ar  
 37  16  47  1   
 38  17  21  ar  
 39  17  22  ar  
 40  18  23  ar  
 41  18  48  1   
 42  19  24  ar  
 43  19  49  1   
 44  20  24  ar  
 45  20  50  1   
 46  21  25  ar  
 47  21  26  ar  
 48  22  27  ar  
 49  22  51  1   
 50  23  25  ar  
 51  23  52  1   
 52  24  28  1   
 53  26  29  ar  
 54  26  53  1   
 55  27  29  ar  
 56  27  54  1   
 57  28  30  1   
 58  29  55  1   
 59  30  56  1   
 60  30  57  1   
 61  30  58  1   
@<TRIPOS>SUBSTRUCTURE
  1 ****   3 GROUP 4 **** **** 0

# MOE 2024.06 (io_trps.svl 2023.06)
