@<TRIPOS>MOLECULE
NONAME
51 53 1 0 0 
SMALL
USER_CHARGES


@<TRIPOS>ATOM
  1 O        0.7280     1.3110    -2.0260 O.2   1 <1>  -0.5700 
  2 C        0.3520     2.4490    -1.8680 C.2   1 <1>   0.5690 
  3 N       -0.4680     2.8180    -0.8370 N.am  1 <1>  -0.6600 
  4 C        0.8010     3.5060    -2.8730 C.3   1 <1>   0.1810 
  5 C       -0.9660     4.2290    -0.6930 C.3   1 <1>   0.3640 
  6 C       -0.9210     1.8520     0.2050 C.3   1 <1>   0.0600 
  7 O        0.8260     4.7910    -2.3060 O.3   1 <1>  -0.5600 
  8 C       -2.5010     4.2070    -0.7000 C.ar  1 <1>  -0.1430 
  9 C       -0.4240     5.2100    -1.7720 C.3   1 <1>   0.2610 
 10 C       -3.2690     4.7200     0.3460 C.ar  1 <1>  -0.1430 
 11 C       -3.1490     3.6430    -1.7940 C.ar  1 <1>  -0.1500 
 12 C       -0.2850     6.6070    -1.1610 C.2   1 <1>   0.5690 
 13 C       -4.6530     4.6680     0.2690 C.ar  1 <1>  -0.1500 
 14 C       -2.6490     5.3460     1.5890 C.3   1 <1>  -0.0960 
 15 C       -4.5280     3.5940    -1.8620 C.ar  1 <1>  -0.1500 
 16 O       -1.2710     7.2640    -0.9290 O.2   1 <1>  -0.5700 
 17 N        0.9610     7.0690    -0.8720 N.am  1 <1>  -0.7300 
 18 C       -5.2830     4.1100    -0.8270 C.ar  1 <1>  -0.1500 
 19 C        1.2970     8.3530    -0.2090 C.3   1 <1>   0.1400 
 20 C        1.9270     8.1710     1.1940 C.3   1 <1>   0.0000 
 21 C        3.0840     7.1300     1.2870 C.3   1 <1>   0.0000 
 22 C        1.1040     7.2760     2.1680 C.3   1 <1>   0.0000 
 23 C        2.2830     9.5260     1.8270 C.3   1 <1>   0.1200 
 24 C        2.0770     6.1040     1.8710 C.3   1 <1>   0.0000 
 25 O        3.2460    10.1670     1.0620 O.3   1 <1>  -0.6800 
 26 H        0.1390     3.5120    -3.7190 H     1 <1>   0.0800 
 27 H        1.7960     3.2770    -3.2090 H     1 <1>   0.0800 
 28 H       -0.6120     4.5830     0.2570 H     1 <1>   0.0800 
 29 H       -0.7250     2.2510     1.1850 H     1 <1>   0.0800 
 30 H       -0.4020     0.9140     0.1060 H     1 <1>   0.0800 
 31 H       -1.9770     1.6710     0.1030 H     1 <1>   0.0800 
 32 H       -1.1190     5.2770    -2.5890 H     1 <1>   0.0800 
 33 H       -2.5790     3.2260    -2.6060 H     1 <1>   0.1500 
 34 H       -5.2560     5.0660     1.0660 H     1 <1>   0.1500 
 35 H       -3.4060     5.6140     2.3040 H     1 <1>   0.0800 
 36 H       -2.1160     6.2400     1.3250 H     1 <1>   0.0800 
 37 H       -1.9760     4.6550     2.0630 H     1 <1>   0.0800 
 38 H       -5.0130     3.1550    -2.7160 H     1 <1>   0.1500 
 39 H        1.7490     6.4830    -1.1670 H     1 <1>   0.3700 
 40 H       -6.3570     4.0780    -0.8740 H     1 <1>   0.1500 
 41 H        1.9800     8.8930    -0.8410 H     1 <1>   0.0800 
 42 H        0.4050     8.9490    -0.1160 H     1 <1>   0.0800 
 43 H        3.4960     6.8370     0.3380 H     1 <1>   0.0000 
 44 H        3.8380     7.4010     2.0060 H     1 <1>   0.0000 
 45 H        1.1680     7.5950     3.1940 H     1 <1>   0.0000 
 46 H        0.0950     7.0870     1.8520 H     1 <1>   0.0000 
 47 H        2.6730     9.4060     2.8230 H     1 <1>   0.0800 
 48 H        1.4150    10.1630     1.8670 H     1 <1>   0.0800 
 49 H        2.4350     5.6120     2.7580 H     1 <1>   0.0000 
 50 H        1.6980     5.4200     1.1330 H     1 <1>   0.0000 
 51 H        4.0900     9.6750     1.0870 H     1 <1>   0.4000 
@<TRIPOS>BOND
  1   1   2  2   
  2   2   3  am  
  3   2   4  1   
  4   3   5  1   
  5   3   6  1   
  6   4   7  1   
  7   4  26  1   
  8   4  27  1   
  9   5   8  1   
 10   5   9  1   
 11   5  28  1   
 12   6  29  1   
 13   6  30  1   
 14   6  31  1   
 15   7   9  1   
 16   8  10  ar  
 17   8  11  ar  
 18   9  12  1   
 19   9  32  1   
 20  10  13  ar  
 21  10  14  1   
 22  11  15  ar  
 23  11  33  1   
 24  12  16  2   
 25  12  17  am  
 26  13  18  ar  
 27  13  34  1   
 28  14  35  1   
 29  14  36  1   
 30  14  37  1   
 31  15  18  ar  
 32  15  38  1   
 33  17  19  1   
 34  17  39  1   
 35  18  40  1   
 36  19  20  1   
 37  19  41  1   
 38  19  42  1   
 39  20  21  1   
 40  20  22  1   
 41  20  23  1   
 42  21  24  1   
 43  21  43  1   
 44  21  44  1   
 45  22  24  1   
 46  22  45  1   
 47  22  46  1   
 48  23  25  1   
 49  23  47  1   
 50  23  48  1   
 51  24  49  1   
 52  24  50  1   
 53  25  51  1   
@<TRIPOS>SUBSTRUCTURE
  1 ****   5 GROUP 4 **** **** 0

# MOE 2024.06 (io_trps.svl 2023.06)
