@<TRIPOS>MOLECULE
NONAME
38 39 1 0 0 
SMALL
USER_CHARGES


@<TRIPOS>ATOM
  1 S        0.3390     1.9780     0.8570 S.3   1 <1>  -0.4600 
  2 C        1.5430     0.9340    -0.0330 C.3   1 <1>   0.2510 
  3 C       -0.8420     0.7820     1.5350 C.3   1 <1>  -0.0100 
  4 C        2.6290     1.7930    -0.6640 C.2   1 <1>   0.3350 
  5 N        2.6970     2.0840    -1.9030 N.2   1 <1>  -0.4100 
  6 N        3.6250     2.3030     0.0510 N.2   1 <1>  -0.5650 
  7 O        3.7460     2.8300    -2.0650 O.3   1 <1>  -0.0190 
  8 C        4.2560     2.9280    -0.8630 C.2   1 <1>   0.2980 
  9 C        5.5170     3.7610    -0.6750 C.3   1 <1>   0.3890 
 10 N        5.2370     5.2220    -0.7750 N.pl3 1 <1>  -0.8690 
 11 C        6.2230     6.1530    -0.5810 C.ar  1 <1>   0.4100 
 12 N        7.4730     5.7310    -0.5720 N.ar  1 <1>  -0.6200 
 13 C        5.9150     7.4780    -0.4010 C.ar  1 <1>  -0.1500 
 14 C        8.3790     6.6710    -0.3770 C.ar  1 <1>   0.4700 
 15 C        6.9430     8.3690    -0.2070 C.ar  1 <1>   0.4100 
 16 N        8.2000     7.9630    -0.1900 N.ar  1 <1>  -0.6200 
 17 N        6.6900     9.7170    -0.0370 N.pl3 1 <1>  -0.8380 
 18 C        7.5860    10.5320     0.8250 C.3   1 <1>   0.2090 
 19 C        6.0170    10.4520    -1.1430 C.3   1 <1>   0.1290 
 20 C        6.7460    11.4520     1.7060 C.3   1 <1>  -0.2400 
 21 H        1.0010     0.3960    -0.7880 H     1 <1>   0.0800 
 22 H        1.9680     0.2520     0.6790 H     1 <1>   0.0800 
 23 H       -1.5880     1.3340     2.0780 H     1 <1>   0.0800 
 24 H       -0.3070     0.1180     2.1910 H     1 <1>   0.0800 
 25 H       -1.2850     0.2470     0.7140 H     1 <1>   0.0800 
 26 H        6.2400     3.4830    -1.4220 H     1 <1>   0.0800 
 27 H        5.9350     3.5500     0.2940 H     1 <1>   0.0800 
 28 H        4.2980     5.4720    -0.4590 H     1 <1>   0.4000 
 29 H        4.9010     7.8180    -0.4060 H     1 <1>   0.1500 
 30 H        9.4030     6.3380    -0.3690 H     1 <1>   0.1500 
 31 H        8.2610    11.1050     0.2120 H     1 <1>   0.0800 
 32 H        8.1730     9.8870     1.4570 H     1 <1>   0.0800 
 33 H        5.7190     9.7710    -1.9220 H     1 <1>   0.0800 
 34 H        6.6890    11.1790    -1.5650 H     1 <1>   0.0800 
 35 H        5.1430    10.9530    -0.7660 H     1 <1>   0.0800 
 36 H        6.2060    12.1620     1.1080 H     1 <1>   0.0800 
 37 H        7.3890    11.9910     2.3770 H     1 <1>   0.0800 
 38 H        6.0550    10.8680     2.2870 H     1 <1>   0.0800 
@<TRIPOS>BOND
  1   1   2  1   
  2   1   3  1   
  3   2   4  1   
  4   2  21  1   
  5   2  22  1   
  6   3  23  1   
  7   3  24  1   
  8   3  25  1   
  9   4   5  2   
 10   4   6  1   
 11   5   7  1   
 12   6   8  2   
 13   7   8  1   
 14   8   9  1   
 15   9  10  1   
 16   9  26  1   
 17   9  27  1   
 18  10  11  1   
 19  10  28  1   
 20  11  12  ar  
 21  11  13  ar  
 22  12  14  ar  
 23  13  15  ar  
 24  13  29  1   
 25  14  16  ar  
 26  14  30  1   
 27  15  16  ar  
 28  15  17  1   
 29  17  18  1   
 30  17  19  1   
 31  18  20  1   
 32  18  31  1   
 33  18  32  1   
 34  19  33  1   
 35  19  34  1   
 36  19  35  1   
 37  20  36  1   
 38  20  37  1   
 39  20  38  1   
@<TRIPOS>SUBSTRUCTURE
  1 ****  10 GROUP 4 **** **** 0

# MOE 2024.06 (io_trps.svl 2023.06)
