@<TRIPOS>MOLECULE
NONAME
46 49 1 0 0 
SMALL
USER_CHARGES


@<TRIPOS>ATOM
  1 O       -1.7960     0.9910     2.6750 O.2   1 <1>  -0.5700 
  2 C       -2.3910     1.5150     1.7630 C.2   1 <1>   0.5690 
  3 N       -2.8860     0.7750     0.7230 N.am  1 <1>  -0.6600 
  4 C       -2.5970     3.0120     1.8340 C.3   1 <1>   0.1570 
  5 C       -3.6150     1.2830    -0.4710 C.3   1 <1>   0.1400 
  6 C       -2.6650    -0.6890     0.5970 C.3   1 <1>   0.1400 
  7 N       -1.8850     3.6790     0.7380 N.pl3 1 <1>   0.3140 
  8 C       -4.2930     0.0430    -1.0490 C.3   1 <1>   0.2000 
  9 C       -3.2950    -1.0790    -0.7460 C.3   1 <1>  -0.0800 
 10 N       -2.5480     4.3780    -0.2150 N.2   1 <1>  -0.7070 
 11 C       -0.5310     3.7390     0.5590 C.ar  1 <1>  -0.1520 
 12 O       -5.4650    -0.1730    -0.3380 O.3   1 <1>  -0.6800 
 13 C       -3.8730    -2.5060    -0.7700 C.3   1 <1>   0.0210 
 14 C       -1.6250     4.8710    -0.9720 C.2   1 <1>   0.1390 
 15 C       -0.3300     4.5200    -0.5580 C.ar  1 <1>   0.0000 
 16 C        0.5500     3.1880     1.2580 C.ar  1 <1>  -0.1500 
 17 C       -2.8030    -3.5270    -0.4420 C.2   1 <1>   0.1080 
 18 C        0.9740     4.7790    -1.0050 C.ar  1 <1>  -0.1500 
 19 C        1.8250     3.4450     0.8140 C.ar  1 <1>  -0.1500 
 20 N       -1.7860    -3.7550    -1.2150 N.2   1 <1>  -0.7070 
 21 C       -2.7780    -4.3140     0.7050 C.2   1 <1>  -0.1500 
 22 C        2.0380     4.2440    -0.3190 C.ar  1 <1>  -0.1500 
 23 N       -1.0790    -4.7050    -0.5750 N.pl3 1 <1>   0.3000 
 24 C       -1.6580    -5.0580     0.5920 C.2   1 <1>  -0.3320 
 25 C       -1.0970    -6.1010     1.5410 C.3   1 <1>  -0.0600 
 26 H       -2.2190     3.3850     2.7650 H     1 <1>   0.0800 
 27 H       -3.6430     3.2390     1.7640 H     1 <1>   0.0800 
 28 H       -4.3290     2.0500    -0.2230 H     1 <1>   0.0800 
 29 H       -2.9020     1.6730    -1.1770 H     1 <1>   0.0800 
 30 H       -1.6120    -0.9200     0.6150 H     1 <1>   0.0800 
 31 H       -3.1510    -1.1910     1.4150 H     1 <1>   0.0800 
 32 H       -4.5330     0.1370    -2.0950 H     1 <1>   0.0800 
 33 H       -2.5140    -1.0290    -1.4860 H     1 <1>   0.0800 
 34 H       -5.2590    -0.1270     0.6170 H     1 <1>   0.4000 
 35 H       -4.2640    -2.7180    -1.7480 H     1 <1>   0.0800 
 36 H       -4.6770    -2.6040    -0.0630 H     1 <1>   0.0800 
 37 H       -1.8200     5.4890    -1.8320 H     1 <1>   0.1500 
 38 H        0.3810     2.5710     2.1250 H     1 <1>   0.1500 
 39 H        1.1200     5.3930    -1.8750 H     1 <1>   0.1500 
 40 H        2.6740     3.0340     1.3310 H     1 <1>   0.1500 
 41 H       -3.5060    -4.3080     1.4960 H     1 <1>   0.1500 
 42 H        3.0470     4.4300    -0.6440 H     1 <1>   0.1500 
 43 H       -0.2080    -5.0890    -0.9600 H     1 <1>   0.2700 
 44 H       -1.7390    -6.2020     2.3990 H     1 <1>   0.0800 
 45 H       -0.1180    -5.8090     1.8790 H     1 <1>   0.0800 
 46 H       -1.0310    -7.0550     1.0490 H     1 <1>   0.0800 
@<TRIPOS>BOND
  1   1   2  2   
  2   2   3  am  
  3   2   4  1   
  4   3   5  1   
  5   3   6  1   
  6   4   7  1   
  7   4  26  1   
  8   4  27  1   
  9   5   8  1   
 10   5  28  1   
 11   5  29  1   
 12   6   9  1   
 13   6  30  1   
 14   6  31  1   
 15   7  10  1   
 16   7  11  1   
 17   8   9  1   
 18   8  12  1   
 19   8  32  1   
 20   9  13  1   
 21   9  33  1   
 22  10  14  2   
 23  11  15  ar  
 24  11  16  ar  
 25  12  34  1   
 26  13  17  1   
 27  13  35  1   
 28  13  36  1   
 29  14  15  1   
 30  14  37  1   
 31  15  18  ar  
 32  16  19  ar  
 33  16  38  1   
 34  17  20  2   
 35  17  21  1   
 36  18  22  ar  
 37  18  39  1   
 38  19  22  ar  
 39  19  40  1   
 40  20  23  1   
 41  21  24  2   
 42  21  41  1   
 43  22  42  1   
 44  23  24  1   
 45  23  43  1   
 46  24  25  1   
 47  25  44  1   
 48  25  45  1   
 49  25  46  1   
@<TRIPOS>SUBSTRUCTURE
  1 ****   3 GROUP 4 **** **** 0

# MOE 2024.06 (io_trps.svl 2023.06)
