@<TRIPOS>MOLECULE
NONAME
42 43 1 0 0 
SMALL
USER_CHARGES


@<TRIPOS>ATOM
  1 F       -0.9860    -0.7040     0.8620 F     1 <1>  -0.1900 
  2 C       -1.9170    -1.1750     0.0710 C.ar  1 <1>   0.1900 
  3 C       -2.9020    -0.3390    -0.4270 C.ar  1 <1>   0.1900 
  4 C       -1.8960    -2.5180    -0.2570 C.ar  1 <1>  -0.1500 
  5 F       -2.9160     0.9320    -0.1130 F     1 <1>  -0.1900 
  6 C       -3.8880    -0.8300    -1.2630 C.ar  1 <1>  -0.1500 
  7 C       -2.8820    -3.0230    -1.0970 C.ar  1 <1>  -0.1440 
  8 C       -3.8700    -2.1780    -1.5940 C.ar  1 <1>  -0.1500 
  9 C       -2.8800    -4.4970    -1.4730 C.3   1 <1>  -0.0160 
 10 C       -3.7310    -5.3110    -0.4850 C.3   1 <1>  -0.0990 
 11 C       -3.7900    -6.8000    -0.8080 C.2   1 <1>   0.5690 
 12 O       -3.0470    -7.2260    -1.6600 O.2   1 <1>  -0.5700 
 13 N       -4.6560    -7.6250    -0.1350 N.am  1 <1>  -0.6600 
 14 C       -4.6770    -9.0870    -0.4300 C.3   1 <1>   0.3200 
 15 C       -5.5390    -7.1760     0.9880 C.3   1 <1>   0.1400 
 16 C       -6.0550    -9.4980    -0.9100 C.2   1 <1>  -0.3320 
 17 C       -6.9090    -6.7060     0.4830 C.3   1 <1>   0.1200 
 18 N       -6.9640   -10.2040    -0.2060 N.pl3 1 <1>   0.0480 
 19 C       -6.6190    -9.2330    -2.1090 C.2   1 <1>   0.0770 
 20 O       -7.6590    -6.2960     1.5750 O.3   1 <1>  -0.6800 
 21 C       -8.0280   -10.3100    -1.0350 C.2   1 <1>   0.0360 
 22 C       -6.8600   -10.7480     1.1600 C.3   1 <1>   0.0160 
 23 N       -7.8630    -9.7390    -2.1830 N.2   1 <1>  -0.5650 
 24 H       -1.1220    -3.1500     0.1400 H     1 <1>   0.1500 
 25 H       -4.6480    -0.1720    -1.6440 H     1 <1>   0.1500 
 26 H       -4.6330    -2.5690    -2.2460 H     1 <1>   0.1500 
 27 H       -1.8690    -4.8700    -1.4720 H     1 <1>   0.0800 
 28 H       -3.2670    -4.6200    -2.4700 H     1 <1>   0.0800 
 29 H       -4.7280    -4.9130    -0.4900 H     1 <1>   0.0800 
 30 H       -3.3240    -5.1940     0.5010 H     1 <1>   0.0800 
 31 H       -4.3980    -9.6340     0.4530 H     1 <1>   0.0800 
 32 H       -3.9620    -9.3320    -1.1970 H     1 <1>   0.0800 
 33 H       -5.0680    -6.3720     1.5240 H     1 <1>   0.0800 
 34 H       -5.6770    -7.9890     1.6770 H     1 <1>   0.0800 
 35 H       -7.4440    -7.5010    -0.0050 H     1 <1>   0.0800 
 36 H       -6.8080    -5.8730    -0.1890 H     1 <1>   0.0800 
 37 H       -6.1840    -8.6900    -2.9330 H     1 <1>   0.1500 
 38 H       -8.5540    -6.0220     1.2900 H     1 <1>   0.4000 
 39 H       -8.9260   -10.8270    -0.7470 H     1 <1>   0.1500 
 40 H       -6.9030    -9.9410     1.8690 H     1 <1>   0.0800 
 41 H       -5.9320   -11.2780     1.2660 H     1 <1>   0.0800 
 42 H       -7.6760   -11.4230     1.3410 H     1 <1>   0.0800 
@<TRIPOS>BOND
  1   1   2  1   
  2   2   3  ar  
  3   2   4  ar  
  4   3   5  1   
  5   3   6  ar  
  6   4   7  ar  
  7   4  24  1   
  8   6   8  ar  
  9   6  25  1   
 10   7   8  ar  
 11   7   9  1   
 12   8  26  1   
 13   9  10  1   
 14   9  27  1   
 15   9  28  1   
 16  10  11  1   
 17  10  29  1   
 18  10  30  1   
 19  11  12  2   
 20  11  13  am  
 21  13  14  1   
 22  13  15  1   
 23  14  16  1   
 24  14  31  1   
 25  14  32  1   
 26  15  17  1   
 27  15  33  1   
 28  15  34  1   
 29  16  18  1   
 30  16  19  2   
 31  17  20  1   
 32  17  35  1   
 33  17  36  1   
 34  18  21  1   
 35  18  22  1   
 36  19  23  1   
 37  19  37  1   
 38  20  38  1   
 39  21  23  2   
 40  21  39  1   
 41  22  40  1   
 42  22  41  1   
 43  22  42  1   
@<TRIPOS>SUBSTRUCTURE
  1 ****  10 GROUP 4 **** **** 0

# MOE 2024.06 (io_trps.svl 2023.06)
