@<TRIPOS>MOLECULE
NONAME
19 20 1 0 0 
SMALL
USER_CHARGES


@<TRIPOS>ATOM
  1 BR       0.5880     0.6110     2.3360 Br    1 <1>  -0.1110 
  2 C        0.7260     2.0290     1.0350 C.ar  1 <1>   0.1110 
  3 C        1.8780     2.1980     0.2720 C.ar  1 <1>   0.2780 
  4 C       -0.3570     2.8680     0.8990 C.ar  1 <1>  -0.1500 
  5 N        2.0020     3.1740    -0.6230 N.ar  1 <1>  -0.6200 
  6 C        3.0710     1.2630     0.4360 C.3   1 <1>   0.1370 
  7 C       -0.2210     3.8760    -0.0330 C.ar  1 <1>  -0.1500 
  8 C        0.9600     3.9830    -0.7530 C.ar  1 <1>   0.1600 
  9 C        3.9090     1.6430     1.6130 C.1   1 <1>   0.4520 
 10 C        3.7600     0.7200    -0.7890 C.3   1 <1>  -0.2000 
 11 C        2.9330    -0.1890     0.0590 C.3   1 <1>  -0.2000 
 12 N        4.5460     1.9090     2.5180 N.1   1 <1>  -0.5570 
 13 H       -1.2490     2.7410     1.4870 H     1 <1>   0.1500 
 14 H       -1.0200     4.5760    -0.2010 H     1 <1>   0.1500 
 15 H        1.0510     4.7770    -1.4750 H     1 <1>   0.1500 
 16 H        4.8310     0.6160    -0.7750 H     1 <1>   0.1000 
 17 H        3.3890     1.0150    -1.7560 H     1 <1>   0.1000 
 18 H        1.9950    -0.5400    -0.3350 H     1 <1>   0.1000 
 19 H        3.4290    -0.9300     0.6620 H     1 <1>   0.1000 
@<TRIPOS>BOND
  1   1   2  1   
  2   2   3  ar  
  3   2   4  ar  
  4   3   5  ar  
  5   3   6  1   
  6   4   7  ar  
  7   4  13  1   
  8   5   8  ar  
  9   6   9  1   
 10   6  10  1   
 11   6  11  1   
 12   7   8  ar  
 13   7  14  1   
 14   8  15  1   
 15   9  12  3   
 16  10  11  1   
 17  10  16  1   
 18  10  17  1   
 19  11  18  1   
 20  11  19  1   
@<TRIPOS>SUBSTRUCTURE
  1 ****   3 GROUP 4 **** **** 0

# MOE 2024.06 (io_trps.svl 2023.06)
