@<TRIPOS>MOLECULE
NONAME
53 55 1 0 0 
SMALL
USER_CHARGES


@<TRIPOS>ATOM
  1 O       -0.2850     0.4200    -0.2780 O.2   1 <1>  -0.5700 
  2 C       -0.2500     1.6180    -0.1230 C.2   1 <1>   0.5690 
  3 N       -1.3840     2.3670     0.0510 N.am  1 <1>  -0.6600 
  4 C        1.1180     2.3050    -0.1580 C.3   1 <1>   0.1810 
  5 C       -1.3120     3.8550     0.2330 C.3   1 <1>   0.3640 
  6 C       -2.7300     1.7450     0.2190 C.3   1 <1>   0.0600 
  7 O        1.1160     3.5790     0.4380 O.3   1 <1>  -0.5600 
  8 C       -2.3210     4.5430    -0.7010 C.ar  1 <1>  -0.1430 
  9 C        0.0960     4.4370    -0.0360 C.3   1 <1>   0.2610 
 10 C       -3.2330     5.4980    -0.2510 C.ar  1 <1>  -0.1430 
 11 C       -2.3090     4.2090    -2.0520 C.ar  1 <1>  -0.1500 
 12 C        0.1900     5.8310     0.6070 C.2   1 <1>   0.5690 
 13 C       -4.0940     6.1010    -1.1560 C.ar  1 <1>  -0.1500 
 14 C       -3.3300     5.9160     1.2120 C.3   1 <1>  -0.0960 
 15 C       -3.1730     4.8140    -2.9450 C.ar  1 <1>  -0.1500 
 16 O        0.1310     5.9010     1.8170 O.2   1 <1>  -0.5700 
 17 N        0.2980     6.9730    -0.1580 N.am  1 <1>  -0.6600 
 18 C       -4.0660     5.7650    -2.4960 C.ar  1 <1>  -0.1500 
 19 C        0.4470     8.3060     0.4990 C.3   1 <1>   0.1400 
 20 C        0.1890     7.0000    -1.6450 C.3   1 <1>   0.0600 
 21 C        1.9240     8.6120     0.7880 C.3   1 <1>  -0.0800 
 22 C        2.1210     9.9570     1.4840 C.3   1 <1>  -0.1600 
 23 C        2.8130     8.7240    -0.4510 C.3   1 <1>  -0.1600 
 24 C        3.5870    10.3210     1.2410 C.3   1 <1>  -0.1600 
 25 C        4.0330     9.5240     0.0100 C.3   1 <1>  -0.1600 
 26 H        1.4430     2.4070    -1.1770 H     1 <1>   0.0800 
 27 H        1.8300     1.7010     0.3740 H     1 <1>   0.0800 
 28 H       -1.5570     4.0560     1.2590 H     1 <1>   0.0800 
 29 H       -3.1840     2.0970     1.1280 H     1 <1>   0.0800 
 30 H       -2.6510     0.6730     0.2670 H     1 <1>   0.0800 
 31 H       -3.3610     2.0050    -0.6130 H     1 <1>   0.0800 
 32 H        0.2400     4.5230    -1.0940 H     1 <1>   0.0800 
 33 H       -1.6250     3.4630    -2.4190 H     1 <1>   0.1500 
 34 H       -4.8000     6.8420    -0.8220 H     1 <1>   0.1500 
 35 H       -4.1590     6.5820     1.3690 H     1 <1>   0.0800 
 36 H       -2.4350     6.4280     1.5160 H     1 <1>   0.0800 
 37 H       -3.4770     5.0570     1.8400 H     1 <1>   0.0800 
 38 H       -3.1520     4.5420    -3.9860 H     1 <1>   0.1500 
 39 H       -4.7420     6.2400    -3.1860 H     1 <1>   0.1500 
 40 H        0.0220     9.0740    -0.1240 H     1 <1>   0.0800 
 41 H       -0.0980     8.3080     1.4280 H     1 <1>   0.0800 
 42 H        0.2840     8.0050    -2.0150 H     1 <1>   0.0800 
 43 H       -0.7700     6.6160    -1.9480 H     1 <1>   0.0800 
 44 H        0.9720     6.4040    -2.0800 H     1 <1>   0.0800 
 45 H        2.3180     7.8420     1.4310 H     1 <1>   0.0800 
 46 H        1.4930    10.7010     1.0250 H     1 <1>   0.0800 
 47 H        1.8910     9.9000     2.5340 H     1 <1>   0.0800 
 48 H        3.0890     7.7570    -0.8330 H     1 <1>   0.0800 
 49 H        2.2990     9.2770    -1.2180 H     1 <1>   0.0800 
 50 H        3.6980    11.3810     1.0850 H     1 <1>   0.0800 
 51 H        4.1810    10.0310     2.0910 H     1 <1>   0.0800 
 52 H        4.8250     8.8490     0.2880 H     1 <1>   0.0800 
 53 H        4.3880    10.1710    -0.7730 H     1 <1>   0.0800 
@<TRIPOS>BOND
  1   1   2  2   
  2   2   3  am  
  3   2   4  1   
  4   3   5  1   
  5   3   6  1   
  6   4   7  1   
  7   4  26  1   
  8   4  27  1   
  9   5   8  1   
 10   5   9  1   
 11   5  28  1   
 12   6  29  1   
 13   6  30  1   
 14   6  31  1   
 15   7   9  1   
 16   8  10  ar  
 17   8  11  ar  
 18   9  12  1   
 19   9  32  1   
 20  10  13  ar  
 21  10  14  1   
 22  11  15  ar  
 23  11  33  1   
 24  12  16  2   
 25  12  17  am  
 26  13  18  ar  
 27  13  34  1   
 28  14  35  1   
 29  14  36  1   
 30  14  37  1   
 31  15  18  ar  
 32  15  38  1   
 33  17  19  1   
 34  17  20  1   
 35  18  39  1   
 36  19  21  1   
 37  19  40  1   
 38  19  41  1   
 39  20  42  1   
 40  20  43  1   
 41  20  44  1   
 42  21  22  1   
 43  21  23  1   
 44  21  45  1   
 45  22  24  1   
 46  22  46  1   
 47  22  47  1   
 48  23  25  1   
 49  23  48  1   
 50  23  49  1   
 51  24  25  1   
 52  24  50  1   
 53  24  51  1   
 54  25  52  1   
 55  25  53  1   
@<TRIPOS>SUBSTRUCTURE
  1 ****  12 GROUP 4 **** **** 0

# MOE 2024.06 (io_trps.svl 2023.06)
