@<TRIPOS>MOLECULE
NONAME
48 50 1 0 0 
SMALL
USER_CHARGES


@<TRIPOS>ATOM
  1 O       -0.4990     0.3250    -0.6050 O.3   1 <1>  -0.3630 
  2 C       -1.2940     1.3570    -0.2140 C.ar  1 <1>   0.0830 
  3 C        0.8000     0.5600    -1.1130 C.3   1 <1>   0.0400 
  4 C       -2.4690     1.0340     0.4490 C.ar  1 <1>  -0.1440 
  5 C       -0.9890     2.6930    -0.4560 C.ar  1 <1>  -0.1500 
  6 C       -3.3490     2.0280     0.8520 C.ar  1 <1>   0.0830 
  7 C       -2.7940    -0.4140     0.7350 C.3   1 <1>   0.4870 
  8 C       -1.8580     3.6870    -0.0440 C.ar  1 <1>  -0.1500 
  9 O       -4.4970     1.6300     1.4620 O.3   1 <1>  -0.3630 
 10 C       -3.0360     3.3620     0.6060 C.ar  1 <1>  -0.1500 
 11 N       -3.1690    -1.0900    -0.5370 N.4   1 <1>  -0.9590 
 12 C       -5.3920     2.5730     2.0230 C.3   1 <1>   0.0400 
 13 C       -4.3390    -0.4510    -1.2110 C.3   1 <1>   0.3430 
 14 C       -3.5880    -2.4910    -0.2940 C.3   1 <1>   0.3430 
 15 C       -5.5840    -1.1370    -0.6320 C.3   1 <1>   0.2000 
 16 C       -5.0820    -2.4210     0.0450 C.3   1 <1>  -0.0800 
 17 O       -6.2010    -0.3360     0.3210 O.3   1 <1>  -0.6800 
 18 C       -5.8670    -3.6670    -0.4050 C.3   1 <1>  -0.0170 
 19 C       -5.3530    -4.9410     0.2500 C.ar  1 <1>   0.1670 
 20 N       -4.1530    -5.3550    -0.1300 N.ar  1 <1>  -0.6200 
 21 C       -6.1360    -5.6110     1.1900 C.ar  1 <1>   0.1600 
 22 C       -3.8010    -6.4800     0.4750 C.ar  1 <1>   0.1600 
 23 N       -5.7760    -6.7250     1.8040 N.ar  1 <1>  -0.6200 
 24 C       -4.5850    -7.1410     1.4110 C.ar  1 <1>   0.1600 
 25 H        1.2750    -0.3900    -1.2820 H     1 <1>   0.0800 
 26 H        1.3630     1.1240    -0.3900 H     1 <1>   0.0800 
 27 H        0.7230     1.0970    -2.0420 H     1 <1>   0.0800 
 28 H       -0.0870     2.9820    -0.9630 H     1 <1>   0.1500 
 29 H       -3.5980    -0.4800     1.4480 H     1 <1>   0.0800 
 30 H       -1.9250    -0.8900     1.1600 H     1 <1>   0.0800 
 31 H       -1.6180     4.7210    -0.2310 H     1 <1>   0.1500 
 32 H       -3.6890     4.1600     0.9070 H     1 <1>   0.1500 
 33 H       -2.3290    -1.0280    -1.1340 H     1 <1>   0.4500 
 34 H       -6.1950     2.0380     2.4970 H     1 <1>   0.0800 
 35 H       -5.7860     3.1960     1.2390 H     1 <1>   0.0800 
 36 H       -4.8680     3.1640     2.7540 H     1 <1>   0.0800 
 37 H       -4.3700     0.6170    -1.0690 H     1 <1>   0.0800 
 38 H       -4.2910    -0.6600    -2.2670 H     1 <1>   0.0800 
 39 H       -3.4560    -3.0700    -1.1940 H     1 <1>   0.0800 
 40 H       -3.0230    -2.9560     0.4990 H     1 <1>   0.0800 
 41 H       -6.3060    -1.3320    -1.4080 H     1 <1>   0.0800 
 42 H       -5.1730    -2.3340     1.1140 H     1 <1>   0.0800 
 43 H       -5.5720     0.2670     0.7820 H     1 <1>   0.4000 
 44 H       -5.7980    -3.7840    -1.4730 H     1 <1>   0.0800 
 45 H       -6.9070    -3.5320    -0.1630 H     1 <1>   0.0800 
 46 H       -7.1010    -5.2120     1.4490 H     1 <1>   0.1500 
 47 H       -2.8440    -6.9020     0.2190 H     1 <1>   0.1500 
 48 H       -4.2130    -8.0500     1.8510 H     1 <1>   0.1500 
@<TRIPOS>BOND
  1   1   2  1   
  2   1   3  1   
  3   2   4  ar  
  4   2   5  ar  
  5   3  25  1   
  6   3  26  1   
  7   3  27  1   
  8   4   6  ar  
  9   4   7  1   
 10   5   8  ar  
 11   5  28  1   
 12   6   9  1   
 13   6  10  ar  
 14   7  11  1   
 15   7  29  1   
 16   7  30  1   
 17   8  10  ar  
 18   8  31  1   
 19   9  12  1   
 20  10  32  1   
 21  11  13  1   
 22  11  14  1   
 23  11  33  1   
 24  12  34  1   
 25  12  35  1   
 26  12  36  1   
 27  13  15  1   
 28  13  37  1   
 29  13  38  1   
 30  14  16  1   
 31  14  39  1   
 32  14  40  1   
 33  15  16  1   
 34  15  17  1   
 35  15  41  1   
 36  16  18  1   
 37  16  42  1   
 38  17  43  1   
 39  18  19  1   
 40  18  44  1   
 41  18  45  1   
 42  19  20  ar  
 43  19  21  ar  
 44  20  22  ar  
 45  21  23  ar  
 46  21  46  1   
 47  22  24  ar  
 48  22  47  1   
 49  23  24  ar  
 50  24  48  1   
@<TRIPOS>SUBSTRUCTURE
  1 ****  11 GROUP 4 **** **** 0

# MOE 2024.06 (io_trps.svl 2023.06)
