@<TRIPOS>MOLECULE
NONAME
43 45 1 0 0 
SMALL
USER_CHARGES


@<TRIPOS>ATOM
  1 O        0.8660    -0.5840    -1.8720 O.2   1 <1>  -0.5700 
  2 C        1.5670    -1.3450    -1.2500 C.2   1 <1>   0.5690 
  3 N        1.3450    -1.6700     0.0590 N.am  1 <1>  -0.6600 
  4 C        2.7690    -1.9660    -1.9320 C.3   1 <1>  -0.0990 
  5 C        2.2410    -2.6280     0.7520 C.3   1 <1>   0.1400 
  6 C        0.2290    -1.0970     0.8560 C.3   1 <1>   0.0600 
  7 C        2.9000    -3.4690    -1.6070 C.3   1 <1>  -0.0800 
  8 C        2.5070    -3.8390    -0.1590 C.3   1 <1>  -0.0800 
  9 C        4.3140    -4.0070    -1.8510 C.3   1 <1>  -0.1600 
 10 C        3.6070    -4.7560     0.3950 C.3   1 <1>  -0.1600 
 11 C        4.5920    -5.0210    -0.7440 C.3   1 <1>   0.2200 
 12 N        6.0220    -5.0420    -0.3000 N.am  1 <1>  -0.6600 
 13 C        6.7980    -3.9610     0.1000 C.2   1 <1>   0.5440 
 14 C        6.6710    -6.3710    -0.5140 C.3   1 <1>   0.0600 
 15 O        8.0080    -4.0630     0.0490 O.2   1 <1>  -0.5700 
 16 C        6.2600    -2.7170     0.6070 C.ar  1 <1>   0.0860 
 17 C        5.8620    -2.6170     1.9380 C.ar  1 <1>   0.1600 
 18 C        6.1540    -1.5750    -0.1730 C.ar  1 <1>  -0.1500 
 19 N        5.3300    -1.5480     2.5170 N.ar  1 <1>  -0.6200 
 20 C        5.6050    -0.4500     0.4010 C.ar  1 <1>   0.0820 
 21 C        5.2130    -0.4860     1.7350 C.ar  1 <1>   0.1600 
 22 O        5.4570     0.6530    -0.3560 O.3   1 <1>  -0.5330 
 23 H        2.6920    -1.8250    -2.9950 H     1 <1>   0.0800 
 24 H        3.6320    -1.4270    -1.5900 H     1 <1>   0.0800 
 25 H        3.1630    -2.1270     0.9810 H     1 <1>   0.0800 
 26 H        1.7940    -2.9570     1.6750 H     1 <1>   0.0800 
 27 H        0.6210    -0.5930     1.7210 H     1 <1>   0.0800 
 28 H       -0.4340    -1.8830     1.1700 H     1 <1>   0.0800 
 29 H       -0.3300    -0.3890     0.2680 H     1 <1>   0.0800 
 30 H        2.2240    -4.0010    -2.2570 H     1 <1>   0.0800 
 31 H        1.5910    -4.4050    -0.2010 H     1 <1>   0.0800 
 32 H        5.0310    -3.2140    -1.8380 H     1 <1>   0.0800 
 33 H        4.3720    -4.4830    -2.8140 H     1 <1>   0.0800 
 34 H        3.1780    -5.6880     0.7190 H     1 <1>   0.0800 
 35 H        4.0890    -4.3120     1.2390 H     1 <1>   0.0800 
 36 H        4.3400    -5.9870    -1.1490 H     1 <1>   0.0800 
 37 H        6.0470    -7.1540    -0.1210 H     1 <1>   0.0800 
 38 H        7.6230    -6.4210    -0.0150 H     1 <1>   0.0800 
 39 H        6.8260    -6.5320    -1.5670 H     1 <1>   0.0800 
 40 H        5.9910    -3.4890     2.5580 H     1 <1>   0.1500 
 41 H        6.4900    -1.5630    -1.1930 H     1 <1>   0.1500 
 42 H        4.7860     0.3970     2.1760 H     1 <1>   0.1500 
 43 H        5.0430     1.4090     0.1000 H     1 <1>   0.4500 
@<TRIPOS>BOND
  1   1   2  2   
  2   2   3  am  
  3   2   4  1   
  4   3   5  1   
  5   3   6  1   
  6   4   7  1   
  7   4  23  1   
  8   4  24  1   
  9   5   8  1   
 10   5  25  1   
 11   5  26  1   
 12   6  27  1   
 13   6  28  1   
 14   6  29  1   
 15   7   8  1   
 16   7   9  1   
 17   7  30  1   
 18   8  10  1   
 19   8  31  1   
 20   9  11  1   
 21   9  32  1   
 22   9  33  1   
 23  10  11  1   
 24  10  34  1   
 25  10  35  1   
 26  11  12  1   
 27  11  36  1   
 28  12  13  am  
 29  12  14  1   
 30  13  15  2   
 31  13  16  1   
 32  14  37  1   
 33  14  38  1   
 34  14  39  1   
 35  16  17  ar  
 36  16  18  ar  
 37  17  19  ar  
 38  17  40  1   
 39  18  20  ar  
 40  18  41  1   
 41  19  21  ar  
 42  20  21  ar  
 43  20  22  1   
 44  21  42  1   
 45  22  43  1   
@<TRIPOS>SUBSTRUCTURE
  1 ****  16 GROUP 4 **** **** 0

# MOE 2024.06 (io_trps.svl 2023.06)
