@<TRIPOS>MOLECULE
NONAME
43 44 1 0 0 
SMALL
USER_CHARGES


@<TRIPOS>ATOM
  1 O       -0.5380    -0.4560    -1.0900 O.2   1 <1>  -0.5700 
  2 C       -1.5940    -0.9800    -0.8090 C.2   1 <1>   0.6900 
  3 N       -2.5530    -0.3570    -0.0380 N.am  1 <1>  -0.4200 
  4 N       -1.8420    -2.2380    -1.2800 N.am  1 <1>  -0.5390 
  5 C       -3.7540    -0.9950     0.2210 C.2   1 <1>   0.6160 
  6 C       -2.3080     1.0180     0.4840 C.3   1 <1>   0.0600 
  7 C       -3.0160    -2.9190    -1.0340 C.2   1 <1>  -0.0410 
  8 O       -4.6150    -0.4330     0.8770 O.2   1 <1>  -0.5700 
  9 C       -3.9790    -2.3210    -0.2900 C.2   1 <1>  -0.1240 
 10 C       -5.3290    -2.9530     0.0610 C.3   1 <1>  -0.0220 
 11 C       -5.5270    -4.3740    -0.4750 C.3   1 <1>   0.3430 
 12 N       -6.8190    -4.9690    -0.0020 N.4   1 <1>  -0.9590 
 13 C       -6.8150    -6.4460    -0.2600 C.3   1 <1>   0.3430 
 14 C       -8.0080    -4.3010    -0.6330 C.3   1 <1>   0.2630 
 15 C       -7.9390    -7.1700     0.4850 C.3   1 <1>  -0.0170 
 16 C       -7.7710    -8.6600     0.2620 C.ar  1 <1>  -0.1430 
 17 C       -8.3590    -9.2740    -0.8340 C.ar  1 <1>  -0.1500 
 18 C       -7.0180    -9.4180     1.1460 C.ar  1 <1>  -0.1500 
 19 C       -8.1880   -10.6300    -1.0480 C.ar  1 <1>  -0.1500 
 20 C       -6.8480   -10.7750     0.9310 C.ar  1 <1>  -0.1500 
 21 C       -7.4310   -11.3810    -0.1670 C.ar  1 <1>  -0.1500 
 22 H       -1.0750    -2.6230    -1.8380 H     1 <1>   0.3700 
 23 H       -1.2520     1.2050     0.5780 H     1 <1>   0.0800 
 24 H       -2.7600     1.1350     1.4540 H     1 <1>   0.0800 
 25 H       -2.7340     1.7390    -0.1910 H     1 <1>   0.0800 
 26 H       -3.0890    -3.9050    -1.4620 H     1 <1>   0.1500 
 27 H       -6.0980    -2.3100    -0.3270 H     1 <1>   0.0800 
 28 H       -5.4160    -2.9700     1.1340 H     1 <1>   0.0800 
 29 H       -4.7080    -4.9840    -0.1270 H     1 <1>   0.0800 
 30 H       -5.5010    -4.3610    -1.5530 H     1 <1>   0.0800 
 31 H       -6.8730    -4.8330     1.0190 H     1 <1>   0.4500 
 32 H       -5.8780    -6.8650     0.0680 H     1 <1>   0.0800 
 33 H       -6.9080    -6.6390    -1.3160 H     1 <1>   0.0800 
 34 H       -7.9820    -4.4200    -1.7040 H     1 <1>   0.0800 
 35 H       -8.0170    -3.2480    -0.4040 H     1 <1>   0.0800 
 36 H       -8.9240    -4.7310    -0.2630 H     1 <1>   0.0800 
 37 H       -8.9030    -6.8670     0.1180 H     1 <1>   0.0800 
 38 H       -7.8870    -6.9600     1.5380 H     1 <1>   0.0800 
 39 H       -8.9560    -8.7110    -1.5300 H     1 <1>   0.1500 
 40 H       -6.5590    -8.9700     2.0100 H     1 <1>   0.1500 
 41 H       -8.6460   -11.1050    -1.8990 H     1 <1>   0.1500 
 42 H       -6.2640   -11.3630     1.6190 H     1 <1>   0.1500 
 43 H       -7.3000   -12.4370    -0.3330 H     1 <1>   0.1500 
@<TRIPOS>BOND
  1   1   2  2   
  2   2   3  am  
  3   2   4  am  
  4   3   5  am  
  5   3   6  1   
  6   4   7  1   
  7   4  22  1   
  8   5   8  2   
  9   5   9  1   
 10   6  23  1   
 11   6  24  1   
 12   6  25  1   
 13   7   9  2   
 14   7  26  1   
 15   9  10  1   
 16  10  11  1   
 17  10  27  1   
 18  10  28  1   
 19  11  12  1   
 20  11  29  1   
 21  11  30  1   
 22  12  13  1   
 23  12  14  1   
 24  12  31  1   
 25  13  15  1   
 26  13  32  1   
 27  13  33  1   
 28  14  34  1   
 29  14  35  1   
 30  14  36  1   
 31  15  16  1   
 32  15  37  1   
 33  15  38  1   
 34  16  17  ar  
 35  16  18  ar  
 36  17  19  ar  
 37  17  39  1   
 38  18  20  ar  
 39  18  40  1   
 40  19  21  ar  
 41  19  41  1   
 42  20  21  ar  
 43  20  42  1   
 44  21  43  1   
@<TRIPOS>SUBSTRUCTURE
  1 ****  11 GROUP 4 **** **** 0

# MOE 2024.06 (io_trps.svl 2023.06)
