@<TRIPOS>MOLECULE
NONAME
50 52 1 0 0 
SMALL
USER_CHARGES


@<TRIPOS>ATOM
  1 O        4.0280     0.7430     1.4720 O.2   1 <1>  -0.5700 
  2 C        3.2640     0.0610     0.8090 C.2   1 <1>   0.6900 
  3 N        2.8640     0.5110    -0.4240 N.am  1 <1>  -0.6600 
  4 N        2.8230    -1.1470     1.2960 N.am  1 <1>  -0.6600 
  5 C        2.9190     1.9650    -0.7330 C.3   1 <1>   0.1400 
  6 C        2.9440    -0.3650    -1.6220 C.3   1 <1>   0.1400 
  7 C        3.5070    -1.7990     2.4440 C.3   1 <1>   0.0600 
  8 C        1.4780    -1.6960     0.9780 C.3   1 <1>   0.0600 
  9 C        4.2400     2.2830    -1.4380 C.3   1 <1>  -0.0190 
 10 C        4.2350    -0.0640    -2.3960 C.3   1 <1>  -0.1600 
 11 C        4.3130     3.7770    -1.7130 C.2   1 <1>   0.5690 
 12 C        4.3830     1.4330    -2.7180 C.3   1 <1>  -0.1600 
 13 O        3.5840     4.2520    -2.5480 O.2   1 <1>  -0.5700 
 14 N        5.2060     4.5130    -0.9850 N.am  1 <1>  -0.4940 
 15 C        5.4620     5.8840    -1.0210 C.2   1 <1>   0.2040 
 16 O        4.7470     6.7210    -1.7310 O.3   1 <1>  -0.0190 
 17 C        6.4150     6.5970    -0.3710 C.2   1 <1>  -0.0540 
 18 N        5.1600     7.9560    -1.5960 N.2   1 <1>  -0.4100 
 19 C        7.4460     6.1350     0.5210 C.ar  1 <1>   0.0540 
 20 C        6.1570     7.9070    -0.7910 C.2   1 <1>   0.1080 
 21 C        8.4030     5.2210     0.0890 C.ar  1 <1>  -0.1500 
 22 C        7.5140     6.5840     1.8370 C.ar  1 <1>  -0.1500 
 23 C        6.9480     9.1290    -0.3720 C.3   1 <1>  -0.0590 
 24 C        9.3950     4.7710     0.9410 C.ar  1 <1>  -0.1500 
 25 C        8.5050     6.1390     2.6930 C.ar  1 <1>  -0.1500 
 26 C        9.4480     5.2300     2.2450 C.ar  1 <1>  -0.1500 
 27 H        2.8380     2.5360     0.1770 H     1 <1>   0.0800 
 28 H        2.0880     2.2280    -1.3660 H     1 <1>   0.0800 
 29 H        2.0870    -0.1830    -2.2480 H     1 <1>   0.0800 
 30 H        2.9380    -1.4000    -1.3300 H     1 <1>   0.0800 
 31 H        4.5240    -1.4540     2.5180 H     1 <1>   0.0800 
 32 H        3.5150    -2.8660     2.3080 H     1 <1>   0.0800 
 33 H        2.9920    -1.5570     3.3570 H     1 <1>   0.0800 
 34 H        0.9260    -1.0140     0.3560 H     1 <1>   0.0800 
 35 H        0.9230    -1.8490     1.8870 H     1 <1>   0.0800 
 36 H        1.5820    -2.6360     0.4650 H     1 <1>   0.0800 
 37 H        5.0390     2.0220    -0.7670 H     1 <1>   0.0800 
 38 H        4.2420    -0.6320    -3.3090 H     1 <1>   0.0800 
 39 H        5.0730    -0.3890    -1.8030 H     1 <1>   0.0800 
 40 H        5.3410     1.6160    -3.1730 H     1 <1>   0.0800 
 41 H        3.6220     1.7210    -3.4250 H     1 <1>   0.0800 
 42 H        5.7470     3.9960    -0.2930 H     1 <1>   0.3700 
 43 H        8.3710     4.8670    -0.9260 H     1 <1>   0.1500 
 44 H        6.7790     7.2850     2.1930 H     1 <1>   0.1500 
 45 H        8.0000     8.9110    -0.3870 H     1 <1>   0.0800 
 46 H        6.6620     9.4250     0.6200 H     1 <1>   0.0800 
 47 H        6.7520     9.9410    -1.0480 H     1 <1>   0.0800 
 48 H       10.1290     4.0650     0.5910 H     1 <1>   0.1500 
 49 H        8.5440     6.4960     3.7080 H     1 <1>   0.1500 
 50 H       10.2200     4.8820     2.9100 H     1 <1>   0.1500 
@<TRIPOS>BOND
  1   1   2  2   
  2   2   3  am  
  3   2   4  am  
  4   3   5  1   
  5   3   6  1   
  6   4   7  1   
  7   4   8  1   
  8   5   9  1   
  9   5  27  1   
 10   5  28  1   
 11   6  10  1   
 12   6  29  1   
 13   6  30  1   
 14   7  31  1   
 15   7  32  1   
 16   7  33  1   
 17   8  34  1   
 18   8  35  1   
 19   8  36  1   
 20   9  11  1   
 21   9  12  1   
 22   9  37  1   
 23  10  12  1   
 24  10  38  1   
 25  10  39  1   
 26  11  13  2   
 27  11  14  am  
 28  12  40  1   
 29  12  41  1   
 30  14  15  1   
 31  14  42  1   
 32  15  16  1   
 33  15  17  2   
 34  16  18  1   
 35  17  19  1   
 36  17  20  1   
 37  18  20  2   
 38  19  21  ar  
 39  19  22  ar  
 40  20  23  1   
 41  21  24  ar  
 42  21  43  1   
 43  22  25  ar  
 44  22  44  1   
 45  23  45  1   
 46  23  46  1   
 47  23  47  1   
 48  24  26  ar  
 49  24  48  1   
 50  25  26  ar  
 51  25  49  1   
 52  26  50  1   
@<TRIPOS>SUBSTRUCTURE
  1 ****  14 GROUP 4 **** **** 0

# MOE 2024.06 (io_trps.svl 2023.06)
