@<TRIPOS>MOLECULE
NONAME
39 40 1 0 0 
SMALL
USER_CHARGES


@<TRIPOS>ATOM
  1 O        0.1380     0.1730    -0.2330 O.2   1 <1>  -0.5700 
  2 C       -0.6440     1.0790    -0.0300 C.2   1 <1>   0.7800 
  3 O       -1.9270     0.8530     0.2500 O.3   1 <1>  -0.4300 
  4 N       -0.2500     2.3890    -0.0780 N.am  1 <1>  -0.6600 
  5 C       -2.5690    -0.4010     0.3530 C.3   1 <1>   0.2800 
  6 C        1.1100     2.7940    -0.5030 C.3   1 <1>   0.2200 
  7 C       -1.2170     3.5000    -0.2280 C.3   1 <1>   0.1400 
  8 C       -1.9570    -1.2190     1.4960 C.3   1 <1>  -0.2400 
  9 C       -4.0250    -0.0770     0.6890 C.3   1 <1>  -0.2400 
 10 C       -2.5120    -1.1380    -0.9900 C.3   1 <1>  -0.2400 
 11 C        1.0350     4.3350    -0.5830 C.3   1 <1>   0.4230 
 12 C        2.1780     2.2960     0.4960 C.3   1 <1>  -0.1600 
 13 C       -0.4260     4.6130    -0.9150 C.3   1 <1>  -0.1600 
 14 N        1.3440     4.9190     0.7520 N.4   1 <1>  -0.9060 
 15 C        3.2900     3.3400     0.7020 C.3   1 <1>  -0.1600 
 16 C        2.7560     4.6990     1.1860 C.3   1 <1>   0.3430 
 17 H        1.3000     2.3940    -1.4860 H     1 <1>   0.0800 
 18 H       -2.0650     3.1970    -0.8220 H     1 <1>   0.0800 
 19 H       -1.5600     3.8060     0.7460 H     1 <1>   0.0800 
 20 H       -2.5350    -2.1100     1.6590 H     1 <1>   0.0800 
 21 H       -1.9510    -0.6470     2.4060 H     1 <1>   0.0800 
 22 H       -0.9540    -1.5250     1.2620 H     1 <1>   0.0800 
 23 H       -4.5950    -0.9830     0.7880 H     1 <1>   0.0800 
 24 H       -4.4670     0.5160    -0.0920 H     1 <1>   0.0800 
 25 H       -4.0840     0.4630     1.6170 H     1 <1>   0.0800 
 26 H       -3.1170    -2.0250    -0.9460 H     1 <1>   0.0800 
 27 H       -1.5090    -1.4430    -1.2250 H     1 <1>   0.0800 
 28 H       -2.8860    -0.5110    -1.7790 H     1 <1>   0.0800 
 29 H        1.7050     4.7270    -1.3310 H     1 <1>   0.0800 
 30 H        1.7220     2.0800     1.4480 H     1 <1>   0.0800 
 31 H        2.6040     1.3780     0.1280 H     1 <1>   0.0800 
 32 H       -0.7580     5.5930    -0.6250 H     1 <1>   0.0800 
 33 H       -0.5660     4.5130    -1.9770 H     1 <1>   0.0800 
 34 H        1.0990     5.9140     0.7850 H     1 <1>   0.4500 
 35 H        0.7310     4.4210     1.4120 H     1 <1>   0.4500 
 36 H        3.8190     3.4820    -0.2250 H     1 <1>   0.0800 
 37 H        4.0080     2.9710     1.4150 H     1 <1>   0.0800 
 38 H        3.3900     5.4820     0.8000 H     1 <1>   0.0800 
 39 H        2.8040     4.7360     2.2630 H     1 <1>   0.0800 
@<TRIPOS>BOND
  1   1   2  2   
  2   2   3  1   
  3   2   4  am  
  4   3   5  1   
  5   4   6  1   
  6   4   7  1   
  7   5   8  1   
  8   5   9  1   
  9   5  10  1   
 10   6  11  1   
 11   6  12  1   
 12   6  17  1   
 13   7  13  1   
 14   7  18  1   
 15   7  19  1   
 16   8  20  1   
 17   8  21  1   
 18   8  22  1   
 19   9  23  1   
 20   9  24  1   
 21   9  25  1   
 22  10  26  1   
 23  10  27  1   
 24  10  28  1   
 25  11  13  1   
 26  11  14  1   
 27  11  29  1   
 28  12  15  1   
 29  12  30  1   
 30  12  31  1   
 31  13  32  1   
 32  13  33  1   
 33  14  16  1   
 34  14  34  1   
 35  14  35  1   
 36  15  16  1   
 37  15  36  1   
 38  15  37  1   
 39  16  38  1   
 40  16  39  1   
@<TRIPOS>SUBSTRUCTURE
  1 ****   4 GROUP 4 **** **** 0

# MOE 2024.06 (io_trps.svl 2023.06)
