@<TRIPOS>MOLECULE
NONAME
55 56 1 0 0 
SMALL
USER_CHARGES


@<TRIPOS>ATOM
  1 O       -0.6280     0.8160     1.5330 O.2   1 <1>  -0.5700 
  2 C       -0.5660     1.9440     1.1040 C.2   1 <1>   0.5690 
  3 N       -1.5590     2.8650     1.3140 N.am  1 <1>  -0.6600 
  4 C        0.6640     2.3310     0.2780 C.3   1 <1>   0.1810 
  5 C       -1.4430     4.2600     0.7720 C.3   1 <1>   0.3640 
  6 C       -2.7550     2.5690     2.1560 C.3   1 <1>   0.0600 
  7 O        0.8650     3.7220     0.2080 O.3   1 <1>  -0.5600 
  8 C       -2.7890     4.7590     0.2230 C.ar  1 <1>  -0.1430 
  9 C       -0.2790     4.4350    -0.2330 C.3   1 <1>   0.2610 
 10 C       -3.4700     4.1930    -0.8600 C.ar  1 <1>  -0.1430 
 11 C       -3.3530     5.8550     0.8680 C.ar  1 <1>  -0.1500 
 12 C        0.0440     5.9210    -0.3840 C.2   1 <1>   0.5690 
 13 C       -4.6800     4.7390    -1.2640 C.ar  1 <1>  -0.1500 
 14 C       -2.9660     2.9930    -1.6550 C.3   1 <1>  -0.0960 
 15 C       -4.5590     6.3880     0.4570 C.ar  1 <1>  -0.1500 
 16 O       -0.4980     6.5480    -1.2620 O.2   1 <1>  -0.5700 
 17 N        0.9380     6.4710     0.4870 N.am  1 <1>  -0.7300 
 18 C       -5.2260     5.8280    -0.6130 C.ar  1 <1>  -0.1500 
 19 C        1.3990     7.8800     0.6340 C.3   1 <1>   0.2200 
 20 C        0.3910     8.7050     1.4840 C.3   1 <1>  -0.0800 
 21 C        1.8230     8.5090    -0.7250 C.3   1 <1>  -0.0800 
 22 C        0.1110     8.0430     2.8440 C.3   1 <1>  -0.2400 
 23 C       -0.9440     9.0100     0.7820 C.3   1 <1>  -0.2400 
 24 C        2.8780     7.6490    -1.4460 C.3   1 <1>  -0.2400 
 25 C        2.3940     9.9280    -0.5600 C.3   1 <1>  -0.2400 
 26 H        0.5590     1.9500    -0.7220 H     1 <1>   0.0800 
 27 H        1.5400     1.8960     0.7230 H     1 <1>   0.0800 
 28 H       -1.1930     4.8790     1.6160 H     1 <1>   0.0800 
 29 H       -2.8780     3.3360     2.9000 H     1 <1>   0.0800 
 30 H       -2.6450     1.6210     2.6540 H     1 <1>   0.0800 
 31 H       -3.6360     2.5320     1.5390 H     1 <1>   0.0800 
 32 H       -0.5510     4.0590    -1.1990 H     1 <1>   0.0800 
 33 H       -2.8540     6.3150     1.7030 H     1 <1>   0.1500 
 34 H       -5.2110     4.3180    -2.1000 H     1 <1>   0.1500 
 35 H       -3.7890     2.4840    -2.1250 H     1 <1>   0.0800 
 36 H       -2.4700     2.2780    -1.0300 H     1 <1>   0.0800 
 37 H       -2.2940     3.3210    -2.4260 H     1 <1>   0.0800 
 38 H       -4.9770     7.2390     0.9670 H     1 <1>   0.1500 
 39 H        1.4380     5.8080     1.0820 H     1 <1>   0.3700 
 40 H       -6.1640     6.2400    -0.9410 H     1 <1>   0.1500 
 41 H        2.3020     7.8330     1.2180 H     1 <1>   0.0800 
 42 H        0.8560     9.6510     1.7000 H     1 <1>   0.0800 
 43 H        0.9600     8.5830    -1.3640 H     1 <1>   0.0800 
 44 H       -0.4240     7.1190     2.7190 H     1 <1>   0.0800 
 45 H       -0.4830     8.6960     3.4590 H     1 <1>   0.0800 
 46 H        1.0330     7.8420     3.3600 H     1 <1>   0.0800 
 47 H       -1.4870     8.1060     0.5800 H     1 <1>   0.0800 
 48 H       -0.7800     9.5190    -0.1490 H     1 <1>   0.0800 
 49 H       -1.5560     9.6400     1.4020 H     1 <1>   0.0800 
 50 H        3.7530     7.5280    -0.8330 H     1 <1>   0.0800 
 51 H        3.1670     8.1120    -2.3730 H     1 <1>   0.0800 
 52 H        2.4830     6.6770    -1.6780 H     1 <1>   0.0800 
 53 H        3.2220     9.9280     0.1270 H     1 <1>   0.0800 
 54 H        1.6410    10.6050    -0.2010 H     1 <1>   0.0800 
 55 H        2.7370    10.3030    -1.5080 H     1 <1>   0.0800 
@<TRIPOS>BOND
  1   1   2  2   
  2   2   3  am  
  3   2   4  1   
  4   3   5  1   
  5   3   6  1   
  6   4   7  1   
  7   4  26  1   
  8   4  27  1   
  9   5   8  1   
 10   5   9  1   
 11   5  28  1   
 12   6  29  1   
 13   6  30  1   
 14   6  31  1   
 15   7   9  1   
 16   8  10  ar  
 17   8  11  ar  
 18   9  12  1   
 19   9  32  1   
 20  10  13  ar  
 21  10  14  1   
 22  11  15  ar  
 23  11  33  1   
 24  12  16  2   
 25  12  17  am  
 26  13  18  ar  
 27  13  34  1   
 28  14  35  1   
 29  14  36  1   
 30  14  37  1   
 31  15  18  ar  
 32  15  38  1   
 33  17  19  1   
 34  17  39  1   
 35  18  40  1   
 36  19  20  1   
 37  19  21  1   
 38  19  41  1   
 39  20  22  1   
 40  20  23  1   
 41  20  42  1   
 42  21  24  1   
 43  21  25  1   
 44  21  43  1   
 45  22  44  1   
 46  22  45  1   
 47  22  46  1   
 48  23  47  1   
 49  23  48  1   
 50  23  49  1   
 51  24  50  1   
 52  24  51  1   
 53  24  52  1   
 54  25  53  1   
 55  25  54  1   
 56  25  55  1   
@<TRIPOS>SUBSTRUCTURE
  1 ****  12 GROUP 4 **** **** 0

# MOE 2024.06 (io_trps.svl 2023.06)
