@<TRIPOS>MOLECULE
NONAME
46 48 1 0 0 
SMALL
USER_CHARGES


@<TRIPOS>ATOM
  1 F       -0.7560     2.0980     3.2520 F     1 <1>  -0.1900 
  2 C       -0.2660     3.0520     2.5050 C.ar  1 <1>   0.1900 
  3 C        0.2840     2.7230     1.2800 C.ar  1 <1>  -0.1500 
  4 C       -0.3170     4.3530     2.9670 C.ar  1 <1>  -0.1500 
  5 C        0.8060     3.7340     0.4890 C.ar  1 <1>  -0.1500 
  6 C        0.2060     5.3570     2.1710 C.ar  1 <1>  -0.1500 
  7 C        0.7700     5.0560     0.9370 C.ar  1 <1>   0.0830 
  8 O        1.2670     6.1020     0.2310 O.3   1 <1>  -0.3630 
  9 C        1.9130     5.9100    -1.0200 C.3   1 <1>   0.1810 
 10 C        2.4300     7.2330    -1.5850 C.2   1 <1>   0.5690 
 11 O        2.1480     7.4810    -2.7330 O.2   1 <1>  -0.5700 
 12 N        3.1970     8.1160    -0.8550 N.am  1 <1>  -0.6600 
 13 C        3.7760     7.7820     0.5070 C.3   1 <1>   0.2200 
 14 C        3.3130     9.5180    -1.3830 C.3   1 <1>   0.1400 
 15 C        3.1160     8.6100     1.6200 C.3   1 <1>   0.1200 
 16 C        5.3190     7.8930     0.5550 C.3   1 <1>   0.3430 
 17 C        4.1240    10.5050    -0.5250 C.3   1 <1>  -0.0800 
 18 O        3.7360     9.8500     1.7710 O.3   1 <1>  -0.5600 
 19 N        5.8890     8.6960    -0.5780 N.4   1 <1>  -0.9590 
 20 C        3.4400    10.8130     0.8160 C.3   1 <1>   0.1200 
 21 C        5.6140    10.1490    -0.3640 C.3   1 <1>   0.3430 
 22 C        7.3960     8.4820    -0.6220 C.3   1 <1>   0.2370 
 23 C        8.1250     8.8520     0.6730 C.2   1 <1>   0.9060 
 24 O        8.5090    10.0160     0.8040 O.co2 1 <1>  -0.9000 
 25 O        8.1650     8.0030     1.5680 O.co2 1 <1>  -0.9000 
 26 H        0.2990     1.6970     0.9580 H     1 <1>   0.1500 
 27 H       -0.7580     4.5680     3.9240 H     1 <1>   0.1500 
 28 H        1.2260     3.4700    -0.4630 H     1 <1>   0.1500 
 29 H        0.1750     6.3790     2.5030 H     1 <1>   0.1500 
 30 H        2.7320     5.2290    -0.8860 H     1 <1>   0.0800 
 31 H        1.1970     5.4890    -1.7030 H     1 <1>   0.0800 
 32 H        3.5560     6.7590     0.7420 H     1 <1>   0.0800 
 33 H        3.7490     9.4750    -2.3680 H     1 <1>   0.0800 
 34 H        2.3160     9.9080    -1.5070 H     1 <1>   0.0800 
 35 H        3.2360     8.0960     2.5570 H     1 <1>   0.0800 
 36 H        2.0620     8.7440     1.4420 H     1 <1>   0.0800 
 37 H        5.7320     6.8990     0.5210 H     1 <1>   0.0800 
 38 H        5.6250     8.3200     1.4980 H     1 <1>   0.0800 
 39 H        4.1050    11.4370    -1.0600 H     1 <1>   0.0800 
 40 H        5.4330     8.3830    -1.4430 H     1 <1>   0.4500 
 41 H        2.3710    10.8940     0.7130 H     1 <1>   0.0800 
 42 H        3.8120    11.7470     1.2020 H     1 <1>   0.0800 
 43 H        5.9580    10.4440     0.6160 H     1 <1>   0.0800 
 44 H        6.1830    10.7150    -1.0830 H     1 <1>   0.0800 
 45 H        7.6110     7.4470    -0.8170 H     1 <1>   0.0800 
 46 H        7.8280     9.0730    -1.4080 H     1 <1>   0.0800 
@<TRIPOS>BOND
  1   1   2  1   
  2   2   3  ar  
  3   2   4  ar  
  4   3   5  ar  
  5   3  26  1   
  6   4   6  ar  
  7   4  27  1   
  8   5   7  ar  
  9   5  28  1   
 10   6   7  ar  
 11   6  29  1   
 12   7   8  1   
 13   8   9  1   
 14   9  10  1   
 15   9  30  1   
 16   9  31  1   
 17  10  11  2   
 18  10  12  am  
 19  12  13  1   
 20  12  14  1   
 21  13  15  1   
 22  13  16  1   
 23  13  32  1   
 24  14  17  1   
 25  14  33  1   
 26  14  34  1   
 27  15  18  1   
 28  15  35  1   
 29  15  36  1   
 30  16  19  1   
 31  16  37  1   
 32  16  38  1   
 33  17  20  1   
 34  17  21  1   
 35  17  39  1   
 36  18  20  1   
 37  19  21  1   
 38  19  22  1   
 39  19  40  1   
 40  20  41  1   
 41  20  42  1   
 42  21  43  1   
 43  21  44  1   
 44  22  23  1   
 45  22  45  1   
 46  22  46  1   
 47  23  24  ar  
 48  23  25  ar  
@<TRIPOS>SUBSTRUCTURE
  1 ****  13 GROUP 4 **** **** 0

# MOE 2024.06 (io_trps.svl 2023.06)
