@<TRIPOS>MOLECULE
NONAME
52 55 1 0 0 
SMALL
USER_CHARGES


@<TRIPOS>ATOM
  1 O       -0.1830    -1.9090     0.0050 O.3   1 <1>  -0.6800 
  2 C        0.9880    -1.5100    -0.6230 C.3   1 <1>   0.2000 
  3 C        2.1550    -2.2160     0.0790 C.3   1 <1>  -0.0800 
  4 C        1.1720    -0.0110    -0.3440 C.3   1 <1>   0.3430 
  5 C        2.5070    -1.2410     1.2050 C.3   1 <1>   0.3430 
  6 C        3.3440    -2.5270    -0.8690 C.3   1 <1>   0.0210 
  7 N        2.3300     0.0890     0.5870 N.4   1 <1>  -0.9590 
  8 C        4.2760    -1.3640    -1.1930 C.2   1 <1>   0.1080 
  9 C        2.3840     1.2790     1.4500 C.3   1 <1>   0.5240 
 10 N        3.8890    -0.2480    -1.7340 N.2   1 <1>  -0.7070 
 11 C        5.6420    -1.3700    -0.9350 C.2   1 <1>  -0.1500 
 12 C        3.4410     2.1600     0.8250 C.2   1 <1>  -0.1810 
 13 N        5.0190     0.4920    -1.8500 N.pl3 1 <1>   0.3000 
 14 C        6.0870    -0.1700    -1.3620 C.2   1 <1>  -0.3320 
 15 C        3.3180     2.8560    -0.3700 C.2   1 <1>   0.1390 
 16 C        4.7050     2.4080     1.2310 C.2   1 <1>  -0.3020 
 17 C        7.5010     0.3840    -1.3450 C.3   1 <1>  -0.0600 
 18 N        4.4160     3.4550    -0.6970 N.2   1 <1>  -0.7070 
 19 N        5.2990     3.2140     0.3110 N.pl3 1 <1>   0.5930 
 20 C        6.6540     3.6700     0.2980 C.ar  1 <1>  -0.0230 
 21 C        7.2330     4.1420    -0.8780 C.ar  1 <1>  -0.1500 
 22 C        7.4410     3.6460     1.4490 C.ar  1 <1>  -0.1500 
 23 C        8.5520     4.5540    -0.9090 C.ar  1 <1>  -0.1500 
 24 C        8.7610     4.0580     1.4160 C.ar  1 <1>  -0.1500 
 25 C        9.3260     4.5110     0.2370 C.ar  1 <1>  -0.1430 
 26 C       10.7740     4.9650     0.2040 C.3   1 <1>  -0.0970 
 27 H       -0.4720    -2.7930    -0.3080 H     1 <1>   0.4000 
 28 H        0.9080    -1.7230    -1.6760 H     1 <1>   0.0800 
 29 H        1.8270    -3.1520     0.4970 H     1 <1>   0.0800 
 30 H        0.2740     0.3860     0.1010 H     1 <1>   0.0800 
 31 H        1.3930     0.5130    -1.2590 H     1 <1>   0.0800 
 32 H        3.5140    -1.3850     1.5610 H     1 <1>   0.0800 
 33 H        1.8080    -1.3620     2.0170 H     1 <1>   0.0800 
 34 H        2.9740    -2.9330    -1.7940 H     1 <1>   0.0800 
 35 H        3.9400    -3.2990    -0.4140 H     1 <1>   0.0800 
 36 H        3.1430     0.1810    -0.0630 H     1 <1>   0.4500 
 37 H        1.4310     1.7810     1.4820 H     1 <1>   0.0800 
 38 H        2.6800     1.0070     2.4500 H     1 <1>   0.0800 
 39 H        6.2100    -2.1720    -0.4960 H     1 <1>   0.1500 
 40 H        5.0290     1.4490    -2.2380 H     1 <1>   0.2700 
 41 H        2.4290     2.8920    -0.9800 H     1 <1>   0.1500 
 42 H        5.2250     2.0520     2.1000 H     1 <1>   0.1500 
 43 H        8.1920    -0.3700    -1.0130 H     1 <1>   0.0800 
 44 H        7.5720     1.2230    -0.6780 H     1 <1>   0.0800 
 45 H        7.7920     0.6990    -2.3320 H     1 <1>   0.0800 
 46 H        6.6510     4.1930    -1.7830 H     1 <1>   0.1500 
 47 H        7.0360     3.3100     2.3860 H     1 <1>   0.1500 
 48 H        8.9740     4.9140    -1.8320 H     1 <1>   0.1500 
 49 H        9.3500     4.0300     2.3170 H     1 <1>   0.1500 
 50 H       11.1990     4.7980    -0.7690 H     1 <1>   0.0800 
 51 H       11.3560     4.4210     0.9260 H     1 <1>   0.0800 
 52 H       10.8310     6.0140     0.4320 H     1 <1>   0.0800 
@<TRIPOS>BOND
  1   1   2  1   
  2   1  27  1   
  3   2   3  1   
  4   2   4  1   
  5   2  28  1   
  6   3   5  1   
  7   3   6  1   
  8   3  29  1   
  9   4   7  1   
 10   4  30  1   
 11   4  31  1   
 12   5   7  1   
 13   5  32  1   
 14   5  33  1   
 15   6   8  1   
 16   6  34  1   
 17   6  35  1   
 18   7   9  1   
 19   7  36  1   
 20   8  10  2   
 21   8  11  1   
 22   9  12  1   
 23   9  37  1   
 24   9  38  1   
 25  10  13  1   
 26  11  14  2   
 27  11  39  1   
 28  12  15  1   
 29  12  16  2   
 30  13  14  1   
 31  13  40  1   
 32  14  17  1   
 33  15  18  2   
 34  15  41  1   
 35  16  19  1   
 36  16  42  1   
 37  17  43  1   
 38  17  44  1   
 39  17  45  1   
 40  18  19  1   
 41  19  20  1   
 42  20  21  ar  
 43  20  22  ar  
 44  21  23  ar  
 45  21  46  1   
 46  22  24  ar  
 47  22  47  1   
 48  23  25  ar  
 49  23  48  1   
 50  24  25  ar  
 51  24  49  1   
 52  25  26  1   
 53  26  50  1   
 54  26  51  1   
 55  26  52  1   
@<TRIPOS>SUBSTRUCTURE
  1 ****  16 GROUP 4 **** **** 0

# MOE 2024.06 (io_trps.svl 2023.06)
