@<TRIPOS>MOLECULE
NONAME
56 59 1 0 0 
SMALL
USER_CHARGES


@<TRIPOS>ATOM
  1 S       -0.7290     0.3710     1.3540 S.3   1 <1>  -0.0800 
  2 C       -0.5430     1.5460     0.0630 C.2   1 <1>  -0.1400 
  3 C       -1.6930    -0.6840     0.3360 C.2   1 <1>  -0.1400 
  4 C       -1.1860     1.1230    -1.0420 C.2   1 <1>  -0.1500 
  5 C        0.2650     2.7960     0.3830 C.3   1 <1>   0.1000 
  6 C       -1.8370    -0.1420    -0.8910 C.2   1 <1>  -0.1500 
  7 C       -2.1580    -1.9620     1.0060 C.3   1 <1>   0.5230 
  8 C        0.3540     3.7960    -0.7670 C.3   1 <1>  -0.1600 
  9 C        1.7290     2.4950     0.6980 C.3   1 <1>  -0.1600 
 10 N       -3.0360    -2.7250     0.0790 N.4   1 <1>  -0.9590 
 11 C        1.5560     4.6750    -0.4210 C.3   1 <1>  -0.1600 
 12 C        2.4890     3.7980     0.4210 C.3   1 <1>  -0.1600 
 13 C       -3.0850    -4.1810     0.4940 C.3   1 <1>   0.3430 
 14 C       -4.3830    -2.0600     0.0700 C.3   1 <1>   0.3430 
 15 C       -4.1530    -5.0240    -0.2770 C.3   1 <1>   0.4230 
 16 C       -5.4090    -2.9150    -0.6850 C.3   1 <1>  -0.1600 
 17 N       -4.2280    -6.4740     0.1370 N.4   1 <1>  -0.9590 
 18 C       -5.5200    -4.3430    -0.0840 C.3   1 <1>  -0.1060 
 19 C       -5.2500    -7.2440    -0.6270 C.3   1 <1>   0.3430 
 20 C       -2.9390    -7.2180     0.2290 C.3   1 <1>   0.2630 
 21 C       -5.7710    -4.2720     1.4340 C.2   1 <1>   0.9060 
 22 C       -6.6340    -5.1190    -0.8240 C.3   1 <1>  -0.1600 
 23 C       -6.6280    -6.6070    -0.4480 C.3   1 <1>  -0.1600 
 24 O       -5.3270    -5.1840     2.1430 O.co2 1 <1>  -0.9000 
 25 O       -6.2310    -3.2430     1.9160 O.co2 1 <1>  -0.9000 
 26 H       -1.2340     1.6570    -1.9760 H     1 <1>   0.1500 
 27 H       -0.1760     3.2920     1.2320 H     1 <1>   0.0800 
 28 H       -2.3730    -0.5530    -1.7270 H     1 <1>   0.1500 
 29 H       -2.6910    -1.7280     1.9150 H     1 <1>   0.0800 
 30 H       -1.2900    -2.5460     1.2650 H     1 <1>   0.0800 
 31 H        0.5590     3.2750    -1.6860 H     1 <1>   0.0800 
 32 H       -0.5510     4.3680    -0.8750 H     1 <1>   0.0800 
 33 H        1.8580     2.1630     1.7130 H     1 <1>   0.0800 
 34 H        2.0850     1.7290     0.0310 H     1 <1>   0.0800 
 35 H       -2.6190    -2.6250    -0.8540 H     1 <1>   0.4500 
 36 H        2.0430     5.0410    -1.3080 H     1 <1>   0.0800 
 37 H        1.2290     5.5160     0.1680 H     1 <1>   0.0800 
 38 H        2.7270     4.2970     1.3440 H     1 <1>   0.0800 
 39 H        3.4050     3.5910    -0.1070 H     1 <1>   0.0800 
 40 H       -2.1150    -4.6230     0.3410 H     1 <1>   0.0800 
 41 H       -3.3120    -4.2340     1.5470 H     1 <1>   0.0800 
 42 H       -4.7220    -1.9110     1.0840 H     1 <1>   0.0800 
 43 H       -4.3160    -1.0860    -0.3890 H     1 <1>   0.0800 
 44 H       -3.9040    -4.9950    -1.3240 H     1 <1>   0.0800 
 45 H       -6.3660    -2.4250    -0.5980 H     1 <1>   0.0800 
 46 H       -5.1620    -2.9470    -1.7310 H     1 <1>   0.0800 
 47 H       -4.6330    -6.3870     1.1120 H     1 <1>   0.4500 
 48 H       -4.9910    -7.2600    -1.6730 H     1 <1>   0.0800 
 49 H       -5.2860    -8.2610    -0.2690 H     1 <1>   0.0800 
 50 H       -2.4720    -7.2840    -0.7400 H     1 <1>   0.0800 
 51 H       -3.1180    -8.2170     0.5940 H     1 <1>   0.0800 
 52 H       -2.2690    -6.7290     0.9150 H     1 <1>   0.0800 
 53 H       -7.5930    -4.6940    -0.5750 H     1 <1>   0.0800 
 54 H       -6.5030    -5.0280    -1.8890 H     1 <1>   0.0800 
 55 H       -7.3410    -7.1320    -1.0600 H     1 <1>   0.0800 
 56 H       -6.9420    -6.7280     0.5760 H     1 <1>   0.0800 
@<TRIPOS>BOND
  1   1   2  1   
  2   1   3  1   
  3   2   4  2   
  4   2   5  1   
  5   3   6  2   
  6   3   7  1   
  7   4   6  1   
  8   4  26  1   
  9   5   8  1   
 10   5   9  1   
 11   5  27  1   
 12   6  28  1   
 13   7  10  1   
 14   7  29  1   
 15   7  30  1   
 16   8  11  1   
 17   8  31  1   
 18   8  32  1   
 19   9  12  1   
 20   9  33  1   
 21   9  34  1   
 22  10  13  1   
 23  10  14  1   
 24  10  35  1   
 25  11  12  1   
 26  11  36  1   
 27  11  37  1   
 28  12  38  1   
 29  12  39  1   
 30  13  15  1   
 31  13  40  1   
 32  13  41  1   
 33  14  16  1   
 34  14  42  1   
 35  14  43  1   
 36  15  17  1   
 37  15  18  1   
 38  15  44  1   
 39  16  18  1   
 40  16  45  1   
 41  16  46  1   
 42  17  19  1   
 43  17  20  1   
 44  17  47  1   
 45  18  21  1   
 46  18  22  1   
 47  19  23  1   
 48  19  48  1   
 49  19  49  1   
 50  20  50  1   
 51  20  51  1   
 52  20  52  1   
 53  21  24  ar  
 54  21  25  ar  
 55  22  23  1   
 56  22  53  1   
 57  22  54  1   
 58  23  55  1   
 59  23  56  1   
@<TRIPOS>SUBSTRUCTURE
  1 ****  10 GROUP 4 **** **** 0

# MOE 2024.06 (io_trps.svl 2023.06)
