@<TRIPOS>MOLECULE
NONAME
51 55 1 0 0 
SMALL
USER_CHARGES


@<TRIPOS>ATOM
  1 O        3.2600    -1.6100     2.1990 O.2   1 <1>  -0.5700 
  2 C        2.2840    -1.8370     1.5020 C.2   1 <1>   0.5440 
  3 N        1.7080    -0.7520     0.8610 N.am  1 <1>  -0.6600 
  4 C        1.8170    -3.2220     1.3730 C.ar  1 <1>   0.3960 
  5 C        0.5810    -0.7960    -0.1000 C.3   1 <1>   0.1400 
  6 C        2.2770     0.6130     0.9360 C.3   1 <1>   0.1400 
  7 N        0.5320    -3.5040     1.1000 N.ar  1 <1>  -0.6200 
  8 C        2.7580    -4.2430     1.5500 C.ar  1 <1>   0.1600 
  9 C        0.3850     0.6470    -0.5570 C.3   1 <1>  -0.1600 
 10 C        1.7220     1.3310    -0.2870 C.3   1 <1>  -0.1600 
 11 C        0.2680    -4.7960     1.0120 C.ar  1 <1>   0.4100 
 12 N        2.5190    -5.5440     1.4600 N.ar  1 <1>  -0.6200 
 13 N       -1.0470    -5.1440     0.7510 N.pl3 1 <1>  -0.8380 
 14 C        1.2530    -5.7800     1.1840 C.ar  1 <1>   0.1600 
 15 C       -1.8590    -4.2530    -0.1220 C.3   1 <1>   0.2090 
 16 C       -1.8100    -5.7800     1.8540 C.3   1 <1>   0.2090 
 17 C       -3.0220    -5.0430    -0.7180 C.3   1 <1>  -0.1600 
 18 C       -2.9740    -6.5840     1.2730 C.3   1 <1>  -0.1600 
 19 C       -3.8700    -5.7080     0.3820 C.3   1 <1>   0.1000 
 20 C       -5.0310    -6.5180    -0.1890 C.2   1 <1>   0.2980 
 21 O       -5.9170    -7.0010     0.6690 O.3   1 <1>  -0.2800 
 22 N       -5.2620    -6.7880    -1.4200 N.2   1 <1>  -0.5650 
 23 C       -6.8010    -7.6430    -0.0680 C.ar  1 <1>   0.1400 
 24 C       -6.4070    -7.5210    -1.3760 C.ar  1 <1>   0.2270 
 25 C       -7.9430    -8.3400     0.3030 C.ar  1 <1>  -0.1500 
 26 C       -7.1640    -8.1080    -2.3840 C.ar  1 <1>  -0.1500 
 27 C       -8.6950    -8.9230    -0.6990 C.ar  1 <1>  -0.1500 
 28 C       -8.3060    -8.8070    -2.0380 C.ar  1 <1>  -0.1500 
 29 H       -0.3110    -1.1700     0.3730 H     1 <1>   0.0800 
 30 H        0.8470    -1.4260    -0.9310 H     1 <1>   0.0800 
 31 H        3.3540     0.5880     0.9270 H     1 <1>   0.0800 
 32 H        1.9350     1.0830     1.8420 H     1 <1>   0.0800 
 33 H        3.7720    -3.9590     1.7760 H     1 <1>   0.1500 
 34 H       -0.3830     1.1000     0.0450 H     1 <1>   0.0800 
 35 H        0.0980     0.7030    -1.5920 H     1 <1>   0.0800 
 36 H        2.3890     1.1730    -1.1160 H     1 <1>   0.0800 
 37 H        1.6170     2.3880    -0.1160 H     1 <1>   0.0800 
 38 H        0.9460    -6.8040     1.0790 H     1 <1>   0.1500 
 39 H       -1.2420    -3.8640    -0.9150 H     1 <1>   0.0800 
 40 H       -2.2270    -3.4240     0.4590 H     1 <1>   0.0800 
 41 H       -2.1820    -5.0140     2.5130 H     1 <1>   0.0800 
 42 H       -1.1670    -6.4310     2.4220 H     1 <1>   0.0800 
 43 H       -2.6280    -5.7950    -1.3800 H     1 <1>   0.0800 
 44 H       -3.6390    -4.3840    -1.3010 H     1 <1>   0.0800 
 45 H       -3.5540    -6.9960     2.0790 H     1 <1>   0.0800 
 46 H       -2.5810    -7.4040     0.6970 H     1 <1>   0.0800 
 47 H       -4.2970    -4.9300     0.9900 H     1 <1>   0.0800 
 48 H       -8.2180    -8.4120     1.3400 H     1 <1>   0.1500 
 49 H       -6.8450    -8.0060    -3.4050 H     1 <1>   0.1500 
 50 H       -9.5890    -9.4720    -0.4540 H     1 <1>   0.1500 
 51 H       -8.9060    -9.2690    -2.8030 H     1 <1>   0.1500 
@<TRIPOS>BOND
  1   1   2  2   
  2   2   3  am  
  3   2   4  1   
  4   3   5  1   
  5   3   6  1   
  6   4   7  ar  
  7   4   8  ar  
  8   5   9  1   
  9   5  29  1   
 10   5  30  1   
 11   6  10  1   
 12   6  31  1   
 13   6  32  1   
 14   7  11  ar  
 15   8  12  ar  
 16   8  33  1   
 17   9  10  1   
 18   9  34  1   
 19   9  35  1   
 20  10  36  1   
 21  10  37  1   
 22  11  13  1   
 23  11  14  ar  
 24  12  14  ar  
 25  13  15  1   
 26  13  16  1   
 27  14  38  1   
 28  15  17  1   
 29  15  39  1   
 30  15  40  1   
 31  16  18  1   
 32  16  41  1   
 33  16  42  1   
 34  17  19  1   
 35  17  43  1   
 36  17  44  1   
 37  18  19  1   
 38  18  45  1   
 39  18  46  1   
 40  19  20  1   
 41  19  47  1   
 42  20  21  1   
 43  20  22  2   
 44  21  23  1   
 45  22  24  1   
 46  23  24  ar  
 47  23  25  ar  
 48  24  26  ar  
 49  25  27  ar  
 50  25  48  1   
 51  26  28  ar  
 52  26  49  1   
 53  27  28  ar  
 54  27  50  1   
 55  28  51  1   
@<TRIPOS>SUBSTRUCTURE
  1 ****  15 GROUP 4 **** **** 0

# MOE 2024.06 (io_trps.svl 2023.06)
