@<TRIPOS>MOLECULE
NONAME
54 58 1 0 0 
SMALL
USER_CHARGES


@<TRIPOS>ATOM
  1 O        0.8470     0.5190    -0.4040 O.3   1 <1>  -0.5600 
  2 C        2.0970    -0.0760    -0.1750 C.3   1 <1>   0.3440 
  3 C        0.8660     1.9120    -0.5350 C.3   1 <1>   0.2950 
  4 C        1.9370    -1.5850    -0.0610 C.ar  1 <1>  -0.1440 
  5 C        2.7110     0.4740     1.1330 C.3   1 <1>   0.3430 
  6 C       -0.5630     2.3680    -0.8310 C.3   1 <1>  -0.1950 
  7 C        1.3990     2.5570     0.7640 C.3   1 <1>   0.3430 
  8 C        2.9530    -2.4170    -0.5120 C.ar  1 <1>  -0.1500 
  9 C        0.8020    -2.1520     0.5050 C.ar  1 <1>  -0.1500 
 10 N        2.7250     1.9790     1.1780 N.4   1 <1>  -0.9590 
 11 C       -1.1150     2.3200    -2.2200 C.3   1 <1>  -0.2000 
 12 C       -0.8280     3.6440    -1.5690 C.3   1 <1>  -0.2000 
 13 C        2.8390    -3.7910    -0.3910 C.ar  1 <1>  -0.1500 
 14 C        0.6880    -3.5260     0.6250 C.ar  1 <1>  -0.1500 
 15 C        3.2140     2.5440     2.4530 C.3   1 <1>   0.5240 
 16 C        1.7080    -4.3460     0.1790 C.ar  1 <1>  -0.1500 
 17 C        3.7000     3.9460     2.1650 C.2   1 <1>  -0.1810 
 18 C        4.2120     4.4400     1.0030 C.2   1 <1>  -0.0260 
 19 C        3.7280     5.0080     3.0530 C.2   1 <1>   0.1390 
 20 N        4.4110     3.8270    -0.2200 N.2   1 <1>  -0.5760 
 21 N        4.5240     5.7600     1.2550 N.pl3 1 <1>   0.6010 
 22 N        4.2090     6.0960     2.5250 N.2   1 <1>  -0.7070 
 23 C        4.9390     4.5620    -1.1470 C.2   1 <1>   0.3750 
 24 C        5.0840     6.5320     0.2480 C.2   1 <1>  -0.1690 
 25 C        5.2920     5.9290    -0.9530 C.2   1 <1>  -0.1360 
 26 C        5.1930     3.9520    -2.5080 C.3   1 <1>  -0.1790 
 27 C        5.4280     7.9850     0.5480 C.3   1 <1>  -0.1020 
 28 H        2.7320     0.1530    -1.0130 H     1 <1>   0.0800 
 29 H        1.5030     2.1670    -1.3650 H     1 <1>   0.0800 
 30 H        3.7130     0.0910     1.2350 H     1 <1>   0.0800 
 31 H        2.1290     0.0900     1.9540 H     1 <1>   0.0800 
 32 H       -1.2440     2.1140    -0.0360 H     1 <1>   0.1000 
 33 H        0.6690     2.3980     1.5400 H     1 <1>   0.0800 
 34 H        1.4940     3.6200     0.6110 H     1 <1>   0.0800 
 35 H        3.8410    -2.0120    -0.9640 H     1 <1>   0.1500 
 36 H       -0.0070    -1.5300     0.8490 H     1 <1>   0.1500 
 37 H        3.4160     2.3390     0.4870 H     1 <1>   0.4500 
 38 H       -0.4820     1.9840    -3.0240 H     1 <1>   0.1000 
 39 H       -2.1400     2.0170    -2.3550 H     1 <1>   0.1000 
 40 H       -1.6660     4.2550    -1.2780 H     1 <1>   0.1000 
 41 H       -0.0150     4.2280    -1.9660 H     1 <1>   0.1000 
 42 H        3.6290    -4.4320    -0.7440 H     1 <1>   0.1500 
 43 H       -0.1960    -3.9570     1.0620 H     1 <1>   0.1500 
 44 H        2.4270     2.5550     3.1900 H     1 <1>   0.0800 
 45 H        4.0380     1.9590     2.8280 H     1 <1>   0.0800 
 46 H        1.6180    -5.4160     0.2710 H     1 <1>   0.1500 
 47 H        3.3950     4.9730     4.0790 H     1 <1>   0.1500 
 48 H        5.7240     6.4600    -1.7830 H     1 <1>   0.1500 
 49 H        6.2390     4.0160    -2.7460 H     1 <1>   0.0800 
 50 H        4.6300     4.4790    -3.2560 H     1 <1>   0.0800 
 51 H        4.9010     2.9170    -2.5210 H     1 <1>   0.0800 
 52 H        6.1370     8.0360     1.3570 H     1 <1>   0.0800 
 53 H        4.5420     8.5220     0.8400 H     1 <1>   0.0800 
 54 H        5.8550     8.4670    -0.3130 H     1 <1>   0.0800 
@<TRIPOS>BOND
  1   1   2  1   
  2   1   3  1   
  3   2   4  1   
  4   2   5  1   
  5   2  28  1   
  6   3   6  1   
  7   3   7  1   
  8   3  29  1   
  9   4   8  ar  
 10   4   9  ar  
 11   5  10  1   
 12   5  30  1   
 13   5  31  1   
 14   6  11  1   
 15   6  12  1   
 16   6  32  1   
 17   7  10  1   
 18   7  33  1   
 19   7  34  1   
 20   8  13  ar  
 21   8  35  1   
 22   9  14  ar  
 23   9  36  1   
 24  10  15  1   
 25  10  37  1   
 26  11  12  1   
 27  11  38  1   
 28  11  39  1   
 29  12  40  1   
 30  12  41  1   
 31  13  16  ar  
 32  13  42  1   
 33  14  16  ar  
 34  14  43  1   
 35  15  17  1   
 36  15  44  1   
 37  15  45  1   
 38  16  46  1   
 39  17  18  2   
 40  17  19  1   
 41  18  20  1   
 42  18  21  1   
 43  19  22  2   
 44  19  47  1   
 45  20  23  2   
 46  21  22  1   
 47  21  24  1   
 48  23  25  1   
 49  23  26  1   
 50  24  25  2   
 51  24  27  1   
 52  25  48  1   
 53  26  49  1   
 54  26  50  1   
 55  26  51  1   
 56  27  52  1   
 57  27  53  1   
 58  27  54  1   
@<TRIPOS>SUBSTRUCTURE
  1 ****  10 GROUP 4 **** **** 0

# MOE 2024.06 (io_trps.svl 2023.06)
