@<TRIPOS>MOLECULE
NONAME
60 62 1 0 0 
SMALL
USER_CHARGES


@<TRIPOS>ATOM
  1 O        0.4540    -0.2650    -1.9100 O.2   1 <1>  -0.5700 
  2 C        1.0310    -0.7310    -0.9450 C.2   1 <1>   0.5440 
  3 N        1.6150     0.1490    -0.0720 N.am  1 <1>  -0.7300 
  4 C        1.1230    -2.1640    -0.7420 C.ar  1 <1>   0.0860 
  5 C        1.5470     1.6100    -0.2140 C.3   1 <1>   0.2200 
  6 C        1.0080    -3.0500    -1.8170 C.ar  1 <1>  -0.1500 
  7 C        1.3300    -2.7270     0.5220 C.ar  1 <1>  -0.1500 
  8 C        2.7360     2.0910    -1.0410 C.3   1 <1>  -0.1600 
  9 C        1.5420     2.2650     1.1630 C.3   1 <1>  -0.1600 
 10 C        1.1110    -4.4160    -1.6450 C.ar  1 <1>  -0.1500 
 11 C        1.4340    -4.0930     0.6950 C.ar  1 <1>  -0.1500 
 12 C        2.7100     3.6100    -1.1690 C.3   1 <1>   0.3430 
 13 C        1.5270     3.7860     1.0210 C.3   1 <1>   0.3430 
 14 C        1.3310    -4.9580    -0.3850 C.ar  1 <1>   0.1000 
 15 N        2.6790     4.2280     0.1880 N.4   1 <1>  -0.9590 
 16 N        1.4440    -6.3230    -0.1900 N.pl3 1 <1>  -0.8380 
 17 C        2.8100     5.7170     0.1350 C.3   1 <1>   0.3430 
 18 C        2.7280    -6.9570    -0.5790 C.3   1 <1>   0.2090 
 19 C        0.2240    -7.1390    -0.3990 C.3   1 <1>   0.2090 
 20 C        4.2910     6.1040    -0.0480 C.3   1 <1>   0.2000 
 21 C        3.6010    -7.0820     0.6630 C.3   1 <1>  -0.2400 
 22 C        0.0590    -8.0990     0.7730 C.3   1 <1>  -0.2400 
 23 O        5.0980     5.1610     0.5930 O.3   1 <1>  -0.5600 
 24 C        4.6820     7.4300     0.5870 C.3   1 <1>  -0.1600 
 25 C        6.3420     5.7160     0.9040 C.3   1 <1>   0.1200 
 26 C        6.1580     7.2330     0.8840 C.3   1 <1>  -0.1600 
 27 H        2.2400    -0.2200     0.6450 H     1 <1>   0.3700 
 28 H        0.6330     1.8680    -0.7280 H     1 <1>   0.0800 
 29 H        0.8350    -2.6510    -2.8020 H     1 <1>   0.1500 
 30 H        1.4020    -2.0920     1.3850 H     1 <1>   0.1500 
 31 H        2.6790     1.6600    -2.0250 H     1 <1>   0.0800 
 32 H        3.6630     1.7830    -0.5900 H     1 <1>   0.0800 
 33 H        2.4070     1.9680     1.7280 H     1 <1>   0.0800 
 34 H        0.6620     1.9570     1.7000 H     1 <1>   0.0800 
 35 H        1.0220    -5.0770    -2.4860 H     1 <1>   0.1500 
 36 H        1.5930    -4.5180     1.6690 H     1 <1>   0.1500 
 37 H        1.8360     3.9080    -1.7270 H     1 <1>   0.0800 
 38 H        3.5870     3.9380    -1.7050 H     1 <1>   0.0800 
 39 H        1.5830     4.2380     1.9990 H     1 <1>   0.0800 
 40 H        0.6030     4.0940     0.5570 H     1 <1>   0.0800 
 41 H        3.5640     3.9470     0.6590 H     1 <1>   0.4500 
 42 H        2.4720     6.1370     1.0670 H     1 <1>   0.0800 
 43 H        2.2080     6.1350    -0.6550 H     1 <1>   0.0800 
 44 H        3.2270    -6.3490    -1.3140 H     1 <1>   0.0800 
 45 H        2.5530    -7.9310    -1.0050 H     1 <1>   0.0800 
 46 H        0.2950    -7.6820    -1.3260 H     1 <1>   0.0800 
 47 H       -0.6360    -6.4910    -0.4530 H     1 <1>   0.0800 
 48 H        4.5590     6.1020    -1.0910 H     1 <1>   0.0800 
 49 H        3.8030    -6.1070     1.0670 H     1 <1>   0.0800 
 50 H        4.5340    -7.5490     0.4070 H     1 <1>   0.0800 
 51 H        3.1050    -7.6800     1.4060 H     1 <1>   0.0800 
 52 H        0.8810    -8.7890     0.8110 H     1 <1>   0.0800 
 53 H       -0.8530    -8.6560     0.6600 H     1 <1>   0.0800 
 54 H        0.0140    -7.5440     1.6920 H     1 <1>   0.0800 
 55 H        4.1420     7.5790     1.5070 H     1 <1>   0.0800 
 56 H        4.5040     8.2650    -0.0680 H     1 <1>   0.0800 
 57 H        7.0560     5.3980     0.1630 H     1 <1>   0.0800 
 58 H        6.6410     5.3610     1.8760 H     1 <1>   0.0800 
 59 H        6.4440     7.6760     1.8230 H     1 <1>   0.0800 
 60 H        6.7680     7.6560     0.1040 H     1 <1>   0.0800 
@<TRIPOS>BOND
  1   1   2  2   
  2   2   3  am  
  3   2   4  1   
  4   3   5  1   
  5   3  27  1   
  6   4   6  ar  
  7   4   7  ar  
  8   5   8  1   
  9   5   9  1   
 10   5  28  1   
 11   6  10  ar  
 12   6  29  1   
 13   7  11  ar  
 14   7  30  1   
 15   8  12  1   
 16   8  31  1   
 17   8  32  1   
 18   9  13  1   
 19   9  33  1   
 20   9  34  1   
 21  10  14  ar  
 22  10  35  1   
 23  11  14  ar  
 24  11  36  1   
 25  12  15  1   
 26  12  37  1   
 27  12  38  1   
 28  13  15  1   
 29  13  39  1   
 30  13  40  1   
 31  14  16  1   
 32  15  17  1   
 33  15  41  1   
 34  16  18  1   
 35  16  19  1   
 36  17  20  1   
 37  17  42  1   
 38  17  43  1   
 39  18  21  1   
 40  18  44  1   
 41  18  45  1   
 42  19  22  1   
 43  19  46  1   
 44  19  47  1   
 45  20  23  1   
 46  20  24  1   
 47  20  48  1   
 48  21  49  1   
 49  21  50  1   
 50  21  51  1   
 51  22  52  1   
 52  22  53  1   
 53  22  54  1   
 54  23  25  1   
 55  24  26  1   
 56  24  55  1   
 57  24  56  1   
 58  25  26  1   
 59  25  57  1   
 60  25  58  1   
 61  26  59  1   
 62  26  60  1   
@<TRIPOS>SUBSTRUCTURE
  1 ****   3 GROUP 4 **** **** 0

# MOE 2024.06 (io_trps.svl 2023.06)
