@<TRIPOS>MOLECULE
NONAME
53 55 1 0 0 
SMALL
USER_CHARGES


@<TRIPOS>ATOM
  1 O       -0.8800     1.7020    -1.0030 O.3   1 <1>  -0.6800 
  2 C       -0.8970     2.7180    -0.0700 C.3   1 <1>   0.2000 
  3 C       -1.6370     3.9160    -0.6640 C.3   1 <1>  -0.1600 
  4 C        0.5480     3.0730     0.2730 C.3   1 <1>  -0.1600 
  5 C       -1.5770     5.1070     0.2950 C.3   1 <1>   0.2090 
  6 C        0.5910     4.2670     1.2260 C.3   1 <1>   0.2090 
  7 N       -0.1600     5.4060     0.6370 N.pl3 1 <1>  -0.8380 
  8 C        0.1750     6.6830     1.0420 C.ar  1 <1>   0.4100 
  9 N       -0.7430     7.3920     1.6770 N.ar  1 <1>  -0.6200 
 10 C        1.4240     7.1990     0.8010 C.ar  1 <1>  -0.1500 
 11 C       -0.3630     8.5960     2.0570 C.ar  1 <1>   0.4700 
 12 C        1.6940     8.4740     1.2350 C.ar  1 <1>   0.4100 
 13 N        0.8020     9.1900     1.8810 N.ar  1 <1>  -0.6200 
 14 N        2.8920     9.0900     1.0420 N.pl3 1 <1>  -0.8690 
 15 C        3.5160     9.2870    -0.2730 C.3   1 <1>   0.4700 
 16 C        4.3850    10.5320    -0.1720 C.2   1 <1>  -0.1810 
 17 C        2.4810     9.4650    -1.3840 C.3   1 <1>  -0.2400 
 18 C        5.7250    10.6000    -0.5460 C.2   1 <1>   0.1080 
 19 C        4.0910    11.7820     0.2680 C.2   1 <1>  -0.3320 
 20 N        6.2290    11.7760    -0.3610 N.2   1 <1>  -0.7070 
 21 C        6.5550     9.4670    -1.1060 C.3   1 <1>  -0.0590 
 22 N        5.2240    12.5120     0.1430 N.pl3 1 <1>   0.3140 
 23 C        2.7830    12.3510     0.8060 C.3   1 <1>  -0.0600 
 24 C        5.4330    13.9350     0.4890 C.3   1 <1>   0.0960 
 25 C        5.0950    14.8500    -0.6940 C.3   1 <1>  -0.2400 
 26 H       -1.7880     1.4870    -1.2860 H     1 <1>   0.4000 
 27 H       -1.4090     2.3590     0.8070 H     1 <1>   0.0800 
 28 H       -2.6660     3.6650    -0.8440 H     1 <1>   0.0800 
 29 H       -1.1810     4.2060    -1.5940 H     1 <1>   0.0800 
 30 H        1.0850     3.3260    -0.6230 H     1 <1>   0.0800 
 31 H        1.0270     2.2310     0.7360 H     1 <1>   0.0800 
 32 H       -2.1200     4.8890     1.1990 H     1 <1>   0.0800 
 33 H       -2.0270     5.9690    -0.1700 H     1 <1>   0.0800 
 34 H        1.6140     4.5500     1.4080 H     1 <1>   0.0800 
 35 H        0.1430     4.0030     2.1690 H     1 <1>   0.0800 
 36 H        2.1630     6.6240     0.2850 H     1 <1>   0.1500 
 37 H       -1.1050     9.1730     2.5830 H     1 <1>   0.1500 
 38 H        2.9540     9.9730     1.5530 H     1 <1>   0.4000 
 39 H        4.1300     8.4300    -0.4890 H     1 <1>   0.0800 
 40 H        1.7960    10.2540    -1.1410 H     1 <1>   0.0800 
 41 H        1.9370     8.5540    -1.5490 H     1 <1>   0.0800 
 42 H        2.9840     9.7230    -2.2980 H     1 <1>   0.0800 
 43 H        6.0980     9.0830    -1.9990 H     1 <1>   0.0800 
 44 H        6.6400     8.6830    -0.3770 H     1 <1>   0.0800 
 45 H        7.5400     9.8230    -1.3470 H     1 <1>   0.0800 
 46 H        1.9920    11.6250     0.7640 H     1 <1>   0.0800 
 47 H        2.4800    13.2010     0.2230 H     1 <1>   0.0800 
 48 H        2.9050    12.6550     1.8300 H     1 <1>   0.0800 
 49 H        6.4650    14.0600     0.7630 H     1 <1>   0.0800 
 50 H        4.8250    14.1780     1.3400 H     1 <1>   0.0800 
 51 H        5.7210    14.6050    -1.5350 H     1 <1>   0.0800 
 52 H        5.2690    15.8760    -0.4250 H     1 <1>   0.0800 
 53 H        4.0640    14.7370    -0.9770 H     1 <1>   0.0800 
@<TRIPOS>BOND
  1   1   2  1   
  2   1  26  1   
  3   2   3  1   
  4   2   4  1   
  5   2  27  1   
  6   3   5  1   
  7   3  28  1   
  8   3  29  1   
  9   4   6  1   
 10   4  30  1   
 11   4  31  1   
 12   5   7  1   
 13   5  32  1   
 14   5  33  1   
 15   6   7  1   
 16   6  34  1   
 17   6  35  1   
 18   7   8  1   
 19   8   9  ar  
 20   8  10  ar  
 21   9  11  ar  
 22  10  12  ar  
 23  10  36  1   
 24  11  13  ar  
 25  11  37  1   
 26  12  13  ar  
 27  12  14  1   
 28  14  15  1   
 29  14  38  1   
 30  15  16  1   
 31  15  17  1   
 32  15  39  1   
 33  16  18  1   
 34  16  19  2   
 35  17  40  1   
 36  17  41  1   
 37  17  42  1   
 38  18  20  2   
 39  18  21  1   
 40  19  22  1   
 41  19  23  1   
 42  20  22  1   
 43  21  43  1   
 44  21  44  1   
 45  21  45  1   
 46  22  24  1   
 47  23  46  1   
 48  23  47  1   
 49  23  48  1   
 50  24  25  1   
 51  24  49  1   
 52  24  50  1   
 53  25  51  1   
 54  25  52  1   
 55  25  53  1   
@<TRIPOS>SUBSTRUCTURE
  1 ****  12 GROUP 4 **** **** 0

# MOE 2024.06 (io_trps.svl 2023.06)
