@<TRIPOS>MOLECULE
NONAME
55 57 1 0 0 
SMALL
USER_CHARGES


@<TRIPOS>ATOM
  1 O        2.2960    -0.0030     2.0570 O.2   1 <1>  -0.5700 
  2 C        2.3710    -0.3670     0.8970 C.2   1 <1>   0.5440 
  3 N        2.6990     0.5580    -0.0760 N.am  1 <1>  -0.6600 
  4 C        2.1260    -1.7590     0.5780 C.ar  1 <1>   0.0860 
  5 C        3.1770     0.1440    -1.4390 C.3   1 <1>   0.1400 
  6 C        2.7560     2.0120     0.2530 C.3   1 <1>   0.1400 
  7 C        1.1580    -2.1340    -0.3530 C.ar  1 <1>  -0.1500 
  8 C        2.8550    -2.7750     1.1930 C.ar  1 <1>  -0.1500 
  9 C        4.4460     0.8760    -1.9080 C.3   1 <1>   0.1400 
 10 C        4.1090     2.3870     0.8770 C.3   1 <1>  -0.1600 
 11 C        0.9330    -3.4600    -0.6800 C.ar  1 <1>  -0.1440 
 12 C        2.6440    -4.1040     0.8800 C.ar  1 <1>  -0.1500 
 13 N        5.4090     1.0570    -0.7860 N.am  1 <1>  -0.6600 
 14 C        5.2990     2.3680    -0.0900 C.3   1 <1>   0.1400 
 15 C        1.6830    -4.4580    -0.0640 C.ar  1 <1>   0.0830 
 16 C       -0.1330    -3.8180    -1.7050 C.3   1 <1>  -0.0970 
 17 C        6.1790     0.0040    -0.3590 C.2   1 <1>   0.5690 
 18 O        1.4360    -5.7440    -0.4150 O.3   1 <1>  -0.3630 
 19 O        6.2370    -1.0280    -0.9940 O.2   1 <1>  -0.5700 
 20 C        6.9720     0.0700     0.9280 C.3   1 <1>   0.1570 
 21 C        2.1380    -6.8260     0.1540 C.3   1 <1>   0.0400 
 22 N        8.2620     0.7090     0.6650 N.pl3 1 <1>   0.3140 
 23 N        8.6160     1.8890     1.2380 N.2   1 <1>  -0.7070 
 24 C        9.2520     0.2220    -0.1310 C.2   1 <1>  -0.0680 
 25 C        9.8140     2.1120     0.7990 C.2   1 <1>   0.1080 
 26 N        9.1960    -0.9690    -0.8710 N.pl3 1 <1>  -0.8840 
 27 C       10.2660     1.1130    -0.0560 C.2   1 <1>  -0.1500 
 28 C       10.6020     3.3370     1.1970 C.3   1 <1>  -0.0590 
 29 H        2.3910     0.3040    -2.1550 H     1 <1>   0.0800 
 30 H        3.4040    -0.9080    -1.4400 H     1 <1>   0.0800 
 31 H        1.9750     2.2340     0.9610 H     1 <1>   0.0800 
 32 H        2.5700     2.5970    -0.6300 H     1 <1>   0.0800 
 33 H        0.5770    -1.3590    -0.8200 H     1 <1>   0.1500 
 34 H        3.5960    -2.5050     1.9250 H     1 <1>   0.1500 
 35 H        4.1790     1.8320    -2.3210 H     1 <1>   0.0800 
 36 H        4.9110     0.3070    -2.6950 H     1 <1>   0.0800 
 37 H        4.3070     1.7390     1.7120 H     1 <1>   0.0800 
 38 H        4.0280     3.3830     1.2730 H     1 <1>   0.0800 
 39 H        3.2360    -4.8470     1.3780 H     1 <1>   0.1500 
 40 H        6.2040     2.5850     0.4490 H     1 <1>   0.0800 
 41 H        5.1810     3.1470    -0.8240 H     1 <1>   0.0800 
 42 H       -0.6240    -2.9400    -2.0840 H     1 <1>   0.0800 
 43 H       -0.8710    -4.4550    -1.2530 H     1 <1>   0.0800 
 44 H        0.3160    -4.3440    -2.5290 H     1 <1>   0.0800 
 45 H        7.1530    -0.9230     1.2910 H     1 <1>   0.0800 
 46 H        6.4430     0.6240     1.6770 H     1 <1>   0.0800 
 47 H        1.7660    -7.7330    -0.2850 H     1 <1>   0.0800 
 48 H        1.9640    -6.8350     1.2160 H     1 <1>   0.0800 
 49 H        3.1850    -6.7150    -0.0650 H     1 <1>   0.0800 
 50 H        9.8200    -0.9970    -1.6830 H     1 <1>   0.4000 
 51 H        8.2410    -1.2570    -1.1550 H     1 <1>   0.4000 
 52 H       11.2210     1.0700    -0.5430 H     1 <1>   0.1500 
 53 H       10.7160     3.3570     2.2650 H     1 <1>   0.0800 
 54 H       10.0750     4.2200     0.8860 H     1 <1>   0.0800 
 55 H       11.5730     3.3250     0.7390 H     1 <1>   0.0800 
@<TRIPOS>BOND
  1   1   2  2   
  2   2   3  am  
  3   2   4  1   
  4   3   5  1   
  5   3   6  1   
  6   4   7  ar  
  7   4   8  ar  
  8   5   9  1   
  9   5  29  1   
 10   5  30  1   
 11   6  10  1   
 12   6  31  1   
 13   6  32  1   
 14   7  11  ar  
 15   7  33  1   
 16   8  12  ar  
 17   8  34  1   
 18   9  13  1   
 19   9  35  1   
 20   9  36  1   
 21  10  14  1   
 22  10  37  1   
 23  10  38  1   
 24  11  15  ar  
 25  11  16  1   
 26  12  15  ar  
 27  12  39  1   
 28  13  14  1   
 29  13  17  am  
 30  14  40  1   
 31  14  41  1   
 32  15  18  1   
 33  16  42  1   
 34  16  43  1   
 35  16  44  1   
 36  17  19  2   
 37  17  20  1   
 38  18  21  1   
 39  20  22  1   
 40  20  45  1   
 41  20  46  1   
 42  21  47  1   
 43  21  48  1   
 44  21  49  1   
 45  22  23  1   
 46  22  24  1   
 47  23  25  2   
 48  24  26  1   
 49  24  27  2   
 50  25  27  1   
 51  25  28  1   
 52  26  50  1   
 53  26  51  1   
 54  27  52  1   
 55  28  53  1   
 56  28  54  1   
 57  28  55  1   
@<TRIPOS>SUBSTRUCTURE
  1 ****  17 GROUP 4 **** **** 0

# MOE 2024.06 (io_trps.svl 2023.06)
