@<TRIPOS>MOLECULE
NONAME
51 53 1 0 0 
SMALL
USER_CHARGES


@<TRIPOS>ATOM
  1 O       -1.6100     0.4530    -2.1320 O.2   1 <1>  -0.5700 
  2 C       -1.8880     0.9000    -1.0470 C.2   1 <1>   0.5690 
  3 N       -2.3210     0.1120    -0.0350 N.am  1 <1>  -0.7300 
  4 C       -1.7440     2.3830    -0.7980 C.3   1 <1>  -0.0990 
  5 C       -2.4820    -1.3560    -0.1180 C.3   1 <1>   0.2200 
  6 C       -0.3190     2.7290    -0.3560 C.3   1 <1>  -0.0160 
  7 C       -3.9630    -1.6950    -0.1340 C.3   1 <1>  -0.0800 
  8 C       -2.0350    -1.9900     1.1940 C.3   1 <1>   0.1200 
  9 C       -0.2120     4.2120    -0.0440 C.ar  1 <1>  -0.1440 
 10 C       -4.3150    -1.7060     1.3590 C.3   1 <1>   0.1200 
 11 C       -4.2220    -3.0580    -0.8060 C.3   1 <1>  -0.0160 
 12 O       -3.1170    -1.8630     2.0660 O.3   1 <1>  -0.5600 
 13 C        0.0360     5.1190    -1.0610 C.ar  1 <1>  -0.1500 
 14 C       -0.3670     4.6700     1.2540 C.ar  1 <1>  -0.1500 
 15 C       -5.7060    -3.3860    -0.8450 C.ar  1 <1>  -0.1440 
 16 C        0.1280     6.4740    -0.7890 C.ar  1 <1>  -0.1440 
 17 C       -0.2780     6.0220     1.5390 C.ar  1 <1>  -0.1440 
 18 C       -6.2740    -4.3240    -0.0050 C.ar  1 <1>  -0.1500 
 19 C       -6.5640    -2.7620    -1.7280 C.ar  1 <1>  -0.1500 
 20 C       -0.0320     6.9190     0.5130 C.ar  1 <1>  -0.1500 
 21 C        0.3970     7.4620    -1.9090 C.3   1 <1>  -0.0970 
 22 C       -0.4520     6.5180     2.9630 C.3   1 <1>  -0.0970 
 23 C       -7.6330    -4.5790    -0.0830 C.ar  1 <1>   0.1600 
 24 C       -7.9090    -3.0910    -1.7250 C.ar  1 <1>   0.1600 
 25 N       -8.4650    -3.9830    -0.9220 N.ar  1 <1>  -0.6200 
 26 H       -2.5600     0.5100     0.8750 H     1 <1>   0.3700 
 27 H       -1.9770     2.9110    -1.7050 H     1 <1>   0.0800 
 28 H       -2.4450     2.6930    -0.0450 H     1 <1>   0.0800 
 29 H       -1.9440    -1.7470    -0.9650 H     1 <1>   0.0800 
 30 H        0.3740     2.4700    -1.1380 H     1 <1>   0.0800 
 31 H       -0.0560     2.1550     0.5150 H     1 <1>   0.0800 
 32 H       -4.5260    -0.9420    -0.6570 H     1 <1>   0.0800 
 33 H       -1.1700    -1.5080     1.6150 H     1 <1>   0.0800 
 34 H       -1.8400    -3.0390     1.0640 H     1 <1>   0.0800 
 35 H       -4.9850    -2.5020     1.6300 H     1 <1>   0.0800 
 36 H       -4.7440    -0.7640     1.6550 H     1 <1>   0.0800 
 37 H       -3.6930    -3.8380    -0.2860 H     1 <1>   0.0800 
 38 H       -3.8500    -3.0330    -1.8160 H     1 <1>   0.0800 
 39 H        0.1560     4.7690    -2.0710 H     1 <1>   0.1500 
 40 H       -0.5610     3.9720     2.0490 H     1 <1>   0.1500 
 41 H       -5.6750    -4.8580     0.7100 H     1 <1>   0.1500 
 42 H       -6.1990    -2.0230    -2.4190 H     1 <1>   0.1500 
 43 H        0.0340     7.9700     0.7280 H     1 <1>   0.1500 
 44 H        0.9220     8.3220    -1.5340 H     1 <1>   0.0800 
 45 H       -0.5340     7.7830    -2.3400 H     1 <1>   0.0800 
 46 H        0.9970     7.0060    -2.6760 H     1 <1>   0.0800 
 47 H        0.1270     7.4100     3.1230 H     1 <1>   0.0800 
 48 H       -0.1240     5.7720     3.6640 H     1 <1>   0.0800 
 49 H       -1.4880     6.7380     3.1460 H     1 <1>   0.0800 
 50 H       -8.0590    -5.3130     0.5800 H     1 <1>   0.1500 
 51 H       -8.5620    -2.5930    -2.4210 H     1 <1>   0.1500 
@<TRIPOS>BOND
  1   1   2  2   
  2   2   3  am  
  3   2   4  1   
  4   3   5  1   
  5   3  26  1   
  6   4   6  1   
  7   4  27  1   
  8   4  28  1   
  9   5   7  1   
 10   5   8  1   
 11   5  29  1   
 12   6   9  1   
 13   6  30  1   
 14   6  31  1   
 15   7  10  1   
 16   7  11  1   
 17   7  32  1   
 18   8  12  1   
 19   8  33  1   
 20   8  34  1   
 21   9  13  ar  
 22   9  14  ar  
 23  10  12  1   
 24  10  35  1   
 25  10  36  1   
 26  11  15  1   
 27  11  37  1   
 28  11  38  1   
 29  13  16  ar  
 30  13  39  1   
 31  14  17  ar  
 32  14  40  1   
 33  15  18  ar  
 34  15  19  ar  
 35  16  20  ar  
 36  16  21  1   
 37  17  20  ar  
 38  17  22  1   
 39  18  23  ar  
 40  18  41  1   
 41  19  24  ar  
 42  19  42  1   
 43  20  43  1   
 44  21  44  1   
 45  21  45  1   
 46  21  46  1   
 47  22  47  1   
 48  22  48  1   
 49  22  49  1   
 50  23  25  ar  
 51  23  50  1   
 52  24  25  ar  
 53  24  51  1   
@<TRIPOS>SUBSTRUCTURE
  1 ****   3 GROUP 4 **** **** 0

# MOE 2024.06 (io_trps.svl 2023.06)
