@<TRIPOS>MOLECULE
NONAME
59 62 1 0 0 
SMALL
USER_CHARGES


@<TRIPOS>ATOM
  1 O       -0.2520    -0.0680    -0.8620 O.3   1 <1>  -0.6800 
  2 C        0.9080    -0.8080    -1.0490 C.3   1 <1>   0.2000 
  3 C        0.9020    -1.9430    -0.0180 C.3   1 <1>  -0.0800 
  4 C        2.0930     0.0930    -0.6770 C.3   1 <1>   0.3430 
  5 C        1.5780    -1.3050     1.1960 C.3   1 <1>   0.3430 
  6 C        1.5890    -3.2430    -0.5080 C.3   1 <1>  -0.0170 
  7 N        2.6060    -0.4000     0.6350 N.4   1 <1>  -0.9590 
  8 C        3.1160    -3.2660    -0.5060 C.ar  1 <1>   0.1670 
  9 C        3.0830     0.6740     1.5300 C.3   1 <1>   0.5240 
 10 N        3.7450    -2.3610    -1.1930 N.ar  1 <1>  -0.6200 
 11 C        3.7750    -4.2720     0.2220 C.ar  1 <1>  -0.1500 
 12 C        4.3110     1.2710     0.8870 C.2   1 <1>  -0.1810 
 13 C        5.1030    -2.4140    -1.2360 C.ar  1 <1>   0.3100 
 14 C        5.1340    -4.3390     0.2140 C.ar  1 <1>  -0.1500 
 15 C        4.3650     2.4330     0.1230 C.2   1 <1>   0.1080 
 16 C        5.5820     0.8100     0.9140 C.2   1 <1>  -0.3320 
 17 C        5.8450    -3.3930    -0.5410 C.ar  1 <1>   0.0000 
 18 C        5.8020    -1.4600    -1.9940 C.ar  1 <1>  -0.1500 
 19 N        5.5570     2.6660    -0.3100 N.2   1 <1>  -0.7070 
 20 C        3.2290     3.3770    -0.2120 C.3   1 <1>  -0.0590 
 21 N        6.3270     1.6700     0.1750 N.pl3 1 <1>   0.3140 
 22 C        6.1480    -0.4130     1.6240 C.3   1 <1>  -0.0600 
 23 C        7.2510    -3.3850    -0.6350 C.ar  1 <1>  -0.1500 
 24 C        7.1690    -1.4720    -2.0760 C.ar  1 <1>  -0.1500 
 25 C        7.8030     1.6040    -0.0690 C.3   1 <1>   0.1760 
 26 C        7.9010    -2.4450    -1.3880 C.ar  1 <1>  -0.1500 
 27 C        8.5530     2.3770     1.0240 C.3   1 <1>  -0.2400 
 28 C        8.1800     2.1460    -1.4580 C.3   1 <1>  -0.2400 
 29 H       -1.0200    -0.4960    -1.2960 H     1 <1>   0.4000 
 30 H        0.9510    -1.1360    -2.0740 H     1 <1>   0.0800 
 31 H       -0.1120    -2.2030     0.2350 H     1 <1>   0.0800 
 32 H        1.7610     1.1150    -0.6120 H     1 <1>   0.0800 
 33 H        2.8710     0.0160    -1.4200 H     1 <1>   0.0800 
 34 H        2.0120    -2.0450     1.8490 H     1 <1>   0.0800 
 35 H        0.8480    -0.7260     1.7380 H     1 <1>   0.0800 
 36 H        1.2550    -3.4640    -1.5070 H     1 <1>   0.0800 
 37 H        1.2370    -4.0510     0.1090 H     1 <1>   0.0800 
 38 H        3.4300    -0.9710     0.3700 H     1 <1>   0.4500 
 39 H        2.3210     1.4230     1.6690 H     1 <1>   0.0800 
 40 H        3.3520     0.2650     2.4890 H     1 <1>   0.0800 
 41 H        3.2030    -4.9950     0.7760 H     1 <1>   0.1500 
 42 H        5.6700    -5.1000     0.7550 H     1 <1>   0.1500 
 43 H        5.2320    -0.7160    -2.5190 H     1 <1>   0.1500 
 44 H        2.3710     3.2020     0.4070 H     1 <1>   0.0800 
 45 H        2.9590     3.2610    -1.2450 H     1 <1>   0.0800 
 46 H        3.5590     4.3890    -0.0610 H     1 <1>   0.0800 
 47 H        5.3670    -0.9990     2.0730 H     1 <1>   0.0800 
 48 H        6.8290    -0.1050     2.3980 H     1 <1>   0.0800 
 49 H        6.6810    -1.0360     0.9310 H     1 <1>   0.0800 
 50 H        7.8090    -4.1390    -0.1080 H     1 <1>   0.1500 
 51 H        7.6930    -0.7440    -2.6710 H     1 <1>   0.1500 
 52 H        8.0950     0.5710    -0.0260 H     1 <1>   0.0800 
 53 H        8.9760    -2.4450    -1.4650 H     1 <1>   0.1500 
 54 H        8.2720     3.4150     1.0020 H     1 <1>   0.0800 
 55 H        9.6150     2.3060     0.8680 H     1 <1>   0.0800 
 56 H        8.3240     1.9720     1.9930 H     1 <1>   0.0800 
 57 H        7.9670     3.1990    -1.5200 H     1 <1>   0.0800 
 58 H        7.6190     1.6360    -2.2200 H     1 <1>   0.0800 
 59 H        9.2280     1.9980    -1.6440 H     1 <1>   0.0800 
@<TRIPOS>BOND
  1   1   2  1   
  2   1  29  1   
  3   2   3  1   
  4   2   4  1   
  5   2  30  1   
  6   3   5  1   
  7   3   6  1   
  8   3  31  1   
  9   4   7  1   
 10   4  32  1   
 11   4  33  1   
 12   5   7  1   
 13   5  34  1   
 14   5  35  1   
 15   6   8  1   
 16   6  36  1   
 17   6  37  1   
 18   7   9  1   
 19   7  38  1   
 20   8  10  ar  
 21   8  11  ar  
 22   9  12  1   
 23   9  39  1   
 24   9  40  1   
 25  10  13  ar  
 26  11  14  ar  
 27  11  41  1   
 28  12  15  1   
 29  12  16  2   
 30  13  17  ar  
 31  13  18  ar  
 32  14  17  ar  
 33  14  42  1   
 34  15  19  2   
 35  15  20  1   
 36  16  21  1   
 37  16  22  1   
 38  17  23  ar  
 39  18  24  ar  
 40  18  43  1   
 41  19  21  1   
 42  20  44  1   
 43  20  45  1   
 44  20  46  1   
 45  21  25  1   
 46  22  47  1   
 47  22  48  1   
 48  22  49  1   
 49  23  26  ar  
 50  23  50  1   
 51  24  26  ar  
 52  24  51  1   
 53  25  27  1   
 54  25  28  1   
 55  25  52  1   
 56  26  53  1   
 57  27  54  1   
 58  27  55  1   
 59  27  56  1   
 60  28  57  1   
 61  28  58  1   
 62  28  59  1   
@<TRIPOS>SUBSTRUCTURE
  1 ****  16 GROUP 4 **** **** 0

# MOE 2024.06 (io_trps.svl 2023.06)
