@<TRIPOS>MOLECULE
NONAME
43 46 1 0 0 
SMALL
USER_CHARGES


@<TRIPOS>ATOM
  1 O       -0.4450     0.2190    -0.0290 O.2   1 <1>  -0.5700 
  2 C       -1.4850     0.8620    -0.0050 C.2   1 <1>   0.7160 
  3 N       -2.6610     0.1380    -0.1160 N.am  1 <1>  -0.6600 
  4 C       -1.4390     2.3200     0.1330 C.2   1 <1>   0.2030 
  5 C       -4.0270     0.7070    -0.2080 C.3   1 <1>   0.1400 
  6 C       -2.6980    -1.3390    -0.1910 C.3   1 <1>   0.1400 
  7 N       -2.4580     3.1730     0.2280 N.2   1 <1>  -0.7070 
  8 C       -0.2420     3.0490     0.1910 C.2   1 <1>  -0.1810 
  9 C       -4.9410    -0.4950    -0.4530 C.3   1 <1>   0.2000 
 10 C       -4.1620    -1.7130     0.0410 C.3   1 <1>  -0.0800 
 11 N       -1.9100     4.3980     0.3410 N.pl3 1 <1>   0.3000 
 12 C       -0.5710     4.3260     0.3180 C.2   1 <1>  -0.3320 
 13 C        1.2470     2.8430     0.1590 C.3   1 <1>   0.0210 
 14 O       -6.1350    -0.3830     0.2430 O.3   1 <1>  -0.6800 
 15 C       -4.5850    -3.0160    -0.6530 C.3   1 <1>  -0.0170 
 16 C        0.6000     5.2630     0.3990 C.3   1 <1>   0.0200 
 17 C        1.7960     4.2920     0.2370 C.3   1 <1>  -0.1600 
 18 C       -3.7710    -4.1950    -0.1440 C.ar  1 <1>  -0.1430 
 19 C       -2.6770    -4.6840    -0.8300 C.ar  1 <1>  -0.1500 
 20 C       -4.0860    -4.8350     1.0370 C.ar  1 <1>  -0.1500 
 21 C       -1.9690    -5.7560    -0.3120 C.ar  1 <1>   0.1600 
 22 C       -3.3120    -5.9000     1.4670 C.ar  1 <1>   0.1600 
 23 N       -2.2590    -6.3750     0.8210 N.ar  1 <1>  -0.6200 
 24 H       -4.2690     1.1980     0.7190 H     1 <1>   0.0800 
 25 H       -4.0880     1.4070    -1.0230 H     1 <1>   0.0800 
 26 H       -2.3700    -1.6440    -1.1700 H     1 <1>   0.0800 
 27 H       -2.0550    -1.7800     0.5530 H     1 <1>   0.0800 
 28 H       -5.1660    -0.5720    -1.5030 H     1 <1>   0.0800 
 29 H       -4.2960    -1.8140     1.1040 H     1 <1>   0.0800 
 30 H       -2.4690     5.2550     0.4310 H     1 <1>   0.2700 
 31 H        1.5570     2.2560     1.0050 H     1 <1>   0.0800 
 32 H        1.5410     2.3550    -0.7540 H     1 <1>   0.0800 
 33 H       -5.9580    -0.2410     1.1930 H     1 <1>   0.4000 
 34 H       -4.4630    -2.9220    -1.7180 H     1 <1>   0.0800 
 35 H       -5.6300    -3.1970    -0.4630 H     1 <1>   0.0800 
 36 H        0.5740     5.9880    -0.3970 H     1 <1>   0.0800 
 37 H        0.6270     5.7580     1.3540 H     1 <1>   0.0800 
 38 H        2.3290     4.5220    -0.6690 H     1 <1>   0.0800 
 39 H        2.4720     4.3880     1.0680 H     1 <1>   0.0800 
 40 H       -2.3660    -4.2440    -1.7590 H     1 <1>   0.1500 
 41 H       -4.9250    -4.5150     1.6280 H     1 <1>   0.1500 
 42 H       -1.1170    -6.1240    -0.8590 H     1 <1>   0.1500 
 43 H       -3.5720    -6.3870     2.3910 H     1 <1>   0.1500 
@<TRIPOS>BOND
  1   1   2  2   
  2   2   3  am  
  3   2   4  1   
  4   3   5  1   
  5   3   6  1   
  6   4   7  2   
  7   4   8  1   
  8   5   9  1   
  9   5  24  1   
 10   5  25  1   
 11   6  10  1   
 12   6  26  1   
 13   6  27  1   
 14   7  11  1   
 15   8  12  2   
 16   8  13  1   
 17   9  10  1   
 18   9  14  1   
 19   9  28  1   
 20  10  15  1   
 21  10  29  1   
 22  11  12  1   
 23  11  30  1   
 24  12  16  1   
 25  13  17  1   
 26  13  31  1   
 27  13  32  1   
 28  14  33  1   
 29  15  18  1   
 30  15  34  1   
 31  15  35  1   
 32  16  17  1   
 33  16  36  1   
 34  16  37  1   
 35  17  38  1   
 36  17  39  1   
 37  18  19  ar  
 38  18  20  ar  
 39  19  21  ar  
 40  19  40  1   
 41  20  22  ar  
 42  20  41  1   
 43  21  23  ar  
 44  21  42  1   
 45  22  23  ar  
 46  22  43  1   
@<TRIPOS>SUBSTRUCTURE
  1 ****   3 GROUP 4 **** **** 0

# MOE 2024.06 (io_trps.svl 2023.06)
