@<TRIPOS>MOLECULE
NONAME
49 53 1 0 0 
SMALL
USER_CHARGES


@<TRIPOS>ATOM
  1 O       -2.0970     1.6830     2.1440 O.2   1 <1>  -0.5700 
  2 C       -2.3870     1.5160     0.9820 C.2   1 <1>   0.5690 
  3 N       -3.5690     0.9080     0.6250 N.am  1 <1>  -0.6600 
  4 C       -1.4000     1.9960    -0.0830 C.3   1 <1>  -0.0190 
  5 C       -4.5550     0.4730     1.6550 C.3   1 <1>   0.1400 
  6 C       -4.0080     0.5930    -0.7630 C.3   1 <1>   0.1400 
  7 C       -0.0270     2.3750     0.4560 C.3   1 <1>   0.1200 
  8 C       -1.8180     3.2820    -0.7910 C.3   1 <1>  -0.1600 
  9 C       -4.7440    -1.0410     1.5580 C.3   1 <1>  -0.1600 
 10 C       -4.1800    -0.9210    -0.8960 C.3   1 <1>  -0.1600 
 11 O        0.5040     3.2140    -0.5150 O.3   1 <1>  -0.5600 
 12 C       -0.5020     4.0140    -1.0500 C.3   1 <1>   0.1200 
 13 C       -5.1630    -1.4670     0.1450 C.3   1 <1>   0.4600 
 14 O       -6.4150    -0.8890    -0.1620 O.3   1 <1>  -0.5600 
 15 C       -5.2650    -2.9830     0.0320 C.2   1 <1>  -0.3320 
 16 C       -7.5760    -1.5320     0.3090 C.3   1 <1>   0.1200 
 17 N       -4.2340    -3.8770     0.1290 N.pl3 1 <1>   0.0330 
 18 C       -6.4140    -3.6520    -0.1830 C.2   1 <1>  -0.1810 
 19 C       -7.7300    -2.9280    -0.3160 C.3   1 <1>   0.0210 
 20 C       -4.7510    -5.1400    -0.0370 C.ar  1 <1>  -0.1520 
 21 C       -6.1240    -5.0310    -0.2390 C.ar  1 <1>   0.0000 
 22 C       -4.1250    -6.3890    -0.0290 C.ar  1 <1>  -0.1500 
 23 C       -6.8880    -6.1850    -0.4390 C.ar  1 <1>  -0.1500 
 24 C       -4.8890    -7.5170    -0.2250 C.ar  1 <1>  -0.1500 
 25 C       -6.2700    -7.4150    -0.4310 C.ar  1 <1>  -0.1500 
 26 H       -1.2430     1.2130    -0.8000 H     1 <1>   0.0800 
 27 H       -5.4930     0.9740     1.4790 H     1 <1>   0.0800 
 28 H       -4.2210     0.7340     2.6450 H     1 <1>   0.0800 
 29 H       -3.3030     0.9390    -1.4940 H     1 <1>   0.0800 
 30 H       -4.9480     1.0840    -0.9540 H     1 <1>   0.0800 
 31 H        0.6170     1.5240     0.5890 H     1 <1>   0.0800 
 32 H       -0.0970     2.9350     1.3740 H     1 <1>   0.0800 
 33 H       -2.4380     3.8870    -0.1510 H     1 <1>   0.0800 
 34 H       -2.3450     3.0890    -1.7070 H     1 <1>   0.0800 
 35 H       -5.4720    -1.3700     2.2750 H     1 <1>   0.0800 
 36 H       -3.8140    -1.5140     1.8120 H     1 <1>   0.0800 
 37 H       -3.2210    -1.3880    -0.7720 H     1 <1>   0.0800 
 38 H       -4.5400    -1.1660    -1.8780 H     1 <1>   0.0800 
 39 H       -0.4770     4.9670    -0.5490 H     1 <1>   0.0800 
 40 H       -0.3080     4.1430    -2.1010 H     1 <1>   0.0800 
 41 H       -8.4190    -0.9150     0.0540 H     1 <1>   0.0800 
 42 H       -7.5150    -1.6070     1.3800 H     1 <1>   0.0800 
 43 H       -3.2470    -3.6630     0.2960 H     1 <1>   0.2700 
 44 H       -7.9930    -2.8400    -1.3550 H     1 <1>   0.0800 
 45 H       -8.5060    -3.4700     0.1930 H     1 <1>   0.0800 
 46 H       -3.0640    -6.4590     0.1290 H     1 <1>   0.1500 
 47 H       -7.9460    -6.0920    -0.5960 H     1 <1>   0.1500 
 48 H       -4.4310    -8.4900    -0.2230 H     1 <1>   0.1500 
 49 H       -6.8440    -8.3120    -0.5830 H     1 <1>   0.1500 
@<TRIPOS>BOND
  1   1   2  2   
  2   2   3  am  
  3   2   4  1   
  4   3   5  1   
  5   3   6  1   
  6   4   7  1   
  7   4   8  1   
  8   4  26  1   
  9   5   9  1   
 10   5  27  1   
 11   5  28  1   
 12   6  10  1   
 13   6  29  1   
 14   6  30  1   
 15   7  11  1   
 16   7  31  1   
 17   7  32  1   
 18   8  12  1   
 19   8  33  1   
 20   8  34  1   
 21   9  13  1   
 22   9  35  1   
 23   9  36  1   
 24  10  13  1   
 25  10  37  1   
 26  10  38  1   
 27  11  12  1   
 28  12  39  1   
 29  12  40  1   
 30  13  14  1   
 31  13  15  1   
 32  14  16  1   
 33  15  17  1   
 34  15  18  2   
 35  16  19  1   
 36  16  41  1   
 37  16  42  1   
 38  17  20  1   
 39  17  43  1   
 40  18  19  1   
 41  18  21  1   
 42  19  44  1   
 43  19  45  1   
 44  20  21  ar  
 45  20  22  ar  
 46  21  23  ar  
 47  22  24  ar  
 48  22  46  1   
 49  23  25  ar  
 50  23  47  1   
 51  24  25  ar  
 52  24  48  1   
 53  25  49  1   
@<TRIPOS>SUBSTRUCTURE
  1 ****  13 GROUP 4 **** **** 0

# MOE 2024.06 (io_trps.svl 2023.06)
