@<TRIPOS>MOLECULE
NONAME
43 44 1 0 0 
SMALL
USER_CHARGES


@<TRIPOS>ATOM
  1 S       -0.3060     0.3890    -1.5740 S.o2  1 <1>   1.4470 
  2 O        0.1210    -0.0250    -2.8930 O.2   1 <1>  -0.6500 
  3 O       -1.4960     1.2030    -1.4410 O.2   1 <1>  -0.6500 
  4 N       -0.5730    -1.0190    -0.6660 N.am  1 <1>  -0.8490 
  5 C        1.1190     1.1550    -0.7280 C.ar  1 <1>  -0.0090 
  6 C       -1.3090    -2.0470    -1.4400 C.3   1 <1>   0.1960 
  7 C       -1.1200    -0.7640     0.6840 C.3   1 <1>   0.1960 
  8 C        1.3230     2.5360    -0.6500 C.ar  1 <1>  -0.1440 
  9 C        2.0730     0.3280    -0.1440 C.ar  1 <1>  -0.1500 
 10 C       -1.7300    -3.2160    -0.5380 C.3   1 <1>   0.2000 
 11 C       -2.5700    -1.2350     0.8360 C.3   1 <1>  -0.1600 
 12 C        2.4210     3.0440     0.0280 C.ar  1 <1>  -0.1500 
 13 C        0.3650     3.5290    -1.2980 C.3   1 <1>  -0.0960 
 14 C        3.1760     0.8340     0.5340 C.ar  1 <1>   0.0820 
 15 O       -2.2650    -4.2250    -1.3150 O.3   1 <1>  -0.6800 
 16 C       -2.7300    -2.7490     0.5470 C.3   1 <1>  -0.1860 
 17 C        3.3460     2.2080     0.6250 C.ar  1 <1>  -0.1440 
 18 O        4.1070     0.0370     1.1220 O.3   1 <1>  -0.3630 
 19 C       -4.1930    -3.0460     0.2580 C.2   1 <1>   0.9060 
 20 C        4.5400     2.7950     1.3640 C.3   1 <1>  -0.0960 
 21 C        4.0870    -1.3660     0.9760 C.3   1 <1>   0.0400 
 22 O       -4.9650    -3.1390     1.2140 O.co2 1 <1>  -0.9000 
 23 O       -4.5710    -3.1700    -0.9160 O.co2 1 <1>  -0.9000 
 24 H       -2.1910    -1.6110    -1.8810 H     1 <1>   0.0800 
 25 H       -0.6770    -2.4160    -2.2290 H     1 <1>   0.0800 
 26 H       -0.5150    -1.2970     1.3980 H     1 <1>   0.0800 
 27 H       -1.0570     0.2830     0.9310 H     1 <1>   0.0800 
 28 H        1.9360    -0.7320    -0.2300 H     1 <1>   0.1500 
 29 H       -0.8460    -3.6180    -0.0760 H     1 <1>   0.0800 
 30 H       -2.9220    -1.0290     1.8320 H     1 <1>   0.0800 
 31 H       -3.1870    -0.6660     0.1600 H     1 <1>   0.0800 
 32 H        2.5610     4.1090     0.0900 H     1 <1>   0.1500 
 33 H        0.7890     4.5160    -1.3240 H     1 <1>   0.0800 
 34 H       -0.5550     3.5710    -0.7420 H     1 <1>   0.0800 
 35 H        0.1480     3.2380    -2.3100 H     1 <1>   0.0800 
 36 H       -3.2430    -4.0030    -1.4130 H     1 <1>   0.4000 
 37 H       -2.4880    -3.2860     1.4440 H     1 <1>   0.0800 
 38 H        4.5180     3.8700     1.3500 H     1 <1>   0.0800 
 39 H        5.4520     2.4640     0.9020 H     1 <1>   0.0800 
 40 H        4.5330     2.4640     2.3870 H     1 <1>   0.0800 
 41 H        4.9430    -1.7670     1.4880 H     1 <1>   0.0800 
 42 H        4.1410    -1.6090    -0.0710 H     1 <1>   0.0800 
 43 H        3.1840    -1.7510     1.4160 H     1 <1>   0.0800 
@<TRIPOS>BOND
  1   1   2  2   
  2   1   3  2   
  3   1   4  am  
  4   1   5  1   
  5   4   6  1   
  6   4   7  1   
  7   5   8  ar  
  8   5   9  ar  
  9   6  10  1   
 10   6  24  1   
 11   6  25  1   
 12   7  11  1   
 13   7  26  1   
 14   7  27  1   
 15   8  12  ar  
 16   8  13  1   
 17   9  14  ar  
 18   9  28  1   
 19  10  15  1   
 20  10  16  1   
 21  10  29  1   
 22  11  16  1   
 23  11  30  1   
 24  11  31  1   
 25  12  17  ar  
 26  12  32  1   
 27  13  33  1   
 28  13  34  1   
 29  13  35  1   
 30  14  17  ar  
 31  14  18  1   
 32  15  36  1   
 33  16  19  1   
 34  16  37  1   
 35  17  20  1   
 36  18  21  1   
 37  19  22  ar  
 38  19  23  ar  
 39  20  38  1   
 40  20  39  1   
 41  20  40  1   
 42  21  41  1   
 43  21  42  1   
 44  21  43  1   
@<TRIPOS>SUBSTRUCTURE
  1 ****   4 GROUP 4 **** **** 0

# MOE 2024.06 (io_trps.svl 2023.06)
