@<TRIPOS>MOLECULE
NONAME
49 51 1 0 0 
SMALL
USER_CHARGES


@<TRIPOS>ATOM
  1 O       -0.6860    -0.4060    -0.5010 O.2   1 <1>  -0.5700 
  2 C       -1.7350    -0.0250    -0.9500 C.2   1 <1>   0.4230 
  3 C       -2.9980    -0.4170    -0.3880 C.ar  1 <1>   0.0860 
  4 C       -1.6640     0.8400    -2.1940 C.3   1 <1>  -0.1790 
  5 C       -4.1100     0.4000    -0.1900 C.ar  1 <1>   0.1660 
  6 C       -3.1720    -1.7320     0.0090 C.ar  1 <1>   0.1600 
  7 N       -5.2430    -0.0580     0.2800 N.ar  1 <1>  -0.6200 
  8 C       -4.0930     1.8940    -0.4730 C.3   1 <1>  -0.0960 
  9 N       -4.2930    -2.2080     0.4920 N.ar  1 <1>  -0.6200 
 10 C       -5.2930    -1.3440     0.6160 C.ar  1 <1>   0.7200 
 11 N       -6.4790    -1.8180     1.1220 N.pl3 1 <1>  -0.8380 
 12 C       -7.7740    -1.0840     0.9730 C.3   1 <1>   0.2090 
 13 C       -6.6060    -3.1600     1.7720 C.3   1 <1>   0.2090 
 14 C       -8.8090    -1.9670     0.2440 C.3   1 <1>   0.3430 
 15 C       -7.6400    -4.0210     1.0190 C.3   1 <1>   0.3430 
 16 N       -8.9810    -3.3300     0.8770 N.4   1 <1>  -0.9590 
 17 C       -9.9580    -4.1410     0.0860 C.3   1 <1>   0.3430 
 18 C      -10.3820    -5.4160     0.8190 C.3   1 <1>  -0.0170 
 19 C      -11.4500    -6.1090    -0.0050 C.ar  1 <1>  -0.1440 
 20 C      -11.0910    -6.9830    -1.0200 C.ar  1 <1>  -0.1500 
 21 C      -12.7930    -5.8670     0.2420 C.ar  1 <1>  -0.1500 
 22 C      -12.0640    -7.6020    -1.7840 C.ar  1 <1>  -0.1500 
 23 C      -13.7660    -6.4860    -0.5220 C.ar  1 <1>  -0.1500 
 24 C      -13.4020    -7.3530    -1.5370 C.ar  1 <1>  -0.1500 
 25 H       -2.5910     0.8120    -2.7350 H     1 <1>   0.0800 
 26 H       -0.8840     0.4720    -2.8360 H     1 <1>   0.0800 
 27 H       -1.4290     1.8520    -1.9230 H     1 <1>   0.0800 
 28 H       -2.3390    -2.4100    -0.0880 H     1 <1>   0.1500 
 29 H       -3.1350     2.3190    -0.2370 H     1 <1>   0.0800 
 30 H       -4.8280     2.3920     0.1340 H     1 <1>   0.0800 
 31 H       -4.3280     2.0780    -1.5050 H     1 <1>   0.0800 
 32 H       -7.6490    -0.1740     0.4120 H     1 <1>   0.0800 
 33 H       -8.1420    -0.8120     1.9470 H     1 <1>   0.0800 
 34 H       -6.9170    -3.0280     2.7940 H     1 <1>   0.0800 
 35 H       -5.6660    -3.6830     1.7960 H     1 <1>   0.0800 
 36 H       -8.4800    -2.0840    -0.7760 H     1 <1>   0.0800 
 37 H       -9.7550    -1.4500     0.2250 H     1 <1>   0.0800 
 38 H       -7.7580    -4.9540     1.5430 H     1 <1>   0.0800 
 39 H       -7.2400    -4.2390     0.0430 H     1 <1>   0.0800 
 40 H       -9.3620    -3.1820     1.8210 H     1 <1>   0.4500 
 41 H       -9.5330    -4.4050    -0.8690 H     1 <1>   0.0800 
 42 H      -10.8430    -3.5540    -0.1020 H     1 <1>   0.0800 
 43 H      -10.7800    -5.1760     1.7880 H     1 <1>   0.0800 
 44 H       -9.5490    -6.0840     0.9420 H     1 <1>   0.0800 
 45 H      -10.0570    -7.1960    -1.2280 H     1 <1>   0.1500 
 46 H      -13.1010    -5.2000     1.0290 H     1 <1>   0.1500 
 47 H      -11.7840    -8.2810    -2.5720 H     1 <1>   0.1500 
 48 H      -14.8080    -6.2980    -0.3290 H     1 <1>   0.1500 
 49 H      -14.1590    -7.8360    -2.1310 H     1 <1>   0.1500 
@<TRIPOS>BOND
  1   1   2  2   
  2   2   3  1   
  3   2   4  1   
  4   3   5  ar  
  5   3   6  ar  
  6   4  25  1   
  7   4  26  1   
  8   4  27  1   
  9   5   7  ar  
 10   5   8  1   
 11   6   9  ar  
 12   6  28  1   
 13   7  10  ar  
 14   8  29  1   
 15   8  30  1   
 16   8  31  1   
 17   9  10  ar  
 18  10  11  1   
 19  11  12  1   
 20  11  13  1   
 21  12  14  1   
 22  12  32  1   
 23  12  33  1   
 24  13  15  1   
 25  13  34  1   
 26  13  35  1   
 27  14  16  1   
 28  14  36  1   
 29  14  37  1   
 30  15  16  1   
 31  15  38  1   
 32  15  39  1   
 33  16  17  1   
 34  16  40  1   
 35  17  18  1   
 36  17  41  1   
 37  17  42  1   
 38  18  19  1   
 39  18  43  1   
 40  18  44  1   
 41  19  20  ar  
 42  19  21  ar  
 43  20  22  ar  
 44  20  45  1   
 45  21  23  ar  
 46  21  46  1   
 47  22  24  ar  
 48  22  47  1   
 49  23  24  ar  
 50  23  48  1   
 51  24  49  1   
@<TRIPOS>SUBSTRUCTURE
  1 ****  15 GROUP 4 **** **** 0

# MOE 2024.06 (io_trps.svl 2023.06)
