@<TRIPOS>MOLECULE
NONAME
44 46 1 0 0 
SMALL
USER_CHARGES


@<TRIPOS>ATOM
  1 O       -1.1160    -0.6760     0.5070 O.3   1 <1>  -0.5600 
  2 C       -1.5240     0.4590     1.2050 C.3   1 <1>   0.1200 
  3 C       -1.2010    -0.6490    -0.8800 C.3   1 <1>   0.1200 
  4 C       -3.0270     0.7790     1.0540 C.3   1 <1>   0.4230 
  5 C       -2.6520    -0.8530    -1.3460 C.3   1 <1>  -0.0800 
  6 N       -3.3120     1.4060    -0.3000 N.4   1 <1>  -0.9590 
  7 C       -3.9280    -0.4230     1.4760 C.3   1 <1>   0.2090 
  8 C       -3.4010    -1.9300    -0.5390 C.3   1 <1>   0.2090 
  9 C       -3.4650     0.4470    -1.4480 C.3   1 <1>   0.3430 
 10 C       -4.5460     2.2440    -0.2220 C.3   1 <1>   0.2630 
 11 N       -4.4080    -1.3210     0.3760 N.pl3 1 <1>  -0.8380 
 12 C       -5.7660    -1.5160     0.1870 C.ar  1 <1>   0.4100 
 13 N       -6.4240    -0.4100    -0.1430 N.ar  1 <1>  -0.6200 
 14 C       -6.3710    -2.7750     0.3360 C.ar  1 <1>   0.0730 
 15 C       -7.7210    -0.5380    -0.3450 C.ar  1 <1>   0.1670 
 16 C       -5.5790    -3.9060     0.7150 C.1   1 <1>   0.4840 
 17 C       -7.7360    -2.8860     0.1160 C.ar  1 <1>  -0.1430 
 18 C       -8.4090    -1.7330    -0.2310 C.ar  1 <1>  -0.1500 
 19 C       -8.4660     0.7260    -0.7220 C.3   1 <1>  -0.0970 
 20 N       -4.9480    -4.8160     0.9920 N.1   1 <1>  -0.5570 
 21 C       -8.4880    -4.2060     0.2480 C.3   1 <1>  -0.0970 
 22 H       -1.3120     0.2650     2.2420 H     1 <1>   0.0800 
 23 H       -0.9150     1.2910     0.8970 H     1 <1>   0.0800 
 24 H       -0.7720     0.2650    -1.2530 H     1 <1>   0.0800 
 25 H       -0.5990    -1.4700    -1.2340 H     1 <1>   0.0800 
 26 H       -3.2090     1.5420     1.7920 H     1 <1>   0.0800 
 27 H       -2.5840    -1.2330    -2.3490 H     1 <1>   0.0800 
 28 H       -2.5170     2.0160    -0.5200 H     1 <1>   0.4500 
 29 H       -4.7880    -0.0240     1.9850 H     1 <1>   0.0800 
 30 H       -3.3990    -1.0220     2.1970 H     1 <1>   0.0800 
 31 H       -2.7170    -2.5430     0.0270 H     1 <1>   0.0800 
 32 H       -3.9130    -2.5810    -1.2290 H     1 <1>   0.0800 
 33 H       -4.5040     0.1730    -1.5430 H     1 <1>   0.0800 
 34 H       -3.1910     0.9540    -2.3580 H     1 <1>   0.0800 
 35 H       -5.3910     1.6390     0.0580 H     1 <1>   0.0800 
 36 H       -4.7540     2.6970    -1.1780 H     1 <1>   0.0800 
 37 H       -4.4270     3.0250     0.5110 H     1 <1>   0.0800 
 38 H       -9.4690    -1.7610    -0.4120 H     1 <1>   0.1500 
 39 H       -9.5120     0.5300    -0.8720 H     1 <1>   0.0800 
 40 H       -8.0590     1.1290    -1.6310 H     1 <1>   0.0800 
 41 H       -8.3620     1.4550     0.0610 H     1 <1>   0.0800 
 42 H       -9.5330    -4.0790     0.0270 H     1 <1>   0.0800 
 43 H       -8.3990    -4.5860     1.2510 H     1 <1>   0.0800 
 44 H       -8.0860    -4.9340    -0.4350 H     1 <1>   0.0800 
@<TRIPOS>BOND
  1   1   2  1   
  2   1   3  1   
  3   2   4  1   
  4   2  22  1   
  5   2  23  1   
  6   3   5  1   
  7   3  24  1   
  8   3  25  1   
  9   4   6  1   
 10   4   7  1   
 11   4  26  1   
 12   5   8  1   
 13   5   9  1   
 14   5  27  1   
 15   6   9  1   
 16   6  10  1   
 17   6  28  1   
 18   7  11  1   
 19   7  29  1   
 20   7  30  1   
 21   8  11  1   
 22   8  31  1   
 23   8  32  1   
 24   9  33  1   
 25   9  34  1   
 26  10  35  1   
 27  10  36  1   
 28  10  37  1   
 29  11  12  1   
 30  12  13  ar  
 31  12  14  ar  
 32  13  15  ar  
 33  14  16  1   
 34  14  17  ar  
 35  15  18  ar  
 36  15  19  1   
 37  16  20  3   
 38  17  18  ar  
 39  17  21  1   
 40  18  38  1   
 41  19  39  1   
 42  19  40  1   
 43  19  41  1   
 44  21  42  1   
 45  21  43  1   
 46  21  44  1   
@<TRIPOS>SUBSTRUCTURE
  1 ****  11 GROUP 4 **** **** 0

# MOE 2024.06 (io_trps.svl 2023.06)
