@<TRIPOS>MOLECULE
NONAME
64 66 1 0 0 
SMALL
USER_CHARGES


@<TRIPOS>ATOM
  1 O       -0.7810     1.7190    -2.1360 O.3   1 <1>  -0.6800 
  2 C       -0.8360     2.9890    -1.5890 C.3   1 <1>   0.2000 
  3 C       -1.3470     2.9250    -0.1270 C.3   1 <1>   0.0000 
  4 C        0.5840     3.5910    -1.6860 C.3   1 <1>   0.3430 
  5 C       -1.2430     4.3690     0.4260 C.3   1 <1>  -0.1600 
  6 C       -0.4520     1.9360     0.6850 C.3   1 <1>   0.1200 
  7 C       -2.8150     2.4230    -0.0350 C.3   1 <1>  -0.1600 
  8 N        0.7510     4.9090    -0.9550 N.4   1 <1>  -0.9590 
  9 C        0.2050     4.8500     0.4470 C.3   1 <1>   0.3430 
 10 O       -0.4410     2.2530     2.0350 O.3   1 <1>  -0.6800 
 11 C       -3.8680     3.2150    -0.8340 C.3   1 <1>  -0.1600 
 12 C        2.1620     5.4010    -1.0560 C.3   1 <1>   0.4230 
 13 C       -5.2580     2.6010    -0.6460 C.3   1 <1>  -0.2400 
 14 C        3.1400     4.5710    -0.2110 C.3   1 <1>  -0.1600 
 15 C        2.2470     6.8780    -0.6630 C.3   1 <1>  -0.1600 
 16 C        4.5640     5.1090    -0.3500 C.3   1 <1>   0.3430 
 17 C        3.6820     7.3930    -0.7940 C.3   1 <1>   0.3430 
 18 N        4.6070     6.5530     0.0260 N.4   1 <1>  -0.9590 
 19 C        6.0260     7.0410    -0.0670 C.3   1 <1>   0.3430 
 20 C        6.2280     8.3920     0.6240 C.3   1 <1>  -0.0170 
 21 C        7.7020     8.7350     0.5640 C.ar  1 <1>  -0.1430 
 22 C        8.5560     8.3270     1.5770 C.ar  1 <1>  -0.1500 
 23 C        8.2120     9.4470    -0.5120 C.ar  1 <1>  -0.1500 
 24 C        9.9070     8.6210     1.5120 C.ar  1 <1>  -0.1500 
 25 C        9.5630     9.7410    -0.5760 C.ar  1 <1>  -0.1500 
 26 C       10.4110     9.3270     0.4350 C.ar  1 <1>  -0.1500 
 27 H       -1.6780     1.3260    -2.2000 H     1 <1>   0.4000 
 28 H       -1.4970     3.5750    -2.2020 H     1 <1>   0.0800 
 29 H        0.8210     3.7220    -2.7290 H     1 <1>   0.0800 
 30 H        1.2700     2.8700    -1.2790 H     1 <1>   0.0800 
 31 H       -1.6320     4.4070     1.4290 H     1 <1>   0.0800 
 32 H       -1.8300     5.0540    -0.1580 H     1 <1>   0.0800 
 33 H        0.5710     1.9670     0.3620 H     1 <1>   0.0800 
 34 H       -0.7900     0.9180     0.5770 H     1 <1>   0.0800 
 35 H       -2.8570     1.3960    -0.3590 H     1 <1>   0.0800 
 36 H       -3.1130     2.4270     1.0010 H     1 <1>   0.0800 
 37 H        0.1520     5.5800    -1.4570 H     1 <1>   0.4500 
 38 H        0.7890     4.1740     1.0510 H     1 <1>   0.0800 
 39 H        0.2420     5.8260     0.9040 H     1 <1>   0.0800 
 40 H       -1.2240     1.8740     2.4880 H     1 <1>   0.4000 
 41 H       -3.9070     4.2370    -0.5020 H     1 <1>   0.0800 
 42 H       -3.6390     3.2060    -1.8850 H     1 <1>   0.0800 
 43 H        2.4680     5.3220    -2.0880 H     1 <1>   0.0800 
 44 H       -5.5430     2.6180     0.3920 H     1 <1>   0.0800 
 45 H       -5.2750     1.5820    -0.9920 H     1 <1>   0.0800 
 46 H       -5.9870     3.1600    -1.2050 H     1 <1>   0.0800 
 47 H        2.8740     4.5870     0.8300 H     1 <1>   0.0800 
 48 H        3.1420     3.5480    -0.5410 H     1 <1>   0.0800 
 49 H        1.6190     7.4630    -1.3120 H     1 <1>   0.0800 
 50 H        1.9220     7.0330     0.3500 H     1 <1>   0.0800 
 51 H        4.9020     4.9880    -1.3680 H     1 <1>   0.0800 
 52 H        5.2250     4.5430     0.2890 H     1 <1>   0.0800 
 53 H        3.7230     8.4200    -0.4640 H     1 <1>   0.0800 
 54 H        3.9870     7.3650    -1.8290 H     1 <1>   0.0800 
 55 H        4.3400     6.6340     1.0200 H     1 <1>   0.4500 
 56 H        6.6840     6.3290     0.4040 H     1 <1>   0.0800 
 57 H        6.3250     7.1250    -1.1000 H     1 <1>   0.0800 
 58 H        5.6690     9.1680     0.1340 H     1 <1>   0.0800 
 59 H        5.9190     8.3380     1.6530 H     1 <1>   0.0800 
 60 H        8.1870     7.7810     2.4280 H     1 <1>   0.1500 
 61 H        7.5720     9.7850    -1.3070 H     1 <1>   0.1500 
 62 H       10.5680     8.3040     2.3000 H     1 <1>   0.1500 
 63 H        9.9570    10.2950    -1.4110 H     1 <1>   0.1500 
 64 H       11.4620     9.5570     0.3850 H     1 <1>   0.1500 
@<TRIPOS>BOND
  1   1   2  1   
  2   1  27  1   
  3   2   3  1   
  4   2   4  1   
  5   2  28  1   
  6   3   5  1   
  7   3   6  1   
  8   3   7  1   
  9   4   8  1   
 10   4  29  1   
 11   4  30  1   
 12   5   9  1   
 13   5  31  1   
 14   5  32  1   
 15   6  10  1   
 16   6  33  1   
 17   6  34  1   
 18   7  11  1   
 19   7  35  1   
 20   7  36  1   
 21   8   9  1   
 22   8  12  1   
 23   8  37  1   
 24   9  38  1   
 25   9  39  1   
 26  10  40  1   
 27  11  13  1   
 28  11  41  1   
 29  11  42  1   
 30  12  14  1   
 31  12  15  1   
 32  12  43  1   
 33  13  44  1   
 34  13  45  1   
 35  13  46  1   
 36  14  16  1   
 37  14  47  1   
 38  14  48  1   
 39  15  17  1   
 40  15  49  1   
 41  15  50  1   
 42  16  18  1   
 43  16  51  1   
 44  16  52  1   
 45  17  18  1   
 46  17  53  1   
 47  17  54  1   
 48  18  19  1   
 49  18  55  1   
 50  19  20  1   
 51  19  56  1   
 52  19  57  1   
 53  20  21  1   
 54  20  58  1   
 55  20  59  1   
 56  21  22  ar  
 57  21  23  ar  
 58  22  24  ar  
 59  22  60  1   
 60  23  25  ar  
 61  23  61  1   
 62  24  26  ar  
 63  24  62  1   
 64  25  26  ar  
 65  25  63  1   
 66  26  64  1   
@<TRIPOS>SUBSTRUCTURE
  1 ****  14 GROUP 4 **** **** 0

# MOE 2024.06 (io_trps.svl 2023.06)
