@<TRIPOS>MOLECULE
NONAME
50 51 1 0 0 
SMALL
USER_CHARGES


@<TRIPOS>ATOM
  1 O       -0.2670    -0.2030    -1.7040 O.2   1 <1>  -0.5700 
  2 C       -1.0600     0.5400    -1.1710 C.2   1 <1>   0.5690 
  3 N       -2.1230     0.0460    -0.4520 N.am  1 <1>  -0.6600 
  4 C       -0.8410     2.0440    -1.3750 C.3   1 <1>   0.1810 
  5 C       -2.2980    -1.4220    -0.2140 C.3   1 <1>   0.1400 
  6 C       -3.1890     0.8710     0.1950 C.3   1 <1>   0.1400 
  7 O       -0.8000     2.7570    -0.1620 O.3   1 <1>  -0.5600 
  8 C       -3.7430    -1.8660    -0.4980 C.3   1 <1>   0.3440 
  9 C       -4.5970     0.3070    -0.1130 C.3   1 <1>   0.2000 
 10 C       -0.5300     4.1310    -0.3160 C.3   1 <1>   0.1810 
 11 O       -4.6420    -1.0580     0.2150 O.3   1 <1>  -0.5600 
 12 C       -3.9490    -3.3270    -0.1090 C.ar  1 <1>  -0.1440 
 13 C       -5.7640     1.0460     0.6100 C.3   1 <1>   0.0000 
 14 C       -0.5170     4.8640     1.0260 C.2   1 <1>   0.5690 
 15 C       -4.3390    -3.6890     1.1730 C.ar  1 <1>  -0.1500 
 16 C       -3.7300    -4.3240    -1.0510 C.ar  1 <1>  -0.1500 
 17 C       -5.7770     2.5430     0.2490 C.3   1 <1>  -0.2400 
 18 C       -5.6730     0.9170     2.1430 C.3   1 <1>  -0.2400 
 19 C       -7.1090     0.4470     0.1570 C.3   1 <1>  -0.2400 
 20 O       -0.5460     6.0680     1.0450 O.2   1 <1>  -0.5700 
 21 N       -0.4720     4.1660     2.1780 N.am  1 <1>  -0.8000 
 22 C       -4.5070    -5.0210     1.5100 C.ar  1 <1>  -0.1500 
 23 C       -3.8970    -5.6570    -0.7160 C.ar  1 <1>  -0.1500 
 24 C       -4.2850    -6.0060     0.5650 C.ar  1 <1>  -0.1500 
 25 H       -1.6380     2.4360    -1.9790 H     1 <1>   0.0800 
 26 H        0.0950     2.1890    -1.8840 H     1 <1>   0.0800 
 27 H       -1.6300    -1.9910    -0.8370 H     1 <1>   0.0800 
 28 H       -2.0590    -1.6450     0.8110 H     1 <1>   0.0800 
 29 H       -3.0230     0.8740     1.2570 H     1 <1>   0.0800 
 30 H       -3.1370     1.8850    -0.1510 H     1 <1>   0.0800 
 31 H       -3.9560    -1.7480    -1.5470 H     1 <1>   0.0800 
 32 H       -4.7650     0.3870    -1.1730 H     1 <1>   0.0800 
 33 H        0.4310     4.2440    -0.7830 H     1 <1>   0.0800 
 34 H       -1.2890     4.5650    -0.9420 H     1 <1>   0.0800 
 35 H       -4.5170    -2.9290     1.9150 H     1 <1>   0.1500 
 36 H       -3.4260    -4.0680    -2.0510 H     1 <1>   0.1500 
 37 H       -6.6430     3.0230     0.6710 H     1 <1>   0.0800 
 38 H       -5.8090     2.6750    -0.8180 H     1 <1>   0.0800 
 39 H       -4.9080     3.0470     0.6330 H     1 <1>   0.0800 
 40 H       -6.5250     1.3780     2.6110 H     1 <1>   0.0800 
 41 H       -4.7890     1.3910     2.5250 H     1 <1>   0.0800 
 42 H       -5.6550    -0.1200     2.4310 H     1 <1>   0.0800 
 43 H       -7.9340     0.9600     0.6190 H     1 <1>   0.0800 
 44 H       -7.1700    -0.5930     0.4280 H     1 <1>   0.0800 
 45 H       -7.2170     0.5220    -0.9110 H     1 <1>   0.0800 
 46 H       -0.4540     4.6440     3.0790 H     1 <1>   0.3700 
 47 H       -0.4590     3.1440     2.1740 H     1 <1>   0.3700 
 48 H       -4.8110    -5.2880     2.5060 H     1 <1>   0.1500 
 49 H       -3.7250    -6.4220    -1.4530 H     1 <1>   0.1500 
 50 H       -4.4160    -7.0420     0.8250 H     1 <1>   0.1500 
@<TRIPOS>BOND
  1   1   2  2   
  2   2   3  am  
  3   2   4  1   
  4   3   5  1   
  5   3   6  1   
  6   4   7  1   
  7   4  25  1   
  8   4  26  1   
  9   5   8  1   
 10   5  27  1   
 11   5  28  1   
 12   6   9  1   
 13   6  29  1   
 14   6  30  1   
 15   7  10  1   
 16   8  11  1   
 17   8  12  1   
 18   8  31  1   
 19   9  11  1   
 20   9  13  1   
 21   9  32  1   
 22  10  14  1   
 23  10  33  1   
 24  10  34  1   
 25  12  15  ar  
 26  12  16  ar  
 27  13  17  1   
 28  13  18  1   
 29  13  19  1   
 30  14  20  2   
 31  14  21  am  
 32  15  22  ar  
 33  15  35  1   
 34  16  23  ar  
 35  16  36  1   
 36  17  37  1   
 37  17  38  1   
 38  17  39  1   
 39  18  40  1   
 40  18  41  1   
 41  18  42  1   
 42  19  43  1   
 43  19  44  1   
 44  19  45  1   
 45  21  46  1   
 46  21  47  1   
 47  22  24  ar  
 48  22  48  1   
 49  23  24  ar  
 50  23  49  1   
 51  24  50  1   
@<TRIPOS>SUBSTRUCTURE
  1 ****   6 GROUP 4 **** **** 0

# MOE 2024.06 (io_trps.svl 2023.06)
