@<TRIPOS>MOLECULE
NONAME
53 57 1 0 0 
SMALL
USER_CHARGES


@<TRIPOS>ATOM
  1 O        1.1360    -0.6270     0.1140 O.2   1 <1>  -0.5700 
  2 C        0.1100    -0.0440    -0.1500 C.2   1 <1>   0.5690 
  3 N       -1.0980    -0.4500     0.3680 N.am  1 <1>  -0.6600 
  4 C        0.2280     1.1550    -1.0850 C.3   1 <1>   0.0820 
  5 C       -1.1790    -1.5540     1.3680 C.3   1 <1>   0.1400 
  6 C       -2.4150     0.1970     0.1030 C.3   1 <1>   0.1400 
  7 C       -0.1880     2.4750    -0.4430 C.2   1 <1>  -0.1810 
  8 C       -2.1500    -2.6240     0.8670 C.3   1 <1>  -0.1600 
  9 C       -3.3960    -0.8550    -0.4170 C.3   1 <1>  -0.1600 
 10 C       -1.0110     3.4320    -0.9030 C.2   1 <1>  -0.0400 
 11 C        0.2160     2.9730     0.7980 C.2   1 <1>   0.1080 
 12 C       -3.5270    -2.0330     0.5570 C.3   1 <1>   0.4600 
 13 O       -1.0730     4.3760    -0.0040 O.3   1 <1>  -0.0190 
 14 C       -1.8100     3.5880    -2.1810 C.3   1 <1>  -0.0600 
 15 N       -0.3340     4.1090     1.0320 N.2   1 <1>  -0.4100 
 16 C        1.1680     2.2990     1.7650 C.3   1 <1>  -0.0590 
 17 O       -4.0420    -1.5620     1.7840 O.3   1 <1>  -0.5600 
 18 C       -4.4540    -3.1070     0.0020 C.2   1 <1>  -0.3320 
 19 C       -5.4330    -1.3720     1.8930 C.3   1 <1>   0.1200 
 20 N       -4.2190    -3.9040    -1.0850 N.pl3 1 <1>   0.0330 
 21 C       -5.6550    -3.4190     0.5280 C.2   1 <1>  -0.1810 
 22 C       -6.1900    -2.7020     1.7420 C.3   1 <1>   0.0210 
 23 C       -5.2990    -4.7390    -1.2410 C.ar  1 <1>  -0.1520 
 24 C       -6.2210    -4.4590    -0.2370 C.ar  1 <1>   0.0000 
 25 C       -5.5520    -5.7330    -2.1900 C.ar  1 <1>  -0.1500 
 26 C       -7.4170    -5.1820    -0.1740 C.ar  1 <1>  -0.1500 
 27 C       -6.7330    -6.4360    -2.1170 C.ar  1 <1>  -0.1500 
 28 C       -7.6650    -6.1610    -1.1080 C.ar  1 <1>  -0.1500 
 29 H       -0.3600     0.9610    -1.9600 H     1 <1>   0.0800 
 30 H        1.2520     1.2410    -1.3990 H     1 <1>   0.0800 
 31 H       -1.5260    -1.1550     2.3060 H     1 <1>   0.0800 
 32 H       -0.2110    -1.9960     1.5330 H     1 <1>   0.0800 
 33 H       -2.3290     0.9840    -0.6220 H     1 <1>   0.0800 
 34 H       -2.7850     0.6270     1.0190 H     1 <1>   0.0800 
 35 H       -2.2570    -3.3960     1.6070 H     1 <1>   0.0800 
 36 H       -1.7350    -3.0730    -0.0150 H     1 <1>   0.0800 
 37 H       -3.0390    -1.2170    -1.3630 H     1 <1>   0.0800 
 38 H       -4.3570    -0.4120    -0.5900 H     1 <1>   0.0800 
 39 H       -1.6580     2.7490    -2.8340 H     1 <1>   0.0800 
 40 H       -1.5020     4.4840    -2.6900 H     1 <1>   0.0800 
 41 H       -2.8560     3.6650    -1.9470 H     1 <1>   0.0800 
 42 H        2.0240     1.9170     1.2400 H     1 <1>   0.0800 
 43 H        0.6680     1.4890     2.2630 H     1 <1>   0.0800 
 44 H        1.5020     3.0060     2.5030 H     1 <1>   0.0800 
 45 H       -5.7450    -0.6770     1.1350 H     1 <1>   0.0800 
 46 H       -5.6300    -0.9410     2.8590 H     1 <1>   0.0800 
 47 H       -3.3830    -3.9080    -1.6770 H     1 <1>   0.2700 
 48 H       -7.2410    -2.5100     1.6270 H     1 <1>   0.0800 
 49 H       -6.0440    -3.3100     2.6170 H     1 <1>   0.0800 
 50 H       -4.8310    -5.9390    -2.9600 H     1 <1>   0.1500 
 51 H       -8.1210    -4.9610     0.6060 H     1 <1>   0.1500 
 52 H       -6.9520    -7.2070    -2.8350 H     1 <1>   0.1500 
 53 H       -8.5800    -6.7250    -1.0730 H     1 <1>   0.1500 
@<TRIPOS>BOND
  1   1   2  2   
  2   2   3  am  
  3   2   4  1   
  4   3   5  1   
  5   3   6  1   
  6   4   7  1   
  7   4  29  1   
  8   4  30  1   
  9   5   8  1   
 10   5  31  1   
 11   5  32  1   
 12   6   9  1   
 13   6  33  1   
 14   6  34  1   
 15   7  10  2   
 16   7  11  1   
 17   8  12  1   
 18   8  35  1   
 19   8  36  1   
 20   9  12  1   
 21   9  37  1   
 22   9  38  1   
 23  10  13  1   
 24  10  14  1   
 25  11  15  2   
 26  11  16  1   
 27  12  17  1   
 28  12  18  1   
 29  13  15  1   
 30  14  39  1   
 31  14  40  1   
 32  14  41  1   
 33  16  42  1   
 34  16  43  1   
 35  16  44  1   
 36  17  19  1   
 37  18  20  1   
 38  18  21  2   
 39  19  22  1   
 40  19  45  1   
 41  19  46  1   
 42  20  23  1   
 43  20  47  1   
 44  21  22  1   
 45  21  24  1   
 46  22  48  1   
 47  22  49  1   
 48  23  24  ar  
 49  23  25  ar  
 50  24  26  ar  
 51  25  27  ar  
 52  25  50  1   
 53  26  28  ar  
 54  26  51  1   
 55  27  28  ar  
 56  27  52  1   
 57  28  53  1   
@<TRIPOS>SUBSTRUCTURE
  1 ****   9 GROUP 4 **** **** 0

# MOE 2024.06 (io_trps.svl 2023.06)
