@<TRIPOS>MOLECULE
NONAME
52 55 1 0 0 
SMALL
USER_CHARGES


@<TRIPOS>ATOM
  1 O        0.9640    -0.4510    -1.6710 O.2   1 <1>  -0.5700 
  2 C        1.7390    -0.7150    -0.7810 C.2   1 <1>   0.5690 
  3 N        1.5580    -1.7850     0.0840 N.am  1 <1>  -0.4770 
  4 C        2.9690     0.1750    -0.6440 C.3   1 <1>  -0.0990 
  5 C        0.3550    -2.5430     0.1510 C.ar  1 <1>   0.1170 
  6 C        2.7450    -2.2730     0.8640 C.3   1 <1>   0.1400 
  7 C        2.8180     1.5060    -1.3900 C.3   1 <1>   0.1100 
  8 C        0.3920    -3.9150     0.4140 C.ar  1 <1>  -0.1440 
  9 C       -0.8960    -1.9530    -0.0260 C.ar  1 <1>  -0.1500 
 10 C        2.5320    -3.6210     1.5650 C.3   1 <1>  -0.1600 
 11 N        3.9640     2.3900    -1.1120 N.3   1 <1>  -0.8100 
 12 C       -0.7730    -4.6630     0.4610 C.ar  1 <1>  -0.1500 
 13 C        1.7290    -4.5730     0.6830 C.3   1 <1>  -0.0170 
 14 C       -2.0600    -2.6970     0.0230 C.ar  1 <1>  -0.1500 
 15 C        3.5860     3.7990    -1.3510 C.3   1 <1>   0.2900 
 16 C        5.1430     2.0120    -1.9140 C.3   1 <1>   0.0300 
 17 C       -2.0000    -4.0580     0.2620 C.ar  1 <1>  -0.1500 
 18 C        4.6840     4.7670    -0.9410 C.2   1 <1>  -0.0400 
 19 O        5.5500     5.1850    -1.8220 O.3   1 <1>  -0.0190 
 20 C        4.9800     5.3500     0.2270 C.2   1 <1>  -0.1500 
 21 N        6.4090     6.0130    -1.3100 N.2   1 <1>  -0.4100 
 22 C        6.1020     6.1420    -0.0540 C.2   1 <1>   0.2350 
 23 C        6.8140     6.9830     0.8880 C.ar  1 <1>   0.0540 
 24 C        7.7490     7.9220     0.4750 C.ar  1 <1>  -0.1500 
 25 C        6.6290     6.9220     2.2630 C.ar  1 <1>  -0.1500 
 26 C        8.4080     8.7120     1.3970 C.ar  1 <1>   0.1600 
 27 C        7.3390     7.7580     3.1040 C.ar  1 <1>   0.1600 
 28 N        8.2250     8.6550     2.7050 N.ar  1 <1>  -0.6200 
 29 H        3.8130    -0.3610    -1.0300 H     1 <1>   0.0800 
 30 H        3.1290     0.3980     0.3930 H     1 <1>   0.0800 
 31 H        3.0120    -1.5380     1.6030 H     1 <1>   0.0800 
 32 H        3.5710    -2.3830     0.1830 H     1 <1>   0.0800 
 33 H        1.9090     1.9720    -1.0460 H     1 <1>   0.0800 
 34 H        2.7210     1.3360    -2.4510 H     1 <1>   0.0800 
 35 H       -0.9650    -0.8970    -0.2080 H     1 <1>   0.1500 
 36 H        1.9980    -3.4560     2.4850 H     1 <1>   0.0800 
 37 H        3.4840    -4.0550     1.8110 H     1 <1>   0.0800 
 38 H       -0.7330    -5.7210     0.6560 H     1 <1>   0.1500 
 39 H        2.2390    -4.7490    -0.2480 H     1 <1>   0.0800 
 40 H        1.5950    -5.5140     1.1880 H     1 <1>   0.0800 
 41 H       -3.0100    -2.2170    -0.1260 H     1 <1>   0.1500 
 42 H        2.7130     4.0260    -0.7650 H     1 <1>   0.0800 
 43 H        3.3400     3.9490    -2.3890 H     1 <1>   0.0800 
 44 H        5.4030     0.9830    -1.7450 H     1 <1>   0.0800 
 45 H        5.9930     2.6090    -1.6330 H     1 <1>   0.0800 
 46 H        4.9490     2.1550    -2.9640 H     1 <1>   0.0800 
 47 H       -2.9040    -4.6400     0.2970 H     1 <1>   0.1500 
 48 H        4.4840     5.2460     1.1720 H     1 <1>   0.1500 
 49 H        7.9620     8.0370    -0.5720 H     1 <1>   0.1500 
 50 H        5.9350     6.2230     2.6880 H     1 <1>   0.1500 
 51 H        9.1270     9.4310     1.0400 H     1 <1>   0.1500 
 52 H        7.1720     7.6860     4.1660 H     1 <1>   0.1500 
@<TRIPOS>BOND
  1   1   2  2   
  2   2   3  am  
  3   2   4  1   
  4   3   5  1   
  5   3   6  1   
  6   4   7  1   
  7   4  29  1   
  8   4  30  1   
  9   5   8  ar  
 10   5   9  ar  
 11   6  10  1   
 12   6  31  1   
 13   6  32  1   
 14   7  11  1   
 15   7  33  1   
 16   7  34  1   
 17   8  12  ar  
 18   8  13  1   
 19   9  14  ar  
 20   9  35  1   
 21  10  13  1   
 22  10  36  1   
 23  10  37  1   
 24  11  15  1   
 25  11  16  1   
 26  12  17  ar  
 27  12  38  1   
 28  13  39  1   
 29  13  40  1   
 30  14  17  ar  
 31  14  41  1   
 32  15  18  1   
 33  15  42  1   
 34  15  43  1   
 35  16  44  1   
 36  16  45  1   
 37  16  46  1   
 38  17  47  1   
 39  18  19  1   
 40  18  20  2   
 41  19  21  1   
 42  20  22  1   
 43  20  48  1   
 44  21  22  2   
 45  22  23  1   
 46  23  24  ar  
 47  23  25  ar  
 48  24  26  ar  
 49  24  49  1   
 50  25  27  ar  
 51  25  50  1   
 52  26  28  ar  
 53  26  51  1   
 54  27  28  ar  
 55  27  52  1   
@<TRIPOS>SUBSTRUCTURE
  1 ****  11 GROUP 4 **** **** 0

# MOE 2024.06 (io_trps.svl 2023.06)
