@<TRIPOS>MOLECULE
NONAME
50 53 1 0 0 
SMALL
USER_CHARGES


@<TRIPOS>ATOM
  1 S       -0.1320    -0.2190     0.0410 S.3   1 <1>  -0.0800 
  2 C       -1.7560    -0.3930     0.7000 C.2   1 <1>  -0.0450 
  3 C       -0.4800     1.3380    -0.7080 C.2   1 <1>  -0.0450 
  4 C       -2.0680    -1.5720     1.4710 C.2   1 <1>   0.7150 
  5 C       -2.4750     0.7050     0.3460 C.2   1 <1>  -0.1500 
  6 C        0.5310     2.0340    -1.4500 C.2   1 <1>   0.5940 
  7 C       -1.7720     1.6570    -0.4350 C.2   1 <1>  -0.1500 
  8 O       -1.2000    -2.0900     2.1520 O.2   1 <1>  -0.5700 
  9 N       -3.3320    -2.1310     1.4710 N.am  1 <1>  -0.6600 
 10 O        0.3240     3.0880    -1.9970 O.2   1 <1>  -0.5700 
 11 C        1.9250     1.4530    -1.5740 C.3   1 <1>  -0.1790 
 12 C       -4.2890    -2.0150     0.3370 C.3   1 <1>   0.1400 
 13 C       -3.7430    -3.1310     2.4970 C.3   1 <1>   0.1400 
 14 C       -4.4350    -3.3760    -0.3470 C.3   1 <1>  -0.1600 
 15 C       -3.8820    -4.5080     1.8430 C.3   1 <1>  -0.1600 
 16 C       -4.8460    -4.4850     0.6430 C.3   1 <1>   0.4240 
 17 O       -6.0770    -4.0850     1.2070 O.3   1 <1>  -0.5600 
 18 C       -4.9480    -5.8830    -0.0330 C.ar  1 <1>  -0.1430 
 19 C       -7.2410    -4.3920     0.5120 C.3   1 <1>   0.1200 
 20 C       -3.8400    -6.5130    -0.6160 C.ar  1 <1>   0.0830 
 21 C       -6.1740    -6.5480    -0.0700 C.ar  1 <1>  -0.1430 
 22 C       -7.4110    -5.9030     0.5190 C.3   1 <1>  -0.0170 
 23 O       -2.6400    -5.8740    -0.6120 O.3   1 <1>  -0.3630 
 24 C       -3.9720    -7.7720    -1.1970 C.ar  1 <1>  -0.1500 
 25 C       -6.2930    -7.8020    -0.6470 C.ar  1 <1>  -0.1500 
 26 C       -1.4300    -6.5220    -0.9350 C.3   1 <1>   0.0400 
 27 C       -5.1930    -8.4150    -1.2090 C.ar  1 <1>  -0.1500 
 28 H       -3.5000     0.8720     0.6290 H     1 <1>   0.1500 
 29 H       -2.2460     2.5630    -0.7750 H     1 <1>   0.1500 
 30 H        1.8830     0.5090    -2.0840 H     1 <1>   0.0800 
 31 H        2.3520     1.3160    -0.5990 H     1 <1>   0.0800 
 32 H        2.5510     2.1220    -2.1350 H     1 <1>   0.0800 
 33 H       -3.9470    -1.3000    -0.3890 H     1 <1>   0.0800 
 34 H       -5.2430    -1.6860     0.7130 H     1 <1>   0.0800 
 35 H       -4.6840    -2.8300     2.9240 H     1 <1>   0.0800 
 36 H       -3.0210    -3.1800     3.2940 H     1 <1>   0.0800 
 37 H       -3.4910    -3.6120    -0.7960 H     1 <1>   0.0800 
 38 H       -5.1490    -3.3150    -1.1450 H     1 <1>   0.0800 
 39 H       -4.2380    -5.2200     2.5640 H     1 <1>   0.0800 
 40 H       -2.9020    -4.8220     1.5450 H     1 <1>   0.0800 
 41 H       -7.1720    -4.0110    -0.4910 H     1 <1>   0.0800 
 42 H       -8.0630    -3.9170     1.0180 H     1 <1>   0.0800 
 43 H       -8.2800    -6.1630    -0.0580 H     1 <1>   0.0800 
 44 H       -7.5560    -6.2450     1.5280 H     1 <1>   0.0800 
 45 H       -3.1380    -8.2700    -1.6500 H     1 <1>   0.1500 
 46 H       -7.2430    -8.3060    -0.6610 H     1 <1>   0.1500 
 47 H       -0.6240    -5.8380    -0.7390 H     1 <1>   0.0800 
 48 H       -1.4410    -6.7830    -1.9780 H     1 <1>   0.0800 
 49 H       -1.3260    -7.3960    -0.3170 H     1 <1>   0.0800 
 50 H       -5.2890    -9.3890    -1.6570 H     1 <1>   0.1500 
@<TRIPOS>BOND
  1   1   2  1   
  2   1   3  1   
  3   2   4  1   
  4   2   5  2   
  5   3   6  1   
  6   3   7  2   
  7   4   8  2   
  8   4   9  am  
  9   5   7  1   
 10   5  28  1   
 11   6  10  2   
 12   6  11  1   
 13   7  29  1   
 14   9  12  1   
 15   9  13  1   
 16  11  30  1   
 17  11  31  1   
 18  11  32  1   
 19  12  14  1   
 20  12  33  1   
 21  12  34  1   
 22  13  15  1   
 23  13  35  1   
 24  13  36  1   
 25  14  16  1   
 26  14  37  1   
 27  14  38  1   
 28  15  16  1   
 29  15  39  1   
 30  15  40  1   
 31  16  17  1   
 32  16  18  1   
 33  17  19  1   
 34  18  20  ar  
 35  18  21  ar  
 36  19  22  1   
 37  19  41  1   
 38  19  42  1   
 39  20  23  1   
 40  20  24  ar  
 41  21  22  1   
 42  21  25  ar  
 43  22  43  1   
 44  22  44  1   
 45  23  26  1   
 46  24  27  ar  
 47  24  45  1   
 48  25  27  ar  
 49  25  46  1   
 50  26  47  1   
 51  26  48  1   
 52  26  49  1   
 53  27  50  1   
@<TRIPOS>SUBSTRUCTURE
  1 ****  14 GROUP 4 **** **** 0

# MOE 2024.06 (io_trps.svl 2023.06)
