@<TRIPOS>MOLECULE
NONAME
55 59 1 0 0 
SMALL
USER_CHARGES


@<TRIPOS>ATOM
  1 O        0.9730     0.8060     0.9250 O.3   1 <1>  -0.0190 
  2 N        1.9710     0.0000     1.1520 N.2   1 <1>  -0.4100 
  3 C        1.3770     1.9820     0.5210 C.2   1 <1>  -0.0400 
  4 C        3.0360     0.6690     0.8880 C.2   1 <1>   0.1080 
  5 C        2.7190     1.9580     0.4730 C.2   1 <1>  -0.1500 
  6 C        0.3460     3.0530     0.2040 C.3   1 <1>   0.0200 
  7 C        4.4400     0.1230     1.0130 C.3   1 <1>  -0.0590 
  8 C        0.9930     4.4260    -0.0450 C.3   1 <1>  -0.0800 
  9 C        0.0560     5.5140    -0.5630 C.3   1 <1>   0.2000 
 10 C        1.5890     5.0550     1.2100 C.3   1 <1>   0.2090 
 11 O       -1.1660     5.4200     0.1200 O.3   1 <1>  -0.5600 
 12 C        0.7810     6.8220    -0.1970 C.3   1 <1>   0.2090 
 13 N        1.7880     6.4810     0.8470 N.pl3 1 <1>  -0.8380 
 14 C       -2.2390     6.0620    -0.4930 C.3   1 <1>   0.0400 
 15 C        3.0670     6.9600     0.6610 C.ar  1 <1>   0.4100 
 16 N        3.9820     6.1380     0.1880 N.ar  1 <1>  -0.6200 
 17 C        3.3850     8.2740     0.9290 C.ar  1 <1>  -0.1440 
 18 C        5.2060     6.6350    -0.0080 C.ar  1 <1>   0.6200 
 19 C        4.6530     8.6820     0.6890 C.ar  1 <1>   0.1670 
 20 C        2.5260     9.3890     1.4730 C.3   1 <1>  -0.0170 
 21 N        5.5890     7.8970     0.2150 N.ar  1 <1>  -0.6200 
 22 C        6.2110     5.7140    -0.5120 C.ar  1 <1>   0.0000 
 23 C        4.8470    10.1340     1.0330 C.3   1 <1>  -0.0170 
 24 C        3.5370    10.5180     1.7520 C.3   1 <1>  -0.1600 
 25 C        7.1590     6.1120    -1.4570 C.ar  1 <1>  -0.1500 
 26 C        6.2700     4.3890    -0.0720 C.ar  1 <1>  -0.1500 
 27 C        8.1100     5.2340    -1.9440 C.ar  1 <1>  -0.1500 
 28 C        7.2180     3.5050    -0.5540 C.ar  1 <1>  -0.1500 
 29 C        8.1410     3.9260    -1.4940 C.ar  1 <1>  -0.1500 
 30 H        3.4160     2.7240     0.1860 H     1 <1>   0.1500 
 31 H       -0.2030     2.7500    -0.6690 H     1 <1>   0.0800 
 32 H       -0.3500     3.1210     1.0220 H     1 <1>   0.0800 
 33 H        4.9400     0.1850     0.0640 H     1 <1>   0.0800 
 34 H        4.4070    -0.9050     1.3240 H     1 <1>   0.0800 
 35 H        4.9880     0.6910     1.7410 H     1 <1>   0.0800 
 36 H        1.7860     4.3140    -0.7630 H     1 <1>   0.0800 
 37 H       -0.1190     5.4210    -1.6210 H     1 <1>   0.0800 
 38 H        2.5080     4.5800     1.5070 H     1 <1>   0.0800 
 39 H        0.8890     5.0000     2.0260 H     1 <1>   0.0800 
 40 H        0.0950     7.5610     0.1760 H     1 <1>   0.0800 
 41 H        1.2870     7.2080    -1.0650 H     1 <1>   0.0800 
 42 H       -3.1080     5.9220     0.1260 H     1 <1>   0.0800 
 43 H       -2.4110     5.6220    -1.4600 H     1 <1>   0.0800 
 44 H       -2.0280     7.1120    -0.5860 H     1 <1>   0.0800 
 45 H        1.8090     9.6880     0.7290 H     1 <1>   0.0800 
 46 H        2.0150     9.0800     2.3680 H     1 <1>   0.0800 
 47 H        5.7030    10.2650     1.6710 H     1 <1>   0.0800 
 48 H        4.9750    10.7000     0.1280 H     1 <1>   0.0800 
 49 H        3.7220    10.5650     2.8110 H     1 <1>   0.0800 
 50 H        3.1680    11.4720     1.4190 H     1 <1>   0.0800 
 51 H        7.1460     7.1280    -1.8130 H     1 <1>   0.1500 
 52 H        5.5590     4.0540     0.6630 H     1 <1>   0.1500 
 53 H        8.8280     5.5690    -2.6730 H     1 <1>   0.1500 
 54 H        7.2400     2.4900    -0.1980 H     1 <1>   0.1500 
 55 H        8.8800     3.2420    -1.8710 H     1 <1>   0.1500 
@<TRIPOS>BOND
  1   1   2  1   
  2   1   3  1   
  3   2   4  2   
  4   3   5  2   
  5   3   6  1   
  6   4   5  1   
  7   4   7  1   
  8   5  30  1   
  9   6   8  1   
 10   6  31  1   
 11   6  32  1   
 12   7  33  1   
 13   7  34  1   
 14   7  35  1   
 15   8   9  1   
 16   8  10  1   
 17   8  36  1   
 18   9  11  1   
 19   9  12  1   
 20   9  37  1   
 21  10  13  1   
 22  10  38  1   
 23  10  39  1   
 24  11  14  1   
 25  12  13  1   
 26  12  40  1   
 27  12  41  1   
 28  13  15  1   
 29  14  42  1   
 30  14  43  1   
 31  14  44  1   
 32  15  16  ar  
 33  15  17  ar  
 34  16  18  ar  
 35  17  19  ar  
 36  17  20  1   
 37  18  21  ar  
 38  18  22  1   
 39  19  21  ar  
 40  19  23  1   
 41  20  24  1   
 42  20  45  1   
 43  20  46  1   
 44  22  25  ar  
 45  22  26  ar  
 46  23  24  1   
 47  23  47  1   
 48  23  48  1   
 49  24  49  1   
 50  24  50  1   
 51  25  27  ar  
 52  25  51  1   
 53  26  28  ar  
 54  26  52  1   
 55  27  29  ar  
 56  27  53  1   
 57  28  29  ar  
 58  28  54  1   
 59  29  55  1   
@<TRIPOS>SUBSTRUCTURE
  1 ****  16 GROUP 4 **** **** 0

# MOE 2024.06 (io_trps.svl 2023.06)
