@<TRIPOS>MOLECULE
Untitled Document
31 30 1 0 0 
SMALL
USER_CHARGES


@<TRIPOS>ATOM
  1 O       -0.3290    -0.2580    -0.4880 O.co2 1 <1>  -0.9000 
  2 C       -0.3380    -1.4040    -0.0470 C.2   1 <1>   0.9060 
  3 O        0.5760    -1.9130     0.6230 O.co2 1 <1>  -0.9000 
  4 C       -1.5370    -2.3390    -0.3040 C.3   1 <1>   0.3170 
  5 N       -1.2910    -3.6180     0.4390 N.4   1 <1>  -0.8530 
  6 C       -2.8810    -1.7220     0.1270 C.3   1 <1>  -0.1600 
  7 C       -4.1220    -2.5370    -0.2900 C.3   1 <1>  -0.1600 
  8 C       -5.4100    -1.7560     0.0300 C.3   1 <1>  -0.1600 
  9 C       -6.6730    -2.4570    -0.4850 C.3   1 <1>   0.3290 
 10 N       -7.8460    -1.5980    -0.1970 N.pl3 1 <1>  -0.7940 
 11 C       -9.0410    -1.9070     0.2470 C.cat 1 <1>   0.6040 
 12 N       -9.4220    -3.1290     0.5110 N.pl3 1 <1>  -0.7540 
 13 C      -10.0290    -0.7840     0.4530 C.3   1 <1>  -0.1350 
 14 H       -1.5520    -2.5270    -1.3630 H     1 <1>   0.0800 
 15 H       -1.8480    -3.6910     1.2880 H     1 <1>   0.4500 
 16 H       -0.3040    -3.4480     0.7610 H     1 <1>   0.4500 
 17 H       -1.2940    -4.4520    -0.1460 H     1 <1>   0.4500 
 18 H       -2.8730    -1.5470     1.1890 H     1 <1>   0.0800 
 19 H       -2.9400    -0.7520    -0.3420 H     1 <1>   0.0800 
 20 H       -4.0740    -2.7250    -1.3500 H     1 <1>   0.0800 
 21 H       -4.1340    -3.4840     0.2220 H     1 <1>   0.0800 
 22 H       -5.3440    -0.7840    -0.4300 H     1 <1>   0.0800 
 23 H       -5.4870    -1.6220     1.0950 H     1 <1>   0.0800 
 24 H       -6.7790    -3.4170    -0.0090 H     1 <1>   0.0800 
 25 H       -6.5970    -2.6070    -1.5500 H     1 <1>   0.0800 
 26 H       -7.6450    -0.6110    -0.4000 H     1 <1>   0.4500 
 27 H       -8.8370    -3.9540     0.3920 H     1 <1>   0.4500 
 28 H      -10.3590    -3.3590     0.8540 H     1 <1>   0.4500 
 29 H       -9.5570     0.0370     0.9610 H     1 <1>   0.0800 
 30 H      -10.8650    -1.1080     1.0460 H     1 <1>   0.0800 
 31 H      -10.3950    -0.4420    -0.4980 H     1 <1>   0.0800 
@<TRIPOS>BOND
  1   1   2  ar  
  2   2   3  ar  
  3   2   4  1   
  4   4   5  1   
  5   4   6  1   
  6   4  14  1   
  7   5  15  1   
  8   5  16  1   
  9   5  17  1   
 10   6   7  1   
 11   6  18  1   
 12   6  19  1   
 13   7   8  1   
 14   7  20  1   
 15   7  21  1   
 16   8   9  1   
 17   8  22  1   
 18   8  23  1   
 19   9  10  1   
 20   9  24  1   
 21   9  25  1   
 22  10  11  ar  
 23  10  26  1   
 24  11  12  ar  
 25  11  13  1   
 26  12  27  1   
 27  12  28  1   
 28  13  29  1   
 29  13  30  1   
 30  13  31  1   
@<TRIPOS>SUBSTRUCTURE
  1 ****   7 GROUP 4 **** **** 0

# MOE 2024.06 (io_trps.svl 2023.06)
