@<TRIPOS>MOLECULE
NONAME
31 31 1 0 0 
SMALL
USER_CHARGES


@<TRIPOS>ATOM
  1 S       -0.3190     0.7030    -0.4100 S.3   1 <1>  -0.4600 
  2 C       -0.1480     0.0390     1.2660 C.3   1 <1>   1.2500 
  3 C        0.5330     2.3020    -0.2970 C.3   1 <1>   0.0700 
  4 F       -0.7070     0.8690     2.1350 F     1 <1>  -0.3400 
  5 F       -0.7490    -1.1380     1.3480 F     1 <1>  -0.3400 
  6 F        1.1340    -0.1090     1.5650 F     1 <1>  -0.3400 
  7 C        0.5290     2.9460    -1.6830 C.3   1 <1>   0.1400 
  8 N        1.0890     4.3170    -1.6120 N.am  1 <1>  -0.7300 
  9 C        2.4080     4.5960    -1.4700 C.2   1 <1>   0.5690 
 10 O        3.2350     3.7320    -1.3210 O.2   1 <1>  -0.5700 
 11 C        2.8570     6.0430    -1.4770 C.3   1 <1>  -0.0990 
 12 C        3.2170     6.5260    -0.0590 C.3   1 <1>  -0.1600 
 13 C        3.7320     7.9730    -0.0440 C.3   1 <1>   0.2810 
 14 N        4.1230     8.3440     1.3360 N.am  1 <1>  -0.7300 
 15 C        2.6580     9.0370    -0.3090 C.2   1 <1>   0.5690 
 16 C        3.3720     9.3740     1.7710 C.2   1 <1>   0.6900 
 17 O        2.0260     9.1820    -1.3250 O.2   1 <1>  -0.5700 
 18 N        2.5330     9.7960     0.8030 N.am  1 <1>  -0.4900 
 19 O        3.4170     9.8390     2.8840 O.2   1 <1>  -0.5700 
 20 H       -0.0020     2.9030     0.4170 H     1 <1>   0.0800 
 21 H        1.5380     2.1150     0.0390 H     1 <1>   0.0800 
 22 H       -0.4770     2.9910    -2.0650 H     1 <1>   0.0800 
 23 H        1.1270     2.3520    -2.3540 H     1 <1>   0.0800 
 24 H        0.4220     5.0810    -1.7470 H     1 <1>   0.3700 
 25 H        3.7170     6.1190    -2.1170 H     1 <1>   0.0800 
 26 H        2.0770     6.6500    -1.8990 H     1 <1>   0.0800 
 27 H        3.9850     5.8810     0.3320 H     1 <1>   0.0800 
 28 H        2.3510     6.4440     0.5750 H     1 <1>   0.0800 
 29 H        4.5640     8.1050    -0.7130 H     1 <1>   0.0800 
 30 H        4.6890     7.7650     1.9580 H     1 <1>   0.3700 
 31 H        1.8900    10.5700     0.9240 H     1 <1>   0.3700 
@<TRIPOS>BOND
  1   1   2  1   
  2   1   3  1   
  3   2   4  1   
  4   2   5  1   
  5   2   6  1   
  6   3   7  1   
  7   3  20  1   
  8   3  21  1   
  9   7   8  1   
 10   7  22  1   
 11   7  23  1   
 12   8   9  am  
 13   8  24  1   
 14   9  10  2   
 15   9  11  1   
 16  11  12  1   
 17  11  25  1   
 18  11  26  1   
 19  12  13  1   
 20  12  27  1   
 21  12  28  1   
 22  13  14  1   
 23  13  15  1   
 24  13  29  1   
 25  14  16  am  
 26  14  30  1   
 27  15  17  2   
 28  15  18  am  
 29  16  18  am  
 30  16  19  2   
 31  18  31  1   
@<TRIPOS>SUBSTRUCTURE
  1 ****   9 GROUP 4 **** **** 0

# MOE 2024.06 (io_trps.svl 2023.06)
