@<TRIPOS>MOLECULE
NONAME
48 52 1 0 0 
SMALL
USER_CHARGES


@<TRIPOS>ATOM
  1 O        0.5400    -0.0150     1.4080 O.3   1 <1>  -0.5600 
  2 C        1.6690    -0.5790     0.7730 C.3   1 <1>   0.4240 
  3 C       -0.7150    -0.3360     0.9070 C.3   1 <1>   0.1200 
  4 C        1.4080    -2.0570     0.3530 C.ar  1 <1>  -0.1440 
  5 C        2.7770    -0.4820     1.8340 C.3   1 <1>  -0.1600 
  6 C        2.0040     0.3250    -0.4290 C.3   1 <1>  -0.1600 
  7 C       -0.9650    -1.8110     1.1780 C.3   1 <1>  -0.0160 
  8 C        2.3980    -2.8500    -0.2430 C.ar  1 <1>   0.0820 
  9 C        0.1540    -2.6290     0.5680 C.ar  1 <1>  -0.1440 
 10 C        3.0670     0.9660     2.2300 C.3   1 <1>   0.2090 
 11 C        2.2880     1.7640     0.0000 C.3   1 <1>   0.2090 
 12 O        3.6190    -2.3060    -0.4870 O.3   1 <1>  -0.3630 
 13 C        2.1280    -4.1740    -0.5850 C.ar  1 <1>  -0.1500 
 14 C       -0.1030    -3.9460     0.2260 C.ar  1 <1>  -0.1500 
 15 N        3.3710     1.7720     1.0150 N.pl3 1 <1>  -0.8380 
 16 C        4.7170    -3.0540    -0.9570 C.3   1 <1>   0.0400 
 17 C        0.8840    -4.7200    -0.3490 C.ar  1 <1>  -0.1500 
 18 C        4.6730     2.0620     0.6540 C.ar  1 <1>   0.4100 
 19 N        5.6130     1.2040     0.9840 N.ar  1 <1>  -0.6200 
 20 C        4.9980     3.2310    -0.0540 C.ar  1 <1>   0.0000 
 21 C        6.8560     1.4900     0.5770 C.ar  1 <1>   0.4700 
 22 C        6.3180     3.3960    -0.4130 C.ar  1 <1>   0.1050 
 23 C        4.3190     4.3790    -0.5300 C.2   1 <1>  -0.1500 
 24 N        7.2800     2.5230    -0.1070 N.ar  1 <1>  -0.5670 
 25 N        6.4570     4.5670    -1.0920 N.pl3 1 <1>   0.0330 
 26 C        5.2270     5.1660    -1.1580 C.2   1 <1>  -0.3020 
 27 H       -0.7480    -0.1190    -0.1460 H     1 <1>   0.0800 
 28 H       -1.4410     0.2720     1.4190 H     1 <1>   0.0800 
 29 H        3.6930    -0.9020     1.4720 H     1 <1>   0.0800 
 30 H        2.4870    -1.0470     2.7000 H     1 <1>   0.0800 
 31 H        1.2060     0.3010    -1.1440 H     1 <1>   0.0800 
 32 H        2.8820    -0.0350    -0.9280 H     1 <1>   0.0800 
 33 H       -1.9110    -2.0920     0.7510 H     1 <1>   0.0800 
 34 H       -1.0060    -1.9810     2.2390 H     1 <1>   0.0800 
 35 H        3.8990     1.0000     2.9130 H     1 <1>   0.0800 
 36 H        2.2130     1.3910     2.7280 H     1 <1>   0.0800 
 37 H        1.4040     2.2100     0.4220 H     1 <1>   0.0800 
 38 H        2.5780     2.3360    -0.8630 H     1 <1>   0.0800 
 39 H        2.8720    -4.7980    -1.0400 H     1 <1>   0.1500 
 40 H       -1.0730    -4.3750     0.4050 H     1 <1>   0.1500 
 41 H        5.5680    -2.3980    -1.0020 H     1 <1>   0.0800 
 42 H        4.4910    -3.4260    -1.9400 H     1 <1>   0.0800 
 43 H        4.9110    -3.8580    -0.2700 H     1 <1>   0.0800 
 44 H        0.6820    -5.7430    -0.6130 H     1 <1>   0.1500 
 45 H        7.5990     0.7630     0.8550 H     1 <1>   0.1500 
 46 H        3.2680     4.5540    -0.3850 H     1 <1>   0.1500 
 47 H        7.3480     4.9110    -1.4600 H     1 <1>   0.2700 
 48 H        5.0780     6.1160    -1.6410 H     1 <1>   0.1500 
@<TRIPOS>BOND
  1   1   2  1   
  2   1   3  1   
  3   2   4  1   
  4   2   5  1   
  5   2   6  1   
  6   3   7  1   
  7   3  27  1   
  8   3  28  1   
  9   4   8  ar  
 10   4   9  ar  
 11   5  10  1   
 12   5  29  1   
 13   5  30  1   
 14   6  11  1   
 15   6  31  1   
 16   6  32  1   
 17   7   9  1   
 18   7  33  1   
 19   7  34  1   
 20   8  12  1   
 21   8  13  ar  
 22   9  14  ar  
 23  10  15  1   
 24  10  35  1   
 25  10  36  1   
 26  11  15  1   
 27  11  37  1   
 28  11  38  1   
 29  12  16  1   
 30  13  17  ar  
 31  13  39  1   
 32  14  17  ar  
 33  14  40  1   
 34  15  18  1   
 35  16  41  1   
 36  16  42  1   
 37  16  43  1   
 38  17  44  1   
 39  18  19  ar  
 40  18  20  ar  
 41  19  21  ar  
 42  20  22  ar  
 43  20  23  1   
 44  21  24  ar  
 45  21  45  1   
 46  22  24  ar  
 47  22  25  1   
 48  23  26  2   
 49  23  46  1   
 50  25  26  1   
 51  25  47  1   
 52  26  48  1   
@<TRIPOS>SUBSTRUCTURE
  1 ****   6 GROUP 4 **** **** 0

# MOE 2024.06 (io_trps.svl 2023.06)
