@<TRIPOS>MOLECULE
NONAME
54 58 1 0 0 
SMALL
USER_CHARGES


@<TRIPOS>ATOM
  1 O       -2.1320     1.7800    -2.0150 O.2   1 <1>  -0.5700 
  2 C       -2.3310     1.4720    -0.8590 C.2   1 <1>   0.5690 
  3 N       -3.3710     0.6490    -0.4950 N.am  1 <1>  -0.6600 
  4 C       -1.3430     2.0640     0.1750 C.3   1 <1>   0.4840 
  5 C       -3.6780     0.2050     0.8980 C.3   1 <1>   0.1400 
  6 C       -4.4050     0.2320    -1.4930 C.3   1 <1>   0.1400 
  7 N       -0.0840     2.6000    -0.4460 N.4   1 <1>  -0.9590 
  8 C       -1.9120     3.2800     0.9000 C.3   1 <1>  -0.1600 
  9 C       -3.8320    -1.3180     0.9300 C.3   1 <1>  -0.1600 
 10 C       -4.5760    -1.2880    -1.4650 C.3   1 <1>  -0.1600 
 11 C        0.4270     3.7280     0.3780 C.3   1 <1>   0.3430 
 12 C        0.9260     1.5460    -0.7480 C.3   1 <1>   0.2630 
 13 C       -0.6870     4.0650     1.3630 C.3   1 <1>  -0.1600 
 14 C       -4.9050    -1.7890    -0.0550 C.3   1 <1>   0.4600 
 15 O       -6.1100    -1.1960     0.3770 O.3   1 <1>  -0.5600 
 16 C       -5.0430    -3.3060    -0.0150 C.2   1 <1>  -0.3320 
 17 C       -7.3220    -1.7770    -0.0410 C.3   1 <1>   0.1200 
 18 N       -4.0540    -4.2270    -0.2370 N.pl3 1 <1>   0.0330 
 19 C       -6.1960    -3.9520     0.2490 C.2   1 <1>  -0.1810 
 20 C       -7.4760    -3.2000     0.5180 C.3   1 <1>   0.0210 
 21 C       -4.6010    -5.4790    -0.0980 C.ar  1 <1>  -0.1520 
 22 C       -5.9510    -5.3400     0.2120 C.ar  1 <1>   0.0000 
 23 C       -4.0220    -6.7450    -0.2190 C.ar  1 <1>  -0.1500 
 24 C       -6.7380    -6.4790     0.4080 C.ar  1 <1>  -0.1500 
 25 C       -4.8080    -7.8580    -0.0250 C.ar  1 <1>  -0.1500 
 26 C       -6.1670    -7.7240     0.2890 C.ar  1 <1>  -0.1500 
 27 H       -1.0870     1.3090     0.8970 H     1 <1>   0.0800 
 28 H       -2.9050     0.4940     1.5850 H     1 <1>   0.0800 
 29 H       -4.5980     0.6650     1.2190 H     1 <1>   0.0800 
 30 H       -5.3410     0.7060    -1.2470 H     1 <1>   0.0800 
 31 H       -4.1310     0.5410    -2.4870 H     1 <1>   0.0800 
 32 H       -0.4230     2.9710    -1.3540 H     1 <1>   0.4500 
 33 H       -2.4870     3.8720     0.2060 H     1 <1>   0.0800 
 34 H       -2.5490     2.9970     1.7190 H     1 <1>   0.0800 
 35 H       -4.1070    -1.6390     1.9180 H     1 <1>   0.0800 
 36 H       -2.8910    -1.7750     0.6880 H     1 <1>   0.0800 
 37 H       -3.6640    -1.7430    -1.8040 H     1 <1>   0.0800 
 38 H       -5.3490    -1.5850    -2.1480 H     1 <1>   0.0800 
 39 H        1.3190     3.4420     0.9130 H     1 <1>   0.0800 
 40 H        0.6490     4.5760    -0.2510 H     1 <1>   0.0800 
 41 H        1.2690     1.0800     0.1620 H     1 <1>   0.0800 
 42 H        1.7730     1.9770    -1.2570 H     1 <1>   0.0800 
 43 H        0.4940     0.7900    -1.3860 H     1 <1>   0.0800 
 44 H       -0.3900     3.7460     2.3480 H     1 <1>   0.0800 
 45 H       -0.8760     5.1250     1.3930 H     1 <1>   0.0800 
 46 H       -8.1250    -1.1520     0.3090 H     1 <1>   0.0800 
 47 H       -7.3410    -1.7940    -1.1160 H     1 <1>   0.0800 
 48 H       -3.0750    -4.0410    -0.4700 H     1 <1>   0.2700 
 49 H       -7.6610    -3.1640     1.5760 H     1 <1>   0.0800 
 50 H       -8.3020    -3.6910     0.0390 H     1 <1>   0.0800 
 51 H       -2.9790    -6.8410    -0.4600 H     1 <1>   0.1500 
 52 H       -7.7780    -6.3610     0.6490 H     1 <1>   0.1500 
 53 H       -4.3860    -8.8430    -0.1120 H     1 <1>   0.1500 
 54 H       -6.7590    -8.6100     0.4370 H     1 <1>   0.1500 
@<TRIPOS>BOND
  1   1   2  2   
  2   2   3  am  
  3   2   4  1   
  4   3   5  1   
  5   3   6  1   
  6   4   7  1   
  7   4   8  1   
  8   4  27  1   
  9   5   9  1   
 10   5  28  1   
 11   5  29  1   
 12   6  10  1   
 13   6  30  1   
 14   6  31  1   
 15   7  11  1   
 16   7  12  1   
 17   7  32  1   
 18   8  13  1   
 19   8  33  1   
 20   8  34  1   
 21   9  14  1   
 22   9  35  1   
 23   9  36  1   
 24  10  14  1   
 25  10  37  1   
 26  10  38  1   
 27  11  13  1   
 28  11  39  1   
 29  11  40  1   
 30  12  41  1   
 31  12  42  1   
 32  12  43  1   
 33  13  44  1   
 34  13  45  1   
 35  14  15  1   
 36  14  16  1   
 37  15  17  1   
 38  16  18  1   
 39  16  19  2   
 40  17  20  1   
 41  17  46  1   
 42  17  47  1   
 43  18  21  1   
 44  18  48  1   
 45  19  20  1   
 46  19  22  1   
 47  20  49  1   
 48  20  50  1   
 49  21  22  ar  
 50  21  23  ar  
 51  22  24  ar  
 52  23  25  ar  
 53  23  51  1   
 54  24  26  ar  
 55  24  52  1   
 56  25  26  ar  
 57  25  53  1   
 58  26  54  1   
@<TRIPOS>SUBSTRUCTURE
  1 ****   9 GROUP 4 **** **** 0

# MOE 2024.06 (io_trps.svl 2023.06)
