@<TRIPOS>MOLECULE
NONAME
54 58 1 0 0 
SMALL
USER_CHARGES


@<TRIPOS>ATOM
  1 O       -2.5800    -1.5600    -1.5700 O.2   1 <1>  -0.5700 
  2 C       -2.3010    -1.2340    -0.4450 C.2   1 <1>   0.5950 
  3 C       -3.0390    -0.2890     0.3430 C.2   1 <1>  -0.0860 
  4 C       -1.0680    -1.8500     0.2110 C.3   1 <1>  -0.0990 
  5 C       -4.1940     0.4900     0.0680 C.2   1 <1>  -0.0860 
  6 C       -2.6930     0.0370     1.6100 C.2   1 <1>  -0.0400 
  7 C       -1.1600    -1.9170     1.7550 C.3   1 <1>  -0.1600 
  8 C       -4.3770     1.2380     1.1910 C.2   1 <1>  -0.0400 
  9 C       -4.9970     0.4660    -1.1320 C.2   1 <1>   0.7160 
 10 O       -3.4790     0.9540     2.1040 O.3   1 <1>  -0.2800 
 11 C       -1.5500    -0.5690     2.3940 C.3   1 <1>   0.0200 
 12 C       -5.4240     2.2840     1.5100 C.3   1 <1>  -0.0600 
 13 O       -5.0640     1.4540    -1.8390 O.2   1 <1>  -0.5700 
 14 N       -5.7410    -0.6410    -1.4770 N.am  1 <1>  -0.6600 
 15 C       -6.2190    -0.8560    -2.8720 C.3   1 <1>   0.1400 
 16 C       -5.6740    -1.9420    -0.7740 C.3   1 <1>   0.1400 
 17 C       -6.5530    -2.3510    -2.9600 C.3   1 <1>   0.2000 
 18 C       -5.6400    -2.9680    -1.9020 C.3   1 <1>  -0.0800 
 19 O       -7.8770    -2.5400    -2.5870 O.3   1 <1>  -0.6800 
 20 C       -5.9270    -4.4080    -1.4440 C.3   1 <1>  -0.0170 
 21 C       -4.8400    -4.8240    -0.4520 C.ar  1 <1>  -0.1440 
 22 C       -4.9620    -4.6880     0.9530 C.ar  1 <1>   0.0000 
 23 C       -3.6550    -5.2960    -0.9360 C.ar  1 <1>  -0.1500 
 24 C       -3.8290    -5.0050     1.7430 C.ar  1 <1>   0.3100 
 25 C       -6.1270    -4.2450     1.6220 C.ar  1 <1>  -0.1500 
 26 C       -2.6040    -5.6000    -0.0650 C.ar  1 <1>   0.1600 
 27 N       -2.6600    -5.4540     1.2210 N.ar  1 <1>  -0.6200 
 28 C       -3.9020    -4.8450     3.1360 C.ar  1 <1>  -0.1500 
 29 C       -6.1660    -4.1000     2.9820 C.ar  1 <1>  -0.1500 
 30 C       -5.0390    -4.4000     3.7510 C.ar  1 <1>  -0.1500 
 31 H       -0.9320    -2.8430    -0.1780 H     1 <1>   0.0800 
 32 H       -0.2150    -1.2620    -0.0750 H     1 <1>   0.0800 
 33 H       -1.9120    -2.6430     2.0140 H     1 <1>   0.0800 
 34 H       -0.2260    -2.2590     2.1650 H     1 <1>   0.0800 
 35 H       -0.7170     0.1120     2.3820 H     1 <1>   0.0800 
 36 H       -1.8510    -0.7230     3.4150 H     1 <1>   0.0800 
 37 H       -6.0870     2.4220     0.6750 H     1 <1>   0.0800 
 38 H       -4.9420     3.2190     1.7280 H     1 <1>   0.0800 
 39 H       -5.9950     1.9760     2.3660 H     1 <1>   0.0800 
 40 H       -7.0680    -0.2350    -3.0970 H     1 <1>   0.0800 
 41 H       -5.4170    -0.6210    -3.5520 H     1 <1>   0.0800 
 42 H       -4.8150    -2.0390    -0.1390 H     1 <1>   0.0800 
 43 H       -6.5620    -2.0590    -0.1780 H     1 <1>   0.0800 
 44 H       -6.4090    -2.7620    -3.9440 H     1 <1>   0.0800 
 45 H       -4.6440    -2.9570    -2.3090 H     1 <1>   0.0800 
 46 H       -8.0790    -1.9550    -1.8310 H     1 <1>   0.4000 
 47 H       -5.8940    -5.0560    -2.3020 H     1 <1>   0.0800 
 48 H       -6.9120    -4.4980    -1.0260 H     1 <1>   0.0800 
 49 H       -3.4920    -5.4290    -1.9900 H     1 <1>   0.1500 
 50 H       -7.0110    -4.0180     1.0580 H     1 <1>   0.1500 
 51 H       -1.6880    -5.9700    -0.4940 H     1 <1>   0.1500 
 52 H       -3.0260    -5.0890     3.7080 H     1 <1>   0.1500 
 53 H       -7.0590    -3.7590     3.4770 H     1 <1>   0.1500 
 54 H       -5.0820    -4.2810     4.8200 H     1 <1>   0.1500 
@<TRIPOS>BOND
  1   1   2  2   
  2   2   3  1   
  3   2   4  1   
  4   3   5  1   
  5   3   6  2   
  6   4   7  1   
  7   4  31  1   
  8   4  32  1   
  9   5   8  2   
 10   5   9  1   
 11   6  10  1   
 12   6  11  1   
 13   7  11  1   
 14   7  33  1   
 15   7  34  1   
 16   8  10  1   
 17   8  12  1   
 18   9  13  2   
 19   9  14  am  
 20  11  35  1   
 21  11  36  1   
 22  12  37  1   
 23  12  38  1   
 24  12  39  1   
 25  14  15  1   
 26  14  16  1   
 27  15  17  1   
 28  15  40  1   
 29  15  41  1   
 30  16  18  1   
 31  16  42  1   
 32  16  43  1   
 33  17  18  1   
 34  17  19  1   
 35  17  44  1   
 36  18  20  1   
 37  18  45  1   
 38  19  46  1   
 39  20  21  1   
 40  20  47  1   
 41  20  48  1   
 42  21  22  ar  
 43  21  23  ar  
 44  22  24  ar  
 45  22  25  ar  
 46  23  26  ar  
 47  23  49  1   
 48  24  27  ar  
 49  24  28  ar  
 50  25  29  ar  
 51  25  50  1   
 52  26  27  ar  
 53  26  51  1   
 54  28  30  ar  
 55  28  52  1   
 56  29  30  ar  
 57  29  53  1   
 58  30  54  1   
@<TRIPOS>SUBSTRUCTURE
  1 ****  16 GROUP 4 **** **** 0

# MOE 2024.06 (io_trps.svl 2023.06)
