@<TRIPOS>MOLECULE
NONAME
40 41 1 0 0 
SMALL
USER_CHARGES


@<TRIPOS>ATOM
  1 F        0.2920    -0.6080     0.6500 F     1 <1>  -0.3400 
  2 C       -0.7640    -1.2770     1.1090 C.3   1 <1>   1.1640 
  3 F       -1.5570    -0.3600     1.6550 F     1 <1>  -0.3400 
  4 F       -0.3050    -2.0200     2.1130 F     1 <1>  -0.3400 
  5 C       -1.4690    -2.1140     0.0090 C.ar  1 <1>   0.1660 
  6 N       -2.5690    -2.7900     0.3040 N.ar  1 <1>  -0.6200 
  7 C       -0.9580    -2.1610    -1.2740 C.ar  1 <1>  -0.1500 
  8 C       -3.1450    -3.4970    -0.6650 C.ar  1 <1>   0.7200 
  9 C       -1.6220    -2.9170    -2.2070 C.ar  1 <1>   0.1600 
 10 N       -2.7070    -3.5840    -1.9190 N.ar  1 <1>  -0.6200 
 11 N       -4.2850    -4.1950    -0.3460 N.pl3 1 <1>  -0.8380 
 12 C       -4.8640    -5.2110    -1.2950 C.3   1 <1>   0.2090 
 13 C       -5.0270    -3.9970     0.9440 C.3   1 <1>   0.2090 
 14 C       -5.8370    -6.1530    -0.5710 C.3   1 <1>   0.2000 
 15 C       -6.5320    -4.0420     0.6710 C.3   1 <1>  -0.1600 
 16 O       -6.3170    -7.1430    -1.4150 O.3   1 <1>  -0.6800 
 17 C       -7.0130    -5.4310     0.1390 C.3   1 <1>  -0.1060 
 18 C       -7.3690    -6.3990     1.2830 C.2   1 <1>   0.9060 
 19 C       -8.2950    -5.2120    -0.7330 C.3   1 <1>  -0.1600 
 20 O       -7.2310    -6.0570     2.4640 O.co2 1 <1>  -0.9000 
 21 O       -7.7460    -7.5420     0.9800 O.co2 1 <1>  -0.9000 
 22 C       -8.1090    -4.5170    -2.0960 C.3   1 <1>  -0.1600 
 23 C       -9.4610    -4.2840    -2.7760 C.3   1 <1>  -0.2400 
 24 H       -0.0680    -1.6290    -1.5570 H     1 <1>   0.1500 
 25 H       -1.2510    -2.9750    -3.2170 H     1 <1>   0.1500 
 26 H       -5.3710    -4.6940    -2.0880 H     1 <1>   0.0800 
 27 H       -4.0680    -5.7980    -1.7170 H     1 <1>   0.0800 
 28 H       -4.7570    -4.7700     1.6440 H     1 <1>   0.0800 
 29 H       -4.7820    -3.0450     1.3820 H     1 <1>   0.0800 
 30 H       -5.2510    -6.6680     0.1730 H     1 <1>   0.0800 
 31 H       -7.0620    -3.7890     1.5710 H     1 <1>   0.0800 
 32 H       -6.7420    -3.2590    -0.0300 H     1 <1>   0.0800 
 33 H       -6.9560    -7.6610    -0.8580 H     1 <1>   0.4000 
 34 H       -8.7530    -6.1690    -0.9180 H     1 <1>   0.0800 
 35 H       -9.0000    -4.6510    -0.1440 H     1 <1>   0.0800 
 36 H       -7.6100    -3.5730    -1.9860 H     1 <1>   0.0800 
 37 H       -7.5090    -5.1400    -2.7360 H     1 <1>   0.0800 
 38 H      -10.0800    -3.6470    -2.1700 H     1 <1>   0.0800 
 39 H       -9.9680    -5.2220    -2.9250 H     1 <1>   0.0800 
 40 H       -9.3160    -3.8160    -3.7330 H     1 <1>   0.0800 
@<TRIPOS>BOND
  1   1   2  1   
  2   2   3  1   
  3   2   4  1   
  4   2   5  1   
  5   5   6  ar  
  6   5   7  ar  
  7   6   8  ar  
  8   7   9  ar  
  9   7  24  1   
 10   8  10  ar  
 11   8  11  1   
 12   9  10  ar  
 13   9  25  1   
 14  11  12  1   
 15  11  13  1   
 16  12  14  1   
 17  12  26  1   
 18  12  27  1   
 19  13  15  1   
 20  13  28  1   
 21  13  29  1   
 22  14  16  1   
 23  14  17  1   
 24  14  30  1   
 25  15  17  1   
 26  15  31  1   
 27  15  32  1   
 28  16  33  1   
 29  17  18  1   
 30  17  19  1   
 31  18  20  ar  
 32  18  21  ar  
 33  19  22  1   
 34  19  34  1   
 35  19  35  1   
 36  22  23  1   
 37  22  36  1   
 38  22  37  1   
 39  23  38  1   
 40  23  39  1   
 41  23  40  1   
@<TRIPOS>SUBSTRUCTURE
  1 ****  11 GROUP 4 **** **** 0

# MOE 2024.06 (io_trps.svl 2023.06)
