@<TRIPOS>MOLECULE
NONAME
51 54 1 0 0 
SMALL
USER_CHARGES


@<TRIPOS>ATOM
  1 O        0.1050     0.1250     1.4520 O.3   1 <1>  -0.2800 
  2 C        0.4680     1.3810     1.1910 C.ar  1 <1>   0.1400 
  3 C        1.0130    -0.6750     0.8970 C.2   1 <1>  -0.0400 
  4 C        1.6410     1.3960     0.4600 C.ar  1 <1>   0.0000 
  5 C       -0.1860     2.5470     1.5590 C.ar  1 <1>  -0.1500 
  6 C        1.9810     0.0370     0.2860 C.2   1 <1>  -0.1810 
  7 C        0.8080    -2.1720     1.0420 C.3   1 <1>   0.5230 
  8 C        2.1890     2.6210     0.0760 C.ar  1 <1>  -0.1500 
  9 C        0.3640     3.7530     1.1720 C.ar  1 <1>  -0.1500 
 10 C        3.2220    -0.4120    -0.4660 C.3   1 <1>  -0.0590 
 11 N       -0.1300    -2.7050    -0.0030 N.4   1 <1>  -0.9590 
 12 C        1.5500     3.7930     0.4320 C.ar  1 <1>  -0.1430 
 13 C       -1.4410    -1.9830     0.0310 C.3   1 <1>   0.4230 
 14 C       -0.2090    -4.1960     0.1110 C.3   1 <1>   0.2630 
 15 C        2.1200     5.1410     0.0300 C.3   1 <1>  -0.0970 
 16 C       -2.6980    -2.8370    -0.1380 C.3   1 <1>  -0.1600 
 17 C       -1.5410    -1.0030    -1.1350 C.3   1 <1>  -0.1600 
 18 C       -3.7770    -1.8290    -0.5530 C.3   1 <1>  -0.0800 
 19 C       -3.0310    -0.6560    -1.2120 C.3   1 <1>  -0.0800 
 20 C       -4.5520    -1.2370     0.6340 C.3   1 <1>  -0.1600 
 21 C       -3.4010     0.6020    -0.4100 C.3   1 <1>  -0.1600 
 22 C       -4.6950     0.2400     0.3010 C.3   1 <1>   0.2000 
 23 O       -4.8280     0.9780     1.4550 O.3   1 <1>  -0.6800 
 24 H       -1.0950     2.5010     2.1300 H     1 <1>   0.1500 
 25 H        0.4250    -2.3780     2.0280 H     1 <1>   0.0800 
 26 H        1.7640    -2.6580     0.9450 H     1 <1>   0.0800 
 27 H        3.1020     2.6340    -0.4910 H     1 <1>   0.1500 
 28 H       -0.1230     4.6740     1.4430 H     1 <1>   0.1500 
 29 H        4.1000    -0.0100     0.0090 H     1 <1>   0.0800 
 30 H        3.1870    -0.0500    -1.4790 H     1 <1>   0.0800 
 31 H        3.3020    -1.4830    -0.4830 H     1 <1>   0.0800 
 32 H        0.2900    -2.4590    -0.9070 H     1 <1>   0.4500 
 33 H       -1.5410    -1.4320     0.9530 H     1 <1>   0.0800 
 34 H       -0.6910    -4.4760     1.0340 H     1 <1>   0.0800 
 35 H        0.7780    -4.6280     0.0900 H     1 <1>   0.0800 
 36 H       -0.7740    -4.6050    -0.7110 H     1 <1>   0.0800 
 37 H        1.4150     5.6670    -0.5900 H     1 <1>   0.0800 
 38 H        3.0370     5.0250    -0.5190 H     1 <1>   0.0800 
 39 H        2.3190     5.7310     0.9070 H     1 <1>   0.0800 
 40 H       -2.5780    -3.5340    -0.9490 H     1 <1>   0.0800 
 41 H       -2.9640    -3.3610     0.7630 H     1 <1>   0.0800 
 42 H       -0.9360    -0.1240    -1.0020 H     1 <1>   0.0800 
 43 H       -1.2590    -1.4920    -2.0510 H     1 <1>   0.0800 
 44 H       -4.4700    -2.2700    -1.2520 H     1 <1>   0.0800 
 45 H       -3.3470    -0.5370    -2.2360 H     1 <1>   0.0800 
 46 H       -3.9950    -1.3510     1.5470 H     1 <1>   0.0800 
 47 H       -5.5170    -1.7010     0.7420 H     1 <1>   0.0800 
 48 H       -3.5410     1.4510    -1.0560 H     1 <1>   0.0800 
 49 H       -2.6370     0.8280     0.3140 H     1 <1>   0.0800 
 50 H       -5.5500     0.4160    -0.3310 H     1 <1>   0.0800 
 51 H       -4.0520     0.8590     2.0310 H     1 <1>   0.4000 
@<TRIPOS>BOND
  1   1   2  1   
  2   1   3  1   
  3   2   4  ar  
  4   2   5  ar  
  5   3   6  2   
  6   3   7  1   
  7   4   6  1   
  8   4   8  ar  
  9   5   9  ar  
 10   5  24  1   
 11   6  10  1   
 12   7  11  1   
 13   7  25  1   
 14   7  26  1   
 15   8  12  ar  
 16   8  27  1   
 17   9  12  ar  
 18   9  28  1   
 19  10  29  1   
 20  10  30  1   
 21  10  31  1   
 22  11  13  1   
 23  11  14  1   
 24  11  32  1   
 25  12  15  1   
 26  13  16  1   
 27  13  17  1   
 28  13  33  1   
 29  14  34  1   
 30  14  35  1   
 31  14  36  1   
 32  15  37  1   
 33  15  38  1   
 34  15  39  1   
 35  16  18  1   
 36  16  40  1   
 37  16  41  1   
 38  17  19  1   
 39  17  42  1   
 40  17  43  1   
 41  18  19  1   
 42  18  20  1   
 43  18  44  1   
 44  19  21  1   
 45  19  45  1   
 46  20  22  1   
 47  20  46  1   
 48  20  47  1   
 49  21  22  1   
 50  21  48  1   
 51  21  49  1   
 52  22  23  1   
 53  22  50  1   
 54  23  51  1   
@<TRIPOS>SUBSTRUCTURE
  1 ****   1 GROUP 4 **** **** 0

# MOE 2024.06 (io_trps.svl 2023.06)
