@<TRIPOS>MOLECULE
NONAME
47 48 1 0 0 
SMALL
USER_CHARGES


@<TRIPOS>ATOM
  1 O        1.4350    -0.0720    -0.4270 O.2   1 <1>  -0.5700 
  2 C        2.4310    -0.7670    -0.5390 C.2   1 <1>   0.5440 
  3 N        3.5850    -0.2000    -1.0470 N.am  1 <1>  -0.6600 
  4 C        2.3660    -2.1500    -0.1250 C.ar  1 <1>   0.0860 
  5 C        4.9020    -0.9040    -1.0640 C.3   1 <1>   0.2840 
  6 C        3.5840     1.1910    -1.5850 C.3   1 <1>   0.1400 
  7 C        2.1670    -2.4890     1.2240 C.ar  1 <1>   0.1000 
  8 C        2.4950    -3.1800    -1.0560 C.ar  1 <1>  -0.1500 
  9 C        5.8620    -0.2980    -0.0530 C.ar  1 <1>  -0.1440 
 10 C        3.7170     2.2220    -0.4570 C.3   1 <1>  -0.1600 
 11 N        1.9940    -1.5140     2.1920 N.pl3 1 <1>  -0.9000 
 12 C        2.1360    -3.8270     1.6040 C.ar  1 <1>  -0.1500 
 13 C        2.4570    -4.5010    -0.6620 C.ar  1 <1>   0.0830 
 14 C        5.6030    -0.4100     1.3040 C.ar  1 <1>  -0.1500 
 15 C        7.0000     0.3740    -0.4710 C.ar  1 <1>  -0.1500 
 16 C        3.6820     3.6530    -1.0080 C.3   1 <1>  -0.1600 
 17 C        2.2800    -4.8350     0.6710 C.ar  1 <1>  -0.1500 
 18 O        2.5940    -5.4670    -1.5880 O.3   1 <1>  -0.5330 
 19 C        6.4700     0.1420     2.2310 C.ar  1 <1>  -0.1500 
 20 C        7.8670     0.9270     0.4560 C.ar  1 <1>  -0.1500 
 21 C        3.8280     4.6770     0.1200 C.3   1 <1>  -0.2400 
 22 C        7.6080     0.8120     1.8120 C.ar  1 <1>  -0.1430 
 23 C        8.5550     1.4200     2.8300 C.3   1 <1>  -0.0970 
 24 H        5.3190    -0.8410    -2.0540 H     1 <1>   0.0800 
 25 H        4.7870    -1.9470    -0.8330 H     1 <1>   0.0800 
 26 H        2.6610     1.3600    -2.1130 H     1 <1>   0.0800 
 27 H        4.3920     1.3100    -2.2850 H     1 <1>   0.0800 
 28 H        2.6240    -2.9430    -2.0960 H     1 <1>   0.1500 
 29 H        4.6430     2.0720     0.0670 H     1 <1>   0.0800 
 30 H        2.9070     2.0890     0.2380 H     1 <1>   0.0800 
 31 H        1.4310    -1.7590     3.0110 H     1 <1>   0.4000 
 32 H        1.7230    -0.5890     1.8180 H     1 <1>   0.4000 
 33 H        1.9990    -4.0720     2.6410 H     1 <1>   0.1500 
 34 H        4.7200    -0.9230     1.6450 H     1 <1>   0.1500 
 35 H        7.2180     0.4750    -1.5190 H     1 <1>   0.1500 
 36 H        2.7490     3.8190    -1.5200 H     1 <1>   0.0800 
 37 H        4.4830     3.7890    -1.7140 H     1 <1>   0.0800 
 38 H        2.2550    -5.8630     0.9810 H     1 <1>   0.1500 
 39 H        2.5230    -6.3620    -1.2110 H     1 <1>   0.4500 
 40 H        6.2510     0.0480     3.2790 H     1 <1>   0.1500 
 41 H        8.7450     1.4470     0.1170 H     1 <1>   0.1500 
 42 H        3.0240     4.5720     0.8280 H     1 <1>   0.0800 
 43 H        3.8030     5.6750    -0.2810 H     1 <1>   0.0800 
 44 H        4.7620     4.5370     0.6360 H     1 <1>   0.0800 
 45 H        8.5510     0.8440     3.7370 H     1 <1>   0.0800 
 46 H        8.2490     2.4260     3.0550 H     1 <1>   0.0800 
 47 H        9.5590     1.4400     2.4450 H     1 <1>   0.0800 
@<TRIPOS>BOND
  1   1   2  2   
  2   2   3  am  
  3   2   4  1   
  4   3   5  1   
  5   3   6  1   
  6   4   7  ar  
  7   4   8  ar  
  8   5   9  1   
  9   5  24  1   
 10   5  25  1   
 11   6  10  1   
 12   6  26  1   
 13   6  27  1   
 14   7  11  1   
 15   7  12  ar  
 16   8  13  ar  
 17   8  28  1   
 18   9  14  ar  
 19   9  15  ar  
 20  10  16  1   
 21  10  29  1   
 22  10  30  1   
 23  11  31  1   
 24  11  32  1   
 25  12  17  ar  
 26  12  33  1   
 27  13  17  ar  
 28  13  18  1   
 29  14  19  ar  
 30  14  34  1   
 31  15  20  ar  
 32  15  35  1   
 33  16  21  1   
 34  16  36  1   
 35  16  37  1   
 36  17  38  1   
 37  18  39  1   
 38  19  22  ar  
 39  19  40  1   
 40  20  22  ar  
 41  20  41  1   
 42  21  42  1   
 43  21  43  1   
 44  21  44  1   
 45  22  23  1   
 46  23  45  1   
 47  23  46  1   
 48  23  47  1   
@<TRIPOS>SUBSTRUCTURE
  1 ****   3 GROUP 4 **** **** 0

# MOE 2024.06 (io_trps.svl 2023.06)
