@<TRIPOS>MOLECULE
NONAME
47 48 1 0 0 
SMALL
USER_CHARGES


@<TRIPOS>ATOM
  1 O       -0.8240     0.5140    -2.0170 O.2   1 <1>  -0.5700 
  2 C       -1.2270     1.0150    -0.9850 C.2   1 <1>   0.5440 
  3 N       -1.8010     0.2090    -0.0210 N.am  1 <1>  -0.6600 
  4 C       -1.1150     2.4480    -0.8150 C.ar  1 <1>   0.0860 
  5 C       -1.9490    -1.2510    -0.2630 C.3   1 <1>   0.3200 
  6 C       -2.2760     0.7230     1.3050 C.3   1 <1>   0.1400 
  7 C       -0.2330     3.0120     0.1010 C.ar  1 <1>  -0.1500 
  8 C       -1.9030     3.3140    -1.5680 C.ar  1 <1>  -0.1500 
  9 C       -3.2970    -1.5090    -0.9060 C.2   1 <1>  -0.3320 
 10 C       -3.5850     1.5210     1.2060 C.3   1 <1>   0.1200 
 11 C       -0.1530     4.3790     0.2950 C.ar  1 <1>   0.0830 
 12 C       -1.8420     4.6830    -1.3890 C.ar  1 <1>  -0.1500 
 13 N       -4.3580    -2.1040    -0.3230 N.pl3 1 <1>   0.0480 
 14 C       -3.6770    -1.1920    -2.1630 C.2   1 <1>   0.0770 
 15 O       -4.6010     0.7160     0.7210 O.3   1 <1>  -0.6800 
 16 O        0.7500     4.7740     1.2340 O.3   1 <1>  -0.3620 
 17 C       -0.9810     5.2400    -0.4450 C.ar  1 <1>   0.0830 
 18 C       -5.3190    -2.0930    -1.2740 C.2   1 <1>   0.0360 
 19 C       -4.4860    -2.6150     1.0530 C.3   1 <1>   0.0160 
 20 N       -4.9510    -1.5560    -2.3910 N.2   1 <1>  -0.5650 
 21 C        1.5120     5.9470     1.0480 C.3   1 <1>   0.0400 
 22 O       -0.9370     6.5810    -0.2180 O.3   1 <1>  -0.3630 
 23 C       -1.8840     7.5060    -0.7120 C.3   1 <1>   0.1200 
 24 C       -3.1880     7.3740     0.0780 C.3   1 <1>  -0.2400 
 25 H       -1.8470    -1.7940     0.6590 H     1 <1>   0.0800 
 26 H       -1.1720    -1.5950    -0.9260 H     1 <1>   0.0800 
 27 H       -1.5180     1.3550     1.7310 H     1 <1>   0.0800 
 28 H       -2.4200    -0.0950     1.9880 H     1 <1>   0.0800 
 29 H        0.4090     2.3700     0.6750 H     1 <1>   0.1500 
 30 H       -2.5730     2.8960    -2.3010 H     1 <1>   0.1500 
 31 H       -3.4790     2.3670     0.5510 H     1 <1>   0.0800 
 32 H       -3.8830     1.8730     2.1780 H     1 <1>   0.0800 
 33 H       -2.4780     5.2970    -1.9960 H     1 <1>   0.1500 
 34 H       -3.0840    -0.7070    -2.9230 H     1 <1>   0.1500 
 35 H       -4.3130     0.2900    -0.1230 H     1 <1>   0.4000 
 36 H       -6.3000    -2.4970    -1.0980 H     1 <1>   0.1500 
 37 H       -3.7500    -3.3790     1.2210 H     1 <1>   0.0800 
 38 H       -5.4680    -3.0280     1.1940 H     1 <1>   0.0800 
 39 H       -4.3400    -1.8070     1.7460 H     1 <1>   0.0800 
 40 H        2.4000     5.8680     1.6470 H     1 <1>   0.0800 
 41 H        0.9320     6.7930     1.3700 H     1 <1>   0.0800 
 42 H        1.7730     6.0380     0.0080 H     1 <1>   0.0800 
 43 H       -2.0220     7.3520    -1.7670 H     1 <1>   0.0800 
 44 H       -1.4700     8.4880    -0.5650 H     1 <1>   0.0800 
 45 H       -3.6260     6.4020    -0.0580 H     1 <1>   0.0800 
 46 H       -3.8920     8.1130    -0.2610 H     1 <1>   0.0800 
 47 H       -3.0000     7.5370     1.1240 H     1 <1>   0.0800 
@<TRIPOS>BOND
  1   1   2  2   
  2   2   3  am  
  3   2   4  1   
  4   3   5  1   
  5   3   6  1   
  6   4   7  ar  
  7   4   8  ar  
  8   5   9  1   
  9   5  25  1   
 10   5  26  1   
 11   6  10  1   
 12   6  27  1   
 13   6  28  1   
 14   7  11  ar  
 15   7  29  1   
 16   8  12  ar  
 17   8  30  1   
 18   9  13  1   
 19   9  14  2   
 20  10  15  1   
 21  10  31  1   
 22  10  32  1   
 23  11  16  1   
 24  11  17  ar  
 25  12  17  ar  
 26  12  33  1   
 27  13  18  1   
 28  13  19  1   
 29  14  20  1   
 30  14  34  1   
 31  15  35  1   
 32  16  21  1   
 33  17  22  1   
 34  18  20  2   
 35  18  36  1   
 36  19  37  1   
 37  19  38  1   
 38  19  39  1   
 39  21  40  1   
 40  21  41  1   
 41  21  42  1   
 42  22  23  1   
 43  23  24  1   
 44  23  43  1   
 45  23  44  1   
 46  24  45  1   
 47  24  46  1   
 48  24  47  1   
@<TRIPOS>SUBSTRUCTURE
  1 ****   4 GROUP 4 **** **** 0

# MOE 2024.06 (io_trps.svl 2023.06)
