@<TRIPOS>MOLECULE
NONAME
41 41 1 0 0 
SMALL
USER_CHARGES


@<TRIPOS>ATOM
  1 O       -1.6640    -0.6380    -1.1910 O.2   1 <1>  -0.5700 
  2 C       -1.1970    -1.0120    -0.1440 C.2   1 <1>   0.6590 
  3 O       -0.4450    -0.2150     0.6110 O.3   1 <1>  -0.4300 
  4 C       -1.4110    -2.4270     0.4020 C.3   1 <1>   0.2610 
  5 C       -0.1020     1.0880     0.1850 C.3   1 <1>   0.0400 
  6 O       -2.7030    -2.9080     0.0820 O.3   1 <1>  -0.5600 
  7 C       -0.3380    -3.3880    -0.1450 C.3   1 <1>   0.2000 
  8 C       -3.0190    -4.1630     0.5610 C.3   1 <1>   0.4800 
  9 O        0.9370    -3.0370     0.3770 O.3   1 <1>  -0.4300 
 10 C       -0.6200    -4.8350     0.2800 C.3   1 <1>   0.2000 
 11 O       -4.2930    -4.3520     0.1130 O.3   1 <1>  -0.6800 
 12 C       -2.0700    -5.2310    -0.0140 C.3   1 <1>   0.2000 
 13 C        1.8210    -2.3200    -0.3040 C.2   1 <1>   0.6590 
 14 O        0.2590    -5.6950    -0.4250 O.3   1 <1>  -0.4300 
 15 O       -2.3190    -6.4860     0.6000 O.3   1 <1>  -0.4300 
 16 O        1.5860    -1.8750    -1.3930 O.2   1 <1>  -0.5700 
 17 C        3.1420    -2.0860     0.3800 C.3   1 <1>  -0.1790 
 18 C        0.6900    -6.8850    -0.0230 C.2   1 <1>   0.6590 
 19 C       -3.1770    -7.4110     0.1860 C.2   1 <1>   0.6590 
 20 O        1.0440    -7.6940    -0.8330 O.2   1 <1>  -0.5700 
 21 C        0.7760    -7.1930     1.4560 C.3   1 <1>  -0.1790 
 22 O       -3.5160    -8.2780     0.9410 O.2   1 <1>  -0.5700 
 23 C       -3.6790    -7.3970    -1.2410 C.3   1 <1>  -0.1790 
 24 H       -1.3460    -2.3860     1.4750 H     1 <1>   0.0800 
 25 H        0.5030     1.5500     0.9450 H     1 <1>   0.0800 
 26 H       -1.0040     1.6550     0.0320 H     1 <1>   0.0800 
 27 H        0.4500     1.0150    -0.7370 H     1 <1>   0.0800 
 28 H       -0.3180    -3.3260    -1.2210 H     1 <1>   0.0800 
 29 H       -3.0150    -4.1470     1.6390 H     1 <1>   0.0800 
 30 H       -0.4380    -4.9160     1.3360 H     1 <1>   0.0800 
 31 H       -4.7370    -3.4830     0.1470 H     1 <1>   0.4000 
 32 H       -2.2100    -5.3010    -1.0770 H     1 <1>   0.0800 
 33 H        3.6080    -3.0290     0.5940 H     1 <1>   0.0800 
 34 H        2.9840    -1.5470     1.2940 H     1 <1>   0.0800 
 35 H        3.7850    -1.5130    -0.2620 H     1 <1>   0.0800 
 36 H        1.3040    -6.4090     1.9650 H     1 <1>   0.0800 
 37 H        1.3130    -8.1140     1.5930 H     1 <1>   0.0800 
 38 H       -0.2050    -7.3090     1.8730 H     1 <1>   0.0800 
 39 H       -2.8480    -7.4030    -1.9210 H     1 <1>   0.0800 
 40 H       -4.2890    -6.5320    -1.4150 H     1 <1>   0.0800 
 41 H       -4.2720    -8.2750    -1.4170 H     1 <1>   0.0800 
@<TRIPOS>BOND
  1   1   2  2   
  2   2   3  1   
  3   2   4  1   
  4   3   5  1   
  5   4   6  1   
  6   4   7  1   
  7   4  24  1   
  8   5  25  1   
  9   5  26  1   
 10   5  27  1   
 11   6   8  1   
 12   7   9  1   
 13   7  10  1   
 14   7  28  1   
 15   8  11  1   
 16   8  12  1   
 17   8  29  1   
 18   9  13  1   
 19  10  12  1   
 20  10  14  1   
 21  10  30  1   
 22  11  31  1   
 23  12  15  1   
 24  12  32  1   
 25  13  16  2   
 26  13  17  1   
 27  14  18  1   
 28  15  19  1   
 29  17  33  1   
 30  17  34  1   
 31  17  35  1   
 32  18  20  2   
 33  18  21  1   
 34  19  22  2   
 35  19  23  1   
 36  21  36  1   
 37  21  37  1   
 38  21  38  1   
 39  23  39  1   
 40  23  40  1   
 41  23  41  1   
@<TRIPOS>SUBSTRUCTURE
  1 ****  10 GROUP 4 **** **** 0

# MOE 2024.06 (io_trps.svl 2023.06)
