@<TRIPOS>MOLECULE
NONAME
47 50 1 0 0 
SMALL
USER_CHARGES


@<TRIPOS>ATOM
  1 S        0.1750     0.6610    -2.0210 S.o2  1 <1>   1.5000 
  2 O       -0.0260     1.8230    -2.8520 O.2   1 <1>  -0.6500 
  3 O        1.1050    -0.3560    -2.4690 O.2   1 <1>  -0.6500 
  4 N        0.8770     1.2380    -0.5810 N.am  1 <1>  -0.8490 
  5 C       -1.4270    -0.0900    -1.5730 C.2   1 <1>   0.0780 
  6 C        0.8240     0.3400     0.6080 C.3   1 <1>   0.2760 
  7 C        2.1160     1.9960    -0.8430 C.3   1 <1>   0.1960 
  8 O       -1.4530    -1.2130    -0.8690 O.3   1 <1>  -0.2800 
  9 C       -2.7000     0.2960    -1.8220 C.2   1 <1>  -0.1500 
 10 C        1.0890     1.0950     1.9220 C.3   1 <1>   0.1200 
 11 C        1.7150    -0.9300     0.5220 C.3   1 <1>   0.3430 
 12 C        3.3370     1.6690     0.0370 C.3   1 <1>  -0.0800 
 13 C       -2.7070    -1.5700    -0.6400 C.2   1 <1>   0.1400 
 14 C       -3.5270    -0.6590    -1.2240 C.2   1 <1>  -0.1500 
 15 O        2.4520     1.1600     2.2070 O.3   1 <1>  -0.5600 
 16 N        2.8830    -0.8220    -0.4220 N.4   1 <1>  -0.9590 
 17 C        3.1550     2.1160     1.4930 C.3   1 <1>   0.1200 
 18 C        3.8840     0.2300    -0.0590 C.3   1 <1>   0.3430 
 19 C       -2.9710    -2.7510     0.1320 C.2   1 <1>   0.1400 
 20 C        3.5330    -2.1520    -0.5960 C.3   1 <1>   0.2630 
 21 O       -1.9860    -3.4160     0.6950 O.3   1 <1>  -0.0190 
 22 C       -4.1060    -3.4040     0.4610 C.2   1 <1>  -0.1500 
 23 N       -2.3950    -4.4500     1.3680 N.2   1 <1>  -0.4100 
 24 C       -3.6740    -4.4680     1.2410 C.2   1 <1>   0.1080 
 25 C       -4.5620    -5.5200     1.8690 C.3   1 <1>  -0.0590 
 26 H       -0.1890     0.0070     0.7210 H     1 <1>   0.0800 
 27 H        2.4140     1.8650    -1.8720 H     1 <1>   0.0800 
 28 H        1.8840     3.0440    -0.7360 H     1 <1>   0.0800 
 29 H       -3.0340     1.1630    -2.3680 H     1 <1>   0.1500 
 30 H        0.6360     0.5540     2.7350 H     1 <1>   0.0800 
 31 H        0.6650     2.0850     1.9040 H     1 <1>   0.0800 
 32 H        1.0860    -1.7440     0.2010 H     1 <1>   0.0800 
 33 H        2.0680    -1.1730     1.5110 H     1 <1>   0.0800 
 34 H        4.1250     2.2990    -0.3350 H     1 <1>   0.0800 
 35 H       -4.6030    -0.6480    -1.2350 H     1 <1>   0.1500 
 36 H        2.4630    -0.5660    -1.3410 H     1 <1>   0.4500 
 37 H        2.6480     3.0650     1.5660 H     1 <1>   0.0800 
 38 H        4.1170     2.2140     1.9690 H     1 <1>   0.0800 
 39 H        4.3430    -0.0260     0.8820 H     1 <1>   0.0800 
 40 H        4.6610     0.2230    -0.8060 H     1 <1>   0.0800 
 41 H        3.9600    -2.4860     0.3360 H     1 <1>   0.0800 
 42 H        4.3150    -2.0910    -1.3350 H     1 <1>   0.0800 
 43 H        2.8090    -2.8790    -0.9260 H     1 <1>   0.0800 
 44 H       -5.1200    -3.1740     0.1940 H     1 <1>   0.1500 
 45 H       -5.5960    -5.3210     1.6540 H     1 <1>   0.0800 
 46 H       -4.4200    -5.5240     2.9340 H     1 <1>   0.0800 
 47 H       -4.3040    -6.4880     1.4810 H     1 <1>   0.0800 
@<TRIPOS>BOND
  1   1   2  2   
  2   1   3  2   
  3   1   4  am  
  4   1   5  1   
  5   4   6  1   
  6   4   7  1   
  7   5   8  1   
  8   5   9  2   
  9   6  10  1   
 10   6  11  1   
 11   6  26  1   
 12   7  12  1   
 13   7  27  1   
 14   7  28  1   
 15   8  13  1   
 16   9  14  1   
 17   9  29  1   
 18  10  15  1   
 19  10  30  1   
 20  10  31  1   
 21  11  16  1   
 22  11  32  1   
 23  11  33  1   
 24  12  17  1   
 25  12  18  1   
 26  12  34  1   
 27  13  14  2   
 28  13  19  1   
 29  14  35  1   
 30  15  17  1   
 31  16  18  1   
 32  16  20  1   
 33  16  36  1   
 34  17  37  1   
 35  17  38  1   
 36  18  39  1   
 37  18  40  1   
 38  19  21  1   
 39  19  22  2   
 40  20  41  1   
 41  20  42  1   
 42  20  43  1   
 43  21  23  1   
 44  22  24  1   
 45  22  44  1   
 46  23  24  2   
 47  24  25  1   
 48  25  45  1   
 49  25  46  1   
 50  25  47  1   
@<TRIPOS>SUBSTRUCTURE
  1 ****   8 GROUP 4 **** **** 0

# MOE 2024.06 (io_trps.svl 2023.06)
