@<TRIPOS>MOLECULE
NONAME
46 48 1 0 0 
SMALL
USER_CHARGES


@<TRIPOS>ATOM
  1 S        2.1610     0.1940     0.4020 S.3   1 <1>  -0.3320 
  2 C        1.8210    -1.5300     0.7080 C.ar  1 <1>   0.7220 
  3 C        0.6770     0.7830    -0.5510 C.3   1 <1>   0.1310 
  4 N        0.6620    -1.9770     0.2470 N.ar  1 <1>  -0.6200 
  5 N        2.7680    -2.1740     1.3660 N.ar  1 <1>  -0.6200 
  6 C        0.7970     2.2500    -0.9250 C.2   1 <1>   0.5690 
  7 C        0.4330    -3.2480     0.4830 C.ar  1 <1>   0.1660 
  8 C        2.5070    -3.4420     1.5850 C.ar  1 <1>   0.1600 
  9 O        0.2510     2.6130    -1.9410 O.2   1 <1>  -0.5700 
 10 N        1.5040     3.0770    -0.1060 N.am  1 <1>  -0.4930 
 11 C        1.3400    -4.0340     1.1590 C.ar  1 <1>  -0.1500 
 12 C       -0.8760    -3.8160    -0.0230 C.3   1 <1>  -0.0970 
 13 C        1.8670     4.4420    -0.2470 C.2   1 <1>   0.0630 
 14 C        3.0980     4.9420     0.1940 C.2   1 <1>   0.3720 
 15 C        1.2230     5.5110    -0.7660 C.2   1 <1>  -0.3320 
 16 N        3.2390     6.2070    -0.0530 N.2   1 <1>  -0.7070 
 17 N        4.0830     4.1480     0.8150 N.pl3 1 <1>  -0.8210 
 18 N        2.0790     6.5580    -0.6510 N.pl3 1 <1>   0.3140 
 19 C       -0.1730     5.6170    -1.3620 C.3   1 <1>  -0.0600 
 20 C        4.8020     4.8320     1.9250 C.3   1 <1>   0.2090 
 21 C        5.0890     3.6730    -0.1690 C.3   1 <1>   0.2090 
 22 C        1.8550     7.9390    -1.0950 C.3   1 <1>   0.0160 
 23 C        6.2510     4.9640     1.4760 C.3   1 <1>  -0.1600 
 24 C        6.4420     3.8030     0.5140 C.3   1 <1>  -0.1600 
 25 H       -0.1870     0.6250     0.0680 H     1 <1>   0.0800 
 26 H        0.6080     0.1780    -1.4370 H     1 <1>   0.0800 
 27 H        3.2420    -4.0230     2.1180 H     1 <1>   0.1500 
 28 H        2.0910     2.6130     0.5940 H     1 <1>   0.3700 
 29 H        1.1510    -5.0730     1.3500 H     1 <1>   0.1500 
 30 H       -1.6960    -3.2820     0.4230 H     1 <1>   0.0800 
 31 H       -0.9660    -4.8580     0.2200 H     1 <1>   0.0800 
 32 H       -0.9300    -3.7020    -1.0910 H     1 <1>   0.0800 
 33 H       -0.7670     4.7690    -1.0730 H     1 <1>   0.0800 
 34 H       -0.1130     5.6410    -2.4360 H     1 <1>   0.0800 
 35 H       -0.6710     6.5020    -1.0130 H     1 <1>   0.0800 
 36 H        4.7440     4.2090     2.8010 H     1 <1>   0.0800 
 37 H        4.3750     5.7940     2.1580 H     1 <1>   0.0800 
 38 H        5.0630     4.2940    -1.0510 H     1 <1>   0.0800 
 39 H        4.8870     2.6530    -0.4480 H     1 <1>   0.0800 
 40 H        1.5240     7.9330    -2.1160 H     1 <1>   0.0800 
 41 H        2.7760     8.4870    -1.0180 H     1 <1>   0.0800 
 42 H        1.1120     8.3930    -0.4680 H     1 <1>   0.0800 
 43 H        6.9330     4.9350     2.3060 H     1 <1>   0.0800 
 44 H        6.3630     5.8980     0.9540 H     1 <1>   0.0800 
 45 H        7.2310     3.9800    -0.1940 H     1 <1>   0.0800 
 46 H        6.6460     2.8990     1.0600 H     1 <1>   0.0800 
@<TRIPOS>BOND
  1   1   2  1   
  2   1   3  1   
  3   2   4  ar  
  4   2   5  ar  
  5   3   6  1   
  6   3  25  1   
  7   3  26  1   
  8   4   7  ar  
  9   5   8  ar  
 10   6   9  2   
 11   6  10  am  
 12   7  11  ar  
 13   7  12  1   
 14   8  11  ar  
 15   8  27  1   
 16  10  13  1   
 17  10  28  1   
 18  11  29  1   
 19  12  30  1   
 20  12  31  1   
 21  12  32  1   
 22  13  14  1   
 23  13  15  2   
 24  14  16  2   
 25  14  17  1   
 26  15  18  1   
 27  15  19  1   
 28  16  18  1   
 29  17  20  1   
 30  17  21  1   
 31  18  22  1   
 32  19  33  1   
 33  19  34  1   
 34  19  35  1   
 35  20  23  1   
 36  20  36  1   
 37  20  37  1   
 38  21  24  1   
 39  21  38  1   
 40  21  39  1   
 41  22  40  1   
 42  22  41  1   
 43  22  42  1   
 44  23  24  1   
 45  23  43  1   
 46  23  44  1   
 47  24  45  1   
 48  24  46  1   
@<TRIPOS>SUBSTRUCTURE
  1 ****  10 GROUP 4 **** **** 0

# MOE 2024.06 (io_trps.svl 2023.06)
