@<TRIPOS>MOLECULE
NONAME
50 52 1 0 0 
SMALL
USER_CHARGES


@<TRIPOS>ATOM
  1 F       -3.4470    -2.3420     0.4060 F     1 <1>  -0.3400 
  2 C       -3.2220    -1.0490     0.2030 C.3   1 <1>   0.8800 
  3 F       -2.0440    -0.7940     0.7510 F     1 <1>  -0.3400 
  4 O       -4.2000    -0.3300     0.9250 O.3   1 <1>  -0.3630 
  5 C       -4.8520     0.6620     0.2860 C.ar  1 <1>   0.0830 
  6 C       -5.6870     0.4140    -0.8140 C.ar  1 <1>   0.0860 
  7 C       -4.6840     1.9470     0.7760 C.ar  1 <1>  -0.1500 
  8 C       -5.9340    -0.9200    -1.3150 C.2   1 <1>   0.5440 
  9 C       -6.2950     1.5120    -1.4230 C.ar  1 <1>  -0.1500 
 10 C       -5.3140     3.0130     0.1660 C.ar  1 <1>  -0.1500 
 11 O       -5.6550    -1.1800    -2.4660 O.2   1 <1>  -0.5700 
 12 N       -6.4600    -1.9240    -0.5280 N.am  1 <1>  -0.6600 
 13 C       -6.1160     2.7950    -0.9410 C.ar  1 <1>  -0.1500 
 14 C       -7.0570    -1.7040     0.8250 C.3   1 <1>   0.1400 
 15 C       -6.4270    -3.3560    -0.9560 C.3   1 <1>   0.1400 
 16 C       -8.4560    -2.3500     0.9370 C.3   1 <1>   0.4230 
 17 C       -7.8270    -3.9850    -0.8580 C.3   1 <1>   0.3430 
 18 N       -8.4510    -3.8080     0.5100 N.4   1 <1>  -0.9590 
 19 C       -9.4930    -1.5430     0.1230 C.3   1 <1>   0.1200 
 20 C       -9.8540    -4.3460     0.5970 C.3   1 <1>   0.4230 
 21 O      -10.7600    -2.1240     0.2400 O.3   1 <1>  -0.5600 
 22 C      -10.8500    -3.4550    -0.1880 C.3   1 <1>   0.1200 
 23 C       -9.8980    -5.8190     0.1600 C.3   1 <1>  -0.1600 
 24 C      -11.2010    -6.5170     0.5790 C.3   1 <1>  -0.1600 
 25 C      -11.1720    -8.0000     0.2000 C.3   1 <1>  -0.2400 
 26 H       -3.2030    -0.8300    -0.8510 H     1 <1>   0.0800 
 27 H       -4.0540     2.1110     1.6340 H     1 <1>   0.1500 
 28 H       -6.9150     1.3520    -2.2890 H     1 <1>   0.1500 
 29 H       -5.1790     4.0120     0.5450 H     1 <1>   0.1500 
 30 H       -6.5980     3.6280    -1.4260 H     1 <1>   0.1500 
 31 H       -6.4040    -2.1300     1.5680 H     1 <1>   0.0800 
 32 H       -7.1410    -0.6530     1.0380 H     1 <1>   0.0800 
 33 H       -6.0760    -3.4470    -1.9700 H     1 <1>   0.0800 
 34 H       -5.7380    -3.8970    -0.3300 H     1 <1>   0.0800 
 35 H       -8.7580    -2.2890     1.9700 H     1 <1>   0.0800 
 36 H       -7.7490    -5.0330    -1.0950 H     1 <1>   0.0800 
 37 H       -8.4520    -3.5260    -1.6060 H     1 <1>   0.0800 
 38 H       -7.8760    -4.3250     1.1850 H     1 <1>   0.4500 
 39 H       -9.2270    -1.4920    -0.9190 H     1 <1>   0.0800 
 40 H       -9.5640    -0.5380     0.5040 H     1 <1>   0.0800 
 41 H      -10.1610    -4.3130     1.6300 H     1 <1>   0.0800 
 42 H      -11.8600    -3.7760    -0.0100 H     1 <1>   0.0800 
 43 H      -10.6640    -3.4910    -1.2470 H     1 <1>   0.0800 
 44 H       -9.8000    -5.8960    -0.9090 H     1 <1>   0.0800 
 45 H       -9.0790    -6.3470     0.6180 H     1 <1>   0.0800 
 46 H      -11.3390    -6.4350     1.6450 H     1 <1>   0.0800 
 47 H      -12.0490    -6.0590     0.0980 H     1 <1>   0.0800 
 48 H      -10.3590    -8.5060     0.6910 H     1 <1>   0.0800 
 49 H      -11.0630    -8.1200    -0.8640 H     1 <1>   0.0800 
 50 H      -12.0920    -8.4730     0.4990 H     1 <1>   0.0800 
@<TRIPOS>BOND
  1   1   2  1   
  2   2   3  1   
  3   2   4  1   
  4   2  26  1   
  5   4   5  1   
  6   5   6  ar  
  7   5   7  ar  
  8   6   8  1   
  9   6   9  ar  
 10   7  10  ar  
 11   7  27  1   
 12   8  11  2   
 13   8  12  am  
 14   9  13  ar  
 15   9  28  1   
 16  10  13  ar  
 17  10  29  1   
 18  12  14  1   
 19  12  15  1   
 20  13  30  1   
 21  14  16  1   
 22  14  31  1   
 23  14  32  1   
 24  15  17  1   
 25  15  33  1   
 26  15  34  1   
 27  16  18  1   
 28  16  19  1   
 29  16  35  1   
 30  17  18  1   
 31  17  36  1   
 32  17  37  1   
 33  18  20  1   
 34  18  38  1   
 35  19  21  1   
 36  19  39  1   
 37  19  40  1   
 38  20  22  1   
 39  20  23  1   
 40  20  41  1   
 41  21  22  1   
 42  22  42  1   
 43  22  43  1   
 44  23  24  1   
 45  23  44  1   
 46  23  45  1   
 47  24  25  1   
 48  24  46  1   
 49  24  47  1   
 50  25  48  1   
 51  25  49  1   
 52  25  50  1   
@<TRIPOS>SUBSTRUCTURE
  1 ****  12 GROUP 4 **** **** 0

# MOE 2024.06 (io_trps.svl 2023.06)
