@<TRIPOS>MOLECULE
NONAME
53 55 1 0 0 
SMALL
USER_CHARGES


@<TRIPOS>ATOM
  1 O        2.9230    -2.0200     1.2150 O.co2 1 <1>  -0.9000 
  2 C        2.8350    -0.8920     1.7120 C.2   1 <1>   0.9060 
  3 O        3.2030    -0.6590     2.8650 O.co2 1 <1>  -0.9000 
  4 C        2.4080     0.2750     0.8090 C.3   1 <1>  -0.1060 
  5 C        3.1910     0.1600    -0.5180 C.3   1 <1>   0.2000 
  6 C        2.8160     1.6350     1.4450 C.3   1 <1>  -0.1600 
  7 C        0.8740     0.2090     0.6010 C.3   1 <1>  -0.0160 
  8 O        2.9040    -1.0260    -1.1660 O.3   1 <1>  -0.6800 
  9 C        4.7040     0.2060    -0.2350 C.3   1 <1>   0.3430 
 10 C        4.3300     1.7240     1.6970 C.3   1 <1>   0.3430 
 11 C        0.3220     1.3390    -0.2640 C.ar  1 <1>  -0.1440 
 12 N        5.1060     1.4900     0.4370 N.4   1 <1>  -0.9590 
 13 C       -0.1680     2.4990     0.3190 C.ar  1 <1>  -0.1500 
 14 C        0.2970     1.2150    -1.6450 C.ar  1 <1>  -0.1500 
 15 C        5.0450     2.6490    -0.4910 C.3   1 <1>   0.4860 
 16 C       -0.6560     3.5280    -0.4680 C.ar  1 <1>  -0.1500 
 17 C       -0.1900     2.2420    -2.4340 C.ar  1 <1>  -0.1500 
 18 C        5.9010     3.7690     0.0800 C.ar  1 <1>  -0.1430 
 19 C       -0.6650     3.4010    -1.8460 C.ar  1 <1>  -0.1500 
 20 C        7.2930     3.6540     0.0680 C.ar  1 <1>  -0.1430 
 21 C        5.3050     4.9110     0.6180 C.ar  1 <1>  -0.1430 
 22 C        8.0670     4.6600     0.6220 C.ar  1 <1>  -0.1500 
 23 C        8.0290     2.4640    -0.5420 C.3   1 <1>  -0.0970 
 24 C        6.1020     5.9030     1.1660 C.ar  1 <1>  -0.1500 
 25 C        3.7970     5.1400     0.6350 C.3   1 <1>  -0.0970 
 26 C        7.4760     5.7790     1.1730 C.ar  1 <1>  -0.1500 
 27 H        2.9250     0.9530    -1.1920 H     1 <1>   0.0800 
 28 H        2.3140     1.7450     2.3910 H     1 <1>   0.0800 
 29 H        2.5090     2.4530     0.8240 H     1 <1>   0.0800 
 30 H        0.6130    -0.7360     0.1560 H     1 <1>   0.0800 
 31 H        0.3920     0.2320     1.5630 H     1 <1>   0.0800 
 32 H        2.8510    -1.7300    -0.4470 H     1 <1>   0.4000 
 33 H        5.2380     0.0910    -1.1630 H     1 <1>   0.0800 
 34 H        4.9530    -0.6240     0.4070 H     1 <1>   0.0800 
 35 H        4.6070     0.9810     2.4290 H     1 <1>   0.0800 
 36 H        4.5760     2.6890     2.1090 H     1 <1>   0.0800 
 37 H        6.0880     1.4160     0.7240 H     1 <1>   0.4500 
 38 H       -0.1720     2.6020     1.3900 H     1 <1>   0.1500 
 39 H        0.6580     0.3110    -2.1090 H     1 <1>   0.1500 
 40 H        5.4350     2.3690    -1.4550 H     1 <1>   0.0800 
 41 H        4.0260     2.9650    -0.6240 H     1 <1>   0.0800 
 42 H       -1.0350     4.4240    -0.0080 H     1 <1>   0.1500 
 43 H       -0.2050     2.1350    -3.5050 H     1 <1>   0.1500 
 44 H       -1.0470     4.1980    -2.4590 H     1 <1>   0.1500 
 45 H        9.1410     4.5860     0.6290 H     1 <1>   0.1500 
 46 H        9.0490     2.7260    -0.7610 H     1 <1>   0.0800 
 47 H        7.5760     2.1570    -1.4670 H     1 <1>   0.0800 
 48 H        8.0420     1.6370     0.1440 H     1 <1>   0.0800 
 49 H        5.6600     6.7870     1.5930 H     1 <1>   0.1500 
 50 H        3.5780     6.1840     0.7820 H     1 <1>   0.0800 
 51 H        3.3450     4.5950     1.4430 H     1 <1>   0.0800 
 52 H        3.3430     4.8510    -0.2950 H     1 <1>   0.0800 
 53 H        8.0860     6.5550     1.6030 H     1 <1>   0.1500 
@<TRIPOS>BOND
  1   1   2  ar  
  2   2   3  ar  
  3   2   4  1   
  4   4   5  1   
  5   4   6  1   
  6   4   7  1   
  7   5   8  1   
  8   5   9  1   
  9   5  27  1   
 10   6  10  1   
 11   6  28  1   
 12   6  29  1   
 13   7  11  1   
 14   7  30  1   
 15   7  31  1   
 16   8  32  1   
 17   9  12  1   
 18   9  33  1   
 19   9  34  1   
 20  10  12  1   
 21  10  35  1   
 22  10  36  1   
 23  11  13  ar  
 24  11  14  ar  
 25  12  15  1   
 26  12  37  1   
 27  13  16  ar  
 28  13  38  1   
 29  14  17  ar  
 30  14  39  1   
 31  15  18  1   
 32  15  40  1   
 33  15  41  1   
 34  16  19  ar  
 35  16  42  1   
 36  17  19  ar  
 37  17  43  1   
 38  18  20  ar  
 39  18  21  ar  
 40  19  44  1   
 41  20  22  ar  
 42  20  23  1   
 43  21  24  ar  
 44  21  25  1   
 45  22  26  ar  
 46  22  45  1   
 47  23  46  1   
 48  23  47  1   
 49  23  48  1   
 50  24  26  ar  
 51  24  49  1   
 52  25  50  1   
 53  25  51  1   
 54  25  52  1   
 55  26  53  1   
@<TRIPOS>SUBSTRUCTURE
  1 ****   6 GROUP 4 **** **** 0

# MOE 2024.06 (io_trps.svl 2023.06)
