@<TRIPOS>MOLECULE
NONAME
47 47 1 0 0 
SMALL
USER_CHARGES


@<TRIPOS>ATOM
  1 O       -0.8050     1.7430    -2.5420 O.co2 1 <1>  -0.9000 
  2 C       -1.5880     1.3230    -1.6820 C.2   1 <1>   0.9060 
  3 O       -2.4660     0.4860    -1.9550 O.co2 1 <1>  -0.9000 
  4 C       -1.4260     1.7850    -0.2040 C.3   1 <1>   0.4600 
  5 N       -2.2720     1.0420     0.8320 N.4   1 <1>  -0.9590 
  6 C       -1.5210     3.3020    -0.0010 C.ar  1 <1>  -0.1430 
  7 C       -3.7270     1.2740     0.6010 C.3   1 <1>   0.3430 
  8 C       -1.8200     1.3250     2.2240 C.3   1 <1>   0.2630 
  9 C       -0.5020     3.9360     0.6970 C.ar  1 <1>   0.0830 
 10 C       -2.5610     4.0830    -0.4990 C.ar  1 <1>   0.0830 
 11 C       -4.6190     0.3400     1.4160 C.3   1 <1>  -0.0990 
 12 O        0.5410     3.2170     1.1630 O.3   1 <1>  -0.3630 
 13 C       -0.5320     5.3030     0.9310 C.ar  1 <1>  -0.1500 
 14 O       -3.5670     3.5230    -1.2000 O.3   1 <1>  -0.3630 
 15 C       -2.5940     5.4520    -0.2710 C.ar  1 <1>  -0.1500 
 16 C       -4.0560    -1.0610     1.5080 C.2   1 <1>   0.5690 
 17 C        1.7020     3.2560     0.3590 C.3   1 <1>   0.0400 
 18 C       -1.5810     6.0630     0.4460 C.ar  1 <1>  -0.1500 
 19 C       -3.5530     3.7450    -2.5960 C.3   1 <1>   0.0400 
 20 O       -3.5400    -1.3540     2.5610 O.2   1 <1>  -0.5700 
 21 N       -4.0780    -1.9270     0.4440 N.am  1 <1>  -0.6600 
 22 C       -4.5300    -1.6000    -0.9420 C.3   1 <1>   0.0600 
 23 C       -3.5330    -3.3100     0.5620 C.3   1 <1>   0.0600 
 24 H       -0.4050     1.5260     0.0030 H     1 <1>   0.0800 
 25 H       -2.1230     0.0460     0.6000 H     1 <1>   0.4500 
 26 H       -3.9410     1.1200    -0.4440 H     1 <1>   0.0800 
 27 H       -3.9740     2.2980     0.8280 H     1 <1>   0.0800 
 28 H       -2.0040     2.3580     2.4690 H     1 <1>   0.0800 
 29 H       -0.7640     1.1350     2.3150 H     1 <1>   0.0800 
 30 H       -2.3470     0.6980     2.9250 H     1 <1>   0.0800 
 31 H       -5.6000     0.3080     0.9830 H     1 <1>   0.0800 
 32 H       -4.7260     0.7390     2.4080 H     1 <1>   0.0800 
 33 H        0.2630     5.7650     1.4870 H     1 <1>   0.1500 
 34 H       -3.4120     6.0340    -0.6540 H     1 <1>   0.1500 
 35 H        2.4400     2.6080     0.7960 H     1 <1>   0.0800 
 36 H        2.0710     4.2660     0.3250 H     1 <1>   0.0800 
 37 H        1.4530     2.9180    -0.6330 H     1 <1>   0.0800 
 38 H       -1.6080     7.1250     0.6240 H     1 <1>   0.1500 
 39 H       -4.2310     3.0480    -3.0550 H     1 <1>   0.0800 
 40 H       -2.5580     3.5780    -2.9750 H     1 <1>   0.0800 
 41 H       -3.8610     4.7540    -2.7950 H     1 <1>   0.0800 
 42 H       -4.9100    -0.6000    -1.0220 H     1 <1>   0.0800 
 43 H       -5.3050    -2.2830    -1.2430 H     1 <1>   0.0800 
 44 H       -3.7010    -1.6960    -1.6240 H     1 <1>   0.0800 
 45 H       -3.2600    -3.5350     1.5790 H     1 <1>   0.0800 
 46 H       -2.6600    -3.4080    -0.0590 H     1 <1>   0.0800 
 47 H       -4.2750    -4.0210     0.2440 H     1 <1>   0.0800 
@<TRIPOS>BOND
  1   1   2  ar  
  2   2   3  ar  
  3   2   4  1   
  4   4   5  1   
  5   4   6  1   
  6   4  24  1   
  7   5   7  1   
  8   5   8  1   
  9   5  25  1   
 10   6   9  ar  
 11   6  10  ar  
 12   7  11  1   
 13   7  26  1   
 14   7  27  1   
 15   8  28  1   
 16   8  29  1   
 17   8  30  1   
 18   9  12  1   
 19   9  13  ar  
 20  10  14  1   
 21  10  15  ar  
 22  11  16  1   
 23  11  31  1   
 24  11  32  1   
 25  12  17  1   
 26  13  18  ar  
 27  13  33  1   
 28  14  19  1   
 29  15  18  ar  
 30  15  34  1   
 31  16  20  2   
 32  16  21  am  
 33  17  35  1   
 34  17  36  1   
 35  17  37  1   
 36  18  38  1   
 37  19  39  1   
 38  19  40  1   
 39  19  41  1   
 40  21  22  1   
 41  21  23  1   
 42  22  42  1   
 43  22  43  1   
 44  22  44  1   
 45  23  45  1   
 46  23  46  1   
 47  23  47  1   
@<TRIPOS>SUBSTRUCTURE
  1 ****   4 GROUP 4 **** **** 0

# MOE 2024.06 (io_trps.svl 2023.06)
