@<TRIPOS>MOLECULE
NONAME
50 52 1 0 0 
SMALL
USER_CHARGES


@<TRIPOS>ATOM
  1 F       -1.2220    -0.7070     2.0190 F     1 <1>  -0.1900 
  2 C       -1.8150    -1.1530     0.9410 C.ar  1 <1>   0.1900 
  3 C       -2.0370    -0.3290    -0.1680 C.ar  1 <1>   0.0830 
  4 C       -2.2100    -2.4750     0.9640 C.ar  1 <1>  -0.1500 
  5 O       -1.7000     0.9800    -0.3030 O.3   1 <1>  -0.3630 
  6 C       -2.6720    -0.8980    -1.2620 C.ar  1 <1>  -0.1500 
  7 C       -2.8600    -3.0420    -0.1320 C.ar  1 <1>   0.0860 
  8 C       -1.0140     1.7120     0.6890 C.3   1 <1>   0.0400 
  9 C       -3.0700    -2.2230    -1.2450 C.ar  1 <1>  -0.1500 
 10 C       -3.2940    -4.4260    -0.1070 C.2   1 <1>   0.5440 
 11 O       -2.6660    -5.2620     0.5190 O.2   1 <1>  -0.5700 
 12 N       -4.4440    -4.8480    -0.7400 N.am  1 <1>  -0.6600 
 13 C       -4.6400    -6.3010    -0.9830 C.3   1 <1>   0.1400 
 14 C       -5.7180    -4.0970    -0.5730 C.3   1 <1>   0.1400 
 15 C       -5.3510    -6.9120     0.2450 C.3   1 <1>   0.4230 
 16 C       -6.4600    -4.6800     0.6380 C.3   1 <1>  -0.1600 
 17 N       -5.4190    -8.4320     0.2280 N.4   1 <1>  -0.9590 
 18 C       -6.7140    -6.2140     0.5380 C.3   1 <1>   0.0000 
 19 C       -6.4340    -9.0090     1.1690 C.3   1 <1>   0.3430 
 20 C       -5.5580    -9.0610    -1.1260 C.3   1 <1>   0.2630 
 21 C       -7.2660    -6.7180     1.9050 C.3   1 <1>  -0.1600 
 22 C       -7.7280    -6.5190    -0.6010 C.3   1 <1>   0.1200 
 23 C       -6.6820    -8.0730     2.3500 C.3   1 <1>  -0.1600 
 24 O       -8.8720    -5.7480    -0.4900 O.3   1 <1>  -0.6800 
 25 H       -2.0130    -3.0730     1.8370 H     1 <1>   0.1500 
 26 H       -2.8490    -0.2900    -2.1320 H     1 <1>   0.1500 
 27 H       -0.8570     2.7090     0.3200 H     1 <1>   0.0800 
 28 H       -0.0670     1.2400     0.8810 H     1 <1>   0.0800 
 29 H       -1.6170     1.7440     1.5800 H     1 <1>   0.0800 
 30 H       -3.5510    -2.6350    -2.1150 H     1 <1>   0.1500 
 31 H       -5.2120    -6.4280    -1.8830 H     1 <1>   0.0800 
 32 H       -3.6800    -6.7690    -1.1200 H     1 <1>   0.0800 
 33 H       -5.5240    -3.0510    -0.4060 H     1 <1>   0.0800 
 34 H       -6.3150    -4.1840    -1.4660 H     1 <1>   0.0800 
 35 H       -4.7190    -6.6530     1.0800 H     1 <1>   0.0800 
 36 H       -5.8640    -4.4660     1.5090 H     1 <1>   0.0800 
 37 H       -7.3860    -4.1460     0.7660 H     1 <1>   0.0800 
 38 H       -4.4990    -8.7220     0.5950 H     1 <1>   0.4500 
 39 H       -7.3680    -9.1580     0.6510 H     1 <1>   0.0800 
 40 H       -6.0970    -9.9690     1.5280 H     1 <1>   0.0800 
 41 H       -6.4830    -8.7580    -1.5910 H     1 <1>   0.0800 
 42 H       -5.5530   -10.1360    -1.0410 H     1 <1>   0.0800 
 43 H       -4.7390    -8.7710    -1.7650 H     1 <1>   0.0800 
 44 H       -7.0540    -6.0070     2.6860 H     1 <1>   0.0800 
 45 H       -8.3390    -6.7990     1.8630 H     1 <1>   0.0800 
 46 H       -8.0340    -7.5500    -0.5930 H     1 <1>   0.0800 
 47 H       -7.3120    -6.2980    -1.5680 H     1 <1>   0.0800 
 48 H       -7.3650    -8.5420     3.0380 H     1 <1>   0.0800 
 49 H       -5.7570    -7.9220     2.8800 H     1 <1>   0.0800 
 50 H       -9.3700    -5.9380     0.3300 H     1 <1>   0.4000 
@<TRIPOS>BOND
  1   1   2  1   
  2   2   3  ar  
  3   2   4  ar  
  4   3   5  1   
  5   3   6  ar  
  6   4   7  ar  
  7   4  25  1   
  8   5   8  1   
  9   6   9  ar  
 10   6  26  1   
 11   7   9  ar  
 12   7  10  1   
 13   8  27  1   
 14   8  28  1   
 15   8  29  1   
 16   9  30  1   
 17  10  11  2   
 18  10  12  am  
 19  12  13  1   
 20  12  14  1   
 21  13  15  1   
 22  13  31  1   
 23  13  32  1   
 24  14  16  1   
 25  14  33  1   
 26  14  34  1   
 27  15  17  1   
 28  15  18  1   
 29  15  35  1   
 30  16  18  1   
 31  16  36  1   
 32  16  37  1   
 33  17  19  1   
 34  17  20  1   
 35  17  38  1   
 36  18  21  1   
 37  18  22  1   
 38  19  23  1   
 39  19  39  1   
 40  19  40  1   
 41  20  41  1   
 42  20  42  1   
 43  20  43  1   
 44  21  23  1   
 45  21  44  1   
 46  21  45  1   
 47  22  24  1   
 48  22  46  1   
 49  22  47  1   
 50  23  48  1   
 51  23  49  1   
 52  24  50  1   
@<TRIPOS>SUBSTRUCTURE
  1 ****  12 GROUP 4 **** **** 0

# MOE 2024.06 (io_trps.svl 2023.06)
