@<TRIPOS>MOLECULE
NONAME
49 53 1 0 0 
SMALL
USER_CHARGES


@<TRIPOS>ATOM
  1 O        0.2090     0.2450     0.6070 O.2   1 <1>  -0.5700 
  2 C       -0.5460     1.0900     1.0270 C.2   1 <1>   0.5690 
  3 N       -1.8660     1.1380     0.6490 N.am  1 <1>  -0.6600 
  4 C        0.0530     2.0920     1.9850 C.3   1 <1>   0.1570 
  5 C       -2.8470     2.2110     1.0360 C.3   1 <1>   0.1400 
  6 C       -2.4640     0.0500    -0.1810 C.3   1 <1>   0.1400 
  7 N        0.4340     3.2910     1.2360 N.pl3 1 <1>   0.3140 
  8 C       -3.5470     2.8220    -0.1960 C.3   1 <1>   0.1440 
  9 C       -3.1300     0.6360    -1.4300 C.3   1 <1>  -0.1600 
 10 N        0.0210     4.4990     1.5500 N.2   1 <1>  -0.4180 
 11 C        1.1940     3.3970     0.1630 C.2   1 <1>   0.0360 
 12 C       -4.5920     3.8090     0.2920 C.ar  1 <1>   0.1660 
 13 C       -4.1710     1.7050    -1.0600 C.3   1 <1>  -0.1600 
 14 C       -2.5910     3.7240    -1.0240 C.3   1 <1>  -0.1600 
 15 N        0.5350     5.2940     0.6810 N.2   1 <1>   0.0000 
 16 N        1.2670     4.6190    -0.2000 N.2   1 <1>  -0.3380 
 17 N       -5.7130     3.4890     0.8920 N.ar  1 <1>  -0.6200 
 18 C       -4.2230     5.0960     0.0510 C.ar  1 <1>  -0.1440 
 19 C       -2.8800     5.1830    -0.6270 C.3   1 <1>  -0.0170 
 20 C       -6.4990     4.5150     1.2490 C.ar  1 <1>   0.6200 
 21 C       -5.0780     6.0900     0.4500 C.ar  1 <1>   0.1600 
 22 N       -6.2150     5.8100     1.0460 N.ar  1 <1>  -0.6200 
 23 C       -7.7580     4.1950     1.9110 C.ar  1 <1>   0.0000 
 24 C       -8.4140     2.9800     1.6920 C.ar  1 <1>  -0.1500 
 25 C       -8.3680     5.0880     2.7980 C.ar  1 <1>  -0.1500 
 26 C       -9.6080     2.6720     2.3200 C.ar  1 <1>  -0.1500 
 27 C       -9.5620     4.7880     3.4290 C.ar  1 <1>  -0.1500 
 28 C      -10.1860     3.5770     3.1910 C.ar  1 <1>  -0.1500 
 29 H        0.9310     1.6770     2.4390 H     1 <1>   0.0800 
 30 H       -0.6470     2.3500     2.7550 H     1 <1>   0.0800 
 31 H       -2.3710     3.0010     1.5870 H     1 <1>   0.0800 
 32 H       -3.5950     1.7740     1.6750 H     1 <1>   0.0800 
 33 H       -3.1970    -0.4740     0.4080 H     1 <1>   0.0800 
 34 H       -1.7130    -0.6630    -0.4800 H     1 <1>   0.0800 
 35 H       -3.6110    -0.1560    -1.9760 H     1 <1>   0.0800 
 36 H       -2.3720     1.0550    -2.0680 H     1 <1>   0.0800 
 37 H        1.6670     2.5620    -0.3230 H     1 <1>   0.1500 
 38 H       -4.6070     2.1240    -1.9490 H     1 <1>   0.0800 
 39 H       -4.9650     1.2360    -0.5040 H     1 <1>   0.0800 
 40 H       -2.8120     3.6200    -2.0720 H     1 <1>   0.0800 
 41 H       -1.5570     3.4740    -0.8790 H     1 <1>   0.0800 
 42 H       -2.9080     5.8290    -1.4870 H     1 <1>   0.0800 
 43 H       -2.1480     5.5450     0.0730 H     1 <1>   0.0800 
 44 H       -4.8280     7.1230     0.2810 H     1 <1>   0.1500 
 45 H       -7.9820     2.2630     1.0160 H     1 <1>   0.1500 
 46 H       -7.8990     6.0360     2.9960 H     1 <1>   0.1500 
 47 H      -10.0870     1.7280     2.1300 H     1 <1>   0.1500 
 48 H      -10.0060     5.4970     4.1050 H     1 <1>   0.1500 
 49 H      -11.1140     3.3400     3.6810 H     1 <1>   0.1500 
@<TRIPOS>BOND
  1   1   2  2   
  2   2   3  am  
  3   2   4  1   
  4   3   5  1   
  5   3   6  1   
  6   4   7  1   
  7   4  29  1   
  8   4  30  1   
  9   5   8  1   
 10   5  31  1   
 11   5  32  1   
 12   6   9  1   
 13   6  33  1   
 14   6  34  1   
 15   7  10  1   
 16   7  11  1   
 17   8  12  1   
 18   8  13  1   
 19   8  14  1   
 20   9  13  1   
 21   9  35  1   
 22   9  36  1   
 23  10  15  2   
 24  11  16  2   
 25  11  37  1   
 26  12  17  ar  
 27  12  18  ar  
 28  13  38  1   
 29  13  39  1   
 30  14  19  1   
 31  14  40  1   
 32  14  41  1   
 33  15  16  1   
 34  17  20  ar  
 35  18  19  1   
 36  18  21  ar  
 37  19  42  1   
 38  19  43  1   
 39  20  22  ar  
 40  20  23  1   
 41  21  22  ar  
 42  21  44  1   
 43  23  24  ar  
 44  23  25  ar  
 45  24  26  ar  
 46  24  45  1   
 47  25  27  ar  
 48  25  46  1   
 49  26  28  ar  
 50  26  47  1   
 51  27  28  ar  
 52  27  48  1   
 53  28  49  1   
@<TRIPOS>SUBSTRUCTURE
  1 ****  12 GROUP 4 **** **** 0

# MOE 2024.06 (io_trps.svl 2023.06)
