@<TRIPOS>MOLECULE
NONAME
55 58 1 0 0 
SMALL
USER_CHARGES


@<TRIPOS>ATOM
  1 O        1.4960    -0.0410    -0.6520 O.2   1 <1>  -0.5700 
  2 C        2.5830    -0.1490    -0.1160 C.2   1 <1>   0.7160 
  3 N        3.4820     0.8940    -0.2180 N.am  1 <1>  -0.6600 
  4 C        2.8870    -1.3580     0.6140 C.2   1 <1>  -0.0860 
  5 C        4.5230     1.1810     0.8170 C.3   1 <1>   0.1400 
  6 C        3.3550     1.8950    -1.3100 C.3   1 <1>   0.1400 
  7 C        2.0330    -2.1380     1.3290 C.2   1 <1>  -0.0100 
  8 C        4.1290    -2.0200     0.7280 C.2   1 <1>  -0.1500 
  9 C        4.3440     2.5450     1.5110 C.3   1 <1>   0.2090 
 10 C        2.5700     3.1100    -0.8120 C.3   1 <1>  -0.1600 
 11 O        2.6510    -3.1660     1.8600 O.3   1 <1>  -0.2800 
 12 C        3.9140    -3.1050     1.4990 C.2   1 <1>  -0.0100 
 13 N        4.5920     3.7150     0.6070 N.pl3 1 <1>  -0.8380 
 14 C        3.4300     4.2140    -0.1870 C.3   1 <1>   0.2090 
 15 C        5.8430     4.2300     0.4620 C.ar  1 <1>   0.4100 
 16 N        6.7920     3.3530     0.2060 N.ar  1 <1>  -0.6200 
 17 C        6.1160     5.6230     0.5670 C.ar  1 <1>  -0.1430 
 18 C        8.0080     3.8000    -0.0510 C.ar  1 <1>   0.7710 
 19 C        7.3780     6.0490     0.2770 C.ar  1 <1>   0.2180 
 20 C        5.0230     6.5880     1.0410 C.3   1 <1>  -0.0960 
 21 N        8.2990     5.1080    -0.0330 N.ar  1 <1>  -0.1790 
 22 N        8.9910     2.9140    -0.3430 N.pl3 1 <1>  -0.8380 
 23 C        7.8630     7.4940     0.2820 C.3   1 <1>  -0.0970 
 24 C       10.4080     3.1840    -0.7120 C.3   1 <1>   0.2090 
 25 C        8.7310     1.4470    -0.3720 C.3   1 <1>   0.2090 
 26 C       10.9340     1.8610    -1.2530 C.3   1 <1>  -0.1600 
 27 C       10.0970     0.8000    -0.5510 C.3   1 <1>  -0.1600 
 28 H        5.4950     1.1300     0.3630 H     1 <1>   0.0800 
 29 H        4.4850     0.4310     1.5850 H     1 <1>   0.0800 
 30 H        2.8280     1.4480    -2.1360 H     1 <1>   0.0800 
 31 H        4.3310     2.1860    -1.6610 H     1 <1>   0.0800 
 32 H        0.9770    -2.0140     1.4940 H     1 <1>   0.1500 
 33 H        5.0450    -1.6970     0.2670 H     1 <1>   0.1500 
 34 H        5.0430     2.5960     2.3280 H     1 <1>   0.0800 
 35 H        3.3550     2.6080     1.9320 H     1 <1>   0.0800 
 36 H        1.8120     2.7930    -0.1170 H     1 <1>   0.0800 
 37 H        2.0520     3.5420    -1.6490 H     1 <1>   0.0800 
 38 H        4.5860    -3.8780     1.8320 H     1 <1>   0.1500 
 39 H        2.8050     4.8250     0.4410 H     1 <1>   0.0800 
 40 H        3.8050     4.8350    -0.9830 H     1 <1>   0.0800 
 41 H        4.3770     6.1020     1.7520 H     1 <1>   0.0800 
 42 H        4.4300     6.9230     0.2090 H     1 <1>   0.0800 
 43 H        5.4320     7.4460     1.5420 H     1 <1>   0.0800 
 44 H        9.2590     5.3390    -0.2440 H     1 <1>   0.4570 
 45 H        7.0460     8.1880     0.2060 H     1 <1>   0.0800 
 46 H        8.5110     7.6790    -0.5570 H     1 <1>   0.0800 
 47 H        8.4020     7.7010     1.1900 H     1 <1>   0.0800 
 48 H       10.9640     3.4580     0.1700 H     1 <1>   0.0800 
 49 H       10.4900     3.9550    -1.4600 H     1 <1>   0.0800 
 50 H        8.0950     1.2150    -1.2120 H     1 <1>   0.0800 
 51 H        8.2580     1.1140     0.5370 H     1 <1>   0.0800 
 52 H       11.9870     1.7400    -1.0670 H     1 <1>   0.0800 
 53 H       10.7610     1.8190    -2.3140 H     1 <1>   0.0800 
 54 H       10.0350    -0.1140    -1.1150 H     1 <1>   0.0800 
 55 H       10.5120     0.5840     0.4190 H     1 <1>   0.0800 
@<TRIPOS>BOND
  1   1   2  2   
  2   2   3  am  
  3   2   4  1   
  4   3   5  1   
  5   3   6  1   
  6   4   7  2   
  7   4   8  1   
  8   5   9  1   
  9   5  28  1   
 10   5  29  1   
 11   6  10  1   
 12   6  30  1   
 13   6  31  1   
 14   7  11  1   
 15   7  32  1   
 16   8  12  2   
 17   8  33  1   
 18   9  13  1   
 19   9  34  1   
 20   9  35  1   
 21  10  14  1   
 22  10  36  1   
 23  10  37  1   
 24  11  12  1   
 25  12  38  1   
 26  13  14  1   
 27  13  15  1   
 28  14  39  1   
 29  14  40  1   
 30  15  16  ar  
 31  15  17  ar  
 32  16  18  ar  
 33  17  19  ar  
 34  17  20  1   
 35  18  21  ar  
 36  18  22  1   
 37  19  21  ar  
 38  19  23  1   
 39  20  41  1   
 40  20  42  1   
 41  20  43  1   
 42  21  44  1   
 43  22  24  1   
 44  22  25  1   
 45  23  45  1   
 46  23  46  1   
 47  23  47  1   
 48  24  26  1   
 49  24  48  1   
 50  24  49  1   
 51  25  27  1   
 52  25  50  1   
 53  25  51  1   
 54  26  27  1   
 55  26  52  1   
 56  26  53  1   
 57  27  54  1   
 58  27  55  1   
@<TRIPOS>SUBSTRUCTURE
  1 ****   5 GROUP 4 **** **** 0

# MOE 2024.06 (io_trps.svl 2023.06)
