@<TRIPOS>MOLECULE
NONAME
49 53 1 0 0 
SMALL
USER_CHARGES


@<TRIPOS>ATOM
  1 O       -2.7110     1.6320    -2.3090 O.2   1 <1>  -0.5700 
  2 C       -2.7050     1.3800    -1.1180 C.2   1 <1>   0.7160 
  3 N       -3.0870     0.1270    -0.7140 N.am  1 <1>  -0.6600 
  4 C       -2.2500     2.3330    -0.1590 C.2   1 <1>  -0.0860 
  5 C       -2.5260    -0.6050     0.3580 C.3   1 <1>   0.2200 
  6 C       -3.1470    -1.1140    -1.6230 C.3   1 <1>   0.1400 
  7 C       -2.9850     3.3820     0.3940 C.2   1 <1>   0.3720 
  8 C       -1.0460     2.4240     0.4590 C.2   1 <1>   0.0870 
  9 C       -3.8200    -1.4970     0.4140 C.3   1 <1>  -0.1600 
 10 C       -1.8750    -1.4300     1.4110 C.3   1 <1>  -0.1600 
 11 C       -3.1800    -2.3310    -0.5820 C.3   1 <1>  -0.0800 
 12 N       -2.2810     4.0320     1.2560 N.2   1 <1>  -0.4100 
 13 N       -4.3130     3.6900     0.0790 N.pl3 1 <1>  -0.8210 
 14 O       -1.1160     3.4390     1.2820 O.3   1 <1>  -0.0190 
 15 C        0.1480     1.6260     0.3540 C.ar  1 <1>   0.0530 
 16 C       -1.9890    -2.6890     0.4350 C.3   1 <1>  -0.1600 
 17 C       -5.3230     2.7010     0.5590 C.3   1 <1>   0.2090 
 18 C       -4.7490     5.0850     0.3920 C.3   1 <1>   0.2090 
 19 C        0.9380     1.3700     1.4730 C.ar  1 <1>  -0.1500 
 20 C        0.5450     1.0660    -0.8610 C.ar  1 <1>  -0.1500 
 21 C       -6.7290     3.0640     0.0500 C.3   1 <1>   0.1200 
 22 C       -6.1830     5.3360    -0.1080 C.3   1 <1>   0.1200 
 23 C        2.0660     0.5750     1.3900 C.ar  1 <1>  -0.1500 
 24 C        1.6710     0.2690    -0.9490 C.ar  1 <1>  -0.1500 
 25 O       -7.0690     4.3770     0.4040 O.3   1 <1>  -0.5600 
 26 C        2.4330     0.0190     0.1780 C.ar  1 <1>  -0.1500 
 27 H       -1.5740    -0.6400    -0.1760 H     1 <1>   0.0800 
 28 H       -4.0450    -1.0810    -2.2180 H     1 <1>   0.0800 
 29 H       -2.2890    -1.1640    -2.2730 H     1 <1>   0.0800 
 30 H       -4.0860    -2.0470     1.3080 H     1 <1>   0.0800 
 31 H       -4.7650    -1.0630     0.1000 H     1 <1>   0.0800 
 32 H       -0.8490    -1.1550     1.5940 H     1 <1>   0.0800 
 33 H       -2.3970    -1.4990     2.3530 H     1 <1>   0.0800 
 34 H       -3.7690    -3.1740    -0.9010 H     1 <1>   0.0800 
 35 H       -2.2100    -3.5800     1.0000 H     1 <1>   0.0800 
 36 H       -1.0740    -2.8500    -0.1110 H     1 <1>   0.0800 
 37 H       -5.0690     1.7170     0.2090 H     1 <1>   0.0800 
 38 H       -5.3260     2.6830     1.6360 H     1 <1>   0.0800 
 39 H       -4.7100     5.2490     1.4550 H     1 <1>   0.0800 
 40 H       -4.0780     5.7810    -0.0800 H     1 <1>   0.0800 
 41 H        0.6610     1.7990     2.4210 H     1 <1>   0.1500 
 42 H       -0.0290     1.2620    -1.7500 H     1 <1>   0.1500 
 43 H       -7.4620     2.4070     0.4840 H     1 <1>   0.0800 
 44 H       -6.7720     2.9730    -1.0210 H     1 <1>   0.0800 
 45 H       -6.2150     5.2970    -1.1820 H     1 <1>   0.0800 
 46 H       -6.5240     6.3030     0.2150 H     1 <1>   0.0800 
 47 H        2.6600     0.3880     2.2680 H     1 <1>   0.1500 
 48 H        1.9580    -0.1550    -1.8960 H     1 <1>   0.1500 
 49 H        3.3100    -0.6010     0.1110 H     1 <1>   0.1500 
@<TRIPOS>BOND
  1   1   2  2   
  2   2   3  am  
  3   2   4  1   
  4   3   5  1   
  5   3   6  1   
  6   4   7  1   
  7   4   8  2   
  8   5   9  1   
  9   5  10  1   
 10   5  27  1   
 11   6  11  1   
 12   6  28  1   
 13   6  29  1   
 14   7  12  2   
 15   7  13  1   
 16   8  14  1   
 17   8  15  1   
 18   9  11  1   
 19   9  30  1   
 20   9  31  1   
 21  10  16  1   
 22  10  32  1   
 23  10  33  1   
 24  11  16  1   
 25  11  34  1   
 26  12  14  1   
 27  13  17  1   
 28  13  18  1   
 29  15  19  ar  
 30  15  20  ar  
 31  16  35  1   
 32  16  36  1   
 33  17  21  1   
 34  17  37  1   
 35  17  38  1   
 36  18  22  1   
 37  18  39  1   
 38  18  40  1   
 39  19  23  ar  
 40  19  41  1   
 41  20  24  ar  
 42  20  42  1   
 43  21  25  1   
 44  21  43  1   
 45  21  44  1   
 46  22  25  1   
 47  22  45  1   
 48  22  46  1   
 49  23  26  ar  
 50  23  47  1   
 51  24  26  ar  
 52  24  48  1   
 53  26  49  1   
@<TRIPOS>SUBSTRUCTURE
  1 ****   4 GROUP 4 **** **** 0

# MOE 2024.06 (io_trps.svl 2023.06)
