@<TRIPOS>MOLECULE
NONAME
51 53 1 0 0 
SMALL
USER_CHARGES


@<TRIPOS>ATOM
  1 O       -1.0670     1.0700    -2.7130 O.2   1 <1>  -0.5700 
  2 C       -1.5380     1.4530    -1.6570 C.2   1 <1>   0.5440 
  3 N       -2.6430     0.8090    -1.1450 N.am  1 <1>  -0.6600 
  4 C       -0.9360     2.5860    -0.9750 C.ar  1 <1>   0.0860 
  5 C       -3.1420    -0.4730    -1.7520 C.3   1 <1>   0.1400 
  6 C       -3.3920     1.3190     0.0500 C.3   1 <1>   0.1400 
  7 C       -0.2360     2.4820     0.2380 C.ar  1 <1>  -0.1440 
  8 C       -1.0730     3.8460    -1.5530 C.ar  1 <1>  -0.1500 
  9 C       -3.9000    -1.2920    -0.7010 C.3   1 <1>   0.2000 
 10 C       -4.8750     0.9800    -0.0940 C.3   1 <1>  -0.1600 
 11 C        0.2700     3.6240     0.8540 C.ar  1 <1>  -0.1440 
 12 C       -0.0240     1.1120     0.8880 C.3   1 <1>  -0.0960 
 13 C       -0.5610     4.9750    -0.9490 C.ar  1 <1>  -0.1500 
 14 O       -4.2610    -2.5340    -1.1990 O.3   1 <1>  -0.6800 
 15 C       -5.1400    -0.5580    -0.1310 C.3   1 <1>  -0.1060 
 16 C        0.1050     4.8630     0.2550 C.ar  1 <1>  -0.1500 
 17 C        1.0110     3.5640     2.1840 C.3   1 <1>  -0.0970 
 18 C       -5.2810    -1.1750     1.2630 C.2   1 <1>   0.9060 
 19 C       -6.4270    -0.8170    -0.9710 C.3   1 <1>  -0.0160 
 20 O       -4.9850    -0.5220     2.2710 O.co2 1 <1>  -0.9000 
 21 O       -5.6030    -2.3710     1.3350 O.co2 1 <1>  -0.9000 
 22 C       -7.6180     0.0630    -0.5960 C.ar  1 <1>  -0.1440 
 23 C       -8.0480     1.0680    -1.4510 C.ar  1 <1>  -0.1500 
 24 C       -8.2860    -0.1360     0.6010 C.ar  1 <1>  -0.1500 
 25 C       -9.1290     1.8650    -1.1110 C.ar  1 <1>  -0.1500 
 26 C       -9.3650     0.6590     0.9450 C.ar  1 <1>  -0.1500 
 27 C       -9.7880     1.6610     0.0890 C.ar  1 <1>  -0.1500 
 28 H       -3.7930    -0.2410    -2.5740 H     1 <1>   0.0800 
 29 H       -2.3070    -1.0460    -2.1150 H     1 <1>   0.0800 
 30 H       -3.0070     0.8610     0.9460 H     1 <1>   0.0800 
 31 H       -3.2790     2.3850     0.1370 H     1 <1>   0.0800 
 32 H       -1.5930     3.9280    -2.4910 H     1 <1>   0.1500 
 33 H       -3.2030    -1.4870     0.0990 H     1 <1>   0.0800 
 34 H       -5.4260     1.4230     0.7170 H     1 <1>   0.0800 
 35 H       -5.2210     1.4440    -1.0000 H     1 <1>   0.0800 
 36 H        0.9820     1.0150     1.2500 H     1 <1>   0.0800 
 37 H       -0.1860     0.3060     0.1960 H     1 <1>   0.0800 
 38 H       -0.7040     0.9900     1.7130 H     1 <1>   0.0800 
 39 H       -0.6790     5.9390    -1.4130 H     1 <1>   0.1500 
 40 H       -4.7730    -2.9710    -0.4690 H     1 <1>   0.4000 
 41 H        0.4970     5.7500     0.7210 H     1 <1>   0.1500 
 42 H        1.1740     4.5490     2.5820 H     1 <1>   0.0800 
 43 H        1.9680     3.0920     2.0500 H     1 <1>   0.0800 
 44 H        0.4400     3.0050     2.9040 H     1 <1>   0.0800 
 45 H       -6.1960    -0.6640    -2.0100 H     1 <1>   0.0800 
 46 H       -6.7320    -1.8440    -0.8740 H     1 <1>   0.0800 
 47 H       -7.5400     1.2340    -2.3830 H     1 <1>   0.1500 
 48 H       -7.9620    -0.9140     1.2750 H     1 <1>   0.1500 
 49 H       -9.4540     2.6420    -1.7780 H     1 <1>   0.1500 
 50 H       -9.8680     0.4940     1.8810 H     1 <1>   0.1500 
 51 H      -10.6260     2.2790     0.3580 H     1 <1>   0.1500 
@<TRIPOS>BOND
  1   1   2  2   
  2   2   3  am  
  3   2   4  1   
  4   3   5  1   
  5   3   6  1   
  6   4   7  ar  
  7   4   8  ar  
  8   5   9  1   
  9   5  28  1   
 10   5  29  1   
 11   6  10  1   
 12   6  30  1   
 13   6  31  1   
 14   7  11  ar  
 15   7  12  1   
 16   8  13  ar  
 17   8  32  1   
 18   9  14  1   
 19   9  15  1   
 20   9  33  1   
 21  10  15  1   
 22  10  34  1   
 23  10  35  1   
 24  11  16  ar  
 25  11  17  1   
 26  12  36  1   
 27  12  37  1   
 28  12  38  1   
 29  13  16  ar  
 30  13  39  1   
 31  14  40  1   
 32  15  18  1   
 33  15  19  1   
 34  16  41  1   
 35  17  42  1   
 36  17  43  1   
 37  17  44  1   
 38  18  20  ar  
 39  18  21  ar  
 40  19  22  1   
 41  19  45  1   
 42  19  46  1   
 43  22  23  ar  
 44  22  24  ar  
 45  23  25  ar  
 46  23  47  1   
 47  24  26  ar  
 48  24  48  1   
 49  25  27  ar  
 50  25  49  1   
 51  26  27  ar  
 52  26  50  1   
 53  27  51  1   
@<TRIPOS>SUBSTRUCTURE
  1 ****   6 GROUP 4 **** **** 0

# MOE 2024.06 (io_trps.svl 2023.06)
