@<TRIPOS>MOLECULE
NONAME
35 36 1 0 0 
SMALL
USER_CHARGES


@<TRIPOS>ATOM
  1 O       -0.1940     0.3110     0.1210 O.3   1 <1>  -0.2800 
  2 C        0.8690     0.9780     0.4330 C.2   1 <1>   0.5620 
  3 C       -1.1860     1.0230     0.5900 C.2   1 <1>   0.4250 
  4 N        0.5820     2.0590     1.0740 N.2   1 <1>  -0.3380 
  5 N        2.1260     0.5060     0.0800 N.pl3 1 <1>  -0.8220 
  6 N       -0.7450     2.0860     1.1760 N.2   1 <1>  -0.3380 
  7 C       -2.5390     0.5440     0.4320 C.ar  1 <1>   0.0530 
  8 C        2.3220    -0.7150    -0.7460 C.3   1 <1>   0.1290 
  9 C        3.3550     1.2680     0.4260 C.3   1 <1>   0.1290 
 10 C       -3.6190     1.3920     0.1410 C.ar  1 <1>   0.0820 
 11 C       -2.8060    -0.8200     0.5710 C.ar  1 <1>  -0.1500 
 12 O       -3.3590     2.7130    -0.0280 O.3   1 <1>  -0.3630 
 13 C       -4.9060     0.8760     0.0170 C.ar  1 <1>  -0.1500 
 14 C       -4.0830    -1.3280     0.4440 C.ar  1 <1>  -0.1500 
 15 C       -4.3750     3.6830    -0.1350 C.3   1 <1>   0.1200 
 16 C       -5.1380    -0.4780     0.1680 C.ar  1 <1>  -0.1500 
 17 C       -3.7120     5.0590    -0.1800 C.3   1 <1>  -0.1600 
 18 C       -4.7520     6.1800    -0.2900 C.3   1 <1>  -0.2400 
 19 H        1.3810    -1.1860    -0.9730 H     1 <1>   0.0800 
 20 H        2.9370    -1.4180    -0.2130 H     1 <1>   0.0800 
 21 H        2.8050    -0.4530    -1.6720 H     1 <1>   0.0800 
 22 H        3.1250     2.0970     1.0730 H     1 <1>   0.0800 
 23 H        3.8110     1.6490    -0.4710 H     1 <1>   0.0800 
 24 H        4.0520     0.6240     0.9330 H     1 <1>   0.0800 
 25 H       -1.9940    -1.4920     0.7900 H     1 <1>   0.1500 
 26 H       -5.7430     1.5110    -0.2040 H     1 <1>   0.1500 
 27 H       -4.2600    -2.3840     0.5600 H     1 <1>   0.1500 
 28 H       -5.0170     3.5980     0.7250 H     1 <1>   0.0800 
 29 H       -4.9280     3.4980    -1.0390 H     1 <1>   0.0800 
 30 H       -6.1350    -0.8720     0.0700 H     1 <1>   0.1500 
 31 H       -3.0480     5.1040    -1.0260 H     1 <1>   0.0800 
 32 H       -3.1310     5.1980     0.7160 H     1 <1>   0.0800 
 33 H       -5.3320     6.0690    -1.1890 H     1 <1>   0.0800 
 34 H       -4.2580     7.1350    -0.3190 H     1 <1>   0.0800 
 35 H       -5.4140     6.1640     0.5580 H     1 <1>   0.0800 
@<TRIPOS>BOND
  1   1   2  1   
  2   1   3  1   
  3   2   4  2   
  4   2   5  1   
  5   3   6  2   
  6   3   7  1   
  7   4   6  1   
  8   5   8  1   
  9   5   9  1   
 10   7  10  ar  
 11   7  11  ar  
 12   8  19  1   
 13   8  20  1   
 14   8  21  1   
 15   9  22  1   
 16   9  23  1   
 17   9  24  1   
 18  10  12  1   
 19  10  13  ar  
 20  11  14  ar  
 21  11  25  1   
 22  12  15  1   
 23  13  16  ar  
 24  13  26  1   
 25  14  16  ar  
 26  14  27  1   
 27  15  17  1   
 28  15  28  1   
 29  15  29  1   
 30  16  30  1   
 31  17  18  1   
 32  17  31  1   
 33  17  32  1   
 34  18  33  1   
 35  18  34  1   
 36  18  35  1   
@<TRIPOS>SUBSTRUCTURE
  1 ****   3 GROUP 4 **** **** 0

# MOE 2024.06 (io_trps.svl 2023.06)
