@<TRIPOS>MOLECULE
NONAME
41 42 1 0 0 
SMALL
USER_CHARGES


@<TRIPOS>ATOM
  1 S       -0.6700    -0.3350     0.4270 S.3   1 <1>  -0.0800 
  2 C       -0.7620     1.0080    -0.6600 C.2   1 <1>   0.1980 
  3 C       -0.3050    -1.3140    -0.9490 C.2   1 <1>   0.1980 
  4 N       -0.5460     0.6780    -1.8710 N.2   1 <1>  -0.3380 
  5 C       -1.0970     2.3830    -0.0980 C.3   1 <1>   0.2900 
  6 N       -0.2800    -0.6550    -2.0350 N.2   1 <1>  -0.3380 
  7 C       -0.0630    -2.7900    -0.7320 C.3   1 <1>  -0.0600 
  8 N        0.1130     3.2020     0.1870 N.3   1 <1>  -0.8100 
  9 C       -0.1480     4.6450     0.2190 C.3   1 <1>   0.1100 
 10 C        0.8970     2.7040     1.3280 C.3   1 <1>   0.1100 
 11 C        1.1330     5.3930    -0.1860 C.3   1 <1>   0.3430 
 12 C        2.1990     2.1140     0.7970 C.3   1 <1>  -0.2400 
 13 N        0.9090     6.8600    -0.3760 N.4   1 <1>  -0.9590 
 14 C        2.0730     7.5230    -1.0530 C.3   1 <1>   0.3430 
 15 C        0.5450     7.6030     0.8800 C.3   1 <1>   0.3430 
 16 C        1.8110     9.0320    -1.2750 C.3   1 <1>   0.1200 
 17 C        0.4240     9.1240     0.6260 C.3   1 <1>   0.1200 
 18 O        0.5750     9.4210    -0.7350 O.3   1 <1>  -0.5600 
 19 H       -1.6950     2.2790     0.7910 H     1 <1>   0.0800 
 20 H       -1.6960     2.8790    -0.8410 H     1 <1>   0.0800 
 21 H        0.7740    -2.9290    -0.0720 H     1 <1>   0.0800 
 22 H        0.1510    -3.2650    -1.6720 H     1 <1>   0.0800 
 23 H       -0.9360    -3.2440    -0.3010 H     1 <1>   0.0800 
 24 H       -0.4810     4.9360     1.2000 H     1 <1>   0.0800 
 25 H       -0.9150     4.8820    -0.4990 H     1 <1>   0.0800 
 26 H        0.3520     1.9480     1.8700 H     1 <1>   0.0800 
 27 H        1.1230     3.4980     2.0200 H     1 <1>   0.0800 
 28 H        1.4800     4.9640    -1.1120 H     1 <1>   0.0800 
 29 H        1.8900     5.2310     0.5620 H     1 <1>   0.0800 
 30 H        1.9950     1.3090     0.1130 H     1 <1>   0.0800 
 31 H        2.7800     1.7230     1.6130 H     1 <1>   0.0800 
 32 H        2.7790     2.8630     0.2920 H     1 <1>   0.0800 
 33 H        0.1180     7.0080    -1.0230 H     1 <1>   0.4500 
 34 H        2.2630     7.0560    -2.0070 H     1 <1>   0.0800 
 35 H        2.9620     7.4070    -0.4540 H     1 <1>   0.0800 
 36 H        1.2910     7.4350     1.6390 H     1 <1>   0.0800 
 37 H       -0.3940     7.2400     1.2640 H     1 <1>   0.0800 
 38 H        1.7920     9.2540    -2.3280 H     1 <1>   0.0800 
 39 H        2.5880     9.6250    -0.8220 H     1 <1>   0.0800 
 40 H        1.1720     9.6650     1.1820 H     1 <1>   0.0800 
 41 H       -0.5440     9.4780     0.9350 H     1 <1>   0.0800 
@<TRIPOS>BOND
  1   1   2  1   
  2   1   3  1   
  3   2   4  2   
  4   2   5  1   
  5   3   6  2   
  6   3   7  1   
  7   4   6  1   
  8   5   8  1   
  9   5  19  1   
 10   5  20  1   
 11   7  21  1   
 12   7  22  1   
 13   7  23  1   
 14   8   9  1   
 15   8  10  1   
 16   9  11  1   
 17   9  24  1   
 18   9  25  1   
 19  10  12  1   
 20  10  26  1   
 21  10  27  1   
 22  11  13  1   
 23  11  28  1   
 24  11  29  1   
 25  12  30  1   
 26  12  31  1   
 27  12  32  1   
 28  13  14  1   
 29  13  15  1   
 30  13  33  1   
 31  14  16  1   
 32  14  34  1   
 33  14  35  1   
 34  15  17  1   
 35  15  36  1   
 36  15  37  1   
 37  16  18  1   
 38  16  38  1   
 39  16  39  1   
 40  17  18  1   
 41  17  40  1   
 42  17  41  1   
@<TRIPOS>SUBSTRUCTURE
  1 ****   8 GROUP 4 **** **** 0

# MOE 2024.06 (io_trps.svl 2023.06)
