@<TRIPOS>MOLECULE
NONAME
48 50 1 0 0 
SMALL
USER_CHARGES


@<TRIPOS>ATOM
  1 O       -0.6210    -0.8920    -1.1460 O.3   1 <1>  -0.3630 
  2 C       -1.7360    -1.2080    -0.4440 C.ar  1 <1>   0.0830 
  3 C       -0.2780     0.4480    -1.4240 C.3   1 <1>   0.0400 
  4 C       -2.6710    -0.2760    -0.0080 C.ar  1 <1>  -0.1500 
  5 C       -1.9200    -2.5520    -0.1650 C.ar  1 <1>  -0.1500 
  6 C       -3.7850    -0.7010     0.7070 C.ar  1 <1>   0.0830 
  7 C       -3.0330    -2.9830     0.5400 C.ar  1 <1>  -0.1430 
  8 O       -4.7510     0.1280     1.1720 O.3   1 <1>  -0.3630 
  9 C       -3.9570    -2.0480     0.9790 C.ar  1 <1>  -0.1500 
 10 C       -3.2440    -4.4560     0.8180 C.3   1 <1>   0.4860 
 11 C       -4.6590     1.5280     1.0170 C.3   1 <1>   0.0400 
 12 N       -3.6560    -5.1150    -0.4520 N.4   1 <1>  -0.9590 
 13 C       -4.9700    -4.5990    -0.9680 C.3   1 <1>   0.3430 
 14 C       -3.7820    -6.5930    -0.3010 C.3   1 <1>   0.3430 
 15 C       -5.9240    -5.8000    -1.0100 C.3   1 <1>   0.2000 
 16 C       -5.2750    -6.8730    -0.1440 C.3   1 <1>  -0.0800 
 17 O       -7.1800    -5.4850    -0.5160 O.3   1 <1>  -0.6800 
 18 C       -5.6860    -8.3020    -0.5530 C.3   1 <1>  -0.0170 
 19 C       -5.0650    -9.3600     0.3490 C.ar  1 <1>   0.1670 
 20 N       -3.7420    -9.4310     0.3510 N.ar  1 <1>  -0.6200 
 21 C       -5.8820   -10.1920     1.1130 C.ar  1 <1>   0.1600 
 22 C       -3.2980   -10.3940     1.1470 C.ar  1 <1>   0.1600 
 23 N       -5.4370   -11.1390     1.9200 N.ar  1 <1>  -0.6200 
 24 C       -4.1190   -11.2190     1.9070 C.ar  1 <1>   0.1600 
 25 H        0.6550     0.4510    -1.9590 H     1 <1>   0.0800 
 26 H       -0.1670     0.9810    -0.4960 H     1 <1>   0.0800 
 27 H       -1.0480     0.8880    -2.0330 H     1 <1>   0.0800 
 28 H       -2.5340     0.7640    -0.2230 H     1 <1>   0.1500 
 29 H       -1.1710    -3.2430    -0.5100 H     1 <1>   0.1500 
 30 H       -4.8280    -2.3380     1.5410 H     1 <1>   0.1500 
 31 H       -4.0020    -4.5850     1.5720 H     1 <1>   0.0800 
 32 H       -2.3230    -4.8850     1.1790 H     1 <1>   0.0800 
 33 H       -5.5190     1.9730     1.4850 H     1 <1>   0.0800 
 34 H       -4.6520     1.7660    -0.0320 H     1 <1>   0.0800 
 35 H       -3.7620     1.8760     1.4980 H     1 <1>   0.0800 
 36 H       -2.9250    -4.8940    -1.1420 H     1 <1>   0.4500 
 37 H       -5.3650    -3.8390    -0.3140 H     1 <1>   0.0800 
 38 H       -4.8520    -4.1870    -1.9570 H     1 <1>   0.0800 
 39 H       -3.4240    -7.0820    -1.1940 H     1 <1>   0.0800 
 40 H       -3.2210    -6.9670     0.5410 H     1 <1>   0.0800 
 41 H       -6.0410    -6.1280    -2.0300 H     1 <1>   0.0800 
 42 H       -5.5290    -6.7160     0.8900 H     1 <1>   0.0800 
 43 H       -7.1850    -5.3140     0.4470 H     1 <1>   0.4000 
 44 H       -5.3840    -8.4990    -1.5670 H     1 <1>   0.0800 
 45 H       -6.7590    -8.3820    -0.5170 H     1 <1>   0.0800 
 46 H       -6.9500   -10.0750     1.0580 H     1 <1>   0.1500 
 47 H       -2.2340   -10.5420     1.2040 H     1 <1>   0.1500 
 48 H       -3.6660   -11.9730     2.5280 H     1 <1>   0.1500 
@<TRIPOS>BOND
  1   1   2  1   
  2   1   3  1   
  3   2   4  ar  
  4   2   5  ar  
  5   3  25  1   
  6   3  26  1   
  7   3  27  1   
  8   4   6  ar  
  9   4  28  1   
 10   5   7  ar  
 11   5  29  1   
 12   6   8  1   
 13   6   9  ar  
 14   7   9  ar  
 15   7  10  1   
 16   8  11  1   
 17   9  30  1   
 18  10  12  1   
 19  10  31  1   
 20  10  32  1   
 21  11  33  1   
 22  11  34  1   
 23  11  35  1   
 24  12  13  1   
 25  12  14  1   
 26  12  36  1   
 27  13  15  1   
 28  13  37  1   
 29  13  38  1   
 30  14  16  1   
 31  14  39  1   
 32  14  40  1   
 33  15  16  1   
 34  15  17  1   
 35  15  41  1   
 36  16  18  1   
 37  16  42  1   
 38  17  43  1   
 39  18  19  1   
 40  18  44  1   
 41  18  45  1   
 42  19  20  ar  
 43  19  21  ar  
 44  20  22  ar  
 45  21  23  ar  
 46  21  46  1   
 47  22  24  ar  
 48  22  47  1   
 49  23  24  ar  
 50  24  48  1   
@<TRIPOS>SUBSTRUCTURE
  1 ****  12 GROUP 4 **** **** 0

# MOE 2024.06 (io_trps.svl 2023.06)
