@<TRIPOS>MOLECULE
NONAME
44 46 1 0 0 
SMALL
USER_CHARGES


@<TRIPOS>ATOM
  1 O       -1.0040    -3.2670     0.3200 O.co2 1 <1>  -0.9000 
  2 C       -0.0900    -3.8520     0.9180 C.2   1 <1>   1.0330 
  3 O       -0.4250    -4.8240     1.6240 O.co2 1 <1>  -0.9000 
  4 C        1.2690    -3.6650     0.5450 C.2   1 <1>  -0.2330 
  5 C        2.0440    -4.7430     0.1390 C.2   1 <1>   0.3720 
  6 C        2.0890    -2.5950     0.3720 C.2   1 <1>   0.0870 
  7 N        3.1980    -4.3730    -0.2730 N.2   1 <1>  -0.4100 
  8 N        1.5920    -6.0560     0.1470 N.pl3 1 <1>  -0.8520 
  9 O        3.2150    -3.0740    -0.1140 O.3   1 <1>  -0.0190 
 10 C        1.9500    -1.1710     0.5980 C.ar  1 <1>   0.0530 
 11 C        1.0870    -6.5270    -1.1690 C.3   1 <1>   0.2090 
 12 C        0.7770    -0.6030     1.0970 C.ar  1 <1>  -0.1500 
 13 C        3.0050    -0.2960     0.3240 C.ar  1 <1>  -0.1500 
 14 C       -0.3240    -5.9920    -1.5190 C.3   1 <1>   0.3430 
 15 C        0.6600     0.7590     1.3100 C.ar  1 <1>  -0.1500 
 16 C        2.8980     1.0670     0.5350 C.ar  1 <1>  -0.1500 
 17 N       -1.3770    -6.2640    -0.4850 N.4   1 <1>  -0.9590 
 18 C        1.7220     1.5990     1.0300 C.ar  1 <1>  -0.1500 
 19 C       -1.5530    -7.6850    -0.0980 C.3   1 <1>   0.3430 
 20 C       -2.6420    -5.5550    -0.8150 C.3   1 <1>   0.3430 
 21 C       -2.5020    -7.7770     1.0970 C.3   1 <1>  -0.1600 
 22 C       -3.6080    -5.6450     0.3670 C.3   1 <1>  -0.1600 
 23 C       -3.8450    -7.0930     0.8130 C.3   1 <1>  -0.1600 
 24 H        0.8490    -6.0910     0.8710 H     1 <1>   0.4000 
 25 H        1.0810    -7.6020    -1.1760 H     1 <1>   0.0800 
 26 H        1.7760    -6.2100    -1.9350 H     1 <1>   0.0800 
 27 H       -0.0680    -1.2260     1.3230 H     1 <1>   0.1500 
 28 H        3.9300    -0.6870    -0.0610 H     1 <1>   0.1500 
 29 H       -0.6310    -6.4160    -2.4590 H     1 <1>   0.0800 
 30 H       -0.2460    -4.9240    -1.6560 H     1 <1>   0.0800 
 31 H       -0.2610     1.1620     1.6940 H     1 <1>   0.1500 
 32 H        3.7290     1.7130     0.3140 H     1 <1>   0.1500 
 33 H       -1.0760    -5.7570     0.3870 H     1 <1>   0.4500 
 34 H        1.6320     2.6580     1.1950 H     1 <1>   0.1500 
 35 H       -0.6010    -8.1100     0.1770 H     1 <1>   0.0800 
 36 H       -1.9560    -8.2420    -0.9270 H     1 <1>   0.0800 
 37 H       -3.0920    -5.9920    -1.6900 H     1 <1>   0.0800 
 38 H       -2.4320    -4.5150    -1.0130 H     1 <1>   0.0800 
 39 H       -2.0330    -7.3120     1.9490 H     1 <1>   0.0800 
 40 H       -2.6670    -8.8120     1.3410 H     1 <1>   0.0800 
 41 H       -4.5420    -5.1880     0.0940 H     1 <1>   0.0800 
 42 H       -3.1980    -5.0710     1.1830 H     1 <1>   0.0800 
 43 H       -4.4530    -7.1020     1.7020 H     1 <1>   0.0800 
 44 H       -4.3730    -7.6290     0.0430 H     1 <1>   0.0800 
@<TRIPOS>BOND
  1   1   2  ar  
  2   2   3  ar  
  3   2   4  1   
  4   4   5  1   
  5   4   6  2   
  6   5   7  2   
  7   5   8  1   
  8   6   9  1   
  9   6  10  1   
 10   7   9  1   
 11   8  11  1   
 12   8  24  1   
 13  10  12  ar  
 14  10  13  ar  
 15  11  14  1   
 16  11  25  1   
 17  11  26  1   
 18  12  15  ar  
 19  12  27  1   
 20  13  16  ar  
 21  13  28  1   
 22  14  17  1   
 23  14  29  1   
 24  14  30  1   
 25  15  18  ar  
 26  15  31  1   
 27  16  18  ar  
 28  16  32  1   
 29  17  19  1   
 30  17  20  1   
 31  17  33  1   
 32  18  34  1   
 33  19  21  1   
 34  19  35  1   
 35  19  36  1   
 36  20  22  1   
 37  20  37  1   
 38  20  38  1   
 39  21  23  1   
 40  21  39  1   
 41  21  40  1   
 42  22  23  1   
 43  22  41  1   
 44  22  42  1   
 45  23  43  1   
 46  23  44  1   
@<TRIPOS>SUBSTRUCTURE
  1 ****   2 GROUP 4 **** **** 0

# MOE 2024.06 (io_trps.svl 2023.06)
