@<TRIPOS>MOLECULE
NONAME
42 44 1 0 0 
SMALL
USER_CHARGES


@<TRIPOS>ATOM
  1 F        0.2690     0.4390     0.7840 F     1 <1>  -0.3400 
  2 C        1.3150    -0.0170     0.1050 C.3   1 <1>   1.1640 
  3 F        2.3920     0.4590     0.7150 F     1 <1>  -0.3400 
  4 F        1.2680     0.5710    -1.0850 F     1 <1>  -0.3400 
  5 C        1.3390    -1.5520     0.0100 C.ar  1 <1>  -0.1440 
  6 C        0.7940    -2.3400     1.0190 C.ar  1 <1>  -0.1500 
  7 C        1.9190    -2.1910    -1.0810 C.ar  1 <1>  -0.1500 
  8 C        0.8190    -3.7200     0.9300 C.ar  1 <1>  -0.1500 
  9 C        1.9390    -3.5720    -1.1630 C.ar  1 <1>  -0.1500 
 10 C        1.3810    -4.3690    -0.1680 C.ar  1 <1>   0.0860 
 11 C        1.3930    -5.8160    -0.2810 C.2   1 <1>   0.5440 
 12 O        2.4330    -6.3930    -0.5340 O.2   1 <1>  -0.5700 
 13 N        0.2480    -6.5630    -0.1300 N.am  1 <1>  -0.6600 
 14 C       -1.1340    -6.0240    -0.1890 C.3   1 <1>   0.1400 
 15 C        0.2430    -8.0340    -0.3110 C.3   1 <1>   0.1400 
 16 C       -2.0010    -7.2170    -0.5880 C.3   1 <1>   0.2000 
 17 C       -1.2190    -8.4560    -0.1530 C.3   1 <1>  -0.0800 
 18 O       -3.2360    -7.1830     0.0410 O.3   1 <1>  -0.6800 
 19 C       -1.5960    -9.7040    -0.9670 C.3   1 <1>   0.0200 
 20 C       -0.8610   -10.9570    -0.5220 C.2   1 <1>  -0.0400 
 21 O       -0.9820   -12.0410    -1.2410 O.3   1 <1>  -0.0190 
 22 C       -0.0560   -11.2450     0.5150 C.2   1 <1>  -0.1500 
 23 N       -0.3010   -13.0340    -0.7460 N.2   1 <1>  -0.4100 
 24 C        0.2680   -12.5830     0.3120 C.2   1 <1>   0.1080 
 25 C        1.1670   -13.4030     1.2100 C.3   1 <1>  -0.0590 
 26 H        0.3490    -1.8800     1.8870 H     1 <1>   0.1500 
 27 H        2.3640    -1.6160    -1.8780 H     1 <1>   0.1500 
 28 H        0.4030    -4.3110     1.7270 H     1 <1>   0.1500 
 29 H        2.3980    -4.0520    -2.0110 H     1 <1>   0.1500 
 30 H       -1.4140    -5.6590     0.7840 H     1 <1>   0.0800 
 31 H       -1.2070    -5.2380    -0.9190 H     1 <1>   0.0800 
 32 H        0.6090    -8.2660    -1.2980 H     1 <1>   0.0800 
 33 H        0.8800    -8.5030     0.4190 H     1 <1>   0.0800 
 34 H       -2.1620    -7.2060    -1.6530 H     1 <1>   0.0800 
 35 H       -1.3940    -8.6400     0.8920 H     1 <1>   0.0800 
 36 H       -3.1370    -7.2860     1.0070 H     1 <1>   0.4000 
 37 H       -1.3820    -9.5330    -2.0080 H     1 <1>   0.0800 
 38 H       -2.6530    -9.8830    -0.8770 H     1 <1>   0.0800 
 39 H        0.2830   -10.6310     1.3270 H     1 <1>   0.1500 
 40 H        2.1510   -12.9720     1.2330 H     1 <1>   0.0800 
 41 H        1.2370   -14.4100     0.8380 H     1 <1>   0.0800 
 42 H        0.7650   -13.4280     2.2060 H     1 <1>   0.0800 
@<TRIPOS>BOND
  1   1   2  1   
  2   2   3  1   
  3   2   4  1   
  4   2   5  1   
  5   5   6  ar  
  6   5   7  ar  
  7   6   8  ar  
  8   6  26  1   
  9   7   9  ar  
 10   7  27  1   
 11   8  10  ar  
 12   8  28  1   
 13   9  10  ar  
 14   9  29  1   
 15  10  11  1   
 16  11  12  2   
 17  11  13  am  
 18  13  14  1   
 19  13  15  1   
 20  14  16  1   
 21  14  30  1   
 22  14  31  1   
 23  15  17  1   
 24  15  32  1   
 25  15  33  1   
 26  16  17  1   
 27  16  18  1   
 28  16  34  1   
 29  17  19  1   
 30  17  35  1   
 31  18  36  1   
 32  19  20  1   
 33  19  37  1   
 34  19  38  1   
 35  20  21  1   
 36  20  22  2   
 37  21  23  1   
 38  22  24  1   
 39  22  39  1   
 40  23  24  2   
 41  24  25  1   
 42  25  40  1   
 43  25  41  1   
 44  25  42  1   
@<TRIPOS>SUBSTRUCTURE
  1 ****  13 GROUP 4 **** **** 0

# MOE 2024.06 (io_trps.svl 2023.06)
