@<TRIPOS>MOLECULE
NONAME
57 60 1 0 0 
SMALL
USER_CHARGES


@<TRIPOS>ATOM
  1 O       -0.6790     0.3820     0.6860 O.2   1 <1>  -0.5700 
  2 C       -1.6900     0.9640     0.3410 C.2   1 <1>   0.5440 
  3 N       -2.8530     0.2370     0.2140 N.am  1 <1>  -0.6600 
  4 C       -1.6420     2.3820     0.0600 C.ar  1 <1>   0.0860 
  5 C       -4.0800     0.6950    -0.4860 C.3   1 <1>   0.1400 
  6 C       -2.8890    -1.2380     0.3930 C.3   1 <1>   0.1400 
  7 C       -0.7470     2.8940    -0.8790 C.ar  1 <1>  -0.1500 
  8 C       -2.4730     3.2950     0.7120 C.ar  1 <1>  -0.1500 
  9 C       -5.0690    -0.4570    -0.3120 C.3   1 <1>   0.2000 
 10 C       -4.1740    -1.7000    -0.3040 C.3   1 <1>  -0.0800 
 11 C       -0.6960     4.2430    -1.1650 C.ar  1 <1>  -0.1500 
 12 C       -2.4230     4.6460     0.4290 C.ar  1 <1>  -0.1500 
 13 O       -5.6770    -0.3160     0.9260 O.3   1 <1>  -0.6800 
 14 C       -4.8020    -2.9620     0.3160 C.3   1 <1>  -0.0170 
 15 C       -1.5320     5.1460    -0.5160 C.ar  1 <1>   0.1000 
 16 C       -3.8690    -4.1550     0.1840 C.ar  1 <1>  -0.1430 
 17 N       -1.4530     6.5010    -0.8070 N.pl3 1 <1>  -0.8380 
 18 C       -3.8210    -4.9150    -0.9670 C.ar  1 <1>  -0.1500 
 19 C       -3.0210    -4.5400     1.2030 C.ar  1 <1>  -0.1500 
 20 C       -2.6720     7.3520    -0.9580 C.3   1 <1>   0.2090 
 21 C       -0.1520     7.2180    -0.6490 C.3   1 <1>   0.2090 
 22 C       -2.9500    -5.9890    -1.0430 C.ar  1 <1>   0.1600 
 23 C       -2.1870    -5.6310     1.0250 C.ar  1 <1>   0.1600 
 24 C       -2.7150     8.4620     0.1150 C.3   1 <1>   0.3430 
 25 C       -0.2550     8.3260     0.4200 C.3   1 <1>   0.3430 
 26 N       -2.1310    -6.3650    -0.0740 N.ar  1 <1>  -0.6200 
 27 N       -1.4290     9.2510     0.1940 N.4   1 <1>  -0.9590 
 28 C       -1.5010    10.3020     1.2540 C.3   1 <1>   0.2630 
 29 H       -4.4690     1.6100    -0.0750 H     1 <1>   0.0800 
 30 H       -3.8560     0.8340    -1.5300 H     1 <1>   0.0800 
 31 H       -2.0190    -1.7020    -0.0410 H     1 <1>   0.0800 
 32 H       -2.9180    -1.4580     1.4460 H     1 <1>   0.0800 
 33 H       -0.0860     2.2100    -1.3840 H     1 <1>   0.1500 
 34 H       -3.1590     2.9280     1.4560 H     1 <1>   0.1500 
 35 H       -5.8330    -0.4790    -1.0700 H     1 <1>   0.0800 
 36 H       -3.9170    -1.9200    -1.3260 H     1 <1>   0.0800 
 37 H       -0.0050     4.6050    -1.9030 H     1 <1>   0.1500 
 38 H       -3.0730     5.3160     0.9570 H     1 <1>   0.1500 
 39 H       -4.9810    -0.1640     1.5970 H     1 <1>   0.4000 
 40 H       -5.7310    -3.1800    -0.1820 H     1 <1>   0.0800 
 41 H       -5.0280    -2.7980     1.3550 H     1 <1>   0.0800 
 42 H       -4.4510    -4.6830    -1.8050 H     1 <1>   0.1500 
 43 H       -2.9980    -4.0030     2.1340 H     1 <1>   0.1500 
 44 H       -2.6680     7.7970    -1.9380 H     1 <1>   0.0800 
 45 H       -3.5570     6.7430    -0.8860 H     1 <1>   0.0800 
 46 H        0.6150     6.5200    -0.3580 H     1 <1>   0.0800 
 47 H        0.1350     7.6450    -1.5950 H     1 <1>   0.0800 
 48 H       -2.9260    -6.5710    -1.9490 H     1 <1>   0.1500 
 49 H       -1.5310    -5.9150     1.8300 H     1 <1>   0.1500 
 50 H       -2.9080     7.9960     1.0670 H     1 <1>   0.0800 
 51 H       -3.5390     9.1230    -0.1000 H     1 <1>   0.0800 
 52 H        0.6620     8.8910     0.4270 H     1 <1>   0.0800 
 53 H       -0.3550     7.8490     1.3820 H     1 <1>   0.0800 
 54 H       -1.2900     9.7050    -0.7210 H     1 <1>   0.4500 
 55 H       -1.6450     9.8490     2.2220 H     1 <1>   0.0800 
 56 H       -2.3230    10.9720     1.0610 H     1 <1>   0.0800 
 57 H       -0.5890    10.8760     1.2750 H     1 <1>   0.0800 
@<TRIPOS>BOND
  1   1   2  2   
  2   2   3  am  
  3   2   4  1   
  4   3   5  1   
  5   3   6  1   
  6   4   7  ar  
  7   4   8  ar  
  8   5   9  1   
  9   5  29  1   
 10   5  30  1   
 11   6  10  1   
 12   6  31  1   
 13   6  32  1   
 14   7  11  ar  
 15   7  33  1   
 16   8  12  ar  
 17   8  34  1   
 18   9  10  1   
 19   9  13  1   
 20   9  35  1   
 21  10  14  1   
 22  10  36  1   
 23  11  15  ar  
 24  11  37  1   
 25  12  15  ar  
 26  12  38  1   
 27  13  39  1   
 28  14  16  1   
 29  14  40  1   
 30  14  41  1   
 31  15  17  1   
 32  16  18  ar  
 33  16  19  ar  
 34  17  20  1   
 35  17  21  1   
 36  18  22  ar  
 37  18  42  1   
 38  19  23  ar  
 39  19  43  1   
 40  20  24  1   
 41  20  44  1   
 42  20  45  1   
 43  21  25  1   
 44  21  46  1   
 45  21  47  1   
 46  22  26  ar  
 47  22  48  1   
 48  23  26  ar  
 49  23  49  1   
 50  24  27  1   
 51  24  50  1   
 52  24  51  1   
 53  25  27  1   
 54  25  52  1   
 55  25  53  1   
 56  27  28  1   
 57  27  54  1   
 58  28  55  1   
 59  28  56  1   
 60  28  57  1   
@<TRIPOS>SUBSTRUCTURE
  1 ****   2 GROUP 4 **** **** 0

# MOE 2024.06 (io_trps.svl 2023.06)
