@<TRIPOS>MOLECULE
NONAME
48 50 1 0 0 
SMALL
USER_CHARGES


@<TRIPOS>ATOM
  1 O        0.2980    -0.0320     0.3750 O.2   1 <1>  -0.5700 
  2 C        1.4290    -0.3480     0.6870 C.2   1 <1>   0.7160 
  3 N        2.4570     0.5490     0.5550 N.am  1 <1>  -0.4940 
  4 C        1.7210    -1.6700     1.1760 C.2   1 <1>  -0.0860 
  5 C        2.5230     1.8790     0.0890 C.2   1 <1>  -0.0880 
  6 C        1.1080    -2.8570     0.7950 C.2   1 <1>   0.1080 
  7 C        2.6220    -2.1190     2.0790 C.2   1 <1>  -0.0400 
  8 N        1.5970     2.8690     0.2010 N.pl3 1 <1>   0.3140 
  9 C        3.6030     2.4180    -0.5460 C.2   1 <1>  -0.0540 
 10 N        1.6320    -3.8470     1.4170 N.2   1 <1>  -0.4100 
 11 C       -0.0270    -2.9700    -0.2200 C.3   1 <1>   0.0210 
 12 O        2.5790    -3.4210     2.2180 O.3   1 <1>  -0.0190 
 13 C        3.6230    -1.3680     2.9390 C.3   1 <1>  -0.0600 
 14 N        2.0530     4.0270    -0.3220 N.2   1 <1>  -0.7070 
 15 C        0.2820     2.8390     0.8550 C.3   1 <1>   0.0160 
 16 C        4.8360     1.7590    -0.9120 C.ar  1 <1>   0.0540 
 17 C        3.2360     3.7510    -0.7620 C.2   1 <1>   0.1080 
 18 C       -0.3190    -4.4110    -0.6610 C.3   1 <1>  -0.2400 
 19 C        5.6290     1.0540     0.0060 C.ar  1 <1>   0.0820 
 20 C        5.2630     1.7900    -2.2380 C.ar  1 <1>  -0.1500 
 21 C        4.0970     4.8040    -1.4240 C.3   1 <1>  -0.0590 
 22 O        5.2940     0.9630     1.3140 O.3   1 <1>  -0.3630 
 23 C        6.7830     0.4050    -0.3980 C.ar  1 <1>  -0.1500 
 24 C        6.4230     1.1510    -2.6410 C.ar  1 <1>  -0.1500 
 25 C        5.4560     2.1340     2.0870 C.3   1 <1>   0.0400 
 26 C        7.1850     0.4540    -1.7200 C.ar  1 <1>  -0.1500 
 27 H        3.3830     0.1340     0.6970 H     1 <1>   0.3700 
 28 H        0.2250    -2.3870    -1.0870 H     1 <1>   0.0800 
 29 H       -0.9160    -2.5470     0.2140 H     1 <1>   0.0800 
 30 H        3.4420    -0.3100     2.9170 H     1 <1>   0.0800 
 31 H        4.6210    -1.5640     2.5920 H     1 <1>   0.0800 
 32 H        3.5410    -1.7010     3.9580 H     1 <1>   0.0800 
 33 H        0.3320     2.2270     1.7350 H     1 <1>   0.0800 
 34 H       -0.4390     2.4370     0.1690 H     1 <1>   0.0800 
 35 H        0.0000     3.8390     1.1270 H     1 <1>   0.0800 
 36 H        0.5600    -4.8490    -1.1000 H     1 <1>   0.0800 
 37 H       -1.1140    -4.4240    -1.3850 H     1 <1>   0.0800 
 38 H       -0.6130    -5.0060     0.1860 H     1 <1>   0.0800 
 39 H        4.6690     2.3140    -2.9650 H     1 <1>   0.1500 
 40 H        5.1380     4.6060    -1.2450 H     1 <1>   0.0800 
 41 H        3.8550     5.7710    -1.0230 H     1 <1>   0.0800 
 42 H        3.9100     4.8110    -2.4810 H     1 <1>   0.0800 
 43 H        7.3660    -0.1380     0.3240 H     1 <1>   0.1500 
 44 H        6.7300     1.1910    -3.6720 H     1 <1>   0.1500 
 45 H        5.2840     1.8840     3.1190 H     1 <1>   0.0800 
 46 H        4.7450     2.8760     1.7690 H     1 <1>   0.0800 
 47 H        6.4600     2.5000     1.9600 H     1 <1>   0.0800 
 48 H        8.0850    -0.0480    -2.0320 H     1 <1>   0.1500 
@<TRIPOS>BOND
  1   1   2  2   
  2   2   3  am  
  3   2   4  1   
  4   3   5  1   
  5   3  27  1   
  6   4   6  1   
  7   4   7  2   
  8   5   8  1   
  9   5   9  2   
 10   6  10  2   
 11   6  11  1   
 12   7  12  1   
 13   7  13  1   
 14   8  14  1   
 15   8  15  1   
 16   9  16  1   
 17   9  17  1   
 18  10  12  1   
 19  11  18  1   
 20  11  28  1   
 21  11  29  1   
 22  13  30  1   
 23  13  31  1   
 24  13  32  1   
 25  14  17  2   
 26  15  33  1   
 27  15  34  1   
 28  15  35  1   
 29  16  19  ar  
 30  16  20  ar  
 31  17  21  1   
 32  18  36  1   
 33  18  37  1   
 34  18  38  1   
 35  19  22  1   
 36  19  23  ar  
 37  20  24  ar  
 38  20  39  1   
 39  21  40  1   
 40  21  41  1   
 41  21  42  1   
 42  22  25  1   
 43  23  26  ar  
 44  23  43  1   
 45  24  26  ar  
 46  24  44  1   
 47  25  45  1   
 48  25  46  1   
 49  25  47  1   
 50  26  48  1   
@<TRIPOS>SUBSTRUCTURE
  1 ****   3 GROUP 4 **** **** 0

# MOE 2024.06 (io_trps.svl 2023.06)
