@<TRIPOS>MOLECULE
NONAME
43 45 1 0 0 
SMALL
USER_CHARGES


@<TRIPOS>ATOM
  1 S       -0.4690     0.1030    -0.6110 S.3   1 <1>  -0.0800 
  2 C        0.7470    -1.0650    -0.0740 C.2   1 <1>   0.4420 
  3 C        0.7390     1.3670    -0.5870 C.ar  1 <1>   0.0400 
  4 N        1.9100    -0.5630     0.0980 N.2   1 <1>  -0.5650 
  5 N        0.4460    -2.3860     0.1290 N.am  1 <1>  -0.4940 
  6 C        1.9360     0.8040    -0.1820 C.ar  1 <1>   0.2270 
  7 C        0.5780     2.7040    -0.9060 C.ar  1 <1>  -0.1500 
  8 C       -0.7050    -3.1160     0.0320 C.2   1 <1>   0.7150 
  9 C        3.0230     1.6730    -0.1050 C.ar  1 <1>   0.1900 
 10 C        1.6840     3.5350    -0.8160 C.ar  1 <1>  -0.1500 
 11 O       -1.7500    -2.5760    -0.2650 O.2   1 <1>  -0.5700 
 12 C       -0.6300    -4.5250     0.2980 C.2   1 <1>  -0.2370 
 13 F        4.1900     1.2150     0.2710 F     1 <1>  -0.1900 
 14 C        2.9140     3.0190    -0.4130 C.ar  1 <1>  -0.1500 
 15 N       -1.6950    -5.3750     0.3810 N.pl3 1 <1>   0.3140 
 16 C        0.4680    -5.3050     0.5170 C.2   1 <1>  -0.1500 
 17 N       -1.3020    -6.6350     0.6450 N.2   1 <1>  -0.7070 
 18 C       -3.1370    -5.0210     0.2140 C.3   1 <1>   0.0960 
 19 C       -0.0100    -6.5840     0.7210 C.2   1 <1>   0.1080 
 20 C       -4.1040    -6.1930     0.4440 C.3   1 <1>  -0.2400 
 21 C        0.8460    -7.8060     1.0050 C.3   1 <1>   0.0210 
 22 C        1.6620    -8.2590    -0.2220 C.3   1 <1>  -0.0800 
 23 C        0.7510    -8.6910    -1.3800 C.3   1 <1>  -0.2400 
 24 C        2.5980    -9.4150     0.1560 C.3   1 <1>  -0.2400 
 25 H        1.2510    -2.9250     0.4250 H     1 <1>   0.3700 
 26 H       -0.3820     3.0810    -1.2150 H     1 <1>   0.1500 
 27 H        1.5950     4.5820    -1.0570 H     1 <1>   0.1500 
 28 H        3.7780     3.6550    -0.3400 H     1 <1>   0.1500 
 29 H        1.5070    -5.0310     0.5330 H     1 <1>   0.1500 
 30 H       -3.2700    -4.6410    -0.7820 H     1 <1>   0.0800 
 31 H       -3.3670    -4.2330     0.9080 H     1 <1>   0.0800 
 32 H       -3.9060    -6.9820    -0.2610 H     1 <1>   0.0800 
 33 H       -5.1180    -5.8620     0.3130 H     1 <1>   0.0800 
 34 H       -3.9930    -6.5760     1.4430 H     1 <1>   0.0800 
 35 H        0.2060    -8.6070     1.3310 H     1 <1>   0.0800 
 36 H        1.5110    -7.5700     1.8150 H     1 <1>   0.0800 
 37 H        2.2660    -7.4320    -0.5550 H     1 <1>   0.0800 
 38 H        0.1170    -9.5060    -1.0780 H     1 <1>   0.0800 
 39 H        1.3380    -9.0040    -2.2240 H     1 <1>   0.0800 
 40 H        0.1240    -7.8740    -1.6910 H     1 <1>   0.0800 
 41 H        2.0310   -10.2660     0.4920 H     1 <1>   0.0800 
 42 H        3.2680    -9.1150     0.9420 H     1 <1>   0.0800 
 43 H        3.1860    -9.7110    -0.6940 H     1 <1>   0.0800 
@<TRIPOS>BOND
  1   1   2  1   
  2   1   3  1   
  3   2   4  2   
  4   2   5  1   
  5   3   6  ar  
  6   3   7  ar  
  7   4   6  1   
  8   5   8  am  
  9   5  25  1   
 10   6   9  ar  
 11   7  10  ar  
 12   7  26  1   
 13   8  11  2   
 14   8  12  1   
 15   9  13  1   
 16   9  14  ar  
 17  10  14  ar  
 18  10  27  1   
 19  12  15  1   
 20  12  16  2   
 21  14  28  1   
 22  15  17  1   
 23  15  18  1   
 24  16  19  1   
 25  16  29  1   
 26  17  19  2   
 27  18  20  1   
 28  18  30  1   
 29  18  31  1   
 30  19  21  1   
 31  20  32  1   
 32  20  33  1   
 33  20  34  1   
 34  21  22  1   
 35  21  35  1   
 36  21  36  1   
 37  22  23  1   
 38  22  24  1   
 39  22  37  1   
 40  23  38  1   
 41  23  39  1   
 42  23  40  1   
 43  24  41  1   
 44  24  42  1   
 45  24  43  1   
@<TRIPOS>SUBSTRUCTURE
  1 ****   5 GROUP 4 **** **** 0

# MOE 2024.06 (io_trps.svl 2023.06)
