@<TRIPOS>MOLECULE
NONAME
47 50 1 0 0 
SMALL
USER_CHARGES


@<TRIPOS>ATOM
  1 O        0.6760    -0.6670    -3.2900 O.2   1 <1>  -0.5700 
  2 C        1.0470    -0.9890    -2.1790 C.2   1 <1>   0.5440 
  3 N        1.7960    -0.1060    -1.4320 N.am  1 <1>  -0.4940 
  4 C        0.7140    -2.3050    -1.6840 C.ar  1 <1>   0.0860 
  5 C        2.3300     1.1580    -1.7890 C.2   1 <1>  -0.0880 
  6 C        0.5230    -2.6430    -0.3430 C.ar  1 <1>   0.3100 
  7 C        0.5740    -3.3460    -2.5850 C.ar  1 <1>   0.1600 
  8 N        2.8740     2.0550    -0.9180 N.pl3 1 <1>   0.3140 
  9 C        2.4260     1.7220    -3.0170 C.2   1 <1>  -0.1500 
 10 N        0.2750    -3.8940     0.0180 N.ar  1 <1>  -0.6200 
 11 C        0.5820    -1.6720     0.7270 C.ar  1 <1>   0.0000 
 12 N        0.3120    -4.5840    -2.2360 N.ar  1 <1>  -0.6200 
 13 N        3.3230     3.1600    -1.5670 N.2   1 <1>  -0.7070 
 14 C        2.9920     1.8890     0.5590 C.3   1 <1>   0.1760 
 15 C        3.0430     2.9470    -2.8140 C.2   1 <1>   0.1390 
 16 C        0.1800    -4.7890    -0.9400 C.ar  1 <1>   0.4770 
 17 C       -0.3180    -0.6100     0.8010 C.ar  1 <1>  -0.1500 
 18 C        1.5510    -1.7720     1.7250 C.ar  1 <1>  -0.1500 
 19 C        2.4680     3.0810     1.3670 C.3   1 <1>  -0.1600 
 20 C        4.4360     1.7240     1.0260 C.3   1 <1>  -0.1600 
 21 C       -0.1150    -6.2090    -0.5220 C.3   1 <1>  -0.0970 
 22 C       -0.2470     0.3200     1.8220 C.ar  1 <1>  -0.1500 
 23 C        1.6250    -0.8470     2.7500 C.ar  1 <1>  -0.1500 
 24 C        3.2570     3.0730     2.6830 C.3   1 <1>  -0.1600 
 25 C        4.3820     2.0450     2.5180 C.3   1 <1>  -0.1600 
 26 C        0.7250     0.2030     2.8000 C.ar  1 <1>  -0.1500 
 27 H        1.9430    -0.3870    -0.4600 H     1 <1>   0.3700 
 28 H        0.6900    -3.1430    -3.6380 H     1 <1>   0.1500 
 29 H        2.1020     1.3240    -3.9610 H     1 <1>   0.1500 
 30 H        2.4410     1.0180     0.8530 H     1 <1>   0.0800 
 31 H        3.2700     3.6490    -3.6000 H     1 <1>   0.1500 
 32 H       -1.0880    -0.5120     0.0530 H     1 <1>   0.1500 
 33 H        2.2440    -2.5960     1.7010 H     1 <1>   0.1500 
 34 H        1.4090     2.9990     1.5380 H     1 <1>   0.0800 
 35 H        2.6730     4.0010     0.8470 H     1 <1>   0.0800 
 36 H        5.0610     2.4490     0.5290 H     1 <1>   0.0800 
 37 H        4.8110     0.7330     0.8400 H     1 <1>   0.0800 
 38 H       -0.2290    -6.2740     0.5450 H     1 <1>   0.0800 
 39 H        0.6920    -6.8470    -0.8280 H     1 <1>   0.0800 
 40 H       -1.0220    -6.5390    -0.9910 H     1 <1>   0.0800 
 41 H       -0.9520     1.1330     1.8610 H     1 <1>   0.1500 
 42 H        2.3760    -0.9470     3.5150 H     1 <1>   0.1500 
 43 H        2.6250     2.8070     3.5130 H     1 <1>   0.0800 
 44 H        3.6690     4.0520     2.8650 H     1 <1>   0.0800 
 45 H        5.3250     2.4230     2.8750 H     1 <1>   0.0800 
 46 H        4.1340     1.1530     3.0680 H     1 <1>   0.0800 
 47 H        0.7760     0.9220     3.6000 H     1 <1>   0.1500 
@<TRIPOS>BOND
  1   1   2  2   
  2   2   3  am  
  3   2   4  1   
  4   3   5  1   
  5   3  27  1   
  6   4   6  ar  
  7   4   7  ar  
  8   5   8  1   
  9   5   9  2   
 10   6  10  ar  
 11   6  11  1   
 12   7  12  ar  
 13   7  28  1   
 14   8  13  1   
 15   8  14  1   
 16   9  15  1   
 17   9  29  1   
 18  10  16  ar  
 19  11  17  ar  
 20  11  18  ar  
 21  12  16  ar  
 22  13  15  2   
 23  14  19  1   
 24  14  20  1   
 25  14  30  1   
 26  15  31  1   
 27  16  21  1   
 28  17  22  ar  
 29  17  32  1   
 30  18  23  ar  
 31  18  33  1   
 32  19  24  1   
 33  19  34  1   
 34  19  35  1   
 35  20  25  1   
 36  20  36  1   
 37  20  37  1   
 38  21  38  1   
 39  21  39  1   
 40  21  40  1   
 41  22  26  ar  
 42  22  41  1   
 43  23  26  ar  
 44  23  42  1   
 45  24  25  1   
 46  24  43  1   
 47  24  44  1   
 48  25  45  1   
 49  25  46  1   
 50  26  47  1   
@<TRIPOS>SUBSTRUCTURE
  1 ****   3 GROUP 4 **** **** 0

# MOE 2024.06 (io_trps.svl 2023.06)
