@<TRIPOS>MOLECULE
NONAME
54 56 1 0 0 
SMALL
USER_CHARGES


@<TRIPOS>ATOM
  1 S       -0.1790    -0.4040     1.1320 S.o2  1 <1>   1.3330 
  2 O        1.2220    -0.1050     1.3080 O.2   1 <1>  -0.6500 
  3 O       -1.1570     0.0440     2.0970 O.2   1 <1>  -0.6500 
  4 N       -0.6560     0.1370    -0.4070 N.am  1 <1>  -0.8490 
  5 C       -0.3760    -2.1840     0.9880 C.3   1 <1>  -0.0550 
  6 C        0.4490     0.1750    -1.3730 C.3   1 <1>   0.1160 
  7 C       -1.2960     1.4580    -0.3520 C.3   1 <1>   0.1160 
  8 C       -1.8300    -2.6130     0.7040 C.3   1 <1>  -0.1600 
  9 C       -1.9640    -4.1330     0.6310 C.3   1 <1>   0.3430 
 10 N       -3.3900    -4.5130     0.4600 N.4   1 <1>  -0.9590 
 11 C       -4.0400    -4.0870    -0.8120 C.3   1 <1>   0.3430 
 12 C       -3.6460    -5.9800     0.5810 C.3   1 <1>   0.3430 
 13 C       -5.2880    -4.9650    -0.8940 C.3   1 <1>   0.2000 
 14 C       -4.7940    -6.3200    -0.3870 C.3   1 <1>  -0.0800 
 15 O       -6.2120    -4.4750     0.0220 O.3   1 <1>  -0.6800 
 16 C       -4.3240    -7.2240    -1.5470 C.3   1 <1>  -0.0170 
 17 C       -3.5300    -8.4240    -1.0400 C.ar  1 <1>  -0.1440 
 18 C       -4.1330    -9.4930    -0.3330 C.ar  1 <1>   0.0000 
 19 C       -2.1820    -8.4870    -1.2480 C.ar  1 <1>  -0.1500 
 20 C       -3.2820   -10.5060     0.1760 C.ar  1 <1>   0.3100 
 21 C       -5.5230    -9.6250    -0.1060 C.ar  1 <1>  -0.1500 
 22 C       -1.4360    -9.5530    -0.7290 C.ar  1 <1>   0.1600 
 23 N       -1.9420   -10.5150    -0.0280 N.ar  1 <1>  -0.6200 
 24 C       -3.8420   -11.5560     0.9210 C.ar  1 <1>  -0.1500 
 25 C       -6.0380   -10.6650     0.6190 C.ar  1 <1>  -0.1500 
 26 C       -5.1890   -11.6400     1.1470 C.ar  1 <1>  -0.1500 
 27 H        0.2650    -2.5400     0.2050 H     1 <1>   0.0800 
 28 H       -0.0500    -2.6310     1.9080 H     1 <1>   0.0800 
 29 H        0.0800     0.4400    -2.3490 H     1 <1>   0.0800 
 30 H        0.9210    -0.7910    -1.4380 H     1 <1>   0.0800 
 31 H        1.1900     0.8980    -1.0710 H     1 <1>   0.0800 
 32 H       -1.5900     1.7740    -1.3380 H     1 <1>   0.0800 
 33 H       -0.6190     2.1850     0.0650 H     1 <1>   0.0800 
 34 H       -2.1780     1.4180     0.2640 H     1 <1>   0.0800 
 35 H       -2.4580    -2.2350     1.4930 H     1 <1>   0.0800 
 36 H       -2.1420    -2.1680    -0.2240 H     1 <1>   0.0800 
 37 H       -1.5860    -4.5640     1.5450 H     1 <1>   0.0800 
 38 H       -1.3790    -4.5150    -0.1900 H     1 <1>   0.0800 
 39 H       -3.9580    -4.0660     1.2000 H     1 <1>   0.4500 
 40 H       -4.2990    -3.0400    -0.8050 H     1 <1>   0.0800 
 41 H       -3.3920    -4.2960    -1.6470 H     1 <1>   0.0800 
 42 H       -2.7610    -6.5390     0.3250 H     1 <1>   0.0800 
 43 H       -3.9260    -6.2260     1.5930 H     1 <1>   0.0800 
 44 H       -5.7350    -4.9810    -1.8740 H     1 <1>   0.0800 
 45 H       -5.5710    -6.8290     0.1550 H     1 <1>   0.0800 
 46 H       -7.0950    -4.8850    -0.1030 H     1 <1>   0.4000 
 47 H       -3.7060    -6.6600    -2.2240 H     1 <1>   0.0800 
 48 H       -5.1710    -7.5690    -2.1170 H     1 <1>   0.0800 
 49 H       -1.6520    -7.7360    -1.8040 H     1 <1>   0.1500 
 50 H       -6.2020    -8.9040    -0.5180 H     1 <1>   0.1500 
 51 H       -0.3760    -9.5710    -0.9170 H     1 <1>   0.1500 
 52 H       -3.1710   -12.3010     1.3070 H     1 <1>   0.1500 
 53 H       -7.0980   -10.7530     0.7890 H     1 <1>   0.1500 
 54 H       -5.6040   -12.4510     1.7190 H     1 <1>   0.1500 
@<TRIPOS>BOND
  1   1   2  2   
  2   1   3  2   
  3   1   4  am  
  4   1   5  1   
  5   4   6  1   
  6   4   7  1   
  7   5   8  1   
  8   5  27  1   
  9   5  28  1   
 10   6  29  1   
 11   6  30  1   
 12   6  31  1   
 13   7  32  1   
 14   7  33  1   
 15   7  34  1   
 16   8   9  1   
 17   8  35  1   
 18   8  36  1   
 19   9  10  1   
 20   9  37  1   
 21   9  38  1   
 22  10  11  1   
 23  10  12  1   
 24  10  39  1   
 25  11  13  1   
 26  11  40  1   
 27  11  41  1   
 28  12  14  1   
 29  12  42  1   
 30  12  43  1   
 31  13  14  1   
 32  13  15  1   
 33  13  44  1   
 34  14  16  1   
 35  14  45  1   
 36  15  46  1   
 37  16  17  1   
 38  16  47  1   
 39  16  48  1   
 40  17  18  ar  
 41  17  19  ar  
 42  18  20  ar  
 43  18  21  ar  
 44  19  22  ar  
 45  19  49  1   
 46  20  23  ar  
 47  20  24  ar  
 48  21  25  ar  
 49  21  50  1   
 50  22  23  ar  
 51  22  51  1   
 52  24  26  ar  
 53  24  52  1   
 54  25  26  ar  
 55  25  53  1   
 56  26  54  1   
@<TRIPOS>SUBSTRUCTURE
  1 ****  12 GROUP 4 **** **** 0

# MOE 2024.06 (io_trps.svl 2023.06)
