@<TRIPOS>MOLECULE
NONAME
47 50 1 0 0 
SMALL
USER_CHARGES


@<TRIPOS>ATOM
  1 S       -0.2150     0.0780     0.4400 S.3   1 <1>  -0.0800 
  2 C       -1.8110    -0.4900     0.0010 C.ar  1 <1>   0.0400 
  3 C       -0.1200    -1.1940     1.6520 C.2   1 <1>   0.2280 
  4 C       -2.1180    -1.5750     0.8010 C.ar  1 <1>   0.2270 
  5 C       -2.6670     0.0040    -0.9630 C.ar  1 <1>  -0.1500 
  6 N       -1.1430    -1.9450     1.7240 N.2   1 <1>  -0.5650 
  7 C       -3.3440    -2.1950     0.6290 C.ar  1 <1>  -0.1500 
  8 C       -3.8880    -0.6290    -1.1150 C.ar  1 <1>  -0.1500 
  9 C       -4.2520    -1.7290    -0.3220 C.ar  1 <1>   0.0860 
 10 C       -5.5420    -2.3720    -0.4860 C.2   1 <1>   0.5440 
 11 O       -5.5920    -3.5770    -0.6470 O.2   1 <1>  -0.5700 
 12 N       -6.7200    -1.6560    -0.4560 N.am  1 <1>  -0.6600 
 13 C       -7.9970    -2.3010    -0.8790 C.3   1 <1>   0.1400 
 14 C       -6.8150    -0.2850     0.1280 C.3   1 <1>   0.1400 
 15 C       -9.0260    -1.2440    -1.2870 C.3   1 <1>  -0.1600 
 16 C       -8.1600    -0.1250     0.8330 C.3   1 <1>  -0.1600 
 17 C       -9.3320    -0.2210    -0.1660 C.3   1 <1>   0.2800 
 18 O       -9.4220     1.0120    -0.8260 O.3   1 <1>  -0.5600 
 19 C      -10.6510    -0.5710     0.5730 C.3   1 <1>  -0.1600 
 20 C      -10.1640     2.0530    -0.2520 C.3   1 <1>   0.1200 
 21 C      -11.8890     0.1410     0.0120 C.3   1 <1>   0.2800 
 22 C      -11.6400     1.6760    -0.0060 C.3   1 <1>   0.2000 
 23 O      -12.0970    -0.2890    -1.2850 O.3   1 <1>  -0.6800 
 24 C      -13.1590    -0.2760     0.7660 C.3   1 <1>  -0.2400 
 25 O      -12.0120     2.2630     1.2090 O.3   1 <1>  -0.6800 
 26 H        0.7840    -1.2380     2.2340 H     1 <1>   0.1500 
 27 H       -2.3850     0.8480    -1.5690 H     1 <1>   0.1500 
 28 H       -3.5900    -3.0450     1.2380 H     1 <1>   0.1500 
 29 H       -4.5810    -0.2790    -1.8610 H     1 <1>   0.1500 
 30 H       -7.8070    -2.9580    -1.7120 H     1 <1>   0.0800 
 31 H       -8.3750    -2.8950    -0.0650 H     1 <1>   0.0800 
 32 H       -6.0190    -0.1290     0.8360 H     1 <1>   0.0800 
 33 H       -6.7280     0.4460    -0.6580 H     1 <1>   0.0800 
 34 H       -9.9230    -1.7400    -1.6040 H     1 <1>   0.0800 
 35 H       -8.6340    -0.7320    -2.1480 H     1 <1>   0.0800 
 36 H       -8.1870     0.8120     1.3560 H     1 <1>   0.0800 
 37 H       -8.2370    -0.9050     1.5700 H     1 <1>   0.0800 
 38 H      -10.7990    -1.6350     0.5880 H     1 <1>   0.0800 
 39 H      -10.5530    -0.2760     1.6020 H     1 <1>   0.0800 
 40 H       -9.6800     2.3370     0.6650 H     1 <1>   0.0800 
 41 H      -10.1190     2.8840    -0.9320 H     1 <1>   0.0800 
 42 H      -12.2600     2.1250    -0.7620 H     1 <1>   0.0800 
 43 H      -12.3430    -1.2310    -1.2860 H     1 <1>   0.4000 
 44 H      -13.0740    -0.0380     1.8110 H     1 <1>   0.0800 
 45 H      -13.3300    -1.3330     0.6810 H     1 <1>   0.0800 
 46 H      -14.0090     0.2560     0.3740 H     1 <1>   0.0800 
 47 H      -11.5240     1.8540     1.9470 H     1 <1>   0.4000 
@<TRIPOS>BOND
  1   1   2  1   
  2   1   3  1   
  3   2   4  ar  
  4   2   5  ar  
  5   3   6  2   
  6   3  26  1   
  7   4   6  1   
  8   4   7  ar  
  9   5   8  ar  
 10   5  27  1   
 11   7   9  ar  
 12   7  28  1   
 13   8   9  ar  
 14   8  29  1   
 15   9  10  1   
 16  10  11  2   
 17  10  12  am  
 18  12  13  1   
 19  12  14  1   
 20  13  15  1   
 21  13  30  1   
 22  13  31  1   
 23  14  16  1   
 24  14  32  1   
 25  14  33  1   
 26  15  17  1   
 27  15  34  1   
 28  15  35  1   
 29  16  17  1   
 30  16  36  1   
 31  16  37  1   
 32  17  18  1   
 33  17  19  1   
 34  18  20  1   
 35  19  21  1   
 36  19  38  1   
 37  19  39  1   
 38  20  22  1   
 39  20  40  1   
 40  20  41  1   
 41  21  22  1   
 42  21  23  1   
 43  21  24  1   
 44  22  25  1   
 45  22  42  1   
 46  23  43  1   
 47  24  44  1   
 48  24  45  1   
 49  24  46  1   
 50  25  47  1   
@<TRIPOS>SUBSTRUCTURE
  1 ****  14 GROUP 4 **** **** 0

# MOE 2024.06 (io_trps.svl 2023.06)
