@<TRIPOS>MOLECULE
NONAME
38 38 1 0 0 
SMALL
USER_CHARGES


@<TRIPOS>ATOM
  1 O       -1.4130    -0.7710    -0.8070 O.2   1 <1>  -0.5700 
  2 C       -1.9410     0.1570    -0.2350 C.2   1 <1>   0.5690 
  3 N       -2.8830    -0.0890     0.7380 N.am  1 <1>  -0.6600 
  4 C       -1.5000     1.5660    -0.6740 C.3   1 <1>  -0.0190 
  5 C       -3.0870    -1.4910     1.2190 C.3   1 <1>   0.3200 
  6 C       -3.8320     0.9060     1.3220 C.3   1 <1>   0.1400 
  7 C       -0.9670     2.4200     0.5050 C.3   1 <1>  -0.1600 
  8 C       -2.5850     2.2710    -1.5230 C.3   1 <1>  -0.1600 
  9 C       -4.0400    -2.2400     0.3040 C.2   1 <1>   0.0060 
 10 C       -5.2050     0.8260     0.6420 C.3   1 <1>   0.1200 
 11 C        0.3640     3.1190     0.1890 C.3   1 <1>  -0.2400 
 12 C       -2.0920     3.5380    -2.2310 C.3   1 <1>  -0.2400 
 13 N       -5.1910    -2.7220     0.6540 N.2   1 <1>  -0.5650 
 14 N       -3.7340    -2.4560    -0.9920 N.pl3 1 <1>   0.0330 
 15 O       -5.9950     1.8730     1.0950 O.3   1 <1>  -0.6800 
 16 C       -5.6590    -3.2830    -0.4790 C.2   1 <1>   0.0770 
 17 C       -4.7820    -3.1290    -1.4960 C.2   1 <1>  -0.3020 
 18 H       -0.6690     1.3960    -1.3360 H     1 <1>   0.0800 
 19 H       -3.4840    -1.4850     2.2190 H     1 <1>   0.0800 
 20 H       -2.1440    -2.0080     1.2460 H     1 <1>   0.0800 
 21 H       -3.4490     1.9000     1.2080 H     1 <1>   0.0800 
 22 H       -3.9420     0.7160     2.3760 H     1 <1>   0.0800 
 23 H       -0.8040     1.7860     1.3600 H     1 <1>   0.0800 
 24 H       -1.6930     3.1620     0.7870 H     1 <1>   0.0800 
 25 H       -3.4320     2.5320    -0.9160 H     1 <1>   0.0800 
 26 H       -2.9300     1.5790    -2.2730 H     1 <1>   0.0800 
 27 H       -5.7070    -0.0990     0.8670 H     1 <1>   0.0800 
 28 H       -5.1030     0.9290    -0.4240 H     1 <1>   0.0800 
 29 H        1.1260     2.3910    -0.0300 H     1 <1>   0.0800 
 30 H        0.6840     3.6980     1.0370 H     1 <1>   0.0800 
 31 H        0.2670     3.7790    -0.6540 H     1 <1>   0.0800 
 32 H       -1.8560     4.3070    -1.5170 H     1 <1>   0.0800 
 33 H       -2.8610     3.9140    -2.8830 H     1 <1>   0.0800 
 34 H       -1.2180     3.3270    -2.8230 H     1 <1>   0.0800 
 35 H       -2.8690    -2.1300    -1.4490 H     1 <1>   0.2700 
 36 H       -6.3970     1.6540     1.9590 H     1 <1>   0.4000 
 37 H       -6.6170    -3.7760    -0.5040 H     1 <1>   0.1500 
 38 H       -4.8430    -3.4520    -2.5190 H     1 <1>   0.1500 
@<TRIPOS>BOND
  1   1   2  2   
  2   2   3  am  
  3   2   4  1   
  4   3   5  1   
  5   3   6  1   
  6   4   7  1   
  7   4   8  1   
  8   4  18  1   
  9   5   9  1   
 10   5  19  1   
 11   5  20  1   
 12   6  10  1   
 13   6  21  1   
 14   6  22  1   
 15   7  11  1   
 16   7  23  1   
 17   7  24  1   
 18   8  12  1   
 19   8  25  1   
 20   8  26  1   
 21   9  13  2   
 22   9  14  1   
 23  10  15  1   
 24  10  27  1   
 25  10  28  1   
 26  11  29  1   
 27  11  30  1   
 28  11  31  1   
 29  12  32  1   
 30  12  33  1   
 31  12  34  1   
 32  13  16  1   
 33  14  17  1   
 34  14  35  1   
 35  15  36  1   
 36  16  17  2   
 37  16  37  1   
 38  17  38  1   
@<TRIPOS>SUBSTRUCTURE
  1 ****   3 GROUP 4 **** **** 0

# MOE 2024.06 (io_trps.svl 2023.06)
