@<TRIPOS>MOLECULE
NONAME
46 48 1 0 0 
SMALL
USER_CHARGES


@<TRIPOS>ATOM
  1 O       -0.2280    -0.2230     0.6550 O.2   1 <1>  -0.5700 
  2 C       -1.0980     0.3520     0.0460 C.2   1 <1>   0.5690 
  3 N       -2.0170    -0.3220    -0.6850 N.am  1 <1>  -0.7300 
  4 C       -1.1680     1.8750     0.1110 C.3   1 <1>  -0.0190 
  5 C       -2.1420    -1.7880    -0.7440 C.3   1 <1>   0.3200 
  6 C       -2.5440     2.3760     0.5950 C.3   1 <1>  -0.1600 
  7 C       -0.7760     2.5280    -1.2360 C.3   1 <1>  -0.1600 
  8 C       -3.6120    -2.1480    -0.6360 C.2   1 <1>  -0.0400 
  9 C       -2.5580     3.9020     0.8210 C.3   1 <1>   0.2000 
 10 C       -1.3020     3.9680    -1.4020 C.3   1 <1>  -0.1600 
 11 O       -4.4230    -1.7270    -1.6050 O.3   1 <1>  -0.2800 
 12 C       -4.2920    -2.8410     0.3010 C.2   1 <1>  -0.1810 
 13 O       -3.8450     4.3790     0.5100 O.3   1 <1>  -0.5600 
 14 C       -1.5140     4.6520    -0.0490 C.3   1 <1>   0.2000 
 15 C       -5.6510    -2.1530    -1.3080 C.ar  1 <1>   0.1400 
 16 C       -5.6390    -2.8610    -0.1200 C.ar  1 <1>   0.0000 
 17 C       -3.8040    -3.4980     1.5790 C.3   1 <1>  -0.0590 
 18 C       -4.8060     4.1840     1.5010 C.3   1 <1>   0.0400 
 19 O       -1.9570     5.9370    -0.2840 O.3   1 <1>  -0.6800 
 20 C       -6.8170    -1.9540    -2.0350 C.ar  1 <1>  -0.1500 
 21 C       -6.8330    -3.3950     0.3690 C.ar  1 <1>  -0.1500 
 22 C       -7.9930    -2.4850    -1.5450 C.ar  1 <1>  -0.1500 
 23 C       -7.9990    -3.2030    -0.3460 C.ar  1 <1>  -0.1500 
 24 H       -2.7820     0.1710    -1.1490 H     1 <1>   0.3700 
 25 H       -0.4430     2.1810     0.8470 H     1 <1>   0.0800 
 26 H       -1.7520    -2.1420    -1.6820 H     1 <1>   0.0800 
 27 H       -1.5820    -2.2410     0.0550 H     1 <1>   0.0800 
 28 H       -2.8010     1.8790     1.5140 H     1 <1>   0.0800 
 29 H       -3.2830     2.1210    -0.1460 H     1 <1>   0.0800 
 30 H        0.2990     2.5290    -1.3080 H     1 <1>   0.0800 
 31 H       -1.1470     1.9380    -2.0570 H     1 <1>   0.0800 
 32 H       -2.3450     4.1270     1.8520 H     1 <1>   0.0800 
 33 H       -2.2460     3.9370    -1.9190 H     1 <1>   0.0800 
 34 H       -0.6100     4.5390    -1.9970 H     1 <1>   0.0800 
 35 H       -0.5720     4.7170     0.4690 H     1 <1>   0.0800 
 36 H       -4.3280    -3.0860     2.4230 H     1 <1>   0.0800 
 37 H       -2.7510    -3.3350     1.7180 H     1 <1>   0.0800 
 38 H       -3.9880    -4.5570     1.5390 H     1 <1>   0.0800 
 39 H       -5.7330     4.6060     1.1540 H     1 <1>   0.0800 
 40 H       -4.4960     4.6860     2.4010 H     1 <1>   0.0800 
 41 H       -4.9350     3.1310     1.6780 H     1 <1>   0.0800 
 42 H       -2.9400     5.8820    -0.2870 H     1 <1>   0.4000 
 43 H       -6.7820    -1.3990    -2.9550 H     1 <1>   0.1500 
 44 H       -6.8300    -3.9460     1.2910 H     1 <1>   0.1500 
 45 H       -8.9140    -2.3490    -2.0860 H     1 <1>   0.1500 
 46 H       -8.9270    -3.6100     0.0180 H     1 <1>   0.1500 
@<TRIPOS>BOND
  1   1   2  2   
  2   2   3  am  
  3   2   4  1   
  4   3   5  1   
  5   3  24  1   
  6   4   6  1   
  7   4   7  1   
  8   4  25  1   
  9   5   8  1   
 10   5  26  1   
 11   5  27  1   
 12   6   9  1   
 13   6  28  1   
 14   6  29  1   
 15   7  10  1   
 16   7  30  1   
 17   7  31  1   
 18   8  11  1   
 19   8  12  2   
 20   9  13  1   
 21   9  14  1   
 22   9  32  1   
 23  10  14  1   
 24  10  33  1   
 25  10  34  1   
 26  11  15  1   
 27  12  16  1   
 28  12  17  1   
 29  13  18  1   
 30  14  19  1   
 31  14  35  1   
 32  15  16  ar  
 33  15  20  ar  
 34  16  21  ar  
 35  17  36  1   
 36  17  37  1   
 37  17  38  1   
 38  18  39  1   
 39  18  40  1   
 40  18  41  1   
 41  19  42  1   
 42  20  22  ar  
 43  20  43  1   
 44  21  23  ar  
 45  21  44  1   
 46  22  23  ar  
 47  22  45  1   
 48  23  46  1   
@<TRIPOS>SUBSTRUCTURE
  1 ****   3 GROUP 4 **** **** 0

# MOE 2024.06 (io_trps.svl 2023.06)
