@<TRIPOS>MOLECULE
NONAME
61 64 1 0 0 
SMALL
USER_CHARGES


@<TRIPOS>ATOM
  1 O       -0.7790     0.9010     0.4490 O.2   1 <1>  -0.5700 
  2 C       -0.5730     2.0830     0.3110 C.2   1 <1>   0.5770 
  3 N       -1.3870     3.0130     0.9190 N.am  1 <1>  -0.6600 
  4 C        0.5920     2.5220    -0.5790 C.3   1 <1>   0.0530 
  5 C       -1.4000     4.4630     0.6240 C.3   1 <1>   0.1400 
  6 C       -2.4250     2.5970     1.8900 C.3   1 <1>   0.1400 
  7 C        1.6190     1.4230    -0.9780 C.3   1 <1>   0.0000 
  8 C        1.7590     3.2100     0.1820 C.3   1 <1>   0.0000 
  9 C       -2.7490     4.8100    -0.0070 C.3   1 <1>  -0.1600 
 10 C       -3.7950     2.8850     1.2820 C.3   1 <1>  -0.1600 
 11 C        2.7180     2.5020    -0.8090 C.3   1 <1>   0.0000 
 12 C       -3.9390     4.3610     0.8660 C.3   1 <1>   0.4230 
 13 N       -5.2270     4.5600     0.1240 N.4   1 <1>  -0.9590 
 14 C       -5.4230     5.9790    -0.3200 C.3   1 <1>   0.3430 
 15 C       -6.4190     4.1300     0.9240 C.3   1 <1>   0.3430 
 16 C       -6.6860     6.1140    -1.1620 C.3   1 <1>  -0.1600 
 17 C       -7.6900     4.2350     0.0900 C.3   1 <1>  -0.1600 
 18 C       -7.9320     5.6790    -0.3700 C.3   1 <1>   0.2800 
 19 O       -7.9440     6.4470     0.8100 O.3   1 <1>  -0.5600 
 20 C       -9.2750     5.7930    -1.1820 C.3   1 <1>   0.2000 
 21 C       -8.6810     7.6320     0.7790 C.3   1 <1>   0.1200 
 22 O       -9.1690     6.7680    -2.1870 O.3   1 <1>  -0.6800 
 23 C      -10.4850     6.1190    -0.2600 C.3   1 <1>   0.2800 
 24 C      -10.1800     7.3220     0.6560 C.3   1 <1>  -0.1600 
 25 O      -10.7180     5.0230     0.5460 O.3   1 <1>  -0.6800 
 26 C      -11.7970     6.3200    -1.0290 C.3   1 <1>  -0.2400 
 27 H        0.2750     3.0910    -1.4370 H     1 <1>   0.0000 
 28 H       -1.2570     5.0120     1.5410 H     1 <1>   0.0800 
 29 H       -0.6070     4.7350    -0.0500 H     1 <1>   0.0800 
 30 H       -2.3390     1.5470     2.1200 H     1 <1>   0.0800 
 31 H       -2.2930     3.1430     2.8090 H     1 <1>   0.0800 
 32 H        1.7180     0.6320    -0.2530 H     1 <1>   0.0000 
 33 H        1.5090     1.0690    -1.9880 H     1 <1>   0.0000 
 34 H        1.7660     4.2820     0.0990 H     1 <1>   0.0000 
 35 H        1.8720     2.8550     1.1920 H     1 <1>   0.0000 
 36 H       -2.7990     4.3350    -0.9700 H     1 <1>   0.0800 
 37 H       -2.7630     5.8750    -0.1460 H     1 <1>   0.0800 
 38 H       -4.5240     2.6230     2.0250 H     1 <1>   0.0800 
 39 H       -3.9220     2.2400     0.4300 H     1 <1>   0.0800 
 40 H        2.8840     3.0720    -1.7080 H     1 <1>   0.0000 
 41 H        3.6220     2.1380    -0.3550 H     1 <1>   0.0000 
 42 H       -3.9480     4.9630     1.7610 H     1 <1>   0.0800 
 43 H       -5.1870     3.9700    -0.7150 H     1 <1>   0.4500 
 44 H       -5.5070     6.6200     0.5430 H     1 <1>   0.0800 
 45 H       -4.5850     6.3090    -0.9100 H     1 <1>   0.0800 
 46 H       -6.3110     3.1090     1.2470 H     1 <1>   0.0800 
 47 H       -6.5190     4.7550     1.7980 H     1 <1>   0.0800 
 48 H       -6.5950     5.5320    -2.0620 H     1 <1>   0.0800 
 49 H       -6.7830     7.1420    -1.4600 H     1 <1>   0.0800 
 50 H       -8.5110     3.9000     0.6940 H     1 <1>   0.0800 
 51 H       -7.6280     3.5750    -0.7560 H     1 <1>   0.0800 
 52 H       -9.4640     4.8660    -1.6940 H     1 <1>   0.0800 
 53 H       -8.4840     8.1740     1.6880 H     1 <1>   0.0800 
 54 H       -8.3430     8.2240    -0.0550 H     1 <1>   0.0800 
 55 H       -9.9930     6.8010    -2.7120 H     1 <1>   0.4000 
 56 H      -10.6410     8.2060     0.2540 H     1 <1>   0.0800 
 57 H      -10.5970     7.1720     1.6350 H     1 <1>   0.0800 
 58 H      -11.4680     5.2090     1.1410 H     1 <1>   0.4000 
 59 H      -11.7380     7.1870    -1.6620 H     1 <1>   0.0800 
 60 H      -12.6160     6.4700    -0.3480 H     1 <1>   0.0800 
 61 H      -12.0050     5.4630    -1.6460 H     1 <1>   0.0800 
@<TRIPOS>BOND
  1   1   2  2   
  2   2   3  am  
  3   2   4  1   
  4   3   5  1   
  5   3   6  1   
  6   4   7  1   
  7   4   8  1   
  8   4  27  1   
  9   5   9  1   
 10   5  28  1   
 11   5  29  1   
 12   6  10  1   
 13   6  30  1   
 14   6  31  1   
 15   7  11  1   
 16   7  32  1   
 17   7  33  1   
 18   8  11  1   
 19   8  34  1   
 20   8  35  1   
 21   9  12  1   
 22   9  36  1   
 23   9  37  1   
 24  10  12  1   
 25  10  38  1   
 26  10  39  1   
 27  11  40  1   
 28  11  41  1   
 29  12  13  1   
 30  12  42  1   
 31  13  14  1   
 32  13  15  1   
 33  13  43  1   
 34  14  16  1   
 35  14  44  1   
 36  14  45  1   
 37  15  17  1   
 38  15  46  1   
 39  15  47  1   
 40  16  18  1   
 41  16  48  1   
 42  16  49  1   
 43  17  18  1   
 44  17  50  1   
 45  17  51  1   
 46  18  19  1   
 47  18  20  1   
 48  19  21  1   
 49  20  22  1   
 50  20  23  1   
 51  20  52  1   
 52  21  24  1   
 53  21  53  1   
 54  21  54  1   
 55  22  55  1   
 56  23  24  1   
 57  23  25  1   
 58  23  26  1   
 59  24  56  1   
 60  24  57  1   
 61  25  58  1   
 62  26  59  1   
 63  26  60  1   
 64  26  61  1   
@<TRIPOS>SUBSTRUCTURE
  1 ****  13 GROUP 4 **** **** 0

# MOE 2024.06 (io_trps.svl 2023.06)
