@<TRIPOS>MOLECULE
NONAME
44 45 1 0 0 
SMALL
USER_CHARGES


@<TRIPOS>ATOM
  1 O        3.9190    -1.7300     1.6390 O.2   1 <1>  -0.5700 
  2 C        2.7170    -1.6730     1.5140 C.2   1 <1>   0.5690 
  3 N        2.0800    -0.5780     1.0000 N.am  1 <1>  -0.4930 
  4 C        1.9030    -2.8960     1.9400 C.3   1 <1>   0.2370 
  5 C        2.6360     0.6280     0.5090 C.2   1 <1>   0.0630 
  6 N        0.5960    -2.9110     1.2240 N.pl3 1 <1>   0.0480 
  7 C        1.7300    -2.9590     3.4700 C.3   1 <1>  -0.2400 
  8 C        3.9550     1.0820     0.5490 C.2   1 <1>   0.1390 
  9 C        1.9600     1.6080    -0.1240 C.2   1 <1>  -0.3020 
 10 C        0.3790    -3.1160    -0.1050 C.2   1 <1>   0.0060 
 11 C       -0.6190    -2.5920     1.7200 C.2   1 <1>  -0.3020 
 12 N        4.0920     2.2470    -0.0110 N.2   1 <1>  -0.7070 
 13 N        2.8520     2.5770    -0.4310 N.pl3 1 <1>   0.3140 
 14 N       -0.8590    -2.9480    -0.4510 N.2   1 <1>  -0.5650 
 15 C        1.4730    -3.4900    -1.1120 C.3   1 <1>   0.1000 
 16 C       -1.4870    -2.6280     0.6900 C.2   1 <1>   0.0770 
 17 C        2.5410     3.8510    -1.1420 C.3   1 <1>   0.1760 
 18 C        1.6180    -2.4010    -2.1820 C.3   1 <1>  -0.2400 
 19 C        1.1550    -4.8380    -1.7680 C.3   1 <1>  -0.2400 
 20 C        3.3160     3.9380    -2.4640 C.3   1 <1>  -0.2400 
 21 C        2.8500     5.0600    -0.2470 C.3   1 <1>  -0.2400 
 22 H        1.0700    -0.6690     0.8520 H     1 <1>   0.3700 
 23 H        2.4470    -3.7710     1.6370 H     1 <1>   0.0800 
 24 H        1.2550    -2.0670     3.8390 H     1 <1>   0.0800 
 25 H        2.6970    -3.0370     3.9350 H     1 <1>   0.0800 
 26 H        1.1510    -3.8220     3.7480 H     1 <1>   0.0800 
 27 H        4.7700     0.5350     0.9910 H     1 <1>   0.1500 
 28 H        0.9180     1.6700    -0.3710 H     1 <1>   0.1500 
 29 H       -0.8140    -2.3620     2.7510 H     1 <1>   0.1500 
 30 H        2.4210    -3.5860    -0.6160 H     1 <1>   0.0800 
 31 H       -2.5480    -2.4350     0.7070 H     1 <1>   0.1500 
 32 H        1.4890     3.8500    -1.3630 H     1 <1>   0.0800 
 33 H        0.6940    -2.2850    -2.7200 H     1 <1>   0.0800 
 34 H        2.3950    -2.6590    -2.8790 H     1 <1>   0.0800 
 35 H        1.8670    -1.4600    -1.7260 H     1 <1>   0.0800 
 36 H        0.2270    -4.7770    -2.3090 H     1 <1>   0.0800 
 37 H        1.0590    -5.5990    -1.0150 H     1 <1>   0.0800 
 38 H        1.9370    -5.1200    -2.4500 H     1 <1>   0.0800 
 39 H        4.3760     3.9470    -2.2750 H     1 <1>   0.0800 
 40 H        3.0540     4.8380    -2.9910 H     1 <1>   0.0800 
 41 H        3.0800     3.0950    -3.0880 H     1 <1>   0.0800 
 42 H        3.9010     5.0920    -0.0140 H     1 <1>   0.0800 
 43 H        2.2900     4.9950     0.6680 H     1 <1>   0.0800 
 44 H        2.5830     5.9720    -0.7480 H     1 <1>   0.0800 
@<TRIPOS>BOND
  1   1   2  2   
  2   2   3  am  
  3   2   4  1   
  4   3   5  1   
  5   3  22  1   
  6   4   6  1   
  7   4   7  1   
  8   4  23  1   
  9   5   8  1   
 10   5   9  2   
 11   6  10  1   
 12   6  11  1   
 13   7  24  1   
 14   7  25  1   
 15   7  26  1   
 16   8  12  2   
 17   8  27  1   
 18   9  13  1   
 19   9  28  1   
 20  10  14  2   
 21  10  15  1   
 22  11  16  2   
 23  11  29  1   
 24  12  13  1   
 25  13  17  1   
 26  14  16  1   
 27  15  18  1   
 28  15  19  1   
 29  15  30  1   
 30  16  31  1   
 31  17  20  1   
 32  17  21  1   
 33  17  32  1   
 34  18  33  1   
 35  18  34  1   
 36  18  35  1   
 37  19  36  1   
 38  19  37  1   
 39  19  38  1   
 40  20  39  1   
 41  20  40  1   
 42  20  41  1   
 43  21  42  1   
 44  21  43  1   
 45  21  44  1   
@<TRIPOS>SUBSTRUCTURE
  1 ****   3 GROUP 4 **** **** 0

# MOE 2024.06 (io_trps.svl 2023.06)
