@<TRIPOS>MOLECULE
NONAME
47 49 1 0 0 
SMALL
USER_CHARGES


@<TRIPOS>ATOM
  1 O        1.4230    -1.1400     2.2690 O.2   1 <1>  -0.5700 
  2 C        1.4530    -1.0330     1.0660 C.2   1 <1>   0.6300 
  3 N        1.5090     0.1820     0.4690 N.am  1 <1>  -0.7300 
  4 C        1.4470    -2.2800     0.1770 C.3   1 <1>   0.0320 
  5 C        1.6850     1.4630     1.1980 C.3   1 <1>   0.3200 
  6 C        0.0250    -2.7730    -0.0730 C.ar  1 <1>  -0.0320 
  7 C        2.5820    -3.2750     0.2360 C.3   1 <1>  -0.1900 
  8 C        2.4630    -2.3820    -0.9480 C.3   1 <1>  -0.2000 
  9 C        3.0460     2.0720     0.9000 C.2   1 <1>   0.2980 
 10 C       -0.6440    -3.4560     0.9300 C.ar  1 <1>  -0.1500 
 11 C       -0.6180    -2.5430    -1.2800 C.ar  1 <1>  -0.1500 
 12 C        3.7590    -3.0450     1.1950 C.3   1 <1>  -0.1450 
 13 C        2.3140    -4.7730     0.0330 C.3   1 <1>  -0.1450 
 14 O        4.1140     1.4770     1.3690 O.3   1 <1>  -0.0190 
 15 N        3.2610     3.1250     0.2160 N.2   1 <1>  -0.5650 
 16 C       -1.9350    -3.9140     0.7290 C.ar  1 <1>  -0.1500 
 17 C       -1.9100    -2.9980    -1.4850 C.ar  1 <1>  -0.1500 
 18 N        5.0940     2.2150     0.9460 N.2   1 <1>  -0.4100 
 19 C        4.5850     3.1720     0.2770 C.2   1 <1>   0.3350 
 20 C       -2.5680    -3.6850    -0.4800 C.ar  1 <1>  -0.1500 
 21 C        5.3480     4.2890    -0.4110 C.3   1 <1>   0.0210 
 22 C        6.8590     4.1550    -0.2270 C.3   1 <1>   0.1200 
 23 O        7.4740     5.2100    -0.8940 O.3   1 <1>  -0.5600 
 24 C        8.8620     5.2030    -0.7970 C.3   1 <1>   0.0400 
 25 H        1.5690     0.2340    -0.5480 H     1 <1>   0.3700 
 26 H        1.5950     1.3070     2.2600 H     1 <1>   0.0800 
 27 H        0.9150     2.1490     0.8940 H     1 <1>   0.0800 
 28 H        3.1940    -1.6020    -1.0710 H     1 <1>   0.1000 
 29 H        2.1760    -2.8220    -1.8860 H     1 <1>   0.1000 
 30 H       -0.1530    -3.6280     1.8720 H     1 <1>   0.1500 
 31 H       -0.1180    -2.0080    -2.0660 H     1 <1>   0.1500 
 32 H        4.0120    -2.0020     1.2660 H     1 <1>   0.0800 
 33 H        4.6290    -3.5780     0.8550 H     1 <1>   0.0800 
 34 H        3.5020    -3.3950     2.1800 H     1 <1>   0.0800 
 35 H        1.5380    -4.9360    -0.6940 H     1 <1>   0.0800 
 36 H        2.0070    -5.2200     0.9610 H     1 <1>   0.0800 
 37 H        3.2040    -5.2670    -0.3110 H     1 <1>   0.0800 
 38 H       -2.4450    -4.4440     1.5140 H     1 <1>   0.1500 
 39 H       -2.4020    -2.8180    -2.4240 H     1 <1>   0.1500 
 40 H       -3.5720    -4.0410    -0.6380 H     1 <1>   0.1500 
 41 H        5.0220     5.2280    -0.0030 H     1 <1>   0.0800 
 42 H        5.1150     4.2670    -1.4590 H     1 <1>   0.0800 
 43 H        7.2080     3.2270    -0.6470 H     1 <1>   0.0800 
 44 H        7.1160     4.2060     0.8180 H     1 <1>   0.0800 
 45 H        9.2390     6.0510    -1.3420 H     1 <1>   0.0800 
 46 H        9.2450     4.2950    -1.2300 H     1 <1>   0.0800 
 47 H        9.1470     5.2800     0.2380 H     1 <1>   0.0800 
@<TRIPOS>BOND
  1   1   2  2   
  2   2   3  am  
  3   2   4  1   
  4   3   5  1   
  5   3  25  1   
  6   4   6  1   
  7   4   7  1   
  8   4   8  1   
  9   5   9  1   
 10   5  26  1   
 11   5  27  1   
 12   6  10  ar  
 13   6  11  ar  
 14   7   8  1   
 15   7  12  1   
 16   7  13  1   
 17   8  28  1   
 18   8  29  1   
 19   9  14  1   
 20   9  15  2   
 21  10  16  ar  
 22  10  30  1   
 23  11  17  ar  
 24  11  31  1   
 25  12  32  1   
 26  12  33  1   
 27  12  34  1   
 28  13  35  1   
 29  13  36  1   
 30  13  37  1   
 31  14  18  1   
 32  15  19  1   
 33  16  20  ar  
 34  16  38  1   
 35  17  20  ar  
 36  17  39  1   
 37  18  19  2   
 38  19  21  1   
 39  20  40  1   
 40  21  22  1   
 41  21  41  1   
 42  21  42  1   
 43  22  23  1   
 44  22  43  1   
 45  22  44  1   
 46  23  24  1   
 47  24  45  1   
 48  24  46  1   
 49  24  47  1   
@<TRIPOS>SUBSTRUCTURE
  1 ****   3 GROUP 4 **** **** 0

# MOE 2024.06 (io_trps.svl 2023.06)
