@<TRIPOS>MOLECULE
NONAME
59 61 1 0 0 
SMALL
USER_CHARGES


@<TRIPOS>ATOM
  1 O        0.0730     1.1270     0.6320 O.2   1 <1>  -0.5700 
  2 C       -0.0610     2.2890     0.3270 C.2   1 <1>   0.5690 
  3 N       -0.9430     3.1190     0.9630 N.am  1 <1>  -0.6600 
  4 C        0.7690     2.8280    -0.8380 C.3   1 <1>   0.1810 
  5 C       -1.1330     4.5420     0.5280 C.3   1 <1>   0.3640 
  6 C       -1.7290     2.6880     2.1550 C.3   1 <1>   0.0600 
  7 O        0.9390     4.2240    -0.7910 O.3   1 <1>  -0.5600 
  8 C       -2.6230     4.8370     0.2720 C.ar  1 <1>  -0.1430 
  9 C       -0.2680     4.9630    -0.6950 C.3   1 <1>   0.2610 
 10 C       -3.4590     4.0810    -0.5590 C.ar  1 <1>  -0.1430 
 11 C       -3.1580     5.9430     0.9230 C.ar  1 <1>  -0.1500 
 12 C        0.0690     6.4630    -0.6920 C.2   1 <1>   0.5690 
 13 C       -4.7880     4.4520    -0.7110 C.ar  1 <1>  -0.1500 
 14 C       -3.0070     2.8360    -1.3160 C.3   1 <1>  -0.0960 
 15 C       -4.4820     6.3030     0.7640 C.ar  1 <1>  -0.1500 
 16 O       -0.4490     7.2320     0.0860 O.2   1 <1>  -0.5700 
 17 N        0.9940     6.9150    -1.5860 N.am  1 <1>  -0.7300 
 18 C       -5.3010     5.5550    -0.0570 C.ar  1 <1>  -0.1500 
 19 C        1.3560     8.3300    -1.7810 C.3   1 <1>   0.1400 
 20 C        2.4350     8.7100    -0.7660 C.3   1 <1>  -0.1600 
 21 C        2.6900    10.2150    -0.8000 C.3   1 <1>   0.3430 
 22 N        3.5980    10.6180     0.3100 N.4   1 <1>  -0.9590 
 23 C        3.5520    12.0960     0.5110 C.3   1 <1>   0.3430 
 24 C        5.0000    10.1380     0.1120 C.3   1 <1>   0.3430 
 25 C        4.3610    12.4740     1.7530 C.3   1 <1>  -0.1600 
 26 C        5.8410    10.4750     1.3440 C.3   1 <1>  -0.1600 
 27 C        5.8090    11.9760     1.6610 C.3   1 <1>  -0.1600 
 28 H        0.2980     2.5690    -1.7680 H     1 <1>   0.0800 
 29 H        1.7450     2.3800    -0.8090 H     1 <1>   0.0800 
 30 H       -0.8120     5.1450     1.3590 H     1 <1>   0.0800 
 31 H       -1.5620     3.3700     2.9700 H     1 <1>   0.0800 
 32 H       -1.4360     1.7000     2.4680 H     1 <1>   0.0800 
 33 H       -2.7790     2.6740     1.9180 H     1 <1>   0.0800 
 34 H       -0.8250     4.7770    -1.5930 H     1 <1>   0.0800 
 35 H       -2.5410     6.5470     1.5660 H     1 <1>   0.1500 
 36 H       -5.4440     3.8790    -1.3420 H     1 <1>   0.1500 
 37 H       -3.7480     2.5310    -2.0340 H     1 <1>   0.0800 
 38 H       -2.8610     2.0220    -0.6300 H     1 <1>   0.0800 
 39 H       -2.0960     3.0140    -1.8510 H     1 <1>   0.0800 
 40 H       -4.8730     7.1650     1.2770 H     1 <1>   0.1500 
 41 H        1.5180     6.2120    -2.1170 H     1 <1>   0.3700 
 42 H       -6.3330     5.8300    -0.1860 H     1 <1>   0.1500 
 43 H        1.7040     8.4770    -2.7900 H     1 <1>   0.0800 
 44 H        0.4760     8.9350    -1.6310 H     1 <1>   0.0800 
 45 H        3.3320     8.1650    -0.9970 H     1 <1>   0.0800 
 46 H        2.0890     8.4350     0.2160 H     1 <1>   0.0800 
 47 H        1.7450    10.7240    -0.6880 H     1 <1>   0.0800 
 48 H        3.1140    10.4990    -1.7500 H     1 <1>   0.0800 
 49 H        3.2480    10.1880     1.1770 H     1 <1>   0.4500 
 50 H        3.9630    12.5950    -0.3510 H     1 <1>   0.0800 
 51 H        2.5310    12.4210     0.6380 H     1 <1>   0.0800 
 52 H        5.0120     9.0710    -0.0420 H     1 <1>   0.0800 
 53 H        5.4290    10.6110    -0.7570 H     1 <1>   0.0800 
 54 H        4.3610    13.5450     1.8610 H     1 <1>   0.0800 
 55 H        3.8860    12.0650     2.6280 H     1 <1>   0.0800 
 56 H        5.4790     9.9140     2.1880 H     1 <1>   0.0800 
 57 H        6.8580    10.1700     1.1700 H     1 <1>   0.0800 
 58 H        6.3210    12.1650     2.5910 H     1 <1>   0.0800 
 59 H        6.3270    12.5180     0.8870 H     1 <1>   0.0800 
@<TRIPOS>BOND
  1   1   2  2   
  2   2   3  am  
  3   2   4  1   
  4   3   5  1   
  5   3   6  1   
  6   4   7  1   
  7   4  28  1   
  8   4  29  1   
  9   5   8  1   
 10   5   9  1   
 11   5  30  1   
 12   6  31  1   
 13   6  32  1   
 14   6  33  1   
 15   7   9  1   
 16   8  10  ar  
 17   8  11  ar  
 18   9  12  1   
 19   9  34  1   
 20  10  13  ar  
 21  10  14  1   
 22  11  15  ar  
 23  11  35  1   
 24  12  16  2   
 25  12  17  am  
 26  13  18  ar  
 27  13  36  1   
 28  14  37  1   
 29  14  38  1   
 30  14  39  1   
 31  15  18  ar  
 32  15  40  1   
 33  17  19  1   
 34  17  41  1   
 35  18  42  1   
 36  19  20  1   
 37  19  43  1   
 38  19  44  1   
 39  20  21  1   
 40  20  45  1   
 41  20  46  1   
 42  21  22  1   
 43  21  47  1   
 44  21  48  1   
 45  22  23  1   
 46  22  24  1   
 47  22  49  1   
 48  23  25  1   
 49  23  50  1   
 50  23  51  1   
 51  24  26  1   
 52  24  52  1   
 53  24  53  1   
 54  25  27  1   
 55  25  54  1   
 56  25  55  1   
 57  26  27  1   
 58  26  56  1   
 59  26  57  1   
 60  27  58  1   
 61  27  59  1   
@<TRIPOS>SUBSTRUCTURE
  1 ****  12 GROUP 4 **** **** 0

# MOE 2024.06 (io_trps.svl 2023.06)
