@<TRIPOS>MOLECULE
NONAME
60 64 1 0 0 
SMALL
USER_CHARGES


@<TRIPOS>ATOM
  1 O       -0.7680    -0.5900     0.6150 O.3   1 <1>  -0.2800 
  2 C        0.2800    -1.1560     0.0430 C.2   1 <1>  -0.0400 
  3 C       -0.9480     0.5840     0.0410 C.2   1 <1>  -0.0100 
  4 C        0.7860    -0.3550    -0.9200 C.2   1 <1>  -0.1500 
  5 C        0.6940    -2.5310     0.5260 C.3   1 <1>   0.5230 
  6 C       -0.0220     0.7890    -0.9190 C.2   1 <1>  -0.1500 
  7 N       -0.5470    -3.3630     0.6100 N.4   1 <1>  -0.9590 
  8 C       -0.3440    -4.5780     1.4440 C.3   1 <1>   0.3430 
  9 C       -1.1010    -3.6320    -0.7470 C.3   1 <1>   0.3430 
 10 C       -1.6710    -5.3280     1.5810 C.3   1 <1>  -0.1600 
 11 C       -2.4310    -4.3800    -0.6240 C.3   1 <1>  -0.1600 
 12 C       -2.2730    -5.6530     0.2130 C.3   1 <1>   0.4230 
 13 N       -3.5890    -6.3040     0.4170 N.4   1 <1>  -0.9060 
 14 C       -4.1800    -7.0070    -0.7630 C.3   1 <1>   0.4230 
 15 C       -5.5440    -7.5940    -0.3890 C.3   1 <1>  -0.0800 
 16 C       -3.4070    -8.3050    -0.9650 C.3   1 <1>   0.1200 
 17 C       -5.1740    -8.9200     0.2990 C.3   1 <1>   0.1200 
 18 C       -6.5040    -6.7070     0.4340 C.3   1 <1>  -0.0170 
 19 O       -3.7880    -9.0380     0.1500 O.3   1 <1>  -0.5600 
 20 C       -7.8390    -7.4120     0.6370 C.ar  1 <1>  -0.1430 
 21 C       -8.8180    -7.4960    -0.3840 C.ar  1 <1>   0.0000 
 22 C       -8.1270    -8.0010     1.8350 C.ar  1 <1>  -0.1500 
 23 C      -10.0050    -8.2160    -0.0990 C.ar  1 <1>   0.3100 
 24 C       -8.6950    -6.9110    -1.6670 C.ar  1 <1>  -0.1500 
 25 C       -9.3400    -8.6760     2.0170 C.ar  1 <1>   0.1600 
 26 N      -10.2470    -8.7960     1.1020 N.ar  1 <1>  -0.6200 
 27 C      -10.9840    -8.3380    -1.0970 C.ar  1 <1>  -0.1500 
 28 C       -9.6710    -7.0460    -2.6170 C.ar  1 <1>  -0.1500 
 29 C      -10.8300    -7.7720    -2.3320 C.ar  1 <1>  -0.1500 
 30 H       -1.7540     1.2170     0.3730 H     1 <1>   0.1500 
 31 H        1.6280    -0.5040    -1.5750 H     1 <1>   0.1500 
 32 H        1.1400    -2.4320     1.5020 H     1 <1>   0.0800 
 33 H        1.4150    -2.9680    -0.1460 H     1 <1>   0.0800 
 34 H        0.1000     1.6450    -1.5630 H     1 <1>   0.1500 
 35 H       -1.1980    -2.7130     1.0860 H     1 <1>   0.4500 
 36 H        0.3940    -5.2180     0.9850 H     1 <1>   0.0800 
 37 H        0.0160    -4.2980     2.4230 H     1 <1>   0.0800 
 38 H       -1.2610    -2.7000    -1.2710 H     1 <1>   0.0800 
 39 H       -0.3990    -4.2200    -1.3190 H     1 <1>   0.0800 
 40 H       -2.3480    -4.7260     2.1630 H     1 <1>   0.0800 
 41 H       -1.4840    -6.2400     2.1210 H     1 <1>   0.0800 
 42 H       -2.7640    -4.6270    -1.6160 H     1 <1>   0.0800 
 43 H       -3.1550    -3.7200    -0.1810 H     1 <1>   0.0800 
 44 H       -1.6100    -6.3340    -0.2990 H     1 <1>   0.0800 
 45 H       -4.2700    -5.6500     0.8140 H     1 <1>   0.4500 
 46 H       -3.4770    -7.0740     1.1000 H     1 <1>   0.4500 
 47 H       -4.2160    -6.3840    -1.6420 H     1 <1>   0.0800 
 48 H       -6.0440    -7.8560    -1.3060 H     1 <1>   0.0800 
 49 H       -2.3380    -8.1930    -0.9800 H     1 <1>   0.0800 
 50 H       -3.7300    -8.8320    -1.8490 H     1 <1>   0.0800 
 51 H       -5.6490    -9.7620    -0.1790 H     1 <1>   0.0800 
 52 H       -5.4020    -8.9310     1.3520 H     1 <1>   0.0800 
 53 H       -6.6720    -5.7650    -0.0590 H     1 <1>   0.0800 
 54 H       -6.0840    -6.4930     1.4010 H     1 <1>   0.0800 
 55 H       -7.4490    -7.9730     2.6670 H     1 <1>   0.1500 
 56 H       -7.8230    -6.3390    -1.9130 H     1 <1>   0.1500 
 57 H       -9.5300    -9.1270     2.9760 H     1 <1>   0.1500 
 58 H      -11.8700    -8.8970    -0.8530 H     1 <1>   0.1500 
 59 H       -9.5670    -6.5980    -3.5900 H     1 <1>   0.1500 
 60 H      -11.5900    -7.8740    -3.0870 H     1 <1>   0.1500 
@<TRIPOS>BOND
  1   1   2  1   
  2   1   3  1   
  3   2   4  2   
  4   2   5  1   
  5   3   6  2   
  6   3  30  1   
  7   4   6  1   
  8   4  31  1   
  9   5   7  1   
 10   5  32  1   
 11   5  33  1   
 12   6  34  1   
 13   7   8  1   
 14   7   9  1   
 15   7  35  1   
 16   8  10  1   
 17   8  36  1   
 18   8  37  1   
 19   9  11  1   
 20   9  38  1   
 21   9  39  1   
 22  10  12  1   
 23  10  40  1   
 24  10  41  1   
 25  11  12  1   
 26  11  42  1   
 27  11  43  1   
 28  12  13  1   
 29  12  44  1   
 30  13  14  1   
 31  13  45  1   
 32  13  46  1   
 33  14  15  1   
 34  14  16  1   
 35  14  47  1   
 36  15  17  1   
 37  15  18  1   
 38  15  48  1   
 39  16  19  1   
 40  16  49  1   
 41  16  50  1   
 42  17  19  1   
 43  17  51  1   
 44  17  52  1   
 45  18  20  1   
 46  18  53  1   
 47  18  54  1   
 48  20  21  ar  
 49  20  22  ar  
 50  21  23  ar  
 51  21  24  ar  
 52  22  25  ar  
 53  22  55  1   
 54  23  26  ar  
 55  23  27  ar  
 56  24  28  ar  
 57  24  56  1   
 58  25  26  ar  
 59  25  57  1   
 60  27  29  ar  
 61  27  58  1   
 62  28  29  ar  
 63  28  59  1   
 64  29  60  1   
@<TRIPOS>SUBSTRUCTURE
  1 ****  13 GROUP 4 **** **** 0

# MOE 2024.06 (io_trps.svl 2023.06)
