@<TRIPOS>MOLECULE
NONAME
37 38 1 0 0 
SMALL
USER_CHARGES


@<TRIPOS>ATOM
  1 O        1.1970     0.8500     1.2140 O.2   1 <1>  -0.5700 
  2 C        1.7710    -0.1200     0.7720 C.2   1 <1>   0.5690 
  3 N        1.1980    -1.3460     0.8880 N.am  1 <1>  -0.7300 
  4 C        3.1380     0.0440     0.0650 C.3   1 <1>   0.3500 
  5 C        1.6760    -2.5950     0.2510 C.3   1 <1>   0.1400 
  6 N        3.2230     1.2960    -0.7420 N.pl3 1 <1>  -0.8690 
  7 C        3.4460    -1.1390    -0.8620 C.3   1 <1>  -0.1600 
  8 C        3.1520    -2.4720    -0.1540 C.3   1 <1>  -0.1600 
  9 C        4.1460     2.2660    -0.4370 C.ar  1 <1>   0.4100 
 10 N        5.3740     1.8100    -0.2160 N.ar  1 <1>  -0.6200 
 11 C        3.7940     3.6280    -0.3840 C.ar  1 <1>   0.0860 
 12 C        6.3150     2.6990     0.0260 C.ar  1 <1>   0.1670 
 13 C        2.4380     4.0970    -0.5620 C.2   1 <1>   0.5440 
 14 C        4.8140     4.5360    -0.1410 C.ar  1 <1>  -0.1500 
 15 C        6.0940     4.0720     0.0660 C.ar  1 <1>  -0.1440 
 16 C        7.7000     2.1220     0.2570 C.3   1 <1>  -0.0970 
 17 O        2.2060     5.1400    -1.1370 O.2   1 <1>  -0.5700 
 18 N        1.3520     3.4460    -0.0760 N.am  1 <1>  -0.8000 
 19 C        7.2130     5.0730     0.3280 C.3   1 <1>  -0.0970 
 20 H        0.2860    -1.3780     1.3500 H     1 <1>   0.3700 
 21 H        3.8820     0.0680     0.8420 H     1 <1>   0.0800 
 22 H        1.0760    -2.7870    -0.6230 H     1 <1>   0.0800 
 23 H        1.5530    -3.4180     0.9340 H     1 <1>   0.0800 
 24 H        2.2910     1.6520    -0.9830 H     1 <1>   0.4000 
 25 H        4.4810    -1.0940    -1.1500 H     1 <1>   0.0800 
 26 H        2.8400    -1.0650    -1.7480 H     1 <1>   0.0800 
 27 H        3.4060    -3.2900    -0.8050 H     1 <1>   0.0800 
 28 H        3.7670    -2.5580     0.7250 H     1 <1>   0.0800 
 29 H        4.5880     5.5890    -0.1170 H     1 <1>   0.1500 
 30 H        7.6410     1.0600     0.4120 H     1 <1>   0.0800 
 31 H        8.1520     2.5630     1.1260 H     1 <1>   0.0800 
 32 H        8.3160     2.3090    -0.6020 H     1 <1>   0.0800 
 33 H        0.4360     3.8850    -0.1630 H     1 <1>   0.3700 
 34 H        1.3970     2.6360     0.5630 H     1 <1>   0.3700 
 35 H        7.5700     4.9700     1.3370 H     1 <1>   0.0800 
 36 H        6.8650     6.0820     0.1940 H     1 <1>   0.0800 
 37 H        8.0280     4.9080    -0.3530 H     1 <1>   0.0800 
@<TRIPOS>BOND
  1   1   2  2   
  2   2   3  am  
  3   2   4  1   
  4   3   5  1   
  5   3  20  1   
  6   4   6  1   
  7   4   7  1   
  8   4  21  1   
  9   5   8  1   
 10   5  22  1   
 11   5  23  1   
 12   6   9  1   
 13   6  24  1   
 14   7   8  1   
 15   7  25  1   
 16   7  26  1   
 17   8  27  1   
 18   8  28  1   
 19   9  10  ar  
 20   9  11  ar  
 21  10  12  ar  
 22  11  13  1   
 23  11  14  ar  
 24  12  15  ar  
 25  12  16  1   
 26  13  17  2   
 27  13  18  am  
 28  14  15  ar  
 29  14  29  1   
 30  15  19  1   
 31  16  30  1   
 32  16  31  1   
 33  16  32  1   
 34  18  33  1   
 35  18  34  1   
 36  19  35  1   
 37  19  36  1   
 38  19  37  1   
@<TRIPOS>SUBSTRUCTURE
  1 ****   9 GROUP 4 **** **** 0

# MOE 2024.06 (io_trps.svl 2023.06)
