@<TRIPOS>MOLECULE
NONAME
46 49 1 0 0 
SMALL
USER_CHARGES


@<TRIPOS>ATOM
  1 S       -0.0930    -0.4640     0.3560 S.o2  1 <1>   1.4470 
  2 O        0.3010    -1.5190     1.2570 O.2   1 <1>  -0.6500 
  3 O       -1.2840     0.3090     0.6160 O.2   1 <1>  -0.6500 
  4 N       -0.3960    -1.1250    -1.1590 N.am  1 <1>  -0.9140 
  5 C        1.3140     0.6400     0.0530 C.ar  1 <1>  -0.0090 
  6 C       -0.9070    -2.4990    -1.2590 C.3   1 <1>   0.2760 
  7 C        1.2110     2.0100     0.2830 C.ar  1 <1>  -0.1500 
  8 C        2.5300     0.1280    -0.4170 C.ar  1 <1>  -0.1500 
  9 C       -2.0850    -2.8510    -0.3390 C.3   1 <1>  -0.0800 
 10 C        0.1310    -3.5930    -0.9840 C.3   1 <1>   0.1200 
 11 C        2.3020     2.8300     0.0430 C.ar  1 <1>   0.1170 
 12 C        3.6240     0.9450    -0.6580 C.ar  1 <1>  -0.1500 
 13 C       -1.5660    -4.0780     0.4180 C.3   1 <1>   0.1200 
 14 C       -3.3560    -3.1660    -1.1490 C.3   1 <1>  -0.0160 
 15 O       -0.5910    -4.6300    -0.4040 O.3   1 <1>  -0.5600 
 16 N        2.5050     4.1870     0.1720 N.am  1 <1>  -0.4770 
 17 C        3.4830     2.2980    -0.4190 C.ar  1 <1>   0.0830 
 18 C       -4.5280    -3.5160    -0.2450 C.ar  1 <1>  -0.1430 
 19 C        3.7980     4.4190    -0.2150 C.2   1 <1>   0.7800 
 20 C        1.5310     5.1920     0.6520 C.3   1 <1>   0.0600 
 21 O        4.3930     3.2790    -0.5760 O.3   1 <1>  -0.2320 
 22 C       -5.0220    -4.8020    -0.1530 C.ar  1 <1>  -0.1500 
 23 C       -5.1590    -2.5650     0.5310 C.ar  1 <1>  -0.1500 
 24 O        4.3670     5.4930    -0.2430 O.2   1 <1>  -0.5700 
 25 C       -6.0920    -5.0660     0.6870 C.ar  1 <1>   0.1600 
 26 C       -6.2210    -2.9340     1.3390 C.ar  1 <1>   0.1600 
 27 N       -6.7030    -4.1630     1.4360 N.ar  1 <1>  -0.6200 
 28 H       -1.1230    -0.5120    -1.5230 H     1 <1>   0.4200 
 29 H       -1.2140    -2.6420    -2.2810 H     1 <1>   0.0800 
 30 H        0.2930     2.4380     0.6460 H     1 <1>   0.1500 
 31 H        2.6160    -0.9310    -0.5930 H     1 <1>   0.1500 
 32 H       -2.3160    -2.0810     0.3720 H     1 <1>   0.0800 
 33 H        0.8860    -3.2850    -0.2850 H     1 <1>   0.0800 
 34 H        0.5860    -3.9530    -1.8880 H     1 <1>   0.0800 
 35 H        4.5580     0.5510    -1.0190 H     1 <1>   0.1500 
 36 H       -2.3210    -4.8180     0.6180 H     1 <1>   0.0800 
 37 H       -1.0930    -3.7880     1.3410 H     1 <1>   0.0800 
 38 H       -3.1630    -3.9830    -1.8240 H     1 <1>   0.0800 
 39 H       -3.6260    -2.3100    -1.7420 H     1 <1>   0.0800 
 40 H        0.6710     5.2000     0.0060 H     1 <1>   0.0800 
 41 H        1.9820     6.1700     0.6490 H     1 <1>   0.0800 
 42 H        1.2250     4.9500     1.6550 H     1 <1>   0.0800 
 43 H       -4.5870    -5.6020    -0.7240 H     1 <1>   0.1500 
 44 H       -4.8350    -1.5400     0.5180 H     1 <1>   0.1500 
 45 H       -6.4630    -6.0750     0.7460 H     1 <1>   0.1500 
 46 H       -6.6990    -2.1780     1.9380 H     1 <1>   0.1500 
@<TRIPOS>BOND
  1   1   2  2   
  2   1   3  2   
  3   1   4  am  
  4   1   5  1   
  5   4   6  1   
  6   4  28  1   
  7   5   7  ar  
  8   5   8  ar  
  9   6   9  1   
 10   6  10  1   
 11   6  29  1   
 12   7  11  ar  
 13   7  30  1   
 14   8  12  ar  
 15   8  31  1   
 16   9  13  1   
 17   9  14  1   
 18   9  32  1   
 19  10  15  1   
 20  10  33  1   
 21  10  34  1   
 22  11  16  1   
 23  11  17  ar  
 24  12  17  ar  
 25  12  35  1   
 26  13  15  1   
 27  13  36  1   
 28  13  37  1   
 29  14  18  1   
 30  14  38  1   
 31  14  39  1   
 32  16  19  am  
 33  16  20  1   
 34  17  21  1   
 35  18  22  ar  
 36  18  23  ar  
 37  19  21  1   
 38  19  24  2   
 39  20  40  1   
 40  20  41  1   
 41  20  42  1   
 42  22  25  ar  
 43  22  43  1   
 44  23  26  ar  
 45  23  44  1   
 46  25  27  ar  
 47  25  45  1   
 48  26  27  ar  
 49  26  46  1   
@<TRIPOS>SUBSTRUCTURE
  1 ****   1 GROUP 4 **** **** 0

# MOE 2024.06 (io_trps.svl 2023.06)
