@<TRIPOS>MOLECULE
NONAME
31 33 1 0 0 
SMALL
USER_CHARGES


@<TRIPOS>ATOM
  1 F       -3.9480    -2.6580    -3.0690 F     1 <1>  -0.1900 
  2 C       -3.7610    -2.4660    -1.7870 C.ar  1 <1>   0.1900 
  3 C       -3.6480    -1.1770    -1.2920 C.ar  1 <1>   0.1900 
  4 C       -3.6540    -3.5590    -0.9500 C.ar  1 <1>  -0.1500 
  5 F       -3.7300    -0.1450    -2.0910 F     1 <1>  -0.1900 
  6 C       -3.4210    -0.9590     0.0540 C.ar  1 <1>  -0.1500 
  7 C       -3.4240    -3.3660     0.4150 C.ar  1 <1>   0.0860 
  8 C       -3.3070    -2.0560     0.8940 C.ar  1 <1>  -0.1500 
  9 C       -3.3130    -4.4900     1.3240 C.2   1 <1>   0.5440 
 10 O       -2.2370    -4.7680     1.8230 O.2   1 <1>  -0.5700 
 11 N       -4.4040    -5.2440     1.6550 N.am  1 <1>  -0.6600 
 12 C       -5.7490    -4.6790     1.6920 C.3   1 <1>   0.2350 
 13 C       -4.5860    -6.5420     1.0170 C.3   1 <1>   0.2350 
 14 C       -6.3770    -4.9910     0.3380 C.3   1 <1>  -0.2420 
 15 C       -5.5630    -6.3000    -0.1390 C.3   1 <1>  -0.2420 
 16 C       -7.3690    -3.8340     0.2600 C.2   1 <1>   0.9470 
 17 C       -6.6780    -5.7210    -0.8930 C.3   1 <1>  -0.2000 
 18 C       -5.1420    -7.4380    -1.0650 C.2   1 <1>   0.9470 
 19 O       -6.9910    -2.7510    -0.2050 O.co2 1 <1>  -0.9000 
 20 O       -8.4870    -3.9680     0.7720 O.co2 1 <1>  -0.9000 
 21 O       -4.3110    -7.2100    -1.9530 O.co2 1 <1>  -0.9000 
 22 O       -5.5730    -8.5780    -0.8480 O.co2 1 <1>  -0.9000 
 23 H       -3.7560    -4.5550    -1.3490 H     1 <1>   0.1500 
 24 H       -3.3410     0.0440     0.4310 H     1 <1>   0.1500 
 25 H       -3.1310    -1.9120     1.9450 H     1 <1>   0.1500 
 26 H       -6.3090    -5.1820     2.4610 H     1 <1>   0.0800 
 27 H       -5.7270    -3.6250     1.9200 H     1 <1>   0.0800 
 28 H       -3.6420    -6.9530     0.6930 H     1 <1>   0.0800 
 29 H       -5.0320    -7.2170     1.7270 H     1 <1>   0.0800 
 30 H       -6.4640    -5.2430    -1.8350 H     1 <1>   0.1000 
 31 H       -7.6000    -6.2760    -0.9380 H     1 <1>   0.1000 
@<TRIPOS>BOND
  1   1   2  1   
  2   2   3  ar  
  3   2   4  ar  
  4   3   5  1   
  5   3   6  ar  
  6   4   7  ar  
  7   4  23  1   
  8   6   8  ar  
  9   6  24  1   
 10   7   8  ar  
 11   7   9  1   
 12   8  25  1   
 13   9  10  2   
 14   9  11  am  
 15  11  12  1   
 16  11  13  1   
 17  12  14  1   
 18  12  26  1   
 19  12  27  1   
 20  13  15  1   
 21  13  28  1   
 22  13  29  1   
 23  14  15  1   
 24  14  16  1   
 25  14  17  1   
 26  15  17  1   
 27  15  18  1   
 28  16  19  ar  
 29  16  20  ar  
 30  17  30  1   
 31  17  31  1   
 32  18  21  ar  
 33  18  22  ar  
@<TRIPOS>SUBSTRUCTURE
  1 ****   4 GROUP 4 **** **** 0

# MOE 2024.06 (io_trps.svl 2023.06)
