@<TRIPOS>MOLECULE
NONAME
47 49 1 0 0 
SMALL
USER_CHARGES


@<TRIPOS>ATOM
  1 F       -0.4100    -1.1490     0.4380 F     1 <1>  -0.1900 
  2 C       -1.6440    -1.5470     0.6110 C.ar  1 <1>   0.1900 
  3 C       -2.2030    -2.5820    -0.1470 C.ar  1 <1>   0.0830 
  4 C       -2.3710    -0.8860     1.5830 C.ar  1 <1>  -0.1500 
  5 O       -1.5890    -3.3060    -1.1260 O.3   1 <1>  -0.3630 
  6 C       -3.5210    -2.9250     0.1060 C.ar  1 <1>  -0.1500 
  7 C       -3.6860    -1.2520     1.8090 C.ar  1 <1>  -0.1500 
  8 C       -0.2210    -3.1720    -1.4390 C.3   1 <1>   0.0400 
  9 C       -4.2880    -2.2730     1.0700 C.ar  1 <1>   0.0860 
 10 C       -5.6690    -2.6500     1.2950 C.2   1 <1>   0.5440 
 11 O       -5.9180    -3.7780     1.6770 O.2   1 <1>  -0.5700 
 12 N       -6.7010    -1.7600     1.0790 N.am  1 <1>  -0.6600 
 13 C       -8.1230    -2.1350     1.3440 C.3   1 <1>   0.1400 
 14 C       -6.5050    -0.4510     0.3850 C.3   1 <1>   0.1400 
 15 C       -8.9430    -2.2540     0.0290 C.3   1 <1>   0.0000 
 16 C       -7.7730    -0.0010    -0.3560 C.3   1 <1>  -0.1600 
 17 C      -10.4440    -2.1800     0.3960 C.3   1 <1>   0.2000 
 18 C       -8.4720    -1.1980    -1.0160 C.3   1 <1>  -0.1600 
 19 C       -8.8140    -3.6800    -0.5330 C.3   1 <1>  -0.1600 
 20 O      -11.2180    -1.9770    -0.7530 O.3   1 <1>  -0.5600 
 21 C      -10.7740    -3.5740     0.9450 C.3   1 <1>  -0.1600 
 22 C       -9.8130    -4.5450     0.2460 C.3   1 <1>  -0.1600 
 23 C      -12.4630    -1.3930    -0.5330 C.3   1 <1>   0.0400 
 24 H       -1.9110    -0.0980     2.1530 H     1 <1>   0.1500 
 25 H       -3.9700    -3.7230    -0.4590 H     1 <1>   0.1500 
 26 H       -4.2620    -0.7500     2.5670 H     1 <1>   0.1500 
 27 H        0.0210    -3.8950    -2.1970 H     1 <1>   0.0800 
 28 H        0.3610    -3.3640    -0.5550 H     1 <1>   0.0800 
 29 H       -0.0410    -2.1800    -1.8130 H     1 <1>   0.0800 
 30 H       -8.1730    -3.0530     1.9030 H     1 <1>   0.0800 
 31 H       -8.5490    -1.3680     1.9670 H     1 <1>   0.0800 
 32 H       -6.2180     0.2980     1.1030 H     1 <1>   0.0800 
 33 H       -5.7100    -0.5530    -0.3330 H     1 <1>   0.0800 
 34 H       -8.4460     0.4800     0.3320 H     1 <1>   0.0800 
 35 H       -7.5050     0.7240    -1.1040 H     1 <1>   0.0800 
 36 H      -10.6450    -1.3920     1.1010 H     1 <1>   0.0800 
 37 H       -7.7620    -1.6600    -1.6800 H     1 <1>   0.0800 
 38 H       -9.2850    -0.8520    -1.6270 H     1 <1>   0.0800 
 39 H       -9.1040    -3.6790    -1.5710 H     1 <1>   0.0800 
 40 H       -7.8090    -4.0570    -0.4560 H     1 <1>   0.0800 
 41 H      -10.5790    -3.5900     2.0020 H     1 <1>   0.0800 
 42 H      -11.8010    -3.8450     0.7820 H     1 <1>   0.0800 
 43 H       -9.2980    -5.1490     0.9740 H     1 <1>   0.0800 
 44 H      -10.3460    -5.1920    -0.4300 H     1 <1>   0.0800 
 45 H      -12.9680    -1.3210    -1.4800 H     1 <1>   0.0800 
 46 H      -12.3230    -0.4090    -0.1210 H     1 <1>   0.0800 
 47 H      -13.0370    -2.0080     0.1380 H     1 <1>   0.0800 
@<TRIPOS>BOND
  1   1   2  1   
  2   2   3  ar  
  3   2   4  ar  
  4   3   5  1   
  5   3   6  ar  
  6   4   7  ar  
  7   4  24  1   
  8   5   8  1   
  9   6   9  ar  
 10   6  25  1   
 11   7   9  ar  
 12   7  26  1   
 13   8  27  1   
 14   8  28  1   
 15   8  29  1   
 16   9  10  1   
 17  10  11  2   
 18  10  12  am  
 19  12  13  1   
 20  12  14  1   
 21  13  15  1   
 22  13  30  1   
 23  13  31  1   
 24  14  16  1   
 25  14  32  1   
 26  14  33  1   
 27  15  17  1   
 28  15  18  1   
 29  15  19  1   
 30  16  18  1   
 31  16  34  1   
 32  16  35  1   
 33  17  20  1   
 34  17  21  1   
 35  17  36  1   
 36  18  37  1   
 37  18  38  1   
 38  19  22  1   
 39  19  39  1   
 40  19  40  1   
 41  20  23  1   
 42  21  22  1   
 43  21  41  1   
 44  21  42  1   
 45  22  43  1   
 46  22  44  1   
 47  23  45  1   
 48  23  46  1   
 49  23  47  1   
@<TRIPOS>SUBSTRUCTURE
  1 ****  12 GROUP 4 **** **** 0

# MOE 2024.06 (io_trps.svl 2023.06)
