@<TRIPOS>MOLECULE
NONAME
43 46 1 0 0 
SMALL
USER_CHARGES


@<TRIPOS>ATOM
  1 CL      -1.2170    -0.7480    -2.7100 Cl    1 <1>  -0.1230 
  2 C       -1.6520    -1.8860    -1.4550 C.2   1 <1>   0.4120 
  3 N       -2.4820    -1.6290    -0.5120 N.2   1 <1>  -0.4100 
  4 C       -1.1350    -3.1720    -1.3750 C.2   1 <1>  -0.1500 
  5 O       -2.5260    -2.7210     0.2020 O.3   1 <1>  -0.0190 
  6 C       -1.7440    -3.6580    -0.2810 C.2   1 <1>  -0.0400 
  7 C       -1.6610    -5.0080     0.4050 C.3   1 <1>   0.0200 
  8 C       -3.0360    -5.6930     0.4350 C.3   1 <1>  -0.0990 
  9 C       -3.0170    -7.0760     1.0690 C.2   1 <1>   0.5690 
 10 O       -1.9540    -7.5200     1.4350 O.2   1 <1>  -0.5700 
 11 N       -4.1830    -7.7890     1.2050 N.am  1 <1>  -0.6600 
 12 C       -5.5360    -7.3280     0.7830 C.3   1 <1>   0.1400 
 13 C       -4.1900    -9.1490     1.8160 C.3   1 <1>   0.1400 
 14 C       -6.1010    -8.3090    -0.2460 C.3   1 <1>  -0.1600 
 15 C       -4.7470   -10.1540     0.8070 C.3   1 <1>  -0.1600 
 16 C       -6.1350    -9.7420     0.3050 C.3   1 <1>   0.4600 
 17 O       -6.9910    -9.7800     1.4310 O.3   1 <1>  -0.5600 
 18 C       -6.6540   -10.7290    -0.7350 C.2   1 <1>  -0.1400 
 19 C       -8.3770    -9.9070     1.2100 C.3   1 <1>   0.1200 
 20 S       -5.7780   -11.1030    -2.2120 S.3   1 <1>  -0.0800 
 21 C       -7.7990   -11.4200    -0.6760 C.2   1 <1>  -0.1810 
 22 C       -8.7190   -11.2360     0.5100 C.3   1 <1>   0.0210 
 23 C       -7.0320   -12.2340    -2.7050 C.2   1 <1>  -0.1100 
 24 C       -8.0210   -12.2870    -1.7920 C.2   1 <1>  -0.1500 
 25 H       -0.4270    -3.6170    -2.0470 H     1 <1>   0.1500 
 26 H       -1.3010    -4.8740     1.4100 H     1 <1>   0.0800 
 27 H       -0.9580    -5.6310    -0.1210 H     1 <1>   0.0800 
 28 H       -3.4000    -5.7870    -0.5710 H     1 <1>   0.0800 
 29 H       -3.7160    -5.0740     0.9910 H     1 <1>   0.0800 
 30 H       -5.5060    -6.3420     0.3570 H     1 <1>   0.0800 
 31 H       -6.1790    -7.2960     1.6470 H     1 <1>   0.0800 
 32 H       -4.8050    -9.1350     2.7010 H     1 <1>   0.0800 
 33 H       -3.1970    -9.4450     2.1080 H     1 <1>   0.0800 
 34 H       -5.4790    -8.2830    -1.1210 H     1 <1>   0.0800 
 35 H       -7.0850    -8.0070    -0.5470 H     1 <1>   0.0800 
 36 H       -4.8070   -11.1290     1.2540 H     1 <1>   0.0800 
 37 H       -4.0640   -10.2170    -0.0200 H     1 <1>   0.0800 
 38 H       -8.7040    -9.0750     0.6110 H     1 <1>   0.0800 
 39 H       -8.8670    -9.8550     2.1660 H     1 <1>   0.0800 
 40 H       -9.7430   -11.2150     0.1840 H     1 <1>   0.0800 
 41 H       -8.5960   -12.0540     1.1970 H     1 <1>   0.0800 
 42 H       -6.8920   -12.7480    -3.6400 H     1 <1>   0.1500 
 43 H       -8.9010   -12.9010    -1.8570 H     1 <1>   0.1500 
@<TRIPOS>BOND
  1   1   2  1   
  2   2   3  2   
  3   2   4  1   
  4   3   5  1   
  5   4   6  2   
  6   4  25  1   
  7   5   6  1   
  8   6   7  1   
  9   7   8  1   
 10   7  26  1   
 11   7  27  1   
 12   8   9  1   
 13   8  28  1   
 14   8  29  1   
 15   9  10  2   
 16   9  11  am  
 17  11  12  1   
 18  11  13  1   
 19  12  14  1   
 20  12  30  1   
 21  12  31  1   
 22  13  15  1   
 23  13  32  1   
 24  13  33  1   
 25  14  16  1   
 26  14  34  1   
 27  14  35  1   
 28  15  16  1   
 29  15  36  1   
 30  15  37  1   
 31  16  17  1   
 32  16  18  1   
 33  17  19  1   
 34  18  20  1   
 35  18  21  2   
 36  19  22  1   
 37  19  38  1   
 38  19  39  1   
 39  20  23  1   
 40  21  22  1   
 41  21  24  1   
 42  22  40  1   
 43  22  41  1   
 44  23  24  2   
 45  23  42  1   
 46  24  43  1   
@<TRIPOS>SUBSTRUCTURE
  1 ****  12 GROUP 4 **** **** 0

# MOE 2024.06 (io_trps.svl 2023.06)
