@<TRIPOS>MOLECULE
NONAME
45 47 1 0 0 
SMALL
USER_CHARGES


@<TRIPOS>ATOM
  1 S        0.5430     0.4530    -1.6690 S.o2  1 <1>   1.3330 
  2 O       -0.2200     1.3950    -2.4560 O.2   1 <1>  -0.6500 
  3 O        0.7900    -0.8750    -2.1860 O.2   1 <1>  -0.6500 
  4 N       -0.2510     0.2890    -0.1760 N.am  1 <1>  -0.8490 
  5 C        2.1240     1.1840    -1.2400 C.3   1 <1>  -0.0550 
  6 C       -0.8550     1.5390     0.3010 C.3   1 <1>   0.1160 
  7 C       -1.2640    -0.7690    -0.2040 C.3   1 <1>   0.1160 
  8 C        3.0650     0.2470    -0.4510 C.3   1 <1>  -0.0800 
  9 C        4.4640     0.7970    -0.2190 C.3   1 <1>   0.2200 
 10 C        2.6000    -0.0990     0.9680 C.3   1 <1>   0.1200 
 11 N        4.4100     2.2260     0.1610 N.am  1 <1>  -0.7300 
 12 C        4.8950    -0.0250     0.9880 C.3   1 <1>   0.1200 
 13 O        3.7460    -0.1670     1.7670 O.3   1 <1>  -0.5600 
 14 C        4.7060     3.2960    -0.6310 C.2   1 <1>   0.7160 
 15 O        5.0360     3.0850    -1.7850 O.2   1 <1>  -0.5700 
 16 C        4.5950     4.6400    -0.0870 C.2   1 <1>   0.2030 
 17 N        4.1610     4.9430     1.1270 N.2   1 <1>  -0.7070 
 18 C        4.9320     5.8070    -0.7830 C.2   1 <1>  -0.1500 
 19 N        4.2290     6.2820     1.1990 N.pl3 1 <1>   0.3000 
 20 C        4.6900     6.8290     0.0590 C.2   1 <1>  -0.2370 
 21 C        4.8670     8.3210    -0.1360 C.3   1 <1>  -0.0150 
 22 C        5.9590     8.8380    -1.0150 C.3   1 <1>  -0.2000 
 23 C        6.0460     9.0070     0.4730 C.3   1 <1>  -0.2000 
 24 H        2.6220     1.4620    -2.1490 H     1 <1>   0.0800 
 25 H        1.9550     2.0840    -0.6830 H     1 <1>   0.0800 
 26 H       -1.2680     1.3980     1.2850 H     1 <1>   0.0800 
 27 H       -1.6400     1.8580    -0.3660 H     1 <1>   0.0800 
 28 H       -0.1120     2.3160     0.3550 H     1 <1>   0.0800 
 29 H       -1.7390    -0.8590     0.7580 H     1 <1>   0.0800 
 30 H       -0.8030    -1.7140    -0.4400 H     1 <1>   0.0800 
 31 H       -2.0100    -0.5530    -0.9510 H     1 <1>   0.0800 
 32 H        3.1610    -0.6770    -0.9950 H     1 <1>   0.0800 
 33 H        5.1160     0.6520    -1.0650 H     1 <1>   0.0800 
 34 H        2.0880    -1.0460     1.0040 H     1 <1>   0.0800 
 35 H        1.9690     0.6700     1.3790 H     1 <1>   0.0800 
 36 H        4.1300     2.4290     1.1270 H     1 <1>   0.3700 
 37 H        5.6690     0.4520     1.5640 H     1 <1>   0.0800 
 38 H        5.2120    -1.0080     0.6870 H     1 <1>   0.0800 
 39 H        5.3070     5.8360    -1.7910 H     1 <1>   0.1500 
 40 H        3.9610     6.8080     2.0400 H     1 <1>   0.2700 
 41 H        3.9310     8.8540    -0.1580 H     1 <1>   0.1000 
 42 H        6.6220     8.1360    -1.4910 H     1 <1>   0.1000 
 43 H        5.7620     9.7000    -1.6270 H     1 <1>   0.1000 
 44 H        5.9170     9.9900     0.8900 H     1 <1>   0.1000 
 45 H        6.7710     8.4200     1.0100 H     1 <1>   0.1000 
@<TRIPOS>BOND
  1   1   2  2   
  2   1   3  2   
  3   1   4  am  
  4   1   5  1   
  5   4   6  1   
  6   4   7  1   
  7   5   8  1   
  8   5  24  1   
  9   5  25  1   
 10   6  26  1   
 11   6  27  1   
 12   6  28  1   
 13   7  29  1   
 14   7  30  1   
 15   7  31  1   
 16   8   9  1   
 17   8  10  1   
 18   8  32  1   
 19   9  11  1   
 20   9  12  1   
 21   9  33  1   
 22  10  13  1   
 23  10  34  1   
 24  10  35  1   
 25  11  14  am  
 26  11  36  1   
 27  12  13  1   
 28  12  37  1   
 29  12  38  1   
 30  14  15  2   
 31  14  16  1   
 32  16  17  2   
 33  16  18  1   
 34  17  19  1   
 35  18  20  2   
 36  18  39  1   
 37  19  20  1   
 38  19  40  1   
 39  20  21  1   
 40  21  22  1   
 41  21  23  1   
 42  21  41  1   
 43  22  23  1   
 44  22  42  1   
 45  22  43  1   
 46  23  44  1   
 47  23  45  1   
@<TRIPOS>SUBSTRUCTURE
  1 ****  11 GROUP 4 **** **** 0

# MOE 2024.06 (io_trps.svl 2023.06)
