@<TRIPOS>MOLECULE
NONAME
44 46 1 0 0 
SMALL
USER_CHARGES


@<TRIPOS>ATOM
  1 O        1.4370    -0.0240     1.7980 O.3   1 <1>  -0.6800 
  2 C        1.6390    -0.0520     0.4220 C.3   1 <1>   0.2000 
  3 C        2.3260    -1.3630     0.0270 C.3   1 <1>  -0.0800 
  4 C        2.6770     1.0160     0.0530 C.3   1 <1>   0.2090 
  5 C        3.8000    -1.1140     0.3560 C.3   1 <1>   0.2090 
  6 C        1.7680    -2.6540     0.6580 C.3   1 <1>  -0.0170 
  7 N        4.0130     0.3410     0.1260 N.pl3 1 <1>  -0.8380 
  8 C        2.6540    -3.8410     0.3130 C.ar  1 <1>  -0.1440 
  9 C        5.1710     1.0350     0.0470 C.ar  1 <1>   0.7710 
 10 C        3.4280    -4.4730     1.2670 C.ar  1 <1>  -0.1500 
 11 C        2.7400    -4.3420    -0.9710 C.ar  1 <1>  -0.1500 
 12 N        5.1290     2.3320    -0.2230 N.ar  1 <1>  -0.6200 
 13 N        6.3300     0.3820     0.2440 N.ar  1 <1>  -0.1790 
 14 C        4.2420    -5.5310     0.8970 C.ar  1 <1>   0.1600 
 15 C        3.5880    -5.4040    -1.2360 C.ar  1 <1>   0.1600 
 16 C        6.2670     2.9830    -0.2920 C.ar  1 <1>   0.4100 
 17 C        7.5230     1.0210     0.1720 C.ar  1 <1>   0.2110 
 18 N        4.3500    -6.0000    -0.3340 N.ar  1 <1>  -0.6200 
 19 N        6.1530     4.2910    -0.5620 N.pl3 1 <1>  -0.8690 
 20 C        7.5080     2.3470    -0.1020 C.ar  1 <1>  -0.1500 
 21 C        7.1780     5.3500    -0.6270 C.3   1 <1>   0.2090 
 22 C        6.5580     6.6380    -0.1030 C.3   1 <1>  -0.2400 
 23 H        0.6190    -0.4990     2.0420 H     1 <1>   0.4000 
 24 H        0.6950     0.1110    -0.0700 H     1 <1>   0.0800 
 25 H        2.2540    -1.4570    -1.0420 H     1 <1>   0.0800 
 26 H        2.6200     1.8590     0.7220 H     1 <1>   0.0800 
 27 H        2.5110     1.3530    -0.9560 H     1 <1>   0.0800 
 28 H        4.4340    -1.7180    -0.2710 H     1 <1>   0.0800 
 29 H        3.9800    -1.3400     1.3950 H     1 <1>   0.0800 
 30 H        0.7700    -2.8340     0.2970 H     1 <1>   0.0800 
 31 H        1.7160    -2.5580     1.7290 H     1 <1>   0.0800 
 32 H        3.4060    -4.1590     2.2950 H     1 <1>   0.1500 
 33 H        2.1570    -3.9200    -1.7700 H     1 <1>   0.1500 
 34 H        6.2420    -0.6050     0.4540 H     1 <1>   0.4570 
 35 H        4.8360    -6.0160     1.6530 H     1 <1>   0.1500 
 36 H        3.6440    -5.7830    -2.2430 H     1 <1>   0.1500 
 37 H        8.4330     0.4650     0.3320 H     1 <1>   0.1500 
 38 H        5.1980     4.6310    -0.7140 H     1 <1>   0.4000 
 39 H        8.4120     2.9190    -0.1790 H     1 <1>   0.1500 
 40 H        8.0310     5.0910    -0.0240 H     1 <1>   0.0800 
 41 H        7.4950     5.4830    -1.6480 H     1 <1>   0.0800 
 42 H        6.2320     6.5080     0.9140 H     1 <1>   0.0800 
 43 H        5.7220     6.9280    -0.7140 H     1 <1>   0.0800 
 44 H        7.2870     7.4270    -0.1300 H     1 <1>   0.0800 
@<TRIPOS>BOND
  1   1   2  1   
  2   1  23  1   
  3   2   3  1   
  4   2   4  1   
  5   2  24  1   
  6   3   5  1   
  7   3   6  1   
  8   3  25  1   
  9   4   7  1   
 10   4  26  1   
 11   4  27  1   
 12   5   7  1   
 13   5  28  1   
 14   5  29  1   
 15   6   8  1   
 16   6  30  1   
 17   6  31  1   
 18   7   9  1   
 19   8  10  ar  
 20   8  11  ar  
 21   9  12  ar  
 22   9  13  ar  
 23  10  14  ar  
 24  10  32  1   
 25  11  15  ar  
 26  11  33  1   
 27  12  16  ar  
 28  13  17  ar  
 29  13  34  1   
 30  14  18  ar  
 31  14  35  1   
 32  15  18  ar  
 33  15  36  1   
 34  16  19  1   
 35  16  20  ar  
 36  17  20  ar  
 37  17  37  1   
 38  19  21  1   
 39  19  38  1   
 40  20  39  1   
 41  21  22  1   
 42  21  40  1   
 43  21  41  1   
 44  22  42  1   
 45  22  43  1   
 46  22  44  1   
@<TRIPOS>SUBSTRUCTURE
  1 ****   7 GROUP 4 **** **** 0

# MOE 2024.06 (io_trps.svl 2023.06)
