@<TRIPOS>MOLECULE
F2145-1033
28 28 1 0 0 
SMALL
USER_CHARGES


@<TRIPOS>ATOM
  1 O       -5.1900     2.4640     1.6210 O.2   1 <1>  -0.5700 
  2 C       -4.9470     1.7250     0.6960 C.2   1 <1>   0.5690 
  3 N       -3.6610     1.5000     0.2660 N.am  1 <1>  -0.6600 
  4 C       -6.1530     1.0420     0.0380 C.3   1 <1>  -0.0190 
  5 C       -3.2460     0.4870    -0.7440 C.3   1 <1>   0.0600 
  6 C       -2.5200     2.2730     0.8400 C.3   1 <1>   0.0600 
  7 C       -7.2620     2.0670    -0.2880 C.3   1 <1>  -0.1600 
  8 C       -6.7000    -0.0640     0.9620 C.3   1 <1>  -0.1600 
  9 C       -8.5380     1.4010    -0.7950 C.3   1 <1>   0.3430 
 10 C       -7.9970    -0.6780     0.4350 C.3   1 <1>   0.3430 
 11 N       -8.9940     0.4010     0.2050 N.4   1 <1>  -0.9060 
 12 H       -5.8510     0.5970    -0.8910 H     1 <1>   0.0800 
 13 H       -3.8630    -0.3910    -0.6780 H     1 <1>   0.0800 
 14 H       -2.2260     0.1890    -0.5720 H     1 <1>   0.0800 
 15 H       -3.3200     0.9080    -1.7320 H     1 <1>   0.0800 
 16 H       -2.8710     3.0760     1.4650 H     1 <1>   0.0800 
 17 H       -1.9290     2.6970     0.0460 H     1 <1>   0.0800 
 18 H       -1.9020     1.6230     1.4340 H     1 <1>   0.0800 
 19 H       -6.8990     2.7540    -1.0330 H     1 <1>   0.0800 
 20 H       -7.5000     2.6500     0.5860 H     1 <1>   0.0800 
 21 H       -6.8750     0.3370     1.9460 H     1 <1>   0.0800 
 22 H       -5.9600    -0.8390     1.0650 H     1 <1>   0.0800 
 23 H       -8.3450     0.9160    -1.7390 H     1 <1>   0.0800 
 24 H       -9.3000     2.1500    -0.9470 H     1 <1>   0.0800 
 25 H       -8.3770    -1.3890     1.1520 H     1 <1>   0.0800 
 26 H       -7.8020    -1.1990    -0.4890 H     1 <1>   0.0800 
 27 H       -9.8920    -0.0050    -0.0870 H     1 <1>   0.4500 
 28 H       -9.1580     0.8870     1.0970 H     1 <1>   0.4500 
@<TRIPOS>BOND
  1   1   2  2   
  2   2   3  am  
  3   2   4  1   
  4   3   5  1   
  5   3   6  1   
  6   4   7  1   
  7   4   8  1   
  8   4  12  1   
  9   5  13  1   
 10   5  14  1   
 11   5  15  1   
 12   6  16  1   
 13   6  17  1   
 14   6  18  1   
 15   7   9  1   
 16   7  19  1   
 17   7  20  1   
 18   8  10  1   
 19   8  21  1   
 20   8  22  1   
 21   9  11  1   
 22   9  23  1   
 23   9  24  1   
 24  10  11  1   
 25  10  25  1   
 26  10  26  1   
 27  11  27  1   
 28  11  28  1   
@<TRIPOS>SUBSTRUCTURE
  1 ****   4 GROUP 4 **** **** 0

# MOE 2024.06 (io_trps.svl 2023.06)
