@<TRIPOS>MOLECULE
NONAME
53 56 1 0 0 
SMALL
USER_CHARGES


@<TRIPOS>ATOM
  1 O       -0.3330     0.1360    -1.4760 O.2   1 <1>  -0.5700 
  2 C       -1.3630    -0.4510    -1.1890 C.2   1 <1>   0.5440 
  3 N       -1.4100    -1.8180    -1.4240 N.am  1 <1>  -0.6600 
  4 C       -2.4880     0.2990    -0.6280 C.ar  1 <1>   0.3960 
  5 C       -0.2500    -2.7710    -1.2930 C.3   1 <1>   0.2200 
  6 C       -2.6580    -2.4670    -1.9190 C.3   1 <1>   0.1400 
  7 N       -3.3410    -0.2680     0.2010 N.ar  1 <1>  -0.6200 
  8 C       -2.6200     1.6640    -0.9990 C.ar  1 <1>   0.1600 
  9 C       -0.6030    -3.9060    -0.2860 C.3   1 <1>   0.0000 
 10 C        1.1170    -2.1160    -0.9640 C.3   1 <1>   0.3430 
 11 C       -3.0590    -3.6150    -0.9880 C.3   1 <1>  -0.1600 
 12 C       -4.3340     0.5410     0.6470 C.ar  1 <1>   0.3100 
 13 N       -3.5540     2.4670    -0.5970 N.ar  1 <1>  -0.6200 
 14 C        0.5400    -4.9680    -0.2630 C.3   1 <1>  -0.1600 
 15 C       -1.9000    -4.6030    -0.7730 C.3   1 <1>  -0.1600 
 16 C       -0.8780    -3.3480     1.1450 C.3   1 <1>   0.1200 
 17 N        2.0800    -3.0460    -0.2800 N.4   1 <1>  -0.9590 
 18 C       -4.4450     1.8980     0.2530 C.ar  1 <1>   0.3100 
 19 C       -5.2940     0.0190     1.5300 C.ar  1 <1>  -0.1500 
 20 C        1.9210    -4.4560    -0.7010 C.3   1 <1>   0.3430 
 21 O        0.2820    -2.9540     1.8130 O.3   1 <1>  -0.6800 
 22 C        3.4780    -2.5410    -0.2660 C.3   1 <1>   0.3430 
 23 C       -5.5040     2.6660     0.7580 C.ar  1 <1>  -0.1500 
 24 C       -6.3190     0.7920     2.0090 C.ar  1 <1>  -0.1500 
 25 C        4.1020    -2.5700    -1.6610 C.3   1 <1>  -0.2400 
 26 C       -6.4260     2.1300     1.6190 C.ar  1 <1>  -0.1500 
 27 H       -0.1280    -3.2280    -2.2590 H     1 <1>   0.0800 
 28 H       -3.4640    -1.7560    -1.9880 H     1 <1>   0.0800 
 29 H       -2.4810    -2.8530    -2.9090 H     1 <1>   0.0800 
 30 H       -1.8780     2.0590    -1.6730 H     1 <1>   0.1500 
 31 H        0.9470    -1.2810    -0.3060 H     1 <1>   0.0800 
 32 H        1.5400    -1.7380    -1.8790 H     1 <1>   0.0800 
 33 H       -3.3940    -3.2060    -0.0510 H     1 <1>   0.0800 
 34 H       -3.8970    -4.1350    -1.4200 H     1 <1>   0.0800 
 35 H        0.3030    -5.7920    -0.9120 H     1 <1>   0.0800 
 36 H        0.6240    -5.3890     0.7240 H     1 <1>   0.0800 
 37 H       -1.7150    -5.0970    -1.7120 H     1 <1>   0.0800 
 38 H       -2.2040    -5.3590    -0.0690 H     1 <1>   0.0800 
 39 H       -1.3460    -4.1080     1.7490 H     1 <1>   0.0800 
 40 H       -1.5390    -2.4980     1.1080 H     1 <1>   0.0800 
 41 H        1.7300    -3.0370     0.7030 H     1 <1>   0.4500 
 42 H       -5.2000    -1.0110     1.8220 H     1 <1>   0.1500 
 43 H        2.0120    -4.5190    -1.7740 H     1 <1>   0.0800 
 44 H        2.6900    -5.0690    -0.2590 H     1 <1>   0.0800 
 45 H        0.0440    -2.6250     2.7090 H     1 <1>   0.4000 
 46 H        3.4910    -1.5290     0.1100 H     1 <1>   0.0800 
 47 H        4.0720    -3.1470     0.4000 H     1 <1>   0.0800 
 48 H       -5.5690     3.6940     0.4460 H     1 <1>   0.1500 
 49 H       -7.0500     0.3830     2.6860 H     1 <1>   0.1500 
 50 H        3.5640    -1.9390    -2.3450 H     1 <1>   0.0800 
 51 H        4.1510    -3.5700    -2.0490 H     1 <1>   0.0800 
 52 H        5.1080    -2.1950    -1.5980 H     1 <1>   0.0800 
 53 H       -7.2360     2.7280     2.0010 H     1 <1>   0.1500 
@<TRIPOS>BOND
  1   1   2  2   
  2   2   3  am  
  3   2   4  1   
  4   3   5  1   
  5   3   6  1   
  6   4   7  ar  
  7   4   8  ar  
  8   5   9  1   
  9   5  10  1   
 10   5  27  1   
 11   6  11  1   
 12   6  28  1   
 13   6  29  1   
 14   7  12  ar  
 15   8  13  ar  
 16   8  30  1   
 17   9  14  1   
 18   9  15  1   
 19   9  16  1   
 20  10  17  1   
 21  10  31  1   
 22  10  32  1   
 23  11  15  1   
 24  11  33  1   
 25  11  34  1   
 26  12  18  ar  
 27  12  19  ar  
 28  13  18  ar  
 29  14  20  1   
 30  14  35  1   
 31  14  36  1   
 32  15  37  1   
 33  15  38  1   
 34  16  21  1   
 35  16  39  1   
 36  16  40  1   
 37  17  20  1   
 38  17  22  1   
 39  17  41  1   
 40  18  23  ar  
 41  19  24  ar  
 42  19  42  1   
 43  20  43  1   
 44  20  44  1   
 45  21  45  1   
 46  22  25  1   
 47  22  46  1   
 48  22  47  1   
 49  23  26  ar  
 50  23  48  1   
 51  24  26  ar  
 52  24  49  1   
 53  25  50  1   
 54  25  51  1   
 55  25  52  1   
 56  26  53  1   
@<TRIPOS>SUBSTRUCTURE
  1 ****   2 GROUP 4 **** **** 0

# MOE 2024.06 (io_trps.svl 2023.06)
