@<TRIPOS>MOLECULE
NONAME
56 60 1 0 0 
SMALL
USER_CHARGES


@<TRIPOS>ATOM
  1 O       -1.1680     0.3420     1.4750 O.2   1 <1>  -0.5700 
  2 C       -1.9910     1.1270     1.0410 C.2   1 <1>   0.5440 
  3 N       -3.2910     0.6940     0.9080 N.am  1 <1>  -0.6600 
  4 C       -1.6120     2.4780     0.6860 C.ar  1 <1>   0.0860 
  5 C       -3.7600    -0.5750     1.5430 C.3   1 <1>   0.1400 
  6 C       -4.2280     1.2280    -0.1220 C.3   1 <1>   0.1400 
  7 C       -0.5630     2.7760    -0.2200 C.ar  1 <1>   0.0000 
  8 C       -2.2870     3.5470     1.2160 C.ar  1 <1>  -0.1500 
  9 C       -3.9150    -1.6600     0.4520 C.3   1 <1>   0.4230 
 10 C       -4.4290     0.1580    -1.2060 C.3   1 <1>  -0.1600 
 11 C       -0.3060     4.1360    -0.5080 C.ar  1 <1>   0.3100 
 12 C        0.2340     1.8000    -0.8600 C.ar  1 <1>  -0.1500 
 13 C       -1.9620     4.8560     0.8620 C.ar  1 <1>   0.2780 
 14 N       -4.2980    -3.0150     0.9770 N.4   1 <1>  -0.9590 
 15 C       -4.9310    -1.1910    -0.6140 C.3   1 <1>  -0.1060 
 16 N       -1.0100     5.1560     0.0360 N.ar  1 <1>  -0.6200 
 17 C        0.7230     4.4570    -1.4080 C.ar  1 <1>  -0.1500 
 18 C        1.2300     2.1450    -1.7330 C.ar  1 <1>  -0.1500 
 19 C       -2.7570     5.9990     1.4720 C.3   1 <1>  -0.0680 
 20 C       -4.3160    -4.0440    -0.0940 C.3   1 <1>   0.3430 
 21 C       -3.5540    -3.4650     2.1840 C.3   1 <1>   0.2630 
 22 C       -6.3050    -1.0100     0.0610 C.2   1 <1>   0.9060 
 23 C       -5.0090    -2.2360    -1.7520 C.3   1 <1>  -0.1600 
 24 C        1.4790     3.4910    -2.0120 C.ar  1 <1>  -0.1500 
 25 C       -4.2580     5.9660     1.5340 C.3   1 <1>  -0.2000 
 26 C       -3.5690     6.8990     0.5890 C.3   1 <1>  -0.2000 
 27 C       -5.2910    -3.6440    -1.2050 C.3   1 <1>  -0.1600 
 28 O       -6.6090    -1.7510     1.0100 O.co2 1 <1>  -0.9000 
 29 O       -7.0660    -0.1300    -0.3370 O.co2 1 <1>  -0.9000 
 30 H       -3.0460    -0.8860     2.2830 H     1 <1>   0.0800 
 31 H       -4.6980    -0.3930     2.0390 H     1 <1>   0.0800 
 32 H       -5.1710     1.4730     0.3410 H     1 <1>   0.0800 
 33 H       -3.8410     2.1240    -0.5750 H     1 <1>   0.0800 
 34 H       -3.0870     3.3860     1.9160 H     1 <1>   0.1500 
 35 H       -2.9540    -1.7510    -0.0230 H     1 <1>   0.0800 
 36 H       -5.1480     0.5270    -1.9190 H     1 <1>   0.0800 
 37 H       -3.5000     0.0200    -1.7280 H     1 <1>   0.0800 
 38 H        0.0600     0.7590    -0.6540 H     1 <1>   0.1500 
 39 H       -5.3090    -2.8450     1.2350 H     1 <1>   0.4500 
 40 H        0.8980     5.4990    -1.6080 H     1 <1>   0.1500 
 41 H        1.8330     1.3920    -2.2110 H     1 <1>   0.1500 
 42 H       -2.2270     6.4680     2.2820 H     1 <1>   0.1000 
 43 H       -3.3260    -4.1530    -0.5060 H     1 <1>   0.0800 
 44 H       -4.6220    -4.9920     0.3170 H     1 <1>   0.0800 
 45 H       -2.5000    -3.5340     1.9690 H     1 <1>   0.0800 
 46 H       -3.9120    -4.4310     2.5000 H     1 <1>   0.0800 
 47 H       -3.7030    -2.7690     2.9930 H     1 <1>   0.0800 
 48 H       -5.7910    -1.9560    -2.4390 H     1 <1>   0.0800 
 49 H       -4.0810    -2.2510    -2.2980 H     1 <1>   0.0800 
 50 H        2.2660     3.7520    -2.7000 H     1 <1>   0.1500 
 51 H       -4.7930     5.1310     1.1140 H     1 <1>   0.1000 
 52 H       -4.7480     6.3750     2.4000 H     1 <1>   0.1000 
 53 H       -3.5680     7.9540     0.7980 H     1 <1>   0.1000 
 54 H       -3.5860     6.6890    -0.4670 H     1 <1>   0.1000 
 55 H       -5.2260    -4.3580    -2.0060 H     1 <1>   0.0800 
 56 H       -6.2960    -3.6900    -0.8200 H     1 <1>   0.0800 
@<TRIPOS>BOND
  1   1   2  2   
  2   2   3  am  
  3   2   4  1   
  4   3   5  1   
  5   3   6  1   
  6   4   7  ar  
  7   4   8  ar  
  8   5   9  1   
  9   5  30  1   
 10   5  31  1   
 11   6  10  1   
 12   6  32  1   
 13   6  33  1   
 14   7  11  ar  
 15   7  12  ar  
 16   8  13  ar  
 17   8  34  1   
 18   9  14  1   
 19   9  15  1   
 20   9  35  1   
 21  10  15  1   
 22  10  36  1   
 23  10  37  1   
 24  11  16  ar  
 25  11  17  ar  
 26  12  18  ar  
 27  12  38  1   
 28  13  16  ar  
 29  13  19  1   
 30  14  20  1   
 31  14  21  1   
 32  14  39  1   
 33  15  22  1   
 34  15  23  1   
 35  17  24  ar  
 36  17  40  1   
 37  18  24  ar  
 38  18  41  1   
 39  19  25  1   
 40  19  26  1   
 41  19  42  1   
 42  20  27  1   
 43  20  43  1   
 44  20  44  1   
 45  21  45  1   
 46  21  46  1   
 47  21  47  1   
 48  22  28  ar  
 49  22  29  ar  
 50  23  27  1   
 51  23  48  1   
 52  23  49  1   
 53  24  50  1   
 54  25  26  1   
 55  25  51  1   
 56  25  52  1   
 57  26  53  1   
 58  26  54  1   
 59  27  55  1   
 60  27  56  1   
@<TRIPOS>SUBSTRUCTURE
  1 ****   3 GROUP 4 **** **** 0

# MOE 2024.06 (io_trps.svl 2023.06)
