@<TRIPOS>MOLECULE
NONAME
62 67 1 0 0 
SMALL
USER_CHARGES


@<TRIPOS>ATOM
  1 S        0.1580     0.7420     2.2660 S.3   1 <1>  -0.0800 
  2 C        0.1230     2.0640     1.1180 C.2   1 <1>  -0.1400 
  3 C        1.8570     1.0490     2.5950 C.2   1 <1>  -0.1100 
  4 C        1.3170     2.6610     1.0050 C.2   1 <1>  -0.1810 
  5 C       -1.1210     2.4560     0.3690 C.3   1 <1>   0.0200 
  6 C        2.3140     2.0810     1.8600 C.2   1 <1>  -0.1500 
  7 C        1.5240     3.8340     0.0450 C.3   1 <1>   0.4610 
  8 C       -0.8970     3.8790    -0.1690 C.3   1 <1>   0.1200 
  9 O        0.3730     4.0060    -0.7640 O.3   1 <1>  -0.5600 
 10 C        2.6760     3.5380    -0.9210 C.3   1 <1>  -0.1600 
 11 C        1.7930     5.1360     0.8110 C.3   1 <1>  -0.1600 
 12 C        2.9680     4.7330    -1.8310 C.3   1 <1>   0.1400 
 13 C        2.0940     6.2940    -0.1420 C.3   1 <1>   0.1400 
 14 N        3.2680     5.9300    -0.9870 N.am  1 <1>  -0.6600 
 15 C        4.5230     6.5170    -1.0310 C.2   1 <1>   0.5690 
 16 O        5.3800     6.0120    -1.7220 O.2   1 <1>  -0.5700 
 17 C        4.9270     7.8030    -0.2460 C.3   1 <1>   0.0610 
 18 C        4.0510     9.0180    -0.6560 C.3   1 <1>  -0.1600 
 19 C        6.3980     8.2090    -0.5720 C.3   1 <1>  -0.1600 
 20 C        4.8810     7.5810     1.2910 C.3   1 <1>  -0.1600 
 21 C        4.4750    10.2610     0.1320 C.3   1 <1>   0.2800 
 22 C        6.8620     9.4850     0.1720 C.3   1 <1>   0.0000 
 23 C        5.2800     8.8580     2.0510 C.3   1 <1>  -0.0800 
 24 O        3.6440    11.3000    -0.2100 O.3   1 <1>  -0.6800 
 25 C        5.9170    10.6430    -0.2170 C.3   1 <1>  -0.1600 
 26 C        4.3420    10.0080     1.6390 C.3   1 <1>  -0.1600 
 27 C        6.7290     9.2300     1.6900 C.3   1 <1>  -0.1600 
 28 C        8.3260     9.7820    -0.2310 C.3   1 <1>  -0.1600 
 29 C        8.9620    11.0280     0.4080 C.3   1 <1>  -0.2400 
 30 H        2.3400     0.4130     3.3150 H     1 <1>   0.1500 
 31 H       -1.9740     2.4430     1.0220 H     1 <1>   0.0800 
 32 H       -1.2920     1.7720    -0.4430 H     1 <1>   0.0800 
 33 H        3.3200     2.4610     1.8840 H     1 <1>   0.1500 
 34 H       -0.9750     4.5960     0.6280 H     1 <1>   0.0800 
 35 H       -1.6350     4.1130    -0.9160 H     1 <1>   0.0800 
 36 H        2.4280     2.6770    -1.5140 H     1 <1>   0.0800 
 37 H        3.5690     3.3090    -0.3710 H     1 <1>   0.0800 
 38 H        2.6390     4.9960     1.4580 H     1 <1>   0.0800 
 39 H        0.9540     5.3770     1.4360 H     1 <1>   0.0800 
 40 H        2.1120     4.9410    -2.4510 H     1 <1>   0.0800 
 41 H        3.7890     4.4920    -2.4840 H     1 <1>   0.0800 
 42 H        2.2560     7.1830     0.4280 H     1 <1>   0.0800 
 43 H        1.2450     6.4710    -0.7810 H     1 <1>   0.0800 
 44 H        3.0130     8.8390    -0.4730 H     1 <1>   0.0800 
 45 H        4.1700     9.1930    -1.7100 H     1 <1>   0.0800 
 46 H        6.4940     8.3630    -1.6340 H     1 <1>   0.0800 
 47 H        7.0530     7.3940    -0.3140 H     1 <1>   0.0800 
 48 H        5.5530     6.7830     1.5530 H     1 <1>   0.0800 
 49 H        3.9080     7.2850     1.6240 H     1 <1>   0.0800 
 50 H        5.2040     8.6890     3.1120 H     1 <1>   0.0800 
 51 H        3.7610    11.5090    -1.1540 H     1 <1>   0.4000 
 52 H        6.1810    11.5330     0.3240 H     1 <1>   0.0800 
 53 H        6.0040    10.8410    -1.2700 H     1 <1>   0.0800 
 54 H        3.3240     9.7550     1.8790 H     1 <1>   0.0800 
 55 H        4.6050    10.9010     2.1790 H     1 <1>   0.0800 
 56 H        7.0080    10.1090     2.2420 H     1 <1>   0.0800 
 57 H        7.3900     8.4340     1.9870 H     1 <1>   0.0800 
 58 H        8.3750     9.8940    -1.3010 H     1 <1>   0.0800 
 59 H        8.9340     8.9300     0.0220 H     1 <1>   0.0800 
 60 H        8.4250    11.9190     0.1390 H     1 <1>   0.0800 
 61 H        9.9730    11.1330     0.0580 H     1 <1>   0.0800 
 62 H        8.9890    10.9440     1.4790 H     1 <1>   0.0800 
@<TRIPOS>BOND
  1   1   2  1   
  2   1   3  1   
  3   2   4  2   
  4   2   5  1   
  5   3   6  2   
  6   3  30  1   
  7   4   6  1   
  8   4   7  1   
  9   5   8  1   
 10   5  31  1   
 11   5  32  1   
 12   6  33  1   
 13   7   9  1   
 14   7  10  1   
 15   7  11  1   
 16   8   9  1   
 17   8  34  1   
 18   8  35  1   
 19  10  12  1   
 20  10  36  1   
 21  10  37  1   
 22  11  13  1   
 23  11  38  1   
 24  11  39  1   
 25  12  14  1   
 26  12  40  1   
 27  12  41  1   
 28  13  14  1   
 29  13  42  1   
 30  13  43  1   
 31  14  15  am  
 32  15  16  2   
 33  15  17  1   
 34  17  18  1   
 35  17  19  1   
 36  17  20  1   
 37  18  21  1   
 38  18  44  1   
 39  18  45  1   
 40  19  22  1   
 41  19  46  1   
 42  19  47  1   
 43  20  23  1   
 44  20  48  1   
 45  20  49  1   
 46  21  24  1   
 47  21  25  1   
 48  21  26  1   
 49  22  25  1   
 50  22  27  1   
 51  22  28  1   
 52  23  26  1   
 53  23  27  1   
 54  23  50  1   
 55  24  51  1   
 56  25  52  1   
 57  25  53  1   
 58  26  54  1   
 59  26  55  1   
 60  27  56  1   
 61  27  57  1   
 62  28  29  1   
 63  28  58  1   
 64  28  59  1   
 65  29  60  1   
 66  29  61  1   
 67  29  62  1   
@<TRIPOS>SUBSTRUCTURE
  1 ****  14 GROUP 4 **** **** 0

# MOE 2024.06 (io_trps.svl 2023.06)
