@<TRIPOS>MOLECULE
NONAME
41 42 1 0 0 
SMALL
USER_CHARGES


@<TRIPOS>ATOM
  1 O        0.2210     1.8160    -0.9910 O.3   1 <1>  -0.5600 
  2 C       -0.8410     2.2460    -0.2070 C.3   1 <1>   0.1200 
  3 C        0.7210     0.5660    -0.6330 C.3   1 <1>   0.0400 
  4 C       -1.3040     3.5940    -0.7550 C.3   1 <1>   0.0960 
  5 N       -2.3760     4.1390     0.0980 N.pl3 1 <1>   0.0480 
  6 C       -2.3260     5.0310     1.0970 C.2   1 <1>   0.0060 
  7 C       -3.6630     3.7880     0.0790 C.2   1 <1>   0.0360 
  8 N       -3.4870     5.1840     1.6400 N.2   1 <1>  -0.3380 
  9 C       -1.0600     5.7430     1.5700 C.3   1 <1>   0.2900 
 10 N       -4.3410     4.3940     0.9880 N.2   1 <1>  -0.3380 
 11 N       -0.8250     7.0560     0.9310 N.3   1 <1>  -0.8100 
 12 C        0.3210     7.7600     1.5650 C.3   1 <1>   0.2530 
 13 C       -0.7730     7.0390    -0.5360 C.3   1 <1>   0.0300 
 14 C        0.5840     9.1840     1.0440 C.ar  1 <1>   0.1670 
 15 N       -0.2520    10.1140     1.4950 N.ar  1 <1>  -0.6200 
 16 C        1.6460     9.4580     0.1770 C.ar  1 <1>  -0.1440 
 17 C       -0.0530    11.3440     1.0610 C.ar  1 <1>   0.1600 
 18 C        1.8350    10.7560    -0.2570 C.ar  1 <1>  -0.1500 
 19 C        2.6200     8.3910    -0.3110 C.3   1 <1>  -0.0970 
 20 C        0.9590    11.7150     0.1970 C.ar  1 <1>  -0.1500 
 21 H       -0.4980     2.3450     0.8090 H     1 <1>   0.0800 
 22 H       -1.6330     1.5190    -0.2670 H     1 <1>   0.0800 
 23 H        1.5370     0.3300    -1.2930 H     1 <1>   0.0800 
 24 H       -0.0540    -0.1730    -0.7400 H     1 <1>   0.0800 
 25 H        1.0760     0.6000     0.3830 H     1 <1>   0.0800 
 26 H       -1.6810     3.4720    -1.7540 H     1 <1>   0.0800 
 27 H       -0.4770     4.2770    -0.7710 H     1 <1>   0.0800 
 28 H       -4.0720     3.0770    -0.6150 H     1 <1>   0.1500 
 29 H       -0.2070     5.1070     1.4150 H     1 <1>   0.0800 
 30 H       -1.1630     5.8980     2.6310 H     1 <1>   0.0800 
 31 H        1.2050     7.1600     1.4600 H     1 <1>   0.0800 
 32 H        0.1220     7.8460     2.6190 H     1 <1>   0.0800 
 33 H       -1.6870     6.6310    -0.9310 H     1 <1>   0.0800 
 34 H        0.0630     6.4590    -0.8810 H     1 <1>   0.0800 
 35 H       -0.6860     8.0440    -0.9110 H     1 <1>   0.0800 
 36 H       -0.7350    12.0980     1.4150 H     1 <1>   0.1500 
 37 H        2.6350    11.0210    -0.9260 H     1 <1>   0.1500 
 38 H        2.0910     7.5830    -0.7790 H     1 <1>   0.0800 
 39 H        3.1910     8.0080     0.5160 H     1 <1>   0.0800 
 40 H        3.3070     8.7980    -1.0310 H     1 <1>   0.0800 
 41 H        1.0580    12.7390    -0.1110 H     1 <1>   0.1500 
@<TRIPOS>BOND
  1   1   2  1   
  2   1   3  1   
  3   2   4  1   
  4   2  21  1   
  5   2  22  1   
  6   3  23  1   
  7   3  24  1   
  8   3  25  1   
  9   4   5  1   
 10   4  26  1   
 11   4  27  1   
 12   5   6  1   
 13   5   7  1   
 14   6   8  2   
 15   6   9  1   
 16   7  10  2   
 17   7  28  1   
 18   8  10  1   
 19   9  11  1   
 20   9  29  1   
 21   9  30  1   
 22  11  12  1   
 23  11  13  1   
 24  12  14  1   
 25  12  31  1   
 26  12  32  1   
 27  13  33  1   
 28  13  34  1   
 29  13  35  1   
 30  14  15  ar  
 31  14  16  ar  
 32  15  17  ar  
 33  16  18  ar  
 34  16  19  1   
 35  17  20  ar  
 36  17  36  1   
 37  18  20  ar  
 38  18  37  1   
 39  19  38  1   
 40  19  39  1   
 41  19  40  1   
 42  20  41  1   
@<TRIPOS>SUBSTRUCTURE
  1 ****  11 GROUP 4 **** **** 0

# MOE 2024.06 (io_trps.svl 2023.06)
