@<TRIPOS>MOLECULE
NONAME
43 45 1 0 0 
SMALL
USER_CHARGES


@<TRIPOS>ATOM
  1 O       -0.2980     1.0400     0.0720 O.2   1 <1>  -0.5700 
  2 C       -0.3020     2.2420     0.0030 C.2   1 <1>   0.5690 
  3 N       -1.4000     2.9500     0.3430 N.am  1 <1>  -0.7300 
  4 C        0.9290     2.9920    -0.5020 C.3   1 <1>   0.1810 
  5 C       -1.5010     4.4280     0.2390 C.3   1 <1>   0.3640 
  6 O        0.9620     4.3240    -0.0400 O.3   1 <1>  -0.5600 
  7 C       -2.7130     4.7520    -0.6300 C.ar  1 <1>  -0.1440 
  8 C       -0.2070     5.0910    -0.3210 C.3   1 <1>   0.2610 
  9 C       -2.9330     4.0910    -1.8330 C.ar  1 <1>   0.1600 
 10 C       -3.6190     5.7190    -0.2390 C.ar  1 <1>  -0.1500 
 11 C       -0.0500     6.5090     0.2470 C.2   1 <1>   0.5690 
 12 N       -3.9470     4.3140    -2.6520 N.ar  1 <1>  -0.6200 
 13 C       -4.6840     5.9640    -1.0790 C.ar  1 <1>  -0.1500 
 14 O       -0.9930     7.2650     0.2470 O.2   1 <1>  -0.5700 
 15 N        1.1560     6.8910     0.7490 N.am  1 <1>  -0.7300 
 16 C       -4.7990     5.2450    -2.2560 C.ar  1 <1>   0.1600 
 17 C        1.4840     8.2080     1.3280 C.3   1 <1>   0.1400 
 18 C        2.5550     8.8770     0.4700 C.3   1 <1>  -0.1600 
 19 C        2.8720    10.2840     0.9950 C.3   1 <1>   0.0960 
 20 N        3.9510    10.9050     0.2040 N.pl3 1 <1>   0.3140 
 21 N        5.2450    10.7790     0.5480 N.2   1 <1>  -0.7070 
 22 C        3.8120    11.6440    -0.9150 C.2   1 <1>  -0.3020 
 23 C        5.8970    11.4400    -0.3590 C.2   1 <1>   0.1390 
 24 C        5.0520    12.0070    -1.3050 C.2   1 <1>  -0.1500 
 25 H       -2.2260     2.4420     0.6630 H     1 <1>   0.3700 
 26 H        0.9360     2.9990    -1.5760 H     1 <1>   0.0800 
 27 H        1.8160     2.4990    -0.1490 H     1 <1>   0.0800 
 28 H       -1.6740     4.8120     1.2300 H     1 <1>   0.0800 
 29 H       -0.2840     5.1750    -1.3890 H     1 <1>   0.0800 
 30 H       -2.2370     3.3300    -2.1450 H     1 <1>   0.1500 
 31 H       -3.5030     6.2740     0.6770 H     1 <1>   0.1500 
 32 H       -5.4170     6.7090    -0.8280 H     1 <1>   0.1500 
 33 H        1.9050     6.1890     0.7370 H     1 <1>   0.3700 
 34 H       -5.6340     5.4470    -2.9050 H     1 <1>   0.1500 
 35 H        0.5980     8.8220     1.3580 H     1 <1>   0.0800 
 36 H        1.8390     8.0740     2.3360 H     1 <1>   0.0800 
 37 H        2.2020     8.9500    -0.5440 H     1 <1>   0.0800 
 38 H        3.4520     8.2830     0.4920 H     1 <1>   0.0800 
 39 H        3.2000    10.2330     2.0170 H     1 <1>   0.0800 
 40 H        2.0020    10.9120     0.9400 H     1 <1>   0.0800 
 41 H        2.8610    11.8650    -1.3620 H     1 <1>   0.1500 
 42 H        6.9700    11.5330    -0.3670 H     1 <1>   0.1500 
 43 H        5.3530    12.5990    -2.1510 H     1 <1>   0.1500 
@<TRIPOS>BOND
  1   1   2  2   
  2   2   3  am  
  3   2   4  1   
  4   3   5  1   
  5   3  25  1   
  6   4   6  1   
  7   4  26  1   
  8   4  27  1   
  9   5   7  1   
 10   5   8  1   
 11   5  28  1   
 12   6   8  1   
 13   7   9  ar  
 14   7  10  ar  
 15   8  11  1   
 16   8  29  1   
 17   9  12  ar  
 18   9  30  1   
 19  10  13  ar  
 20  10  31  1   
 21  11  14  2   
 22  11  15  am  
 23  12  16  ar  
 24  13  16  ar  
 25  13  32  1   
 26  15  17  1   
 27  15  33  1   
 28  16  34  1   
 29  17  18  1   
 30  17  35  1   
 31  17  36  1   
 32  18  19  1   
 33  18  37  1   
 34  18  38  1   
 35  19  20  1   
 36  19  39  1   
 37  19  40  1   
 38  20  21  1   
 39  20  22  1   
 40  21  23  2   
 41  22  24  2   
 42  22  41  1   
 43  23  24  1   
 44  23  42  1   
 45  24  43  1   
@<TRIPOS>SUBSTRUCTURE
  1 ****  11 GROUP 4 **** **** 0

# MOE 2024.06 (io_trps.svl 2023.06)
