@<TRIPOS>MOLECULE
NONAME
44 46 1 0 0 
SMALL
USER_CHARGES


@<TRIPOS>ATOM
  1 O       -0.3360    -0.0390     0.7950 O.3   1 <1>  -0.6800 
  2 C        0.6560    -0.1670    -0.1670 C.3   1 <1>   0.2000 
  3 C        1.5360    -1.3500     0.2160 C.3   1 <1>  -0.0800 
  4 C        1.6030     1.0340    -0.0400 C.3   1 <1>   0.3430 
  5 C        2.3850    -0.7630     1.3480 C.3   1 <1>   0.3430 
  6 C        2.3860    -1.8490    -0.9750 C.3   1 <1>  -0.0170 
  7 N        2.6210     0.6750     1.0090 N.4   1 <1>  -0.9590 
  8 C        3.5800    -2.6670    -0.5080 C.ar  1 <1>  -0.1440 
  9 C        4.0310     0.8580     0.5490 C.3   1 <1>   0.3430 
 10 C        4.8800    -2.2640    -0.7520 C.ar  1 <1>  -0.1500 
 11 C        3.4290    -3.8480     0.1900 C.ar  1 <1>  -0.1500 
 12 C        4.4320     2.3210     0.3300 C.3   1 <1>   0.0200 
 13 C        5.9330    -3.0250    -0.2740 C.ar  1 <1>   0.1600 
 14 C        4.5510    -4.5360     0.6230 C.ar  1 <1>   0.1600 
 15 C        5.7420     2.3510    -0.4360 C.2   1 <1>   0.0070 
 16 N        5.7970    -4.1430     0.4190 N.ar  1 <1>  -0.6200 
 17 N        6.1950     1.3210    -1.0790 N.2   1 <1>  -0.5650 
 18 N        6.5430     3.4440    -0.5240 N.pl3 1 <1>   0.0480 
 19 C        7.3510     1.7570    -1.6120 C.2   1 <1>   0.0770 
 20 C        7.5770     3.0460    -1.2840 C.2   1 <1>  -0.3020 
 21 C        6.3660     4.7880     0.0580 C.3   1 <1>   0.0160 
 22 H       -1.0690    -0.6740     0.6440 H     1 <1>   0.4000 
 23 H        0.1960    -0.2410    -1.1390 H     1 <1>   0.0800 
 24 H        0.9510    -2.1740     0.5870 H     1 <1>   0.0800 
 25 H        1.0530     1.9230     0.2230 H     1 <1>   0.0800 
 26 H        2.0980     1.1910    -0.9840 H     1 <1>   0.0800 
 27 H        3.3080    -1.3030     1.4850 H     1 <1>   0.0800 
 28 H        1.8160    -0.8180     2.2630 H     1 <1>   0.0800 
 29 H        2.7420    -1.0230    -1.5650 H     1 <1>   0.0800 
 30 H        1.7770    -2.4580    -1.6220 H     1 <1>   0.0800 
 31 H        2.4400     1.2280     1.8580 H     1 <1>   0.4500 
 32 H        4.7130     0.4200     1.2600 H     1 <1>   0.0800 
 33 H        4.1600     0.3300    -0.3810 H     1 <1>   0.0800 
 34 H        5.1020    -1.3730    -1.3130 H     1 <1>   0.1500 
 35 H        2.4550    -4.2490     0.4040 H     1 <1>   0.1500 
 36 H        4.5530     2.8070     1.2800 H     1 <1>   0.0800 
 37 H        3.6940     2.8410    -0.2510 H     1 <1>   0.0800 
 38 H        6.9410    -2.6960    -0.4710 H     1 <1>   0.1500 
 39 H        4.4180    -5.4560     1.1670 H     1 <1>   0.1500 
 40 H        7.9720     1.1130    -2.2150 H     1 <1>   0.1500 
 41 H        8.4030     3.6820    -1.5480 H     1 <1>   0.1500 
 42 H        7.1390     5.4410    -0.3060 H     1 <1>   0.0800 
 43 H        6.4300     4.7260     1.1280 H     1 <1>   0.0800 
 44 H        5.4080     5.1810    -0.2290 H     1 <1>   0.0800 
@<TRIPOS>BOND
  1   1   2  1   
  2   1  22  1   
  3   2   3  1   
  4   2   4  1   
  5   2  23  1   
  6   3   5  1   
  7   3   6  1   
  8   3  24  1   
  9   4   7  1   
 10   4  25  1   
 11   4  26  1   
 12   5   7  1   
 13   5  27  1   
 14   5  28  1   
 15   6   8  1   
 16   6  29  1   
 17   6  30  1   
 18   7   9  1   
 19   7  31  1   
 20   8  10  ar  
 21   8  11  ar  
 22   9  12  1   
 23   9  32  1   
 24   9  33  1   
 25  10  13  ar  
 26  10  34  1   
 27  11  14  ar  
 28  11  35  1   
 29  12  15  1   
 30  12  36  1   
 31  12  37  1   
 32  13  16  ar  
 33  13  38  1   
 34  14  16  ar  
 35  14  39  1   
 36  15  17  2   
 37  15  18  1   
 38  17  19  1   
 39  18  20  1   
 40  18  21  1   
 41  19  20  2   
 42  19  40  1   
 43  20  41  1   
 44  21  42  1   
 45  21  43  1   
 46  21  44  1   
@<TRIPOS>SUBSTRUCTURE
  1 ****   9 GROUP 4 **** **** 0

# MOE 2024.06 (io_trps.svl 2023.06)
