@<TRIPOS>MOLECULE
NONAME
48 51 1 0 0 
SMALL
USER_CHARGES


@<TRIPOS>ATOM
  1 O       -1.1980     0.0670     1.0140 O.2   1 <1>  -0.5700 
  2 C       -1.6730     0.6940     0.0820 C.2   1 <1>   0.6900 
  3 N       -2.6770     0.1280    -0.6570 N.am  1 <1>  -0.6600 
  4 N       -1.2310     1.9660    -0.1960 N.am  1 <1>  -0.6600 
  5 C       -3.9940     0.8240    -0.7360 C.3   1 <1>   0.1400 
  6 C       -2.8270    -1.3590    -0.6760 C.3   1 <1>   0.1400 
  7 C       -0.3560     2.6990     0.7590 C.3   1 <1>   0.0600 
  8 C       -1.3250     2.5780    -1.5490 C.3   1 <1>   0.0600 
  9 C       -4.9790     0.2530     0.3040 C.3   1 <1>   0.3440 
 10 C       -3.8610    -1.8210     0.3670 C.3   1 <1>   0.3440 
 11 O       -5.0760    -1.1400     0.1730 O.3   1 <1>  -0.5600 
 12 C       -6.3590     0.8780     0.1240 C.ar  1 <1>  -0.1440 
 13 C       -4.0920    -3.3260     0.2640 C.ar  1 <1>  -0.1440 
 14 C       -6.7030     1.9970     0.8780 C.ar  1 <1>  -0.1500 
 15 C       -7.2730     0.3560    -0.7950 C.ar  1 <1>  -0.1500 
 16 C       -5.0630    -3.8600    -0.5720 C.ar  1 <1>  -0.1500 
 17 C       -3.3030    -4.1870     1.0140 C.ar  1 <1>  -0.1500 
 18 C       -7.9490     2.5610     0.6850 C.ar  1 <1>   0.0820 
 19 C       -8.5220     0.9360    -0.9750 C.ar  1 <1>  -0.1500 
 20 C       -5.2430    -5.2300    -0.6570 C.ar  1 <1>  -0.1500 
 21 C       -3.4800    -5.5570     0.9300 C.ar  1 <1>  -0.1500 
 22 O       -8.4780     3.6290     1.2910 O.3   1 <1>  -0.3620 
 23 C       -8.8330     2.0460    -0.2170 C.ar  1 <1>   0.0820 
 24 C       -4.4500    -6.0800     0.0940 C.ar  1 <1>  -0.1500 
 25 C       -9.7850     3.8010     0.7460 C.3   1 <1>   0.4000 
 26 O       -9.9600     2.7660    -0.2190 O.3   1 <1>  -0.3620 
 27 H       -3.8710     1.8760    -0.5550 H     1 <1>   0.0800 
 28 H       -4.4050     0.7020    -1.7220 H     1 <1>   0.0800 
 29 H       -3.1440    -1.6750    -1.6540 H     1 <1>   0.0800 
 30 H       -1.8810    -1.8280    -0.4700 H     1 <1>   0.0800 
 31 H       -0.6230     3.7410     0.7750 H     1 <1>   0.0800 
 32 H        0.6720     2.5970     0.4590 H     1 <1>   0.0800 
 33 H       -0.4680     2.3010     1.7530 H     1 <1>   0.0800 
 34 H       -1.9730     3.4350    -1.5150 H     1 <1>   0.0800 
 35 H       -1.7130     1.8710    -2.2620 H     1 <1>   0.0800 
 36 H       -0.3480     2.8860    -1.8780 H     1 <1>   0.0800 
 37 H       -4.6190     0.4660     1.2970 H     1 <1>   0.0800 
 38 H       -3.5030    -1.5850     1.3550 H     1 <1>   0.0800 
 39 H       -6.0320     2.4290     1.5980 H     1 <1>   0.1500 
 40 H       -7.0100    -0.5130    -1.3730 H     1 <1>   0.1500 
 41 H       -5.6870    -3.2080    -1.1570 H     1 <1>   0.1500 
 42 H       -2.5430    -3.7940     1.6680 H     1 <1>   0.1500 
 43 H       -9.2320     0.5410    -1.6780 H     1 <1>   0.1500 
 44 H       -6.0000    -5.6330    -1.3070 H     1 <1>   0.1500 
 45 H       -2.8630    -6.2160     1.5150 H     1 <1>   0.1500 
 46 H       -4.5900    -7.1450     0.0280 H     1 <1>   0.1500 
 47 H      -10.5180     3.6950     1.5260 H     1 <1>   0.0800 
 48 H       -9.8510     4.7600     0.2630 H     1 <1>   0.0800 
@<TRIPOS>BOND
  1   1   2  2   
  2   2   3  am  
  3   2   4  am  
  4   3   5  1   
  5   3   6  1   
  6   4   7  1   
  7   4   8  1   
  8   5   9  1   
  9   5  27  1   
 10   5  28  1   
 11   6  10  1   
 12   6  29  1   
 13   6  30  1   
 14   7  31  1   
 15   7  32  1   
 16   7  33  1   
 17   8  34  1   
 18   8  35  1   
 19   8  36  1   
 20   9  11  1   
 21   9  12  1   
 22   9  37  1   
 23  10  11  1   
 24  10  13  1   
 25  10  38  1   
 26  12  14  ar  
 27  12  15  ar  
 28  13  16  ar  
 29  13  17  ar  
 30  14  18  ar  
 31  14  39  1   
 32  15  19  ar  
 33  15  40  1   
 34  16  20  ar  
 35  16  41  1   
 36  17  21  ar  
 37  17  42  1   
 38  18  22  1   
 39  18  23  ar  
 40  19  23  ar  
 41  19  43  1   
 42  20  24  ar  
 43  20  44  1   
 44  21  24  ar  
 45  21  45  1   
 46  22  25  1   
 47  23  26  1   
 48  24  46  1   
 49  25  26  1   
 50  25  47  1   
 51  25  48  1   
@<TRIPOS>SUBSTRUCTURE
  1 ****   9 GROUP 4 **** **** 0

# MOE 2024.06 (io_trps.svl 2023.06)
