@<TRIPOS>MOLECULE
NONAME
49 52 1 0 0 
SMALL
USER_CHARGES


@<TRIPOS>ATOM
  1 S       -0.1610     0.1130     0.5730 S.3   1 <1>  -0.0800 
  2 C        1.4990    -0.4080     0.7870 C.2   1 <1>   0.4620 
  3 C       -0.6240    -1.5540     0.3660 C.2   1 <1>  -0.1100 
  4 N        1.6690    -1.6730     0.7100 N.2   1 <1>  -0.5650 
  5 N        2.4560     0.5240     1.0100 N.pl3 1 <1>  -0.8840 
  6 C        0.4730    -2.3250     0.4730 C.2   1 <1>   0.0460 
  7 C        0.5540    -3.8400     0.3630 C.3   1 <1>   0.0210 
  8 C       -0.8080    -4.5070     0.1070 C.3   1 <1>  -0.0990 
  9 C       -0.7360    -6.0220    -0.0050 C.2   1 <1>   0.5690 
 10 O        0.3280    -6.5760     0.1350 O.2   1 <1>  -0.5700 
 11 N       -1.8780    -6.7270    -0.2620 N.am  1 <1>  -0.6600 
 12 C       -3.2460    -6.1720    -0.4070 C.3   1 <1>   0.1400 
 13 C       -1.9000    -8.2060    -0.3690 C.3   1 <1>   0.1400 
 14 C       -4.1540    -7.3870    -0.6090 C.3   1 <1>   0.2000 
 15 C       -3.3570    -8.5940    -0.1160 C.3   1 <1>  -0.0800 
 16 O       -5.3280    -7.2670     0.1170 O.3   1 <1>  -0.6800 
 17 C       -3.7810    -9.9050    -0.7990 C.3   1 <1>  -0.0170 
 18 C       -2.9580   -11.0800    -0.3010 C.ar  1 <1>   0.1670 
 19 N       -1.8510   -11.3410    -0.9260 N.ar  1 <1>  -0.6200 
 20 C       -3.4200   -11.8140     0.8030 C.ar  1 <1>  -0.1500 
 21 C       -1.1010   -12.3810    -0.4780 C.ar  1 <1>   0.3100 
 22 C       -2.6900   -12.8640     1.2720 C.ar  1 <1>  -0.1500 
 23 C       -1.4830   -13.1760     0.6250 C.ar  1 <1>   0.0000 
 24 C        0.1040   -12.6800    -1.1320 C.ar  1 <1>  -0.1500 
 25 C       -0.6460   -14.2360     1.0270 C.ar  1 <1>  -0.1500 
 26 C        0.9040   -13.7150    -0.7250 C.ar  1 <1>  -0.1500 
 27 C        0.5240   -14.5010     0.3670 C.ar  1 <1>  -0.1500 
 28 H       -1.6620    -1.7620     0.1890 H     1 <1>   0.1500 
 29 H        2.2510     1.5210     1.0620 H     1 <1>   0.4000 
 30 H        3.4230     0.2240     1.1360 H     1 <1>   0.4000 
 31 H        1.2300    -4.0890    -0.4380 H     1 <1>   0.0800 
 32 H        0.9760    -4.2260     1.2740 H     1 <1>   0.0800 
 33 H       -1.2170    -4.1220    -0.8080 H     1 <1>   0.0800 
 34 H       -1.4710    -4.2620     0.9150 H     1 <1>   0.0800 
 35 H       -3.5140    -5.6360     0.4860 H     1 <1>   0.0800 
 36 H       -3.2940    -5.5210    -1.2630 H     1 <1>   0.0800 
 37 H       -1.5920    -8.4910    -1.3610 H     1 <1>   0.0800 
 38 H       -1.2370    -8.6610     0.3490 H     1 <1>   0.0800 
 39 H       -4.4070    -7.4820    -1.6520 H     1 <1>   0.0800 
 40 H       -3.4740    -8.6930     0.9490 H     1 <1>   0.0800 
 41 H       -5.1340    -7.2350     1.0730 H     1 <1>   0.4000 
 42 H       -3.6580    -9.8200    -1.8640 H     1 <1>   0.0800 
 43 H       -4.8240   -10.0890    -0.6080 H     1 <1>   0.0800 
 44 H       -4.3490   -11.5380     1.2680 H     1 <1>   0.1500 
 45 H       -3.0100   -13.4490     2.1150 H     1 <1>   0.1500 
 46 H        0.3790   -12.0640    -1.9680 H     1 <1>   0.1500 
 47 H       -0.9430   -14.8360     1.8680 H     1 <1>   0.1500 
 48 H        1.8270   -13.9330    -1.2360 H     1 <1>   0.1500 
 49 H        1.1620   -15.3110     0.6760 H     1 <1>   0.1500 
@<TRIPOS>BOND
  1   1   2  1   
  2   1   3  1   
  3   2   4  2   
  4   2   5  1   
  5   3   6  2   
  6   3  28  1   
  7   4   6  1   
  8   5  29  1   
  9   5  30  1   
 10   6   7  1   
 11   7   8  1   
 12   7  31  1   
 13   7  32  1   
 14   8   9  1   
 15   8  33  1   
 16   8  34  1   
 17   9  10  2   
 18   9  11  am  
 19  11  12  1   
 20  11  13  1   
 21  12  14  1   
 22  12  35  1   
 23  12  36  1   
 24  13  15  1   
 25  13  37  1   
 26  13  38  1   
 27  14  15  1   
 28  14  16  1   
 29  14  39  1   
 30  15  17  1   
 31  15  40  1   
 32  16  41  1   
 33  17  18  1   
 34  17  42  1   
 35  17  43  1   
 36  18  19  ar  
 37  18  20  ar  
 38  19  21  ar  
 39  20  22  ar  
 40  20  44  1   
 41  21  23  ar  
 42  21  24  ar  
 43  22  23  ar  
 44  22  45  1   
 45  23  25  ar  
 46  24  26  ar  
 47  24  46  1   
 48  25  27  ar  
 49  25  47  1   
 50  26  27  ar  
 51  26  48  1   
 52  27  49  1   
@<TRIPOS>SUBSTRUCTURE
  1 ****  13 GROUP 4 **** **** 0

# MOE 2024.06 (io_trps.svl 2023.06)
