@<TRIPOS>MOLECULE
NONAME
49 52 1 0 0 
SMALL
USER_CHARGES


@<TRIPOS>ATOM
  1 O        2.6570    -0.8900    -2.8420 O.2   1 <1>  -0.5700 
  2 C        2.1530    -1.2290    -1.7830 C.2   1 <1>   0.5440 
  3 N        1.8320    -0.2200    -0.8900 N.am  1 <1>  -0.6600 
  4 C        1.9530    -2.6580    -1.5230 C.ar  1 <1>   0.3960 
  5 C        2.1380     1.2050    -1.1490 C.3   1 <1>   0.1400 
  6 C        1.3290    -0.4050     0.4920 C.3   1 <1>   0.1400 
  7 N        0.9510    -3.0950    -0.7410 N.ar  1 <1>  -0.6200 
  8 C        2.8410    -3.5550    -2.1240 C.ar  1 <1>   0.1600 
  9 C        2.1720     1.8490     0.2310 C.3   1 <1>  -0.1600 
 10 C        1.2210     1.0020     1.0720 C.3   1 <1>  -0.1600 
 11 C        0.8960    -4.4090    -0.5990 C.ar  1 <1>   0.4100 
 12 N        2.8190    -4.8730    -1.9910 N.ar  1 <1>  -0.6200 
 13 N       -0.1350    -4.8980     0.2010 N.pl3 1 <1>  -0.8380 
 14 C        1.8310    -5.2610    -1.2130 C.ar  1 <1>   0.1600 
 15 C       -1.1970    -4.0070     0.7610 C.3   1 <1>   0.2090 
 16 C       -0.6660    -6.2770     0.0530 C.3   1 <1>   0.2090 
 17 C       -2.4350    -4.8910     0.9260 C.3   1 <1>   0.2000 
 18 C       -1.9170    -6.3260     0.9270 C.3   1 <1>  -0.0800 
 19 O       -3.1080    -4.6320     2.1110 O.3   1 <1>  -0.6800 
 20 C       -2.9660    -7.3450     0.4530 C.3   1 <1>   0.0200 
 21 C       -2.3530    -8.7210     0.2760 C.2   1 <1>  -0.0400 
 22 O       -1.7420    -9.3000     1.2750 O.3   1 <1>  -0.0190 
 23 C       -2.2860    -9.5430    -0.7820 C.2   1 <1>  -0.1500 
 24 N       -1.2630   -10.4620     0.9400 N.2   1 <1>  -0.4100 
 25 C       -1.5790   -10.6370    -0.2930 C.2   1 <1>   0.1080 
 26 C       -1.2240   -11.8700    -1.0940 C.3   1 <1>  -0.0590 
 27 H        3.0780     1.3160    -1.6620 H     1 <1>   0.0800 
 28 H        1.3480     1.6270    -1.7470 H     1 <1>   0.0800 
 29 H        0.3680    -0.8900     0.4880 H     1 <1>   0.0800 
 30 H        2.0340    -0.9960     1.0510 H     1 <1>   0.0800 
 31 H        3.6170    -3.1500    -2.7510 H     1 <1>   0.1500 
 32 H        3.1710     1.7770     0.6230 H     1 <1>   0.0800 
 33 H        1.8810     2.8840     0.1960 H     1 <1>   0.0800 
 34 H        0.2120     1.3530     0.9450 H     1 <1>   0.0800 
 35 H        1.4690     1.0220     2.1180 H     1 <1>   0.0800 
 36 H        1.7440    -6.3150    -1.0360 H     1 <1>   0.1500 
 37 H       -0.8650    -3.6200     1.7080 H     1 <1>   0.0800 
 38 H       -1.4150    -3.1940     0.0900 H     1 <1>   0.0800 
 39 H       -0.9150    -6.4530    -0.9810 H     1 <1>   0.0800 
 40 H        0.0550    -7.0070     0.3810 H     1 <1>   0.0800 
 41 H       -3.1110    -4.7150     0.1070 H     1 <1>   0.0800 
 42 H       -1.5910    -6.5890     1.9180 H     1 <1>   0.0800 
 43 H       -2.5230    -4.7970     2.8760 H     1 <1>   0.4000 
 44 H       -3.3920    -7.0290    -0.4830 H     1 <1>   0.0800 
 45 H       -3.7610    -7.4030     1.1770 H     1 <1>   0.0800 
 46 H       -2.6700    -9.4230    -1.7780 H     1 <1>   0.1500 
 47 H       -0.6830   -11.5890    -1.9780 H     1 <1>   0.0800 
 48 H       -2.1190   -12.3920    -1.3750 H     1 <1>   0.0800 
 49 H       -0.6090   -12.5270    -0.5040 H     1 <1>   0.0800 
@<TRIPOS>BOND
  1   1   2  2   
  2   2   3  am  
  3   2   4  1   
  4   3   5  1   
  5   3   6  1   
  6   4   7  ar  
  7   4   8  ar  
  8   5   9  1   
  9   5  27  1   
 10   5  28  1   
 11   6  10  1   
 12   6  29  1   
 13   6  30  1   
 14   7  11  ar  
 15   8  12  ar  
 16   8  31  1   
 17   9  10  1   
 18   9  32  1   
 19   9  33  1   
 20  10  34  1   
 21  10  35  1   
 22  11  13  1   
 23  11  14  ar  
 24  12  14  ar  
 25  13  15  1   
 26  13  16  1   
 27  14  36  1   
 28  15  17  1   
 29  15  37  1   
 30  15  38  1   
 31  16  18  1   
 32  16  39  1   
 33  16  40  1   
 34  17  18  1   
 35  17  19  1   
 36  17  41  1   
 37  18  20  1   
 38  18  42  1   
 39  19  43  1   
 40  20  21  1   
 41  20  44  1   
 42  20  45  1   
 43  21  22  1   
 44  21  23  2   
 45  22  24  1   
 46  23  25  1   
 47  23  46  1   
 48  24  25  2   
 49  25  26  1   
 50  26  47  1   
 51  26  48  1   
 52  26  49  1   
@<TRIPOS>SUBSTRUCTURE
  1 ****  13 GROUP 4 **** **** 0

# MOE 2024.06 (io_trps.svl 2023.06)
