@<TRIPOS>MOLECULE
NONAME
27 27 1 0 0 
SMALL
USER_CHARGES


@<TRIPOS>ATOM
  1 O        0.1610     0.3960    -0.3330 O.2   1 <1>  -0.5700 
  2 C        1.2700     0.7030     0.0560 C.2   1 <1>   0.7800 
  3 O        1.5640     1.9780     0.3040 O.3   1 <1>  -0.4300 
  4 N        2.2880    -0.1740     0.2610 N.am  1 <1>  -0.5470 
  5 C        0.6000     2.9970     0.1260 C.3   1 <1>   0.0400 
  6 C        2.3810    -1.5680     0.1350 C.ar  1 <1>   0.1170 
  7 C        3.6310    -2.1600    -0.0820 C.ar  1 <1>  -0.1430 
  8 C        1.2580    -2.3790     0.2550 C.ar  1 <1>  -0.1500 
  9 C        3.7390    -3.5480    -0.1590 C.ar  1 <1>  -0.1440 
 10 C        4.8540    -1.2590    -0.2490 C.3   1 <1>   0.2630 
 11 C        1.3660    -3.7510     0.1700 C.ar  1 <1>  -0.1500 
 12 C        2.6020    -4.3320    -0.0330 C.ar  1 <1>  -0.1500 
 13 C        5.0690    -4.2550    -0.3840 C.3   1 <1>  -0.0970 
 14 O        5.0860    -0.6070     0.9500 O.3   1 <1>  -0.6800 
 15 H        3.1580     0.2800     0.5470 H     1 <1>   0.3700 
 16 H        1.0490     3.9400     0.3820 H     1 <1>   0.0800 
 17 H       -0.2390     2.7980     0.7700 H     1 <1>   0.0800 
 18 H        0.2850     3.0020    -0.9040 H     1 <1>   0.0800 
 19 H        0.2920    -1.9390     0.4220 H     1 <1>   0.1500 
 20 H        4.6800    -0.5160    -1.0080 H     1 <1>   0.0800 
 21 H        5.7440    -1.8030    -0.5070 H     1 <1>   0.0800 
 22 H        0.4880    -4.3660     0.2640 H     1 <1>   0.1500 
 23 H        2.6680    -5.4050    -0.0940 H     1 <1>   0.1500 
 24 H        5.7730    -3.9780     0.3800 H     1 <1>   0.0800 
 25 H        5.4690    -3.9920    -1.3480 H     1 <1>   0.0800 
 26 H        4.9510    -5.3230    -0.3540 H     1 <1>   0.0800 
 27 H        5.0370    -1.2610     1.6760 H     1 <1>   0.4000 
@<TRIPOS>BOND
  1   1   2  2   
  2   2   3  1   
  3   2   4  am  
  4   3   5  1   
  5   4   6  1   
  6   4  15  1   
  7   5  16  1   
  8   5  17  1   
  9   5  18  1   
 10   6   7  ar  
 11   6   8  ar  
 12   7   9  ar  
 13   7  10  1   
 14   8  11  ar  
 15   8  19  1   
 16   9  12  ar  
 17   9  13  1   
 18  10  14  1   
 19  10  20  1   
 20  10  21  1   
 21  11  12  ar  
 22  11  22  1   
 23  12  23  1   
 24  13  24  1   
 25  13  25  1   
 26  13  26  1   
 27  14  27  1   
@<TRIPOS>SUBSTRUCTURE
  1 ****   6 GROUP 4 **** **** 0

# MOE 2024.06 (io_trps.svl 2023.06)
