@<TRIPOS>MOLECULE
NONAME
43 44 1 0 0 
SMALL
USER_CHARGES


@<TRIPOS>ATOM
  1 O        0.3100    -0.1130    -2.2880 O.2   1 <1>  -0.5700 
  2 C        0.8600    -1.0080    -1.6830 C.2   1 <1>   0.5690 
  3 N        1.4890    -0.8140    -0.4860 N.am  1 <1>  -0.4930 
  4 C        0.8640    -2.4430    -2.2710 C.3   1 <1>   0.3410 
  5 C        1.5390     0.3360     0.3350 C.2   1 <1>   0.0630 
  6 O        1.0440    -3.4240    -1.2500 O.3   1 <1>  -0.3630 
  7 C        2.0900    -2.6040    -3.1800 C.3   1 <1>  -0.2400 
  8 C       -0.3900    -2.8130    -3.0880 C.3   1 <1>  -0.2400 
  9 C        1.7790     0.3680     1.7090 C.2   1 <1>   0.1080 
 10 C        1.3690     1.6280    -0.0070 C.2   1 <1>  -0.3020 
 11 C        0.3090    -3.5890    -0.1060 C.ar  1 <1>   0.0820 
 12 N        1.7670     1.5750     2.1830 N.2   1 <1>  -0.7070 
 13 C        2.0180    -0.8480     2.5780 C.3   1 <1>  -0.0590 
 14 N        1.5100     2.3560     1.1190 N.pl3 1 <1>   0.3140 
 15 C        0.7530    -4.5580     0.7990 C.ar  1 <1>   0.0820 
 16 C       -0.8220    -2.8370     0.2030 C.ar  1 <1>  -0.1500 
 17 C        1.4040     3.8130     1.2310 C.3   1 <1>   0.0160 
 18 O        1.8770    -5.2610     0.4780 O.3   1 <1>  -0.3630 
 19 C        0.0580    -4.7650     1.9870 C.ar  1 <1>  -0.1500 
 20 C       -1.5030    -3.0490     1.3890 C.ar  1 <1>  -0.1500 
 21 C        2.2910    -6.3780     1.2330 C.3   1 <1>   0.0400 
 22 C       -1.0660    -4.0130     2.2780 C.ar  1 <1>  -0.1500 
 23 H        1.8340    -1.6740    -0.0530 H     1 <1>   0.3700 
 24 H        2.9910    -2.4030    -2.6290 H     1 <1>   0.0800 
 25 H        2.0340    -1.9090    -3.9990 H     1 <1>   0.0800 
 26 H        2.1360    -3.6020    -3.5790 H     1 <1>   0.0800 
 27 H       -1.2890    -2.6960    -2.5170 H     1 <1>   0.0800 
 28 H       -0.3240    -3.8290    -3.4320 H     1 <1>   0.0800 
 29 H       -0.4660    -2.1680    -3.9450 H     1 <1>   0.0800 
 30 H        1.1560     2.0490    -0.9720 H     1 <1>   0.1500 
 31 H        1.2430    -1.5740     2.4150 H     1 <1>   0.0800 
 32 H        2.0130    -0.5610     3.6130 H     1 <1>   0.0800 
 33 H        2.9710    -1.2820     2.3410 H     1 <1>   0.0800 
 34 H       -1.1940    -2.0720    -0.4500 H     1 <1>   0.1500 
 35 H        0.5220     4.1440     0.7170 H     1 <1>   0.0800 
 36 H        2.2760     4.2620     0.7950 H     1 <1>   0.0800 
 37 H        1.3400     4.0810     2.2700 H     1 <1>   0.0800 
 38 H        0.3740    -5.5020     2.7000 H     1 <1>   0.1500 
 39 H       -2.3750    -2.4610     1.6190 H     1 <1>   0.1500 
 40 H        3.1450    -6.8110     0.7450 H     1 <1>   0.0800 
 41 H        1.4880    -7.0940     1.2670 H     1 <1>   0.0800 
 42 H        2.5620    -6.0530     2.2210 H     1 <1>   0.0800 
 43 H       -1.6010    -4.1750     3.1990 H     1 <1>   0.1500 
@<TRIPOS>BOND
  1   1   2  2   
  2   2   3  am  
  3   2   4  1   
  4   3   5  1   
  5   3  23  1   
  6   4   6  1   
  7   4   7  1   
  8   4   8  1   
  9   5   9  1   
 10   5  10  2   
 11   6  11  1   
 12   7  24  1   
 13   7  25  1   
 14   7  26  1   
 15   8  27  1   
 16   8  28  1   
 17   8  29  1   
 18   9  12  2   
 19   9  13  1   
 20  10  14  1   
 21  10  30  1   
 22  11  15  ar  
 23  11  16  ar  
 24  12  14  1   
 25  13  31  1   
 26  13  32  1   
 27  13  33  1   
 28  14  17  1   
 29  15  18  1   
 30  15  19  ar  
 31  16  20  ar  
 32  16  34  1   
 33  17  35  1   
 34  17  36  1   
 35  17  37  1   
 36  18  21  1   
 37  19  22  ar  
 38  19  38  1   
 39  20  22  ar  
 40  20  39  1   
 41  21  40  1   
 42  21  41  1   
 43  21  42  1   
 44  22  43  1   
@<TRIPOS>SUBSTRUCTURE
  1 ****   3 GROUP 4 **** **** 0

# MOE 2024.06 (io_trps.svl 2023.06)
