@<TRIPOS>MOLECULE
NONAME
55 58 1 0 0 
SMALL
USER_CHARGES


@<TRIPOS>ATOM
  1 O        3.0890     0.8480     0.0510 O.2   1 <1>  -0.5700 
  2 C        2.9150    -0.3430     0.0700 C.2   1 <1>   0.5690 
  3 N        2.0180    -0.8870     0.9160 N.am  1 <1>  -0.7300 
  4 C        3.7230    -1.2330    -0.8450 C.3   1 <1>  -0.0990 
  5 C        1.4770    -2.2600     0.8630 C.3   1 <1>   0.1400 
  6 C        3.0190    -2.5530    -1.2270 C.3   1 <1>  -0.0800 
  7 C        2.3030    -3.2010    -0.0320 C.3   1 <1>  -0.0800 
  8 C        4.0550    -3.6080    -1.6620 C.3   1 <1>  -0.1600 
  9 C        3.4160    -3.9700     0.6790 C.3   1 <1>  -0.1600 
 10 C        4.1940    -4.5890    -0.4810 C.3   1 <1>   0.2200 
 11 N        5.5780    -4.9960    -0.0950 N.am  1 <1>  -0.6600 
 12 C        6.7240    -4.2870    -0.3890 C.2   1 <1>   0.5440 
 13 C        5.7040    -6.4480     0.2130 C.3   1 <1>   0.0600 
 14 O        7.6180    -4.8580    -0.9870 O.2   1 <1>  -0.5700 
 15 C        6.9050    -2.9060     0.0070 C.ar  1 <1>   0.0860 
 16 C        6.6090    -2.4730     1.3010 C.ar  1 <1>  -0.1500 
 17 C        7.3950    -1.9590    -0.8930 C.ar  1 <1>  -0.1500 
 18 C        6.7670    -1.1510     1.6710 C.ar  1 <1>  -0.1500 
 19 C        7.5570    -0.6340    -0.5320 C.ar  1 <1>  -0.1500 
 20 C        7.2440    -0.2230     0.7590 C.ar  1 <1>   0.0820 
 21 O        7.3720     1.0610     1.1680 O.3   1 <1>  -0.1650 
 22 C        8.2610     1.9130     0.6000 C.ar  1 <1>   0.0820 
 23 C        9.5940     1.5590     0.4320 C.ar  1 <1>  -0.1500 
 24 C        7.8200     3.1650     0.2020 C.ar  1 <1>  -0.1500 
 25 C       10.4810     2.4510    -0.1450 C.ar  1 <1>  -0.1500 
 26 C        8.7080     4.0560    -0.3750 C.ar  1 <1>  -0.1500 
 27 C       10.0380     3.7090    -0.5530 C.ar  1 <1>   0.0820 
 28 O       10.8410     4.6420    -1.1260 O.3   1 <1>  -0.3620 
 29 C       12.2160     4.4000    -1.3260 C.3   1 <1>   0.0400 
 30 H        1.5270    -0.2210     1.5170 H     1 <1>   0.3700 
 31 H        3.9750    -0.6850    -1.7340 H     1 <1>   0.0800 
 32 H        4.6340    -1.4370    -0.3240 H     1 <1>   0.0800 
 33 H        1.4190    -2.6610     1.8610 H     1 <1>   0.0800 
 34 H        0.4750    -2.2020     0.4720 H     1 <1>   0.0800 
 35 H        2.3110    -2.3530    -2.0150 H     1 <1>   0.0800 
 36 H        1.6190    -3.9390    -0.4180 H     1 <1>   0.0800 
 37 H        4.9820    -3.1550    -1.9580 H     1 <1>   0.0800 
 38 H        3.6730    -4.1500    -2.5090 H     1 <1>   0.0800 
 39 H        3.0250    -4.7240     1.3380 H     1 <1>   0.0800 
 40 H        4.0300    -3.2850     1.2320 H     1 <1>   0.0800 
 41 H        3.6600    -5.4790    -0.7740 H     1 <1>   0.0800 
 42 H        4.9990    -6.7260     0.9760 H     1 <1>   0.0800 
 43 H        6.6980    -6.6670     0.5650 H     1 <1>   0.0800 
 44 H        5.5200    -7.0250    -0.6760 H     1 <1>   0.0800 
 45 H        6.2520    -3.1900     2.0190 H     1 <1>   0.1500 
 46 H        7.6480    -2.2780    -1.8900 H     1 <1>   0.1500 
 47 H        6.5250    -0.8290     2.6690 H     1 <1>   0.1500 
 48 H        7.9190     0.0750    -1.2550 H     1 <1>   0.1500 
 49 H        9.9320     0.5900     0.7540 H     1 <1>   0.1500 
 50 H        6.7870     3.4310     0.3410 H     1 <1>   0.1500 
 51 H       11.5050     2.1540    -0.2660 H     1 <1>   0.1500 
 52 H        8.3740     5.0280    -0.6900 H     1 <1>   0.1500 
 53 H       12.6460     5.2740    -1.7810 H     1 <1>   0.0800 
 54 H       12.3290     3.5540    -1.9810 H     1 <1>   0.0800 
 55 H       12.6800     4.2170    -0.3740 H     1 <1>   0.0800 
@<TRIPOS>BOND
  1   1   2  2   
  2   2   3  am  
  3   2   4  1   
  4   3   5  1   
  5   3  30  1   
  6   4   6  1   
  7   4  31  1   
  8   4  32  1   
  9   5   7  1   
 10   5  33  1   
 11   5  34  1   
 12   6   7  1   
 13   6   8  1   
 14   6  35  1   
 15   7   9  1   
 16   7  36  1   
 17   8  10  1   
 18   8  37  1   
 19   8  38  1   
 20   9  10  1   
 21   9  39  1   
 22   9  40  1   
 23  10  11  1   
 24  10  41  1   
 25  11  12  am  
 26  11  13  1   
 27  12  14  2   
 28  12  15  1   
 29  13  42  1   
 30  13  43  1   
 31  13  44  1   
 32  15  16  ar  
 33  15  17  ar  
 34  16  18  ar  
 35  16  45  1   
 36  17  19  ar  
 37  17  46  1   
 38  18  20  ar  
 39  18  47  1   
 40  19  20  ar  
 41  19  48  1   
 42  20  21  1   
 43  21  22  1   
 44  22  23  ar  
 45  22  24  ar  
 46  23  25  ar  
 47  23  49  1   
 48  24  26  ar  
 49  24  50  1   
 50  25  27  ar  
 51  25  51  1   
 52  26  27  ar  
 53  26  52  1   
 54  27  28  1   
 55  28  29  1   
 56  29  53  1   
 57  29  54  1   
 58  29  55  1   
@<TRIPOS>SUBSTRUCTURE
  1 ****  19 GROUP 4 **** **** 0

# MOE 2024.06 (io_trps.svl 2023.06)
