@<TRIPOS>MOLECULE
NONAME
46 49 1 0 0 
SMALL
USER_CHARGES


@<TRIPOS>ATOM
  1 S        0.2970    -0.0950     1.7700 S.3   1 <1>  -0.0800 
  2 C        1.3830    -0.8820     0.6140 C.2   1 <1>  -0.0450 
  3 C        0.9450     1.4920     1.4240 C.2   1 <1>  -0.1100 
  4 C        2.1670     0.0760     0.0480 C.2   1 <1>  -0.1810 
  5 C        1.3240    -2.3180     0.4580 C.2   1 <1>   0.7150 
  6 C        1.9160     1.4040     0.4980 C.2   1 <1>  -0.1810 
  7 C        3.2720    -0.1110    -0.9790 C.3   1 <1>   0.0210 
  8 O        2.3510    -2.9560     0.3120 O.2   1 <1>  -0.5700 
  9 N        0.1310    -3.0100     0.4350 N.am  1 <1>  -0.6600 
 10 C        2.7480     2.5300    -0.0850 C.3   1 <1>   0.0210 
 11 C        4.5190     0.6820    -0.5500 C.3   1 <1>  -0.1600 
 12 C       -1.1780    -2.4140     0.0670 C.3   1 <1>   0.1400 
 13 C        0.0810    -4.4880     0.3170 C.3   1 <1>   0.1400 
 14 C        4.2370     2.1370    -0.0990 C.3   1 <1>  -0.1600 
 15 C       -1.9630    -3.5640    -0.5620 C.3   1 <1>   0.2000 
 16 C       -1.3890    -4.8300     0.0680 C.3   1 <1>  -0.0800 
 17 O       -3.3190    -3.4680    -0.2960 O.3   1 <1>  -0.6800 
 18 C       -1.5920    -6.0790    -0.8030 C.3   1 <1>   0.0200 
 19 C       -0.9310    -7.2910    -0.1760 C.2   1 <1>  -0.0400 
 20 O       -1.3270    -7.7200     0.9920 O.3   1 <1>  -0.0190 
 21 C        0.0650    -8.0860    -0.5930 C.2   1 <1>  -0.1500 
 22 N       -0.6460    -8.7580     1.3820 N.2   1 <1>  -0.4100 
 23 C        0.1990    -9.0030     0.4460 C.2   1 <1>   0.1080 
 24 C        1.2020   -10.1350     0.4810 C.3   1 <1>  -0.0590 
 25 H        0.5310     2.3290     1.9560 H     1 <1>   0.1500 
 26 H        3.5230    -1.1500    -1.0920 H     1 <1>   0.0800 
 27 H        2.9260     0.2530    -1.9300 H     1 <1>   0.0800 
 28 H        2.4190     2.7110    -1.0930 H     1 <1>   0.0800 
 29 H        2.6070     3.4340     0.4810 H     1 <1>   0.0800 
 30 H        4.9690     0.1560     0.2760 H     1 <1>   0.0800 
 31 H        5.2330     0.6810    -1.3550 H     1 <1>   0.0800 
 32 H       -1.6690    -2.0650     0.9580 H     1 <1>   0.0800 
 33 H       -1.0510    -1.6060    -0.6320 H     1 <1>   0.0800 
 34 H        0.6950    -4.7960    -0.5130 H     1 <1>   0.0800 
 35 H        0.4460    -4.9540     1.2180 H     1 <1>   0.0800 
 36 H        4.7730     2.8220    -0.7320 H     1 <1>   0.0800 
 37 H        4.6220     2.2570     0.8990 H     1 <1>   0.0800 
 38 H       -1.8240    -3.5560    -1.6300 H     1 <1>   0.0800 
 39 H       -1.8440    -4.9890     1.0300 H     1 <1>   0.0800 
 40 H       -3.4840    -3.5170     0.6660 H     1 <1>   0.4000 
 41 H       -1.1770    -5.9160    -1.7820 H     1 <1>   0.0800 
 42 H       -2.6450    -6.2720    -0.9150 H     1 <1>   0.0800 
 43 H        0.6440    -8.0550    -1.4970 H     1 <1>   0.1500 
 44 H        1.0480   -10.7840    -0.3610 H     1 <1>   0.0800 
 45 H        1.0830   -10.7030     1.3860 H     1 <1>   0.0800 
 46 H        2.2000    -9.7390     0.4470 H     1 <1>   0.0800 
@<TRIPOS>BOND
  1   1   2  1   
  2   1   3  1   
  3   2   4  2   
  4   2   5  1   
  5   3   6  2   
  6   3  25  1   
  7   4   6  1   
  8   4   7  1   
  9   5   8  2   
 10   5   9  am  
 11   6  10  1   
 12   7  11  1   
 13   7  26  1   
 14   7  27  1   
 15   9  12  1   
 16   9  13  1   
 17  10  14  1   
 18  10  28  1   
 19  10  29  1   
 20  11  14  1   
 21  11  30  1   
 22  11  31  1   
 23  12  15  1   
 24  12  32  1   
 25  12  33  1   
 26  13  16  1   
 27  13  34  1   
 28  13  35  1   
 29  14  36  1   
 30  14  37  1   
 31  15  16  1   
 32  15  17  1   
 33  15  38  1   
 34  16  18  1   
 35  16  39  1   
 36  17  40  1   
 37  18  19  1   
 38  18  41  1   
 39  18  42  1   
 40  19  20  1   
 41  19  21  2   
 42  20  22  1   
 43  21  23  1   
 44  21  43  1   
 45  22  23  2   
 46  23  24  1   
 47  24  44  1   
 48  24  45  1   
 49  24  46  1   
@<TRIPOS>SUBSTRUCTURE
  1 ****   9 GROUP 4 **** **** 0

# MOE 2024.06 (io_trps.svl 2023.06)
