@<TRIPOS>MOLECULE
NONAME
47 49 1 0 0 
SMALL
USER_CHARGES


@<TRIPOS>ATOM
  1 O        1.3070     0.6440     0.3130 O.2   1 <1>  -0.5700 
  2 C        2.0250    -0.3230     0.2230 C.2   1 <1>   0.5690 
  3 N        3.3400    -0.2520     0.6140 N.am  1 <1>  -0.6600 
  4 C        1.4250    -1.5860    -0.3690 C.3   1 <1>  -0.0990 
  5 C        3.8100     0.8890     1.4710 C.3   1 <1>   0.1400 
  6 C        4.4200    -1.1900     0.1860 C.3   1 <1>   0.1400 
  7 C        1.2120    -2.6650     0.7000 C.3   1 <1>  -0.0160 
  8 C        4.7910     1.8810     0.7840 C.3   1 <1>   0.4230 
  9 C        5.3860    -0.5040    -0.8080 C.3   1 <1>  -0.0800 
 10 C        0.6850    -3.9430     0.0660 C.ar  1 <1>  -0.1440 
 11 N        4.6780     1.9900    -0.7260 N.4   1 <1>  -0.9590 
 12 C        6.2530     1.6320     1.2180 C.3   1 <1>   0.1200 
 13 C        6.7670    -0.2030    -0.2050 C.3   1 <1>   0.1200 
 14 C        4.7540     0.7090    -1.5160 C.3   1 <1>   0.3430 
 15 C       -0.6550    -4.0420    -0.2810 C.ar  1 <1>  -0.1500 
 16 C        1.5330    -5.0160    -0.1720 C.ar  1 <1>  -0.1500 
 17 C        3.4130     2.7090    -1.0860 C.3   1 <1>   0.2630 
 18 O        6.6450     0.3020     1.0840 O.3   1 <1>  -0.5600 
 19 C       -1.1430    -5.2000    -0.8610 C.ar  1 <1>  -0.1500 
 20 C        1.0490    -6.1770    -0.7510 C.ar  1 <1>  -0.1500 
 21 C       -0.2910    -6.2640    -1.0940 C.ar  1 <1>   0.0820 
 22 O       -0.7750    -7.3820    -1.6550 O.3   1 <1>  -0.5330 
 23 H        0.4730    -1.3400    -0.8030 H     1 <1>   0.0800 
 24 H        2.0430    -1.9590    -1.1630 H     1 <1>   0.0800 
 25 H        2.9610     1.4520     1.8170 H     1 <1>   0.0800 
 26 H        4.2730     0.4860     2.3550 H     1 <1>   0.0800 
 27 H        4.9530    -1.5410     1.0550 H     1 <1>   0.0800 
 28 H        3.9950    -2.0580    -0.2830 H     1 <1>   0.0800 
 29 H        0.5060    -2.3120     1.4320 H     1 <1>   0.0800 
 30 H        2.1350    -2.8690     1.2130 H     1 <1>   0.0800 
 31 H        4.5530     2.8510     1.1860 H     1 <1>   0.0800 
 32 H        5.5680    -1.2250    -1.5840 H     1 <1>   0.0800 
 33 H        5.4650     2.5750    -1.0320 H     1 <1>   0.4500 
 34 H        6.3470     1.8680     2.2640 H     1 <1>   0.0800 
 35 H        6.9400     2.2580     0.6770 H     1 <1>   0.0800 
 36 H        7.3420     0.4800    -0.8080 H     1 <1>   0.0800 
 37 H        7.3240    -1.1210    -0.1180 H     1 <1>   0.0800 
 38 H        3.7560     0.4230    -1.8090 H     1 <1>   0.0800 
 39 H        5.3020     0.8990    -2.4240 H     1 <1>   0.0800 
 40 H       -1.3250    -3.2200    -0.1010 H     1 <1>   0.1500 
 41 H        2.5730    -4.9560     0.0950 H     1 <1>   0.1500 
 42 H        2.5540     2.1310    -0.7890 H     1 <1>   0.0800 
 43 H        3.3620     2.8710    -2.1510 H     1 <1>   0.0800 
 44 H        3.3670     3.6650    -0.5910 H     1 <1>   0.0800 
 45 H       -2.1800    -5.2840    -1.1330 H     1 <1>   0.1500 
 46 H        1.7110    -7.0030    -0.9300 H     1 <1>   0.1500 
 47 H       -0.1030    -8.0750    -1.7690 H     1 <1>   0.4500 
@<TRIPOS>BOND
  1   1   2  2   
  2   2   3  am  
  3   2   4  1   
  4   3   5  1   
  5   3   6  1   
  6   4   7  1   
  7   4  23  1   
  8   4  24  1   
  9   5   8  1   
 10   5  25  1   
 11   5  26  1   
 12   6   9  1   
 13   6  27  1   
 14   6  28  1   
 15   7  10  1   
 16   7  29  1   
 17   7  30  1   
 18   8  11  1   
 19   8  12  1   
 20   8  31  1   
 21   9  13  1   
 22   9  14  1   
 23   9  32  1   
 24  10  15  ar  
 25  10  16  ar  
 26  11  14  1   
 27  11  17  1   
 28  11  33  1   
 29  12  18  1   
 30  12  34  1   
 31  12  35  1   
 32  13  18  1   
 33  13  36  1   
 34  13  37  1   
 35  14  38  1   
 36  14  39  1   
 37  15  19  ar  
 38  15  40  1   
 39  16  20  ar  
 40  16  41  1   
 41  17  42  1   
 42  17  43  1   
 43  17  44  1   
 44  19  21  ar  
 45  19  45  1   
 46  20  21  ar  
 47  20  46  1   
 48  21  22  1   
 49  22  47  1   
@<TRIPOS>SUBSTRUCTURE
  1 ****   4 GROUP 4 **** **** 0

# MOE 2024.06 (io_trps.svl 2023.06)
