@<TRIPOS>MOLECULE
NONAME
53 56 1 0 0 
SMALL
USER_CHARGES


@<TRIPOS>ATOM
  1 O       -0.4560    -0.3910     2.1360 O.2   1 <1>  -0.5700 
  2 C       -1.0050     0.5220     1.5660 C.2   1 <1>   0.5690 
  3 N       -2.0170     0.2690     0.6650 N.am  1 <1>  -0.6600 
  4 C       -0.5360     1.9300     1.9050 C.3   1 <1>   0.1570 
  5 C       -2.2550    -1.1150     0.1650 C.3   1 <1>   0.1400 
  6 C       -2.8990     1.3050     0.0510 C.3   1 <1>   0.1400 
  7 N       -0.0640     2.6400     0.6990 N.pl3 1 <1>   0.0480 
  8 C       -3.7290    -1.5220     0.3810 C.3   1 <1>   0.4230 
  9 C       -4.3640     0.9100     0.2820 C.3   1 <1>  -0.1600 
 10 C       -0.5270     3.8490     0.2270 C.ar  1 <1>  -0.1520 
 11 C        0.8310     2.1540    -0.2140 C.2   1 <1>  -0.3020 
 12 N       -4.0220    -2.9760     0.0300 N.4   1 <1>  -0.9590 
 13 C       -4.7230    -0.5050    -0.2550 C.3   1 <1>   0.0000 
 14 C        0.0810     4.1010    -0.9990 C.ar  1 <1>   0.0000 
 15 C       -1.4380     4.7670     0.7650 C.ar  1 <1>  -0.1500 
 16 C        0.9400     3.0140    -1.2530 C.2   1 <1>  -0.1500 
 17 C       -5.4770    -3.2770    -0.1720 C.3   1 <1>   0.3430 
 18 C       -3.2240    -3.5400    -1.1090 C.3   1 <1>   0.2630 
 19 C       -6.1720    -0.8560     0.1970 C.3   1 <1>  -0.1600 
 20 C       -4.6110    -0.5380    -1.8060 C.3   1 <1>   0.1200 
 21 C       -0.2280     5.2670    -1.7070 C.ar  1 <1>  -0.1500 
 22 C       -1.7340     5.9100     0.0590 C.ar  1 <1>  -0.1500 
 23 C       -6.3510    -2.3210     0.6370 C.3   1 <1>  -0.1600 
 24 O       -5.3400     0.4820    -2.3940 O.3   1 <1>  -0.6800 
 25 C       -1.1310     6.1590    -1.1790 C.ar  1 <1>  -0.1500 
 26 H        0.2770     1.8740     2.6040 H     1 <1>   0.0800 
 27 H       -1.3400     2.4740     2.3590 H     1 <1>   0.0800 
 28 H       -1.9950    -1.1400    -0.8780 H     1 <1>   0.0800 
 29 H       -1.6210    -1.8120     0.6840 H     1 <1>   0.0800 
 30 H       -2.7320     2.2700     0.4940 H     1 <1>   0.0800 
 31 H       -2.6850     1.3890    -1.0020 H     1 <1>   0.0800 
 32 H       -3.8840    -1.4340     1.4440 H     1 <1>   0.0800 
 33 H       -4.5450     0.9590     1.3410 H     1 <1>   0.0800 
 34 H       -4.9940     1.6570    -0.1710 H     1 <1>   0.0800 
 35 H        1.3400     1.2160    -0.0710 H     1 <1>   0.1500 
 36 H       -3.7410    -3.5030     0.8710 H     1 <1>   0.4500 
 37 H       -1.8990     4.5860     1.7180 H     1 <1>   0.1500 
 38 H        1.5570     2.9260    -2.1300 H     1 <1>   0.1500 
 39 H       -5.7310    -3.1710    -1.2140 H     1 <1>   0.0800 
 40 H       -5.6850    -4.2960     0.1170 H     1 <1>   0.0800 
 41 H       -3.4340    -3.0040    -2.0200 H     1 <1>   0.0800 
 42 H       -3.4700    -4.5790    -1.2590 H     1 <1>   0.0800 
 43 H       -2.1680    -3.4720    -0.9040 H     1 <1>   0.0800 
 44 H       -6.4730    -0.2340     1.0240 H     1 <1>   0.0800 
 45 H       -6.8670    -0.6440    -0.5970 H     1 <1>   0.0800 
 46 H       -4.9740    -1.4650    -2.2110 H     1 <1>   0.0800 
 47 H       -3.5930    -0.4040    -2.1280 H     1 <1>   0.0800 
 48 H        0.2470     5.4450    -2.6540 H     1 <1>   0.1500 
 49 H       -2.4320     6.6280     0.4530 H     1 <1>   0.1500 
 50 H       -7.3850    -2.6000     0.5200 H     1 <1>   0.0800 
 51 H       -6.1150    -2.4270     1.6830 H     1 <1>   0.0800 
 52 H       -6.2990     0.4010    -2.2240 H     1 <1>   0.4000 
 53 H       -1.3790     7.0610    -1.7110 H     1 <1>   0.1500 
@<TRIPOS>BOND
  1   1   2  2   
  2   2   3  am  
  3   2   4  1   
  4   3   5  1   
  5   3   6  1   
  6   4   7  1   
  7   4  26  1   
  8   4  27  1   
  9   5   8  1   
 10   5  28  1   
 11   5  29  1   
 12   6   9  1   
 13   6  30  1   
 14   6  31  1   
 15   7  10  1   
 16   7  11  1   
 17   8  12  1   
 18   8  13  1   
 19   8  32  1   
 20   9  13  1   
 21   9  33  1   
 22   9  34  1   
 23  10  14  ar  
 24  10  15  ar  
 25  11  16  2   
 26  11  35  1   
 27  12  17  1   
 28  12  18  1   
 29  12  36  1   
 30  13  19  1   
 31  13  20  1   
 32  14  16  1   
 33  14  21  ar  
 34  15  22  ar  
 35  15  37  1   
 36  16  38  1   
 37  17  23  1   
 38  17  39  1   
 39  17  40  1   
 40  18  41  1   
 41  18  42  1   
 42  18  43  1   
 43  19  23  1   
 44  19  44  1   
 45  19  45  1   
 46  20  24  1   
 47  20  46  1   
 48  20  47  1   
 49  21  25  ar  
 50  21  48  1   
 51  22  25  ar  
 52  22  49  1   
 53  23  50  1   
 54  23  51  1   
 55  24  52  1   
 56  25  53  1   
@<TRIPOS>SUBSTRUCTURE
  1 ****   6 GROUP 4 **** **** 0

# MOE 2024.06 (io_trps.svl 2023.06)
