@<TRIPOS>MOLECULE
NONAME
58 60 1 0 0 
SMALL
USER_CHARGES


@<TRIPOS>ATOM
  1 O        2.1570    -1.1640    -0.7940 O.3   1 <1>  -0.5600 
  2 C        1.7710    -0.0340    -1.5200 C.3   1 <1>   0.1200 
  3 C        2.4230    -0.8930     0.5510 C.3   1 <1>   0.1200 
  4 C        2.8810     1.0330    -1.4710 C.3   1 <1>   0.1100 
  5 C        3.5500     0.1480     0.6720 C.3   1 <1>   0.1100 
  6 N        3.2280     1.3870    -0.0730 N.3   1 <1>  -0.8100 
  7 C        4.3290     2.3530     0.0130 C.3   1 <1>   0.1100 
  8 C        3.8130     3.7690    -0.2930 C.3   1 <1>   0.3430 
  9 N        4.8840     4.8110    -0.1650 N.4   1 <1>  -0.9590 
 10 C        4.3160     6.1780     0.0250 C.3   1 <1>   0.4230 
 11 C        5.8540     4.7050    -1.2940 C.3   1 <1>   0.4860 
 12 C        5.3710     7.2430     0.3080 C.3   1 <1>  -0.1600 
 13 C        3.3950     6.2430     1.2480 C.3   1 <1>  -0.1600 
 14 C        7.2510     5.0800    -0.8370 C.ar  1 <1>  -0.1440 
 15 C        4.6110     8.3580     1.0190 C.3   1 <1>  -0.1600 
 16 C        3.5450     7.6470     1.8490 C.3   1 <1>  -0.1600 
 17 C        7.8450     4.4880     0.2760 C.ar  1 <1>   0.0820 
 18 C        7.9520     6.0350    -1.5570 C.ar  1 <1>  -0.1500 
 19 O        7.1280     3.5500     0.9570 O.3   1 <1>  -0.3620 
 20 C        9.1300     4.8720     0.6550 C.ar  1 <1>  -0.1500 
 21 C        9.2270     6.4180    -1.1800 C.ar  1 <1>   0.0820 
 22 C        7.7310     2.7700     1.9720 C.3   1 <1>   0.0400 
 23 C        9.8170     5.8310    -0.0670 C.ar  1 <1>  -0.1500 
 24 O        9.8230     7.3660    -1.9460 O.3   1 <1>  -0.3620 
 25 C       11.1330     7.8110    -1.6690 C.3   1 <1>   0.0400 
 26 H        0.8550     0.3480    -1.1040 H     1 <1>   0.0800 
 27 H        1.5910    -0.3430    -2.5340 H     1 <1>   0.0800 
 28 H        2.7130    -1.8160     1.0200 H     1 <1>   0.0800 
 29 H        1.5220    -0.5340     1.0170 H     1 <1>   0.0800 
 30 H        2.5380     1.9050    -1.9980 H     1 <1>   0.0800 
 31 H        3.7470     0.6460    -1.9820 H     1 <1>   0.0800 
 32 H        4.4610    -0.2860     0.2940 H     1 <1>   0.0800 
 33 H        3.6940     0.3800     1.7130 H     1 <1>   0.0800 
 34 H        5.1180     2.0640    -0.6590 H     1 <1>   0.0800 
 35 H        4.7140     2.3500     1.0180 H     1 <1>   0.0800 
 36 H        3.0200     3.9720     0.4060 H     1 <1>   0.0800 
 37 H        3.3980     3.7930    -1.2850 H     1 <1>   0.0800 
 38 H        5.4520     4.5930     0.6700 H     1 <1>   0.4500 
 39 H        3.7540     6.4750    -0.8460 H     1 <1>   0.0800 
 40 H        5.5460     5.3410    -2.1080 H     1 <1>   0.0800 
 41 H        5.8890     3.6920    -1.6570 H     1 <1>   0.0800 
 42 H        5.8300     7.6140    -0.5910 H     1 <1>   0.0800 
 43 H        6.1230     6.8620     0.9770 H     1 <1>   0.0800 
 44 H        3.6920     5.5230     1.9910 H     1 <1>   0.0800 
 45 H        2.3720     6.0660     0.9650 H     1 <1>   0.0800 
 46 H        4.1340     8.9940     0.2900 H     1 <1>   0.0800 
 47 H        5.2610     8.9620     1.6300 H     1 <1>   0.0800 
 48 H        3.8660     7.5730     2.8750 H     1 <1>   0.0800 
 49 H        2.6150     8.1910     1.8210 H     1 <1>   0.0800 
 50 H        7.5270     6.5050    -2.4270 H     1 <1>   0.1500 
 51 H        9.6170     4.4410     1.5090 H     1 <1>   0.1500 
 52 H        7.0160     2.0430     2.3130 H     1 <1>   0.0800 
 53 H        8.0120     3.4110     2.7900 H     1 <1>   0.0800 
 54 H        8.5920     2.2690     1.5660 H     1 <1>   0.0800 
 55 H       10.8050     6.1070     0.2490 H     1 <1>   0.1500 
 56 H       11.3970     8.5490    -2.4050 H     1 <1>   0.0800 
 57 H       11.8070     6.9760    -1.7310 H     1 <1>   0.0800 
 58 H       11.1530     8.2530    -0.6880 H     1 <1>   0.0800 
@<TRIPOS>BOND
  1   1   2  1   
  2   1   3  1   
  3   2   4  1   
  4   2  26  1   
  5   2  27  1   
  6   3   5  1   
  7   3  28  1   
  8   3  29  1   
  9   4   6  1   
 10   4  30  1   
 11   4  31  1   
 12   5   6  1   
 13   5  32  1   
 14   5  33  1   
 15   6   7  1   
 16   7   8  1   
 17   7  34  1   
 18   7  35  1   
 19   8   9  1   
 20   8  36  1   
 21   8  37  1   
 22   9  10  1   
 23   9  11  1   
 24   9  38  1   
 25  10  12  1   
 26  10  13  1   
 27  10  39  1   
 28  11  14  1   
 29  11  40  1   
 30  11  41  1   
 31  12  15  1   
 32  12  42  1   
 33  12  43  1   
 34  13  16  1   
 35  13  44  1   
 36  13  45  1   
 37  14  17  ar  
 38  14  18  ar  
 39  15  16  1   
 40  15  46  1   
 41  15  47  1   
 42  16  48  1   
 43  16  49  1   
 44  17  19  1   
 45  17  20  ar  
 46  18  21  ar  
 47  18  50  1   
 48  19  22  1   
 49  20  23  ar  
 50  20  51  1   
 51  21  23  ar  
 52  21  24  1   
 53  22  52  1   
 54  22  53  1   
 55  22  54  1   
 56  23  55  1   
 57  24  25  1   
 58  25  56  1   
 59  25  57  1   
 60  25  58  1   
@<TRIPOS>SUBSTRUCTURE
  1 ****   9 GROUP 4 **** **** 0

# MOE 2024.06 (io_trps.svl 2023.06)
