@<TRIPOS>MOLECULE
NONAME
47 48 1 0 0 
SMALL
USER_CHARGES


@<TRIPOS>ATOM
  1 O        0.6310    -0.0730     0.7090 O.3   1 <1>  -0.6800 
  2 C        1.4710    -0.4740    -0.3240 C.3   1 <1>   0.2000 
  3 C        2.2990    -1.6610     0.1710 C.3   1 <1>  -0.0800 
  4 C        2.5160     0.6210    -0.5290 C.3   1 <1>   0.3430 
  5 C        3.5310    -1.0270     0.8410 C.3   1 <1>   0.3430 
  6 C        2.7070    -2.5870    -0.9910 C.3   1 <1>   0.0210 
  7 N        3.4390     0.4460     0.6240 N.4   1 <1>  -0.9590 
  8 C        3.5620    -3.7400    -0.5060 C.2   1 <1>   0.1080 
  9 C        4.7680     1.0950     0.4910 C.3   1 <1>   0.3430 
 10 N        4.7890    -3.5880    -0.1140 N.2   1 <1>  -0.7070 
 11 C        3.1440    -5.0640    -0.4290 C.2   1 <1>  -0.1500 
 12 C        4.6180     2.6170     0.4910 C.3   1 <1>  -0.1600 
 13 N        5.1960    -4.8320     0.2160 N.pl3 1 <1>   0.3000 
 14 C        4.2140    -5.7390     0.0380 C.2   1 <1>  -0.3320 
 15 C        5.9960     3.2950     0.4340 C.3   1 <1>  -0.1600 
 16 C        4.3630    -7.2230     0.3250 C.3   1 <1>  -0.0600 
 17 C        5.9250     4.8290     0.5550 C.3   1 <1>  -0.0800 
 18 C        5.1840     5.4730    -0.6250 C.3   1 <1>  -0.2400 
 19 C        7.3440     5.4050     0.6370 C.3   1 <1>  -0.2400 
 20 H       -0.1270    -0.6870     0.8130 H     1 <1>   0.4000 
 21 H        0.8810    -0.6680    -1.2030 H     1 <1>   0.0800 
 22 H        1.7510    -2.2490     0.8880 H     1 <1>   0.0800 
 23 H        2.0610     1.5980    -0.5400 H     1 <1>   0.0800 
 24 H        3.0440     0.4530    -1.4520 H     1 <1>   0.0800 
 25 H        4.4330    -1.4030     0.3900 H     1 <1>   0.0800 
 26 H        3.5520    -1.2570     1.8940 H     1 <1>   0.0800 
 27 H        3.2650    -2.0440    -1.7340 H     1 <1>   0.0800 
 28 H        1.8270    -2.9860    -1.4650 H     1 <1>   0.0800 
 29 H        2.9350     0.8300     1.4390 H     1 <1>   0.4500 
 30 H        5.3940     0.8050     1.3200 H     1 <1>   0.0800 
 31 H        5.2470     0.7730    -0.4190 H     1 <1>   0.0800 
 32 H        2.1740    -5.4480    -0.6940 H     1 <1>   0.1500 
 33 H        4.0400     2.9210    -0.3620 H     1 <1>   0.0800 
 34 H        4.1120     2.9280     1.3880 H     1 <1>   0.0800 
 35 H        6.1460    -5.0350     0.5530 H     1 <1>   0.2700 
 36 H        6.4920     3.0360    -0.4860 H     1 <1>   0.0800 
 37 H        6.6000     2.9210     1.2450 H     1 <1>   0.0800 
 38 H        3.4450    -7.7370     0.1010 H     1 <1>   0.0800 
 39 H        4.6000    -7.3820     1.3620 H     1 <1>   0.0800 
 40 H        5.1450    -7.6430    -0.2820 H     1 <1>   0.0800 
 41 H        5.4100     5.0860     1.4660 H     1 <1>   0.0800 
 42 H        5.6370     5.1910    -1.5590 H     1 <1>   0.0800 
 43 H        5.2220     6.5460    -0.5420 H     1 <1>   0.0800 
 44 H        4.1490     5.1860    -0.6370 H     1 <1>   0.0800 
 45 H        7.8990     5.1800    -0.2570 H     1 <1>   0.0800 
 46 H        7.8690     4.9950     1.4810 H     1 <1>   0.0800 
 47 H        7.3070     6.4730     0.7550 H     1 <1>   0.0800 
@<TRIPOS>BOND
  1   1   2  1   
  2   1  20  1   
  3   2   3  1   
  4   2   4  1   
  5   2  21  1   
  6   3   5  1   
  7   3   6  1   
  8   3  22  1   
  9   4   7  1   
 10   4  23  1   
 11   4  24  1   
 12   5   7  1   
 13   5  25  1   
 14   5  26  1   
 15   6   8  1   
 16   6  27  1   
 17   6  28  1   
 18   7   9  1   
 19   7  29  1   
 20   8  10  2   
 21   8  11  1   
 22   9  12  1   
 23   9  30  1   
 24   9  31  1   
 25  10  13  1   
 26  11  14  2   
 27  11  32  1   
 28  12  15  1   
 29  12  33  1   
 30  12  34  1   
 31  13  14  1   
 32  13  35  1   
 33  14  16  1   
 34  15  17  1   
 35  15  36  1   
 36  15  37  1   
 37  16  38  1   
 38  16  39  1   
 39  16  40  1   
 40  17  18  1   
 41  17  19  1   
 42  17  41  1   
 43  18  42  1   
 44  18  43  1   
 45  18  44  1   
 46  19  45  1   
 47  19  46  1   
 48  19  47  1   
@<TRIPOS>SUBSTRUCTURE
  1 ****   5 GROUP 4 **** **** 0

# MOE 2024.06 (io_trps.svl 2023.06)
