@<TRIPOS>MOLECULE
NONAME
55 58 1 0 0 
SMALL
USER_CHARGES


@<TRIPOS>ATOM
  1 S        1.0350     0.3730     1.1740 S.3   1 <1>  -0.0800 
  2 C        1.3280     1.8470     0.3040 C.2   1 <1>   0.4420 
  3 C        0.2710    -0.2340    -0.2570 C.2   1 <1>   0.1980 
  4 N        0.8750     1.8020    -0.8950 N.2   1 <1>  -0.3380 
  5 N        1.9770     2.9150     0.8800 N.am  1 <1>  -0.4940 
  6 N        0.2720     0.6160    -1.2080 N.2   1 <1>  -0.3380 
  7 C       -0.3100    -1.6450    -0.2020 C.3   1 <1>   0.3800 
  8 C        2.5360     3.1200     2.1050 C.2   1 <1>   0.5690 
  9 O        0.6660    -2.5830     0.1550 O.3   1 <1>  -0.5600 
 10 C       -0.8830    -2.1530    -1.5210 C.3   1 <1>  -0.1600 
 11 O        2.5380     2.3100     2.9970 O.2   1 <1>  -0.5700 
 12 C        3.1960     4.4830     2.3280 C.3   1 <1>   0.1710 
 13 C        0.4850    -3.8020    -0.4990 C.3   1 <1>   0.1200 
 14 C       -0.7520    -3.6550    -1.3760 C.3   1 <1>  -0.1600 
 15 N        3.4880     5.2220     1.0590 N.3   1 <1>  -0.8100 
 16 C        3.6320     6.6710     1.3290 C.3   1 <1>   0.1100 
 17 C        4.6690     4.6550     0.3810 C.3   1 <1>   0.1100 
 18 C        3.7800     7.5410     0.0680 C.3   1 <1>   0.2090 
 19 C        4.6270     4.9890    -1.1110 C.3   1 <1>  -0.1600 
 20 N        5.1390     7.4060    -0.5430 N.pl3 1 <1>  -0.8380 
 21 C        5.3520     6.2830    -1.4980 C.3   1 <1>   0.2090 
 22 C        6.1170     8.3140    -0.3120 C.ar  1 <1>   0.1000 
 23 C        6.1150     9.6060    -0.8690 C.ar  1 <1>  -0.1430 
 24 C        7.1930     7.9640     0.5100 C.ar  1 <1>  -0.1500 
 25 C        7.1430    10.4710    -0.5820 C.ar  1 <1>   0.2110 
 26 C        4.9910    10.0430    -1.8050 C.3   1 <1>  -0.0970 
 27 C        8.1990     8.8540     0.7700 C.ar  1 <1>   0.2110 
 28 N        8.1650    10.0960     0.2280 N.ar  1 <1>  -0.1790 
 29 H        2.1150     3.7170     0.2610 H     1 <1>   0.3700 
 30 H       -1.0700    -1.6840     0.5580 H     1 <1>   0.0800 
 31 H       -0.2750    -1.8060    -2.3390 H     1 <1>   0.0800 
 32 H       -1.8980    -1.8300    -1.6700 H     1 <1>   0.0800 
 33 H        4.1000     4.3470     2.8940 H     1 <1>   0.0800 
 34 H        2.5150     5.0570     2.9310 H     1 <1>   0.0800 
 35 H        0.3740    -4.5820     0.2350 H     1 <1>   0.0800 
 36 H        1.3640    -3.9830    -1.0950 H     1 <1>   0.0800 
 37 H       -0.6370    -4.1550    -2.3220 H     1 <1>   0.0800 
 38 H       -1.6050    -4.0620    -0.8610 H     1 <1>   0.0800 
 39 H        4.4720     6.8460     1.9780 H     1 <1>   0.0800 
 40 H        2.7470     7.0060     1.8420 H     1 <1>   0.0800 
 41 H        4.6550     3.5820     0.4760 H     1 <1>   0.0800 
 42 H        5.5800     5.0120     0.8340 H     1 <1>   0.0800 
 43 H        3.6330     8.5660     0.3580 H     1 <1>   0.0800 
 44 H        3.0160     7.2900    -0.6470 H     1 <1>   0.0800 
 45 H        3.6080     5.0220    -1.4510 H     1 <1>   0.0800 
 46 H        5.1020     4.1880    -1.6490 H     1 <1>   0.0800 
 47 H        5.0230     6.5890    -2.4770 H     1 <1>   0.0800 
 48 H        6.4080     6.0830    -1.5600 H     1 <1>   0.0800 
 49 H        7.2040     6.9750     0.9340 H     1 <1>   0.1500 
 50 H        7.1600    11.4660    -0.9980 H     1 <1>   0.1500 
 51 H        4.8100     9.2830    -2.5450 H     1 <1>   0.0800 
 52 H        5.2360    10.9560    -2.3190 H     1 <1>   0.0800 
 53 H        4.0840    10.2000    -1.2500 H     1 <1>   0.0800 
 54 H        9.0280     8.5850     1.4060 H     1 <1>   0.1500 
 55 H        8.9230    10.7590     0.4280 H     1 <1>   0.4570 
@<TRIPOS>BOND
  1   1   2  1   
  2   1   3  1   
  3   2   4  2   
  4   2   5  1   
  5   3   6  2   
  6   3   7  1   
  7   4   6  1   
  8   5   8  am  
  9   5  29  1   
 10   7   9  1   
 11   7  10  1   
 12   7  30  1   
 13   8  11  2   
 14   8  12  1   
 15   9  13  1   
 16  10  14  1   
 17  10  31  1   
 18  10  32  1   
 19  12  15  1   
 20  12  33  1   
 21  12  34  1   
 22  13  14  1   
 23  13  35  1   
 24  13  36  1   
 25  14  37  1   
 26  14  38  1   
 27  15  16  1   
 28  15  17  1   
 29  16  18  1   
 30  16  39  1   
 31  16  40  1   
 32  17  19  1   
 33  17  41  1   
 34  17  42  1   
 35  18  20  1   
 36  18  43  1   
 37  18  44  1   
 38  19  21  1   
 39  19  45  1   
 40  19  46  1   
 41  20  21  1   
 42  20  22  1   
 43  21  47  1   
 44  21  48  1   
 45  22  23  ar  
 46  22  24  ar  
 47  23  25  ar  
 48  23  26  1   
 49  24  27  ar  
 50  24  49  1   
 51  25  28  ar  
 52  25  50  1   
 53  26  51  1   
 54  26  52  1   
 55  26  53  1   
 56  27  28  ar  
 57  27  54  1   
 58  28  55  1   
@<TRIPOS>SUBSTRUCTURE
  1 ****  17 GROUP 4 **** **** 0

# MOE 2024.06 (io_trps.svl 2023.06)
