@<TRIPOS>MOLECULE
NONAME
54 56 1 0 0 
SMALL
USER_CHARGES


@<TRIPOS>ATOM
  1 O        0.3510     1.5850    -1.3050 O.2   1 <1>  -0.5700 
  2 C       -0.2320     2.6440    -1.2980 C.2   1 <1>   0.5690 
  3 N       -1.0400     3.0470    -0.2710 N.am  1 <1>  -0.6600 
  4 C       -0.0730     3.5810    -2.4920 C.3   1 <1>   0.1810 
  5 C       -1.8440     4.3080    -0.4280 C.3   1 <1>   0.3640 
  6 C       -1.0400     2.3350     1.0350 C.3   1 <1>   0.2200 
  7 O       -0.0400     4.9210    -2.0720 O.3   1 <1>  -0.5600 
  8 C       -3.2670     4.0040    -0.9160 C.ar  1 <1>  -0.1440 
  9 C       -1.1990     5.3650    -1.3750 C.3   1 <1>   0.2610 
 10 C       -2.4600     2.0440     1.5210 C.3   1 <1>  -0.2400 
 11 C       -0.2520     3.1500     2.0600 C.3   1 <1>  -0.2400 
 12 C       -3.5850     2.8950    -1.6920 C.ar  1 <1>  -0.1500 
 13 C       -4.2810     4.8890    -0.5730 C.ar  1 <1>  -0.1500 
 14 C       -0.8950     6.6310    -0.5680 C.2   1 <1>   0.5690 
 15 C       -4.8850     2.6790    -2.1150 C.ar  1 <1>  -0.1500 
 16 C       -5.5810     4.6750    -0.9960 C.ar  1 <1>  -0.1500 
 17 O       -1.8070     7.2230    -0.0380 O.2   1 <1>  -0.5700 
 18 N        0.3830     7.0680    -0.4420 N.am  1 <1>  -0.7300 
 19 C       -5.8840     3.5690    -1.7690 C.ar  1 <1>  -0.1500 
 20 C        0.7890     8.2610     0.3040 C.3   1 <1>   0.2010 
 21 C        2.3080     8.5300     0.2880 C.2   1 <1>   0.5690 
 22 O        3.0610     7.7480    -0.2920 O.2   1 <1>  -0.5700 
 23 N        2.8000     9.6410     0.9210 N.am  1 <1>  -0.6600 
 24 C        2.0130    10.6640     1.6450 C.3   1 <1>   0.1400 
 25 C        4.2410     9.9740     0.9270 C.3   1 <1>   0.1400 
 26 C        3.0540    11.5450     2.3240 C.3   1 <1>  -0.1600 
 27 C        4.3070    11.3990     1.4640 C.3   1 <1>  -0.1600 
 28 H       -0.8870     3.4510    -3.1810 H     1 <1>   0.0800 
 29 H        0.8540     3.3700    -2.9930 H     1 <1>   0.0800 
 30 H       -1.9450     4.7550     0.5450 H     1 <1>   0.0800 
 31 H       -0.5390     1.3870     0.9140 H     1 <1>   0.0800 
 32 H       -1.9180     5.6430    -2.1250 H     1 <1>   0.0800 
 33 H       -2.9950     2.9490     1.7430 H     1 <1>   0.0800 
 34 H       -2.4200     1.4520     2.4170 H     1 <1>   0.0800 
 35 H       -2.9970     1.4850     0.7760 H     1 <1>   0.0800 
 36 H       -0.7430     4.0770     2.2900 H     1 <1>   0.0800 
 37 H        0.7350     3.3510     1.6860 H     1 <1>   0.0800 
 38 H       -0.1560     2.5870     2.9710 H     1 <1>   0.0800 
 39 H       -2.8320     2.1800    -1.9710 H     1 <1>   0.1500 
 40 H       -4.0670     5.7590     0.0260 H     1 <1>   0.1500 
 41 H       -5.1190     1.8160    -2.7130 H     1 <1>   0.1500 
 42 H       -6.3570     5.3700    -0.7230 H     1 <1>   0.1500 
 43 H        1.1180     6.5520    -0.9170 H     1 <1>   0.3700 
 44 H       -6.8950     3.4020    -2.0980 H     1 <1>   0.1500 
 45 H        0.2860     9.1320    -0.1160 H     1 <1>   0.0800 
 46 H        0.4740     8.1580     1.3420 H     1 <1>   0.0800 
 47 H        1.4440    11.2400     0.9340 H     1 <1>   0.0800 
 48 H        1.3530    10.2130     2.3670 H     1 <1>   0.0800 
 49 H        4.7550     9.2940     1.5860 H     1 <1>   0.0800 
 50 H        4.6580     9.8990    -0.0630 H     1 <1>   0.0800 
 51 H        2.7270    12.5670     2.4020 H     1 <1>   0.0800 
 52 H        3.2450    11.1630     3.3120 H     1 <1>   0.0800 
 53 H        5.2110    11.5740     2.0200 H     1 <1>   0.0800 
 54 H        4.2660    12.0850     0.6360 H     1 <1>   0.0800 
@<TRIPOS>BOND
  1   1   2  2   
  2   2   3  am  
  3   2   4  1   
  4   3   5  1   
  5   3   6  1   
  6   4   7  1   
  7   4  28  1   
  8   4  29  1   
  9   5   8  1   
 10   5   9  1   
 11   5  30  1   
 12   6  10  1   
 13   6  11  1   
 14   6  31  1   
 15   7   9  1   
 16   8  12  ar  
 17   8  13  ar  
 18   9  14  1   
 19   9  32  1   
 20  10  33  1   
 21  10  34  1   
 22  10  35  1   
 23  11  36  1   
 24  11  37  1   
 25  11  38  1   
 26  12  15  ar  
 27  12  39  1   
 28  13  16  ar  
 29  13  40  1   
 30  14  17  2   
 31  14  18  am  
 32  15  19  ar  
 33  15  41  1   
 34  16  19  ar  
 35  16  42  1   
 36  18  20  1   
 37  18  43  1   
 38  19  44  1   
 39  20  21  1   
 40  20  45  1   
 41  20  46  1   
 42  21  22  2   
 43  21  23  am  
 44  23  24  1   
 45  23  25  1   
 46  24  26  1   
 47  24  47  1   
 48  24  48  1   
 49  25  27  1   
 50  25  49  1   
 51  25  50  1   
 52  26  27  1   
 53  26  51  1   
 54  26  52  1   
 55  27  53  1   
 56  27  54  1   
@<TRIPOS>SUBSTRUCTURE
  1 ****  14 GROUP 4 **** **** 0

# MOE 2024.06 (io_trps.svl 2023.06)
