@<TRIPOS>MOLECULE
NONAME
41 42 1 0 0 
SMALL
USER_CHARGES


@<TRIPOS>ATOM
  1 S       -1.2470     0.5510    -1.8730 S.3   1 <1>  -0.0800 
  2 C       -1.8730     0.8000    -0.2570 C.2   1 <1>   0.1980 
  3 C        0.2230     1.3450    -1.3940 C.2   1 <1>  -0.1100 
  4 N       -1.0680     1.4000     0.5280 N.2   1 <1>  -0.5650 
  5 C       -3.2710     0.2820     0.0360 C.3   1 <1>   0.3200 
  6 C        0.1230     1.7150    -0.1070 C.2   1 <1>   0.0460 
  7 N       -3.2480    -1.1890     0.2330 N.am  1 <1>  -0.7300 
  8 C        1.1610     2.4390     0.7370 C.3   1 <1>   0.0210 
  9 C       -4.1540    -2.0450    -0.2910 C.2   1 <1>   0.5690 
 10 C        2.4560     2.7550    -0.0220 C.3   1 <1>  -0.2400 
 11 O       -5.0980    -1.6540    -0.9310 O.2   1 <1>  -0.5700 
 12 C       -3.9630    -3.5290    -0.0640 C.3   1 <1>  -0.0990 
 13 C       -5.3030    -4.2570     0.0510 C.3   1 <1>   0.0700 
 14 S       -4.9600    -6.0000     0.4020 S.3   1 <1>  -0.4600 
 15 C       -6.6100    -6.7560     0.4060 C.3   1 <1>   0.2130 
 16 C       -6.4650    -8.2310     0.7400 C.ar  1 <1>  -0.1440 
 17 C       -6.7750    -8.6980     2.0080 C.ar  1 <1>  -0.1500 
 18 C       -6.0250    -9.1240    -0.2250 C.ar  1 <1>  -0.1500 
 19 C       -6.6530   -10.0450     2.3060 C.ar  1 <1>  -0.1500 
 20 C       -5.9030   -10.4700     0.0710 C.ar  1 <1>  -0.1500 
 21 C       -6.2180   -10.9320     1.3370 C.ar  1 <1>  -0.1500 
 22 H        1.0010     1.4480    -2.1280 H     1 <1>   0.1500 
 23 H       -3.9280     0.5430    -0.7750 H     1 <1>   0.0800 
 24 H       -3.6350     0.7500     0.9330 H     1 <1>   0.0800 
 25 H       -2.4380    -1.5320     0.7530 H     1 <1>   0.3700 
 26 H        1.3910     1.8280     1.5920 H     1 <1>   0.0800 
 27 H        0.7270     3.3550     1.0970 H     1 <1>   0.0800 
 28 H        2.9180     1.8470    -0.3680 H     1 <1>   0.0800 
 29 H        3.1450     3.2640     0.6280 H     1 <1>   0.0800 
 30 H        2.2490     3.3890    -0.8660 H     1 <1>   0.0800 
 31 H       -3.4000    -3.6840     0.8370 H     1 <1>   0.0800 
 32 H       -3.4090    -3.9320    -0.8910 H     1 <1>   0.0800 
 33 H       -5.8580    -4.2090    -0.8710 H     1 <1>   0.0800 
 34 H       -5.8950    -3.8700     0.8620 H     1 <1>   0.0800 
 35 H       -7.0330    -6.6160    -0.5720 H     1 <1>   0.0800 
 36 H       -7.2000    -6.2380     1.1410 H     1 <1>   0.0800 
 37 H       -7.1090    -8.0170     2.7700 H     1 <1>   0.1500 
 38 H       -5.7710    -8.7700    -1.2090 H     1 <1>   0.1500 
 39 H       -6.8950   -10.4020     3.2920 H     1 <1>   0.1500 
 40 H       -5.5600   -11.1570    -0.6820 H     1 <1>   0.1500 
 41 H       -6.1230   -11.9780     1.5680 H     1 <1>   0.1500 
@<TRIPOS>BOND
  1   1   2  1   
  2   1   3  1   
  3   2   4  2   
  4   2   5  1   
  5   3   6  2   
  6   3  22  1   
  7   4   6  1   
  8   5   7  1   
  9   5  23  1   
 10   5  24  1   
 11   6   8  1   
 12   7   9  am  
 13   7  25  1   
 14   8  10  1   
 15   8  26  1   
 16   8  27  1   
 17   9  11  2   
 18   9  12  1   
 19  10  28  1   
 20  10  29  1   
 21  10  30  1   
 22  12  13  1   
 23  12  31  1   
 24  12  32  1   
 25  13  14  1   
 26  13  33  1   
 27  13  34  1   
 28  14  15  1   
 29  15  16  1   
 30  15  35  1   
 31  15  36  1   
 32  16  17  ar  
 33  16  18  ar  
 34  17  19  ar  
 35  17  37  1   
 36  18  20  ar  
 37  18  38  1   
 38  19  21  ar  
 39  19  39  1   
 40  20  21  ar  
 41  20  40  1   
 42  21  41  1   
@<TRIPOS>SUBSTRUCTURE
  1 ****  12 GROUP 4 **** **** 0

# MOE 2024.06 (io_trps.svl 2023.06)
