@<TRIPOS>MOLECULE
NONAME
47 50 1 0 0 
SMALL
USER_CHARGES


@<TRIPOS>ATOM
  1 S        1.0260    -1.6800     0.3450 S.3   1 <1>  -0.0800 
  2 C       -0.5560    -1.3950    -0.3570 C.2   1 <1>  -0.1100 
  3 C        0.3770    -2.9140     1.4090 C.2   1 <1>  -0.1100 
  4 C       -1.4820    -2.1980     0.2020 C.2   1 <1>  -0.1810 
  5 C       -0.9450    -3.0640     1.2110 C.2   1 <1>  -0.1500 
  6 C       -2.9590    -2.2390    -0.1530 C.3   1 <1>   0.3210 
  7 N       -3.3210    -3.5900    -0.6710 N.am  1 <1>  -0.6600 
  8 C       -4.1350    -4.4260     0.0590 C.2   1 <1>   0.5690 
  9 C       -2.5630    -4.0080    -1.8870 C.3   1 <1>   0.0600 
 10 O       -4.6440    -4.0420     1.0910 O.2   1 <1>  -0.5700 
 11 C       -4.4260    -5.8630    -0.4190 C.3   1 <1>   0.2610 
 12 O       -3.2490    -6.6450    -0.3970 O.3   1 <1>  -0.5600 
 13 C       -5.5810    -6.5290     0.3810 C.3   1 <1>   0.3640 
 14 C       -3.4170    -7.9330    -0.9280 C.3   1 <1>   0.1810 
 15 N       -5.5510    -8.0320     0.3780 N.am  1 <1>  -0.5090 
 16 C       -6.9020    -6.0240    -0.1940 C.ar  1 <1>  -0.1430 
 17 C       -4.5100    -8.7140    -0.2050 C.2   1 <1>   0.5690 
 18 C       -6.4200    -8.6870     1.3940 C.3   1 <1>   0.0490 
 19 C       -7.4030    -6.5300    -1.3870 C.ar  1 <1>   0.1600 
 20 C       -7.6180    -5.0350     0.4540 C.ar  1 <1>  -0.1500 
 21 O       -4.4010    -9.9180    -0.1740 O.2   1 <1>  -0.5700 
 22 C       -7.1510    -9.9430     1.0340 C.3   1 <1>  -0.2000 
 23 C       -7.9140    -8.6800     1.2640 C.3   1 <1>  -0.2000 
 24 N       -8.5200    -6.1310    -1.9730 N.ar  1 <1>  -0.6200 
 25 C       -8.7890    -4.6140    -0.1380 C.ar  1 <1>  -0.1500 
 26 C       -9.1880    -5.1850    -1.3340 C.ar  1 <1>   0.1600 
 27 H       -0.6220    -0.6440    -1.1240 H     1 <1>   0.1500 
 28 H        1.0620    -3.4030     2.0790 H     1 <1>   0.1500 
 29 H       -1.5820    -3.7580     1.7350 H     1 <1>   0.1500 
 30 H       -3.1760    -1.5040    -0.9080 H     1 <1>   0.0800 
 31 H       -3.5370    -1.9900     0.7200 H     1 <1>   0.0800 
 32 H       -2.3810    -3.1570    -2.5200 H     1 <1>   0.0800 
 33 H       -3.1090    -4.7400    -2.4540 H     1 <1>   0.0800 
 34 H       -1.6170    -4.4290    -1.5900 H     1 <1>   0.0800 
 35 H       -4.7320    -5.7920    -1.4460 H     1 <1>   0.0800 
 36 H       -5.5100    -6.2250     1.4100 H     1 <1>   0.0800 
 37 H       -3.6530    -7.8520    -1.9730 H     1 <1>   0.0800 
 38 H       -2.4820    -8.4530    -0.8220 H     1 <1>   0.0800 
 39 H       -5.9970    -8.6290     2.3830 H     1 <1>   0.1000 
 40 H       -6.8590    -7.3120    -1.8890 H     1 <1>   0.1500 
 41 H       -7.2780    -4.6010     1.3810 H     1 <1>   0.1500 
 42 H       -7.0650   -10.3220     0.0310 H     1 <1>   0.1000 
 43 H       -7.2160   -10.7260     1.7680 H     1 <1>   0.1000 
 44 H       -8.5100    -8.6070     2.1560 H     1 <1>   0.1000 
 45 H       -8.4060    -8.2530     0.4100 H     1 <1>   0.1000 
 46 H       -9.3870    -3.8480     0.3210 H     1 <1>   0.1500 
 47 H      -10.1040    -4.8460    -1.7870 H     1 <1>   0.1500 
@<TRIPOS>BOND
  1   1   2  1   
  2   1   3  1   
  3   2   4  2   
  4   2  27  1   
  5   3   5  2   
  6   3  28  1   
  7   4   5  1   
  8   4   6  1   
  9   5  29  1   
 10   6   7  1   
 11   6  30  1   
 12   6  31  1   
 13   7   8  am  
 14   7   9  1   
 15   8  10  2   
 16   8  11  1   
 17   9  32  1   
 18   9  33  1   
 19   9  34  1   
 20  11  12  1   
 21  11  13  1   
 22  11  35  1   
 23  12  14  1   
 24  13  15  1   
 25  13  16  1   
 26  13  36  1   
 27  14  17  1   
 28  14  37  1   
 29  14  38  1   
 30  15  17  am  
 31  15  18  1   
 32  16  19  ar  
 33  16  20  ar  
 34  17  21  2   
 35  18  22  1   
 36  18  23  1   
 37  18  39  1   
 38  19  24  ar  
 39  19  40  1   
 40  20  25  ar  
 41  20  41  1   
 42  22  23  1   
 43  22  42  1   
 44  22  43  1   
 45  23  44  1   
 46  23  45  1   
 47  24  26  ar  
 48  25  26  ar  
 49  25  46  1   
 50  26  47  1   
@<TRIPOS>SUBSTRUCTURE
  1 ****  11 GROUP 4 **** **** 0

# MOE 2024.06 (io_trps.svl 2023.06)
