@<TRIPOS>MOLECULE
NONAME
46 49 1 0 0 
SMALL
USER_CHARGES


@<TRIPOS>ATOM
  1 O       -0.3000    -0.0390    -2.8040 O.2   1 <1>  -0.5700 
  2 C       -0.8790     0.7860    -2.1370 C.2   1 <1>   0.5690 
  3 N       -1.8370     0.4210    -1.2280 N.am  1 <1>  -0.6600 
  4 C       -0.5200     2.2510    -2.3520 C.3   1 <1>   0.0440 
  5 C       -2.5720     1.3240    -0.3060 C.3   1 <1>   0.1400 
  6 C       -2.1610    -0.9970    -0.9400 C.3   1 <1>   0.1400 
  7 C        0.0590     2.9160    -1.1070 C.ar  1 <1>  -0.1440 
  8 C       -3.5490     0.4120     0.4350 C.3   1 <1>   0.2000 
  9 C       -2.9090    -0.9730     0.3930 C.3   1 <1>  -0.0800 
 10 C       -0.4830     4.1080    -0.6340 C.ar  1 <1>  -0.1500 
 11 C        1.1300     2.3230    -0.4360 C.ar  1 <1>  -0.1500 
 12 O       -3.7350     0.8190     1.7460 O.3   1 <1>  -0.6800 
 13 C       -3.9230    -2.1160     0.5550 C.3   1 <1>   0.0210 
 14 C        0.0600     4.6630     0.5080 C.ar  1 <1>   0.0820 
 15 C        1.6640     2.8990     0.7090 C.ar  1 <1>  -0.1500 
 16 C       -3.2530    -3.4650     0.3820 C.2   1 <1>   0.1080 
 17 O       -0.3050     5.7850     1.1360 O.3   1 <1>  -0.3630 
 18 C        1.1030     4.0750     1.1620 C.ar  1 <1>   0.0820 
 19 N       -2.2750    -3.8670     1.1320 N.2   1 <1>  -0.7070 
 20 C       -3.5920    -4.4040    -0.5870 C.2   1 <1>  -0.1500 
 21 C        0.5660     5.9260     2.2570 C.3   1 <1>   0.4000 
 22 O        1.4420     4.8010     2.2330 O.3   1 <1>  -0.3620 
 23 N       -1.9600    -5.0860     0.6570 N.pl3 1 <1>   0.3000 
 24 C       -2.7430    -5.4330    -0.3860 C.2   1 <1>  -0.3320 
 25 C       -2.6290    -6.7470    -1.1370 C.3   1 <1>  -0.0600 
 26 H        0.2040     2.3140    -3.1430 H     1 <1>   0.0800 
 27 H       -1.4020     2.7680    -2.6800 H     1 <1>   0.0800 
 28 H       -1.8770     1.7670     0.3850 H     1 <1>   0.0800 
 29 H       -3.0970     2.0850    -0.8540 H     1 <1>   0.0800 
 30 H       -2.7860    -1.3800    -1.7290 H     1 <1>   0.0800 
 31 H       -1.2660    -1.5950    -0.8750 H     1 <1>   0.0800 
 32 H       -4.5030     0.4210    -0.0630 H     1 <1>   0.0800 
 33 H       -2.1670    -1.0510     1.1690 H     1 <1>   0.0800 
 34 H       -1.3020     4.6000    -1.1250 H     1 <1>   0.1500 
 35 H        1.5510     1.4020    -0.8060 H     1 <1>   0.1500 
 36 H       -2.9050     0.7140     2.2510 H     1 <1>   0.4000 
 37 H       -4.7120    -2.0160    -0.1680 H     1 <1>   0.0800 
 38 H       -4.3590    -2.0710     1.5360 H     1 <1>   0.0800 
 39 H        2.4870     2.4510     1.2350 H     1 <1>   0.1500 
 40 H       -4.3660    -4.3050    -1.3270 H     1 <1>   0.1500 
 41 H        1.1390     6.8310     2.1560 H     1 <1>   0.0800 
 42 H       -0.0090     5.9170     3.1660 H     1 <1>   0.0800 
 43 H       -1.2070    -5.6530     1.0650 H     1 <1>   0.2700 
 44 H       -3.3610    -6.7870    -1.9240 H     1 <1>   0.0800 
 45 H       -2.7980    -7.5730    -0.4700 H     1 <1>   0.0800 
 46 H       -1.6510    -6.8410    -1.5750 H     1 <1>   0.0800 
@<TRIPOS>BOND
  1   1   2  2   
  2   2   3  am  
  3   2   4  1   
  4   3   5  1   
  5   3   6  1   
  6   4   7  1   
  7   4  26  1   
  8   4  27  1   
  9   5   8  1   
 10   5  28  1   
 11   5  29  1   
 12   6   9  1   
 13   6  30  1   
 14   6  31  1   
 15   7  10  ar  
 16   7  11  ar  
 17   8   9  1   
 18   8  12  1   
 19   8  32  1   
 20   9  13  1   
 21   9  33  1   
 22  10  14  ar  
 23  10  34  1   
 24  11  15  ar  
 25  11  35  1   
 26  12  36  1   
 27  13  16  1   
 28  13  37  1   
 29  13  38  1   
 30  14  17  1   
 31  14  18  ar  
 32  15  18  ar  
 33  15  39  1   
 34  16  19  2   
 35  16  20  1   
 36  17  21  1   
 37  18  22  1   
 38  19  23  1   
 39  20  24  2   
 40  20  40  1   
 41  21  22  1   
 42  21  41  1   
 43  21  42  1   
 44  23  24  1   
 45  23  43  1   
 46  24  25  1   
 47  25  44  1   
 48  25  45  1   
 49  25  46  1   
@<TRIPOS>SUBSTRUCTURE
  1 ****   3 GROUP 4 **** **** 0

# MOE 2024.06 (io_trps.svl 2023.06)
