@<TRIPOS>MOLECULE
NONAME
46 48 1 0 0 
SMALL
USER_CHARGES


@<TRIPOS>ATOM
  1 F       -0.7900    -2.9450    -1.1690 F     1 <1>  -0.1900 
  2 C       -1.8360    -2.3710    -0.6330 C.ar  1 <1>   0.1900 
  3 C       -2.3880    -2.9040     0.5240 C.ar  1 <1>   0.0820 
  4 C       -2.3650    -1.2470    -1.2360 C.ar  1 <1>  -0.1500 
  5 O       -1.8630    -3.9990     1.1070 O.3   1 <1>  -0.5330 
  6 C       -3.4940    -2.2930     1.0840 C.ar  1 <1>  -0.1500 
  7 C       -3.4750    -0.6480    -0.6620 C.ar  1 <1>  -0.1500 
  8 C       -4.0640    -1.1600     0.5000 C.ar  1 <1>   0.0860 
  9 C       -5.2270    -0.5280     1.0920 C.2   1 <1>   0.5440 
 10 O       -5.1750    -0.1740     2.2540 O.2   1 <1>  -0.5700 
 11 N       -6.3890    -0.3180     0.3760 N.am  1 <1>  -0.6600 
 12 C       -6.7260    -1.0060    -0.8960 C.3   1 <1>   0.1400 
 13 C       -7.4970     0.5210     0.9000 C.3   1 <1>   0.1400 
 14 C       -7.9660    -1.8800    -0.6900 C.3   1 <1>  -0.1600 
 15 C       -8.7320    -0.3530     1.1230 C.3   1 <1>  -0.1600 
 16 C       -9.1880    -1.0900    -0.1620 C.3   1 <1>   0.2800 
 17 O       -9.5040    -0.1620    -1.1780 O.3   1 <1>  -0.5600 
 18 C      -10.4200    -2.0330     0.0610 C.3   1 <1>   0.2000 
 19 C      -10.6230     0.6580    -0.9830 C.3   1 <1>   0.1200 
 20 O      -10.5460    -2.8880    -1.0440 O.3   1 <1>  -0.6800 
 21 C      -11.7630    -1.2600     0.2310 C.3   1 <1>   0.2800 
 22 C      -11.8920    -0.1920    -0.8620 C.3   1 <1>  -0.1600 
 23 O      -11.7850    -0.6140     1.4510 O.3   1 <1>  -0.6800 
 24 C      -12.9930    -2.1770     0.2550 C.3   1 <1>  -0.2400 
 25 H       -1.9150    -0.8510    -2.1300 H     1 <1>   0.1500 
 26 H       -1.0730    -4.3240     0.6320 H     1 <1>   0.4500 
 27 H       -3.9230    -2.6930     1.9860 H     1 <1>   0.1500 
 28 H       -3.8990     0.2340    -1.1120 H     1 <1>   0.1500 
 29 H       -6.9220    -0.2670    -1.6550 H     1 <1>   0.0800 
 30 H       -5.9130    -1.6250    -1.2290 H     1 <1>   0.0800 
 31 H       -7.2140     0.9920     1.8260 H     1 <1>   0.0800 
 32 H       -7.7200     1.2960     0.1870 H     1 <1>   0.0800 
 33 H       -7.7230    -2.6650     0.0030 H     1 <1>   0.0800 
 34 H       -8.1980    -2.3450    -1.6300 H     1 <1>   0.0800 
 35 H       -9.5050     0.2630     1.5320 H     1 <1>   0.0800 
 36 H       -8.4930    -1.0800     1.8780 H     1 <1>   0.0800 
 37 H      -10.2570    -2.6610     0.9190 H     1 <1>   0.0800 
 38 H      -10.4730     1.2650    -0.1080 H     1 <1>   0.0800 
 39 H      -10.6960     1.3100    -1.8360 H     1 <1>   0.0800 
 40 H      -10.4580    -2.3430    -1.8530 H     1 <1>   0.4000 
 41 H      -12.0640    -0.6690    -1.8100 H     1 <1>   0.0800 
 42 H      -12.7380     0.4410    -0.6680 H     1 <1>   0.0800 
 43 H      -12.6850    -0.2830     1.6250 H     1 <1>   0.4000 
 44 H      -13.0960    -2.6910    -0.6840 H     1 <1>   0.0800 
 45 H      -13.8930    -1.6150     0.4230 H     1 <1>   0.0800 
 46 H      -12.8840    -2.9200     1.0260 H     1 <1>   0.0800 
@<TRIPOS>BOND
  1   1   2  1   
  2   2   3  ar  
  3   2   4  ar  
  4   3   5  1   
  5   3   6  ar  
  6   4   7  ar  
  7   4  25  1   
  8   5  26  1   
  9   6   8  ar  
 10   6  27  1   
 11   7   8  ar  
 12   7  28  1   
 13   8   9  1   
 14   9  10  2   
 15   9  11  am  
 16  11  12  1   
 17  11  13  1   
 18  12  14  1   
 19  12  29  1   
 20  12  30  1   
 21  13  15  1   
 22  13  31  1   
 23  13  32  1   
 24  14  16  1   
 25  14  33  1   
 26  14  34  1   
 27  15  16  1   
 28  15  35  1   
 29  15  36  1   
 30  16  17  1   
 31  16  18  1   
 32  17  19  1   
 33  18  20  1   
 34  18  21  1   
 35  18  37  1   
 36  19  22  1   
 37  19  38  1   
 38  19  39  1   
 39  20  40  1   
 40  21  22  1   
 41  21  23  1   
 42  21  24  1   
 43  22  41  1   
 44  22  42  1   
 45  23  43  1   
 46  24  44  1   
 47  24  45  1   
 48  24  46  1   
@<TRIPOS>SUBSTRUCTURE
  1 ****  12 GROUP 4 **** **** 0

# MOE 2024.06 (io_trps.svl 2023.06)
