@<TRIPOS>MOLECULE
NONAME
55 57 1 0 0 
SMALL
USER_CHARGES


@<TRIPOS>ATOM
  1 O        0.8960     0.0210    -1.2250 O.2   1 <1>  -0.5700 
  2 C        1.5330    -0.8760    -0.7280 C.2   1 <1>   0.5690 
  3 N        1.1180    -1.5840     0.3660 N.am  1 <1>  -0.6600 
  4 C        2.8650    -1.2600    -1.3380 C.3   1 <1>  -0.0990 
  5 C        1.9740    -2.6540     0.9310 C.3   1 <1>   0.1400 
  6 C       -0.1430    -1.2740     1.0910 C.3   1 <1>   0.0600 
  7 C        2.9680    -2.7920    -1.4720 C.3   1 <1>  -0.0800 
  8 C        2.5100    -3.5530    -0.2040 C.3   1 <1>  -0.0800 
  9 C        4.3890    -3.2680    -1.7980 C.3   1 <1>  -0.1600 
 10 C        3.7010    -4.4170     0.2350 C.3   1 <1>  -0.1600 
 11 C        4.5570    -4.5690    -1.0220 C.3   1 <1>   0.4230 
 12 N        5.9950    -4.9380    -0.8000 N.4   1 <1>  -0.9590 
 13 C        6.7050    -4.2850     0.3870 C.3   1 <1>   0.4040 
 14 C        6.1130    -6.4250    -0.6960 C.3   1 <1>   0.2630 
 15 C        6.8380    -2.7530     0.3530 C.2   1 <1>   0.5690 
 16 O        6.0160    -2.1050     0.9510 O.2   1 <1>  -0.5700 
 17 N        7.8360    -2.1600    -0.3630 N.am  1 <1>  -0.7300 
 18 C        7.9760    -0.6860    -0.5140 C.3   1 <1>   0.1400 
 19 C        8.9260    -0.1290     0.5460 C.3   1 <1>  -0.0170 
 20 C        9.0870     1.3690     0.3530 C.ar  1 <1>  -0.1440 
 21 C        8.1480     2.2420     0.8830 C.ar  1 <1>  -0.1500 
 22 C       10.1630     1.8770    -0.3580 C.ar  1 <1>  -0.1500 
 23 C        8.2830     3.6070     0.7020 C.ar  1 <1>  -0.1500 
 24 C       10.2980     3.2430    -0.5400 C.ar  1 <1>  -0.1500 
 25 C        9.3580     4.1090    -0.0100 C.ar  1 <1>  -0.1500 
 26 H        2.9650    -0.7930    -2.3010 H     1 <1>   0.0800 
 27 H        3.6380    -0.8790    -0.6950 H     1 <1>   0.0800 
 28 H        2.7890    -2.1860     1.4570 H     1 <1>   0.0800 
 29 H        1.4130    -3.2470     1.6340 H     1 <1>   0.0800 
 30 H       -0.7820    -2.1400     1.0970 H     1 <1>   0.0800 
 31 H       -0.6660    -0.4650     0.6090 H     1 <1>   0.0800 
 32 H        0.0800    -0.9860     2.1030 H     1 <1>   0.0800 
 33 H        2.3110    -3.0870    -2.2750 H     1 <1>   0.0800 
 34 H        1.7070    -4.2110    -0.4940 H     1 <1>   0.0800 
 35 H        5.0930    -2.5230    -1.4890 H     1 <1>   0.0800 
 36 H        4.4960    -3.4300    -2.8560 H     1 <1>   0.0800 
 37 H        3.3660    -5.3700     0.6030 H     1 <1>   0.0800 
 38 H        4.2210    -3.9000     1.0170 H     1 <1>   0.0800 
 39 H        4.0940    -5.3360    -1.6250 H     1 <1>   0.0800 
 40 H        6.4880    -4.6350    -1.6510 H     1 <1>   0.4500 
 41 H        6.1890    -4.5420     1.2950 H     1 <1>   0.0800 
 42 H        7.7000    -4.6880     0.4650 H     1 <1>   0.0800 
 43 H        5.5920    -6.7820     0.1780 H     1 <1>   0.0800 
 44 H        7.1490    -6.7180    -0.6240 H     1 <1>   0.0800 
 45 H        5.6860    -6.8970    -1.5670 H     1 <1>   0.0800 
 46 H        8.6000    -2.6950    -0.7840 H     1 <1>   0.3700 
 47 H        8.3530    -0.4570    -1.4960 H     1 <1>   0.0800 
 48 H        7.0130    -0.2130    -0.4100 H     1 <1>   0.0800 
 49 H        8.5260    -0.3190     1.5270 H     1 <1>   0.0800 
 50 H        9.8860    -0.6070     0.4710 H     1 <1>   0.0800 
 51 H        7.3080     1.8640     1.4390 H     1 <1>   0.1500 
 52 H       10.9020     1.2170    -0.7750 H     1 <1>   0.1500 
 53 H        7.5500     4.2790     1.1150 H     1 <1>   0.1500 
 54 H       11.1350     3.6320    -1.0920 H     1 <1>   0.1500 
 55 H        9.4630     5.1700    -0.1510 H     1 <1>   0.1500 
@<TRIPOS>BOND
  1   1   2  2   
  2   2   3  am  
  3   2   4  1   
  4   3   5  1   
  5   3   6  1   
  6   4   7  1   
  7   4  26  1   
  8   4  27  1   
  9   5   8  1   
 10   5  28  1   
 11   5  29  1   
 12   6  30  1   
 13   6  31  1   
 14   6  32  1   
 15   7   8  1   
 16   7   9  1   
 17   7  33  1   
 18   8  10  1   
 19   8  34  1   
 20   9  11  1   
 21   9  35  1   
 22   9  36  1   
 23  10  11  1   
 24  10  37  1   
 25  10  38  1   
 26  11  12  1   
 27  11  39  1   
 28  12  13  1   
 29  12  14  1   
 30  12  40  1   
 31  13  15  1   
 32  13  41  1   
 33  13  42  1   
 34  14  43  1   
 35  14  44  1   
 36  14  45  1   
 37  15  16  2   
 38  15  17  am  
 39  17  18  1   
 40  17  46  1   
 41  18  19  1   
 42  18  47  1   
 43  18  48  1   
 44  19  20  1   
 45  19  49  1   
 46  19  50  1   
 47  20  21  ar  
 48  20  22  ar  
 49  21  23  ar  
 50  21  51  1   
 51  22  24  ar  
 52  22  52  1   
 53  23  25  ar  
 54  23  53  1   
 55  24  25  ar  
 56  24  54  1   
 57  25  55  1   
@<TRIPOS>SUBSTRUCTURE
  1 ****  16 GROUP 4 **** **** 0

# MOE 2024.06 (io_trps.svl 2023.06)
