@<TRIPOS>MOLECULE
NONAME
53 54 1 0 0 
SMALL
USER_CHARGES


@<TRIPOS>ATOM
  1 O        5.6370    -0.5110     0.5220 O.co2 1 <1>  -0.9000 
  2 C        4.7300    -0.4300    -0.3140 C.2   1 <1>   0.9060 
  3 O        4.5500    -1.3180    -1.1620 O.co2 1 <1>  -0.9000 
  4 C        3.8230     0.8140    -0.3730 C.3   1 <1>  -0.1060 
  5 C        4.1300     1.4000    -1.7780 C.3   1 <1>   0.2000 
  6 C        4.1920     1.8640     0.7270 C.3   1 <1>  -0.1600 
  7 C        2.3460     0.3510    -0.1420 C.3   1 <1>  -0.1600 
  8 O        3.4360     0.7000    -2.7510 O.3   1 <1>  -0.6800 
  9 C        3.8960     2.9120    -1.9030 C.3   1 <1>   0.1400 
 10 C        5.2440     2.8690     0.2550 C.3   1 <1>   0.1400 
 11 C        1.2310     1.3700    -0.4500 C.3   1 <1>  -0.1600 
 12 N        4.6740     3.6810    -0.8700 N.am  1 <1>  -0.6600 
 13 C       -0.1400     0.8090    -0.0640 C.3   1 <1>  -0.2400 
 14 C        4.8260     5.0380    -1.0090 C.2   1 <1>   0.5690 
 15 O        4.3510     5.6320    -1.9510 O.2   1 <1>  -0.5700 
 16 C        5.5720     5.8750     0.0240 C.3   1 <1>   0.0440 
 17 C        7.0710     5.5930     0.0790 C.ar  1 <1>  -0.1430 
 18 C        7.8220     5.5740    -1.0850 C.ar  1 <1>  -0.1500 
 19 C        7.7030     5.3600     1.2910 C.ar  1 <1>  -0.1500 
 20 C        9.1820     5.3240    -1.0390 C.ar  1 <1>  -0.1500 
 21 C        9.0630     5.1090     1.3350 C.ar  1 <1>  -0.1500 
 22 C        9.8180     5.0890     0.1710 C.ar  1 <1>  -0.1430 
 23 C       11.3200     4.8130     0.2020 C.3   1 <1>   0.0630 
 24 C       11.6050     3.4120     0.7530 C.3   1 <1>  -0.2400 
 25 C       12.0580     5.8790     1.0180 C.3   1 <1>  -0.2400 
 26 H        5.1740     1.2390    -1.9970 H     1 <1>   0.0800 
 27 H        4.5490     1.3640     1.6100 H     1 <1>   0.0800 
 28 H        3.3320     2.4270     1.0330 H     1 <1>   0.0800 
 29 H        2.1610    -0.5210    -0.7470 H     1 <1>   0.0800 
 30 H        2.2590     0.0300     0.8810 H     1 <1>   0.0800 
 31 H        3.6230    -0.2560    -2.5570 H     1 <1>   0.4000 
 32 H        2.8530     3.1340    -1.7820 H     1 <1>   0.0800 
 33 H        4.2020     3.2310    -2.8830 H     1 <1>   0.0800 
 34 H        6.1260     2.3470    -0.0810 H     1 <1>   0.0800 
 35 H        5.5250     3.4940     1.0820 H     1 <1>   0.0800 
 36 H        1.3900     2.2910     0.0780 H     1 <1>   0.0800 
 37 H        1.2270     1.5850    -1.5040 H     1 <1>   0.0800 
 38 H       -0.1760     0.6000     0.9910 H     1 <1>   0.0800 
 39 H       -0.3340    -0.1010    -0.6050 H     1 <1>   0.0800 
 40 H       -0.9090     1.5210    -0.3020 H     1 <1>   0.0800 
 41 H        5.4350     6.9120    -0.2180 H     1 <1>   0.0800 
 42 H        5.1200     5.7130     0.9830 H     1 <1>   0.0800 
 43 H        7.3480     5.7520    -2.0360 H     1 <1>   0.1500 
 44 H        7.1420     5.3710     2.2080 H     1 <1>   0.1500 
 45 H        9.7410     5.3110    -1.9580 H     1 <1>   0.1500 
 46 H        9.5320     4.9270     2.2850 H     1 <1>   0.1500 
 47 H       11.6990     4.8510    -0.8060 H     1 <1>   0.0800 
 48 H       11.2880     3.3310     1.7770 H     1 <1>   0.0800 
 49 H       12.6560     3.1960     0.6990 H     1 <1>   0.0800 
 50 H       11.0730     2.6780     0.1730 H     1 <1>   0.0800 
 51 H       11.7520     5.8520     2.0480 H     1 <1>   0.0800 
 52 H       11.8400     6.8550     0.6210 H     1 <1>   0.0800 
 53 H       13.1190     5.7180     0.9680 H     1 <1>   0.0800 
@<TRIPOS>BOND
  1   1   2  ar  
  2   2   3  ar  
  3   2   4  1   
  4   4   5  1   
  5   4   6  1   
  6   4   7  1   
  7   5   8  1   
  8   5   9  1   
  9   5  26  1   
 10   6  10  1   
 11   6  27  1   
 12   6  28  1   
 13   7  11  1   
 14   7  29  1   
 15   7  30  1   
 16   8  31  1   
 17   9  12  1   
 18   9  32  1   
 19   9  33  1   
 20  10  12  1   
 21  10  34  1   
 22  10  35  1   
 23  11  13  1   
 24  11  36  1   
 25  11  37  1   
 26  12  14  am  
 27  13  38  1   
 28  13  39  1   
 29  13  40  1   
 30  14  15  2   
 31  14  16  1   
 32  16  17  1   
 33  16  41  1   
 34  16  42  1   
 35  17  18  ar  
 36  17  19  ar  
 37  18  20  ar  
 38  18  43  1   
 39  19  21  ar  
 40  19  44  1   
 41  20  22  ar  
 42  20  45  1   
 43  21  22  ar  
 44  21  46  1   
 45  22  23  1   
 46  23  24  1   
 47  23  25  1   
 48  23  47  1   
 49  24  48  1   
 50  24  49  1   
 51  24  50  1   
 52  25  51  1   
 53  25  52  1   
 54  25  53  1   
@<TRIPOS>SUBSTRUCTURE
  1 ****  10 GROUP 4 **** **** 0

# MOE 2024.06 (io_trps.svl 2023.06)
