@<TRIPOS>MOLECULE
NONAME
48 49 1 0 0 
SMALL
USER_CHARGES


@<TRIPOS>ATOM
  1 S       -0.8610     0.5890    -1.1860 S.o2  1 <1>   1.4470 
  2 O       -0.7520    -0.4070    -2.2330 O.2   1 <1>  -0.6500 
  3 O       -1.7130     1.7400    -1.4020 O.2   1 <1>  -0.6500 
  4 N       -1.3870    -0.1810     0.2320 N.am  1 <1>  -0.8490 
  5 C        0.7980     1.1790    -0.7430 C.ar  1 <1>  -0.0090 
  6 C       -0.7220    -1.4680     0.5360 C.3   1 <1>   0.1960 
  7 C       -2.8390    -0.2280     0.4150 C.3   1 <1>   0.1960 
  8 C        1.8420     1.1430    -1.6610 C.ar  1 <1>  -0.1500 
  9 C        1.0660     1.7000     0.5170 C.ar  1 <1>  -0.1500 
 10 C       -1.6250    -2.7080     0.4060 C.3   1 <1>  -0.1860 
 11 C       -3.4890    -1.2270    -0.5480 C.3   1 <1>  -0.1600 
 12 C        3.1060     1.6020    -1.3330 C.ar  1 <1>  -0.1500 
 13 C        2.3280     2.1600     0.8530 C.ar  1 <1>  -0.1500 
 14 C       -2.2000    -3.0710     1.7640 C.2   1 <1>   0.9060 
 15 C       -2.6670    -2.5140    -0.7070 C.3   1 <1>   0.2000 
 16 C        3.3580     2.1120    -0.0710 C.ar  1 <1>  -0.1440 
 17 O       -1.4140    -3.2320     2.7010 O.co2 1 <1>  -0.9000 
 18 O       -3.4230    -3.2200     1.9050 O.co2 1 <1>  -0.9000 
 19 O       -3.5340    -3.5840    -0.6930 O.3   1 <1>  -0.6800 
 20 C        4.7450     2.6150     0.2950 C.3   1 <1>  -0.0170 
 21 C        4.8820     4.1050    -0.0390 C.3   1 <1>  -0.1600 
 22 C        6.2750     4.6380     0.3210 C.3   1 <1>  -0.1600 
 23 C        6.4000     6.1280    -0.0170 C.3   1 <1>  -0.1600 
 24 C        7.7900     6.6600     0.3420 C.3   1 <1>  -0.2400 
 25 H        0.1240    -1.5970    -0.1180 H     1 <1>   0.0800 
 26 H       -0.3240    -1.4150     1.5360 H     1 <1>   0.0800 
 27 H       -3.0490    -0.5300     1.4290 H     1 <1>   0.0800 
 28 H       -3.2680     0.7500     0.2800 H     1 <1>   0.0800 
 29 H        1.6600     0.7490    -2.6470 H     1 <1>   0.1500 
 30 H        0.2740     1.7440     1.2460 H     1 <1>   0.1500 
 31 H       -0.9990    -3.5350     0.1350 H     1 <1>   0.0800 
 32 H       -3.6060    -0.7660    -1.5120 H     1 <1>   0.0800 
 33 H       -4.4710    -1.4520    -0.1700 H     1 <1>   0.0800 
 34 H        3.8930     1.5610    -2.0660 H     1 <1>   0.1500 
 35 H        2.5030     2.5550     1.8390 H     1 <1>   0.1500 
 36 H       -2.1740    -2.5080    -1.6640 H     1 <1>   0.0800 
 37 H       -3.8000    -3.6830     0.2670 H     1 <1>   0.4000 
 38 H        4.9190     2.4600     1.3450 H     1 <1>   0.0800 
 39 H        5.4860     2.0520    -0.2450 H     1 <1>   0.0800 
 40 H        4.7020     4.2480    -1.0910 H     1 <1>   0.0800 
 41 H        4.1340     4.6570     0.5020 H     1 <1>   0.0800 
 42 H        6.4540     4.4960     1.3730 H     1 <1>   0.0800 
 43 H        7.0230     4.0860    -0.2230 H     1 <1>   0.0800 
 44 H        6.2260     6.2770    -1.0700 H     1 <1>   0.0800 
 45 H        5.6570     6.6870     0.5260 H     1 <1>   0.0800 
 46 H        8.5490     6.1310    -0.2070 H     1 <1>   0.0800 
 47 H        7.9770     6.5420     1.3950 H     1 <1>   0.0800 
 48 H        7.8580     7.7050     0.0980 H     1 <1>   0.0800 
@<TRIPOS>BOND
  1   1   2  2   
  2   1   3  2   
  3   1   4  am  
  4   1   5  1   
  5   4   6  1   
  6   4   7  1   
  7   5   8  ar  
  8   5   9  ar  
  9   6  10  1   
 10   6  25  1   
 11   6  26  1   
 12   7  11  1   
 13   7  27  1   
 14   7  28  1   
 15   8  12  ar  
 16   8  29  1   
 17   9  13  ar  
 18   9  30  1   
 19  10  14  1   
 20  10  15  1   
 21  10  31  1   
 22  11  15  1   
 23  11  32  1   
 24  11  33  1   
 25  12  16  ar  
 26  12  34  1   
 27  13  16  ar  
 28  13  35  1   
 29  14  17  ar  
 30  14  18  ar  
 31  15  19  1   
 32  15  36  1   
 33  16  20  1   
 34  19  37  1   
 35  20  21  1   
 36  20  38  1   
 37  20  39  1   
 38  21  22  1   
 39  21  40  1   
 40  21  41  1   
 41  22  23  1   
 42  22  42  1   
 43  22  43  1   
 44  23  24  1   
 45  23  44  1   
 46  23  45  1   
 47  24  46  1   
 48  24  47  1   
 49  24  48  1   
@<TRIPOS>SUBSTRUCTURE
  1 ****   5 GROUP 4 **** **** 0

# MOE 2024.06 (io_trps.svl 2023.06)
