@<TRIPOS>MOLECULE
NONAME
56 58 1 0 0 
SMALL
USER_CHARGES


@<TRIPOS>ATOM
  1 O       -1.2220    -0.0100    -0.2560 O.2   1 <1>  -0.5700 
  2 C       -1.9460     0.8370    -0.7460 C.2   1 <1>   0.5440 
  3 N       -3.0780     0.4190    -1.4180 N.am  1 <1>  -0.6600 
  4 C       -1.6980     2.2430    -0.5100 C.ar  1 <1>   0.0860 
  5 C       -3.1960    -0.9990    -1.8560 C.3   1 <1>   0.3200 
  6 C       -4.3790     1.1430    -1.2630 C.3   1 <1>   0.1400 
  7 C       -1.3500     2.7010     0.7610 C.ar  1 <1>  -0.1500 
  8 C       -1.8440     3.1980    -1.5180 C.ar  1 <1>  -0.1500 
  9 C       -3.9180    -1.7330    -0.7490 C.2   1 <1>  -0.3320 
 10 C       -4.7110     1.3330     0.2340 C.3   1 <1>   0.3430 
 11 C       -1.2120     4.0490     1.0230 C.ar  1 <1>  -0.1500 
 12 C       -1.7010     4.5460    -1.2560 C.ar  1 <1>  -0.1500 
 13 N       -3.3430    -1.9560     0.4460 N.pl3 1 <1>   0.0330 
 14 C       -5.1650    -2.2440    -0.6800 C.2   1 <1>   0.0770 
 15 N       -6.1710     1.5340     0.5120 N.4   1 <1>  -0.9590 
 16 C       -1.3990     4.9980     0.0250 C.ar  1 <1>   0.1000 
 17 C       -4.3000    -2.5520     1.1870 C.2   1 <1>   0.0360 
 18 N       -5.4170    -2.7210     0.5520 N.2   1 <1>  -0.5650 
 19 C       -6.3500     2.1420     1.8660 C.3   1 <1>   0.2630 
 20 C       -6.9100     0.2300     0.4440 C.3   1 <1>   0.2630 
 21 N       -1.2790     6.3470     0.3180 N.pl3 1 <1>  -0.8380 
 22 C       -0.0020     6.8710     0.8720 C.3   1 <1>   0.2090 
 23 C       -2.1260     7.3750    -0.3430 C.3   1 <1>   0.2090 
 24 C       -0.3080     7.9700     1.8940 C.3   1 <1>  -0.1600 
 25 C       -2.4500     8.4850     0.6620 C.3   1 <1>  -0.1600 
 26 C       -1.1780     9.0810     1.2860 C.3   1 <1>  -0.1600 
 27 H       -2.2220    -1.4290    -2.0240 H     1 <1>   0.0800 
 28 H       -3.7520    -1.0520    -2.7770 H     1 <1>   0.0800 
 29 H       -5.1560     0.5720    -1.7400 H     1 <1>   0.0800 
 30 H       -4.3200     2.1010    -1.7490 H     1 <1>   0.0800 
 31 H       -1.1880     1.9870     1.5500 H     1 <1>   0.1500 
 32 H       -2.0680     2.8750    -2.5200 H     1 <1>   0.1500 
 33 H       -4.1550     2.1840     0.5950 H     1 <1>   0.0800 
 34 H       -4.3740     0.4620     0.7720 H     1 <1>   0.0800 
 35 H       -0.9610     4.3870     2.0120 H     1 <1>   0.1500 
 36 H       -1.8110     5.2620    -2.0490 H     1 <1>   0.1500 
 37 H       -2.3790    -1.7010     0.7090 H     1 <1>   0.2700 
 38 H       -5.9130    -2.2840    -1.4560 H     1 <1>   0.1500 
 39 H       -6.5630     2.1850    -0.1860 H     1 <1>   0.4500 
 40 H       -4.1280    -2.8520     2.2070 H     1 <1>   0.1500 
 41 H       -5.9540     1.4870     2.6260 H     1 <1>   0.0800 
 42 H       -7.3960     2.3080     2.0670 H     1 <1>   0.0800 
 43 H       -5.8360     3.0880     1.9240 H     1 <1>   0.0800 
 44 H       -6.4930    -0.4760     1.1460 H     1 <1>   0.0800 
 45 H       -6.8390    -0.1940    -0.5430 H     1 <1>   0.0800 
 46 H       -7.9520     0.3740     0.6800 H     1 <1>   0.0800 
 47 H        0.5920     7.2710     0.0690 H     1 <1>   0.0800 
 48 H        0.5570     6.0780     1.3400 H     1 <1>   0.0800 
 49 H       -3.0390     6.9270    -0.6940 H     1 <1>   0.0800 
 50 H       -1.5950     7.7850    -1.1860 H     1 <1>   0.0800 
 51 H        0.6150     8.3880     2.2530 H     1 <1>   0.0800 
 52 H       -0.8180     7.5270     2.7310 H     1 <1>   0.0800 
 53 H       -3.0710     8.0720     1.4370 H     1 <1>   0.0800 
 54 H       -3.0090     9.2600     0.1690 H     1 <1>   0.0800 
 55 H       -0.6170     9.5980     0.5260 H     1 <1>   0.0800 
 56 H       -1.4450     9.7930     2.0470 H     1 <1>   0.0800 
@<TRIPOS>BOND
  1   1   2  2   
  2   2   3  am  
  3   2   4  1   
  4   3   5  1   
  5   3   6  1   
  6   4   7  ar  
  7   4   8  ar  
  8   5   9  1   
  9   5  27  1   
 10   5  28  1   
 11   6  10  1   
 12   6  29  1   
 13   6  30  1   
 14   7  11  ar  
 15   7  31  1   
 16   8  12  ar  
 17   8  32  1   
 18   9  13  1   
 19   9  14  2   
 20  10  15  1   
 21  10  33  1   
 22  10  34  1   
 23  11  16  ar  
 24  11  35  1   
 25  12  16  ar  
 26  12  36  1   
 27  13  17  1   
 28  13  37  1   
 29  14  18  1   
 30  14  38  1   
 31  15  19  1   
 32  15  20  1   
 33  15  39  1   
 34  16  21  1   
 35  17  18  2   
 36  17  40  1   
 37  19  41  1   
 38  19  42  1   
 39  19  43  1   
 40  20  44  1   
 41  20  45  1   
 42  20  46  1   
 43  21  22  1   
 44  21  23  1   
 45  22  24  1   
 46  22  47  1   
 47  22  48  1   
 48  23  25  1   
 49  23  49  1   
 50  23  50  1   
 51  24  26  1   
 52  24  51  1   
 53  24  52  1   
 54  25  26  1   
 55  25  53  1   
 56  25  54  1   
 57  26  55  1   
 58  26  56  1   
@<TRIPOS>SUBSTRUCTURE
  1 ****   4 GROUP 4 **** **** 0

# MOE 2024.06 (io_trps.svl 2023.06)
