@<TRIPOS>MOLECULE
NONAME
47 48 1 0 0 
SMALL
USER_CHARGES


@<TRIPOS>ATOM
  1 S        0.5880     1.6920    -1.1140 S.o2  1 <1>   1.3330 
  2 O        0.2060     2.4940    -2.2560 O.2   1 <1>  -0.6500 
  3 O        1.2500     0.4280    -1.3390 O.2   1 <1>  -0.6500 
  4 N        1.6160     2.6240    -0.1380 N.am  1 <1>  -0.8490 
  5 C       -0.8890     1.3710    -0.1300 C.3   1 <1>  -0.0550 
  6 C        2.2880     1.8590     0.9160 C.3   1 <1>   0.1160 
  7 C        2.6190     3.3500    -0.9260 C.3   1 <1>   0.1160 
  8 C       -1.7470     2.5440     0.4120 C.3   1 <1>  -0.0800 
  9 C       -2.1120     3.6160    -0.6220 C.3   1 <1>   0.2000 
 10 C       -1.0830     3.3220     1.5540 C.3   1 <1>   0.1400 
 11 O       -3.3550     4.1210    -0.2720 O.3   1 <1>  -0.6800 
 12 C       -1.0800     4.7320    -0.4350 C.3   1 <1>   0.1400 
 13 N       -0.5980     4.5890     0.9640 N.am  1 <1>  -0.6600 
 14 C        0.4270     5.2870     1.5370 C.2   1 <1>   0.5690 
 15 O        0.8080     5.0350     2.6570 O.2   1 <1>  -0.5700 
 16 C        1.1010     6.4150     0.7760 C.3   1 <1>  -0.0990 
 17 C        2.4910     6.7250     1.3380 C.3   1 <1>   0.1400 
 18 N        3.1400     7.8000     0.5410 N.am  1 <1>  -0.4690 
 19 C        3.8300     7.4820    -0.6220 C.2   1 <1>   0.6900 
 20 C        3.0730     9.1180     0.9800 C.2   1 <1>  -0.0410 
 21 O        3.8980     6.3460    -1.0470 O.2   1 <1>  -0.5700 
 22 N        4.4400     8.4840    -1.3100 N.am  1 <1>  -0.4900 
 23 C        3.6860    10.0950     0.2740 C.2   1 <1>  -0.1360 
 24 C        4.4010     9.7850    -0.9170 C.2   1 <1>   0.6160 
 25 O        4.9700    10.6190    -1.5900 O.2   1 <1>  -0.5700 
 26 H       -1.5380     0.7690    -0.7370 H     1 <1>   0.0800 
 27 H       -0.6090     0.7560     0.7030 H     1 <1>   0.0800 
 28 H        2.8400     2.5260     1.5570 H     1 <1>   0.0800 
 29 H        2.9670     1.1400     0.4860 H     1 <1>   0.0800 
 30 H        1.5660     1.3370     1.5180 H     1 <1>   0.0800 
 31 H        3.2510     3.9350    -0.2810 H     1 <1>   0.0800 
 32 H        2.1380     4.0190    -1.6180 H     1 <1>   0.0800 
 33 H        3.2300     2.6590    -1.4840 H     1 <1>   0.0800 
 34 H       -2.6470     2.0930     0.7930 H     1 <1>   0.0800 
 35 H       -2.1710     3.2540    -1.6340 H     1 <1>   0.0800 
 36 H       -0.2710     2.7740     2.0010 H     1 <1>   0.0800 
 37 H       -1.8050     3.5550     2.3180 H     1 <1>   0.0800 
 38 H       -3.2760     4.6050     0.5750 H     1 <1>   0.4000 
 39 H       -1.5130     5.7030    -0.6060 H     1 <1>   0.0800 
 40 H       -0.2570     4.5920    -1.1110 H     1 <1>   0.0800 
 41 H        1.2070     6.1330    -0.2530 H     1 <1>   0.0800 
 42 H        0.4790     7.2870     0.8430 H     1 <1>   0.0800 
 43 H        3.1000     5.8370     1.3090 H     1 <1>   0.0800 
 44 H        2.4120     7.0340     2.3660 H     1 <1>   0.0800 
 45 H        2.5250     9.3180     1.8880 H     1 <1>   0.1500 
 46 H        4.9460     8.2480    -2.1550 H     1 <1>   0.3700 
 47 H        3.6680    11.1280     0.5650 H     1 <1>   0.1500 
@<TRIPOS>BOND
  1   1   2  2   
  2   1   3  2   
  3   1   4  am  
  4   1   5  1   
  5   4   6  1   
  6   4   7  1   
  7   5   8  1   
  8   5  26  1   
  9   5  27  1   
 10   6  28  1   
 11   6  29  1   
 12   6  30  1   
 13   7  31  1   
 14   7  32  1   
 15   7  33  1   
 16   8   9  1   
 17   8  10  1   
 18   8  34  1   
 19   9  11  1   
 20   9  12  1   
 21   9  35  1   
 22  10  13  1   
 23  10  36  1   
 24  10  37  1   
 25  11  38  1   
 26  12  13  1   
 27  12  39  1   
 28  12  40  1   
 29  13  14  am  
 30  14  15  2   
 31  14  16  1   
 32  16  17  1   
 33  16  41  1   
 34  16  42  1   
 35  17  18  1   
 36  17  43  1   
 37  17  44  1   
 38  18  19  am  
 39  18  20  1   
 40  19  21  2   
 41  19  22  am  
 42  20  23  2   
 43  20  45  1   
 44  22  24  am  
 45  22  46  1   
 46  23  24  1   
 47  23  47  1   
 48  24  25  2   
@<TRIPOS>SUBSTRUCTURE
  1 ****  16 GROUP 4 **** **** 0

# MOE 2024.06 (io_trps.svl 2023.06)
