@<TRIPOS>MOLECULE
NONAME
44 46 1 0 0 
SMALL
USER_CHARGES


@<TRIPOS>ATOM
  1 O        2.7040    -0.8750     2.7170 O.2   1 <1>  -0.5700 
  2 C        2.6080    -1.1720     1.5490 C.2   1 <1>   0.5690 
  3 N        2.8960    -0.2380     0.5740 N.am  1 <1>  -0.6600 
  4 C        2.2090    -2.6120     1.2280 C.3   1 <1>   0.1810 
  5 C        2.9590     1.2150     0.9410 C.3   1 <1>   0.1400 
  6 C        3.1290    -0.5830    -0.8530 C.3   1 <1>   0.1400 
  7 O        1.2220    -2.6610     0.2090 O.3   1 <1>  -0.3630 
  8 C        4.3840     1.8110     0.8850 C.3   1 <1>   0.4230 
  9 C        4.4590    -0.0300    -1.3950 C.3   1 <1>  -0.0800 
 10 C        0.8120    -3.8420    -0.3160 C.ar  1 <1>   0.0820 
 11 N        4.7700     2.3350    -0.4750 N.4   1 <1>  -0.9590 
 12 C        5.4850     0.8180     1.3350 C.3   1 <1>   0.1200 
 13 C        5.7010    -0.5410    -0.6160 C.3   1 <1>   0.1200 
 14 C        4.3730     1.4880    -1.6410 C.3   1 <1>   0.3430 
 15 C        1.2480    -5.0850     0.1390 C.ar  1 <1>  -0.1500 
 16 C       -0.0880    -3.7770    -1.3670 C.ar  1 <1>  -0.1500 
 17 C        4.4450     3.7780    -0.6730 C.3   1 <1>   0.2630 
 18 O        6.2690     0.4140     0.2360 O.3   1 <1>  -0.5600 
 19 C        0.7880    -6.2410    -0.4660 C.ar  1 <1>  -0.1500 
 20 C       -0.5470    -4.9350    -1.9700 C.ar  1 <1>  -0.1500 
 21 C       -0.1070    -6.1680    -1.5200 C.ar  1 <1>  -0.1500 
 22 H        1.8000    -3.0760     2.1080 H     1 <1>   0.0800 
 23 H        3.0730    -3.1560     0.8970 H     1 <1>   0.0800 
 24 H        2.2950     1.7770     0.3080 H     1 <1>   0.0800 
 25 H        2.5950     1.3410     1.9460 H     1 <1>   0.0800 
 26 H        3.1460    -1.6520    -0.9760 H     1 <1>   0.0800 
 27 H        2.3030    -0.2140    -1.4390 H     1 <1>   0.0800 
 28 H        4.3980     2.6330     1.5800 H     1 <1>   0.0800 
 29 H        4.5340    -0.4690    -2.3730 H     1 <1>   0.0800 
 30 H        5.8000     2.2110    -0.4410 H     1 <1>   0.4500 
 31 H        5.0970    -0.0460     1.8460 H     1 <1>   0.0800 
 32 H        6.1440     1.3210     2.0210 H     1 <1>   0.0800 
 33 H        6.4710    -0.8100    -1.3190 H     1 <1>   0.0800 
 34 H        5.4680    -1.4200    -0.0390 H     1 <1>   0.0800 
 35 H        3.3650     1.7310    -1.9360 H     1 <1>   0.0800 
 36 H        5.0170     1.7320    -2.4710 H     1 <1>   0.0800 
 37 H        1.9350    -5.1780     0.9580 H     1 <1>   0.1500 
 38 H       -0.4310    -2.8180    -1.7100 H     1 <1>   0.1500 
 39 H        3.3770     3.9220    -0.6960 H     1 <1>   0.0800 
 40 H        4.8600     4.1300    -1.6030 H     1 <1>   0.0800 
 41 H        4.8570     4.3680     0.1290 H     1 <1>   0.0800 
 42 H        1.1240    -7.2030    -0.1170 H     1 <1>   0.1500 
 43 H       -1.2460    -4.8780    -2.7860 H     1 <1>   0.1500 
 44 H       -0.4630    -7.0690    -1.9880 H     1 <1>   0.1500 
@<TRIPOS>BOND
  1   1   2  2   
  2   2   3  am  
  3   2   4  1   
  4   3   5  1   
  5   3   6  1   
  6   4   7  1   
  7   4  22  1   
  8   4  23  1   
  9   5   8  1   
 10   5  24  1   
 11   5  25  1   
 12   6   9  1   
 13   6  26  1   
 14   6  27  1   
 15   7  10  1   
 16   8  11  1   
 17   8  12  1   
 18   8  28  1   
 19   9  13  1   
 20   9  14  1   
 21   9  29  1   
 22  10  15  ar  
 23  10  16  ar  
 24  11  14  1   
 25  11  17  1   
 26  11  30  1   
 27  12  18  1   
 28  12  31  1   
 29  12  32  1   
 30  13  18  1   
 31  13  33  1   
 32  13  34  1   
 33  14  35  1   
 34  14  36  1   
 35  15  19  ar  
 36  15  37  1   
 37  16  20  ar  
 38  16  38  1   
 39  17  39  1   
 40  17  40  1   
 41  17  41  1   
 42  19  21  ar  
 43  19  42  1   
 44  20  21  ar  
 45  20  43  1   
 46  21  44  1   
@<TRIPOS>SUBSTRUCTURE
  1 ****   6 GROUP 4 **** **** 0

# MOE 2024.06 (io_trps.svl 2023.06)
