@<TRIPOS>MOLECULE
NONAME
54 57 1 0 0 
SMALL
USER_CHARGES


@<TRIPOS>ATOM
  1 S        0.0650     0.2780    -0.9900 S.o2  1 <1>   1.2040 
  2 O       -0.4580     0.9540    -2.1560 O.2   1 <1>  -0.6500 
  3 O        0.0990    -1.1670    -0.9460 O.2   1 <1>  -0.6500 
  4 C        1.6980     0.9420    -0.5850 C.ar  1 <1>  -0.0090 
  5 C       -0.9010     0.8200     0.4050 C.3   1 <1>  -0.1350 
  6 C        2.6070     0.2120     0.1670 C.ar  1 <1>  -0.1500 
  7 C        2.0760     2.2160    -0.9830 C.ar  1 <1>  -0.1500 
  8 C        3.8400     0.7340     0.5150 C.ar  1 <1>  -0.1500 
  9 C        3.3080     2.7430    -0.6380 C.ar  1 <1>  -0.1500 
 10 C        4.2140     2.0160     0.1260 C.ar  1 <1>  -0.1430 
 11 C        5.5880     2.6440     0.4770 C.3   1 <1>   0.2040 
 12 C        5.3870     4.1370     0.8580 C.2   1 <1>   0.5690 
 13 C        6.2810     1.9730     1.7040 C.3   1 <1>  -0.1600 
 14 C        6.4690     2.4510    -0.7960 C.3   1 <1>  -0.1600 
 15 O        4.6380     4.4110     1.7710 O.2   1 <1>  -0.5700 
 16 N        6.0630     5.1090     0.1810 N.am  1 <1>  -0.4930 
 17 C        7.2550     0.8410     1.3340 C.3   1 <1>  -0.1600 
 18 C        7.9780     2.4990    -0.5000 C.3   1 <1>  -0.1600 
 19 C        6.0210     6.5200     0.3350 C.2   1 <1>   0.0630 
 20 C        8.4000     1.3610     0.4470 C.3   1 <1>  -0.1600 
 21 C        6.8690     7.3920    -0.2620 C.2   1 <1>  -0.0680 
 22 C        5.1340     7.3170     1.0630 C.2   1 <1>   0.1390 
 23 N        6.4440     8.6310     0.1000 N.pl3 1 <1>   0.3140 
 24 N        7.9900     7.1560    -1.0970 N.pl3 1 <1>  -0.8530 
 25 N        5.3770     8.5890     0.9310 N.2   1 <1>  -0.7070 
 26 C        7.1010     9.8720    -0.3380 C.3   1 <1>   0.0960 
 27 C        8.8380     8.3410    -1.4090 C.3   1 <1>   0.2090 
 28 C        7.9710     9.5990    -1.5790 C.3   1 <1>  -0.1600 
 29 H       -1.9170     0.4930     0.2970 H     1 <1>   0.0800 
 30 H       -0.8930     1.8910     0.4730 H     1 <1>   0.0800 
 31 H       -0.5060     0.4120     1.3150 H     1 <1>   0.0800 
 32 H        2.3490    -0.7850     0.4840 H     1 <1>   0.1500 
 33 H        1.3980     2.8090    -1.5750 H     1 <1>   0.1500 
 34 H        4.4970     0.1140     1.0950 H     1 <1>   0.1500 
 35 H        3.5470     3.7370    -0.9780 H     1 <1>   0.1500 
 36 H        5.5420     1.6300     2.4060 H     1 <1>   0.0800 
 37 H        6.8570     2.7170     2.2280 H     1 <1>   0.0800 
 38 H        6.2060     3.1650    -1.5560 H     1 <1>   0.0800 
 39 H        6.2570     1.4830    -1.2180 H     1 <1>   0.0800 
 40 H        6.6760     4.8130    -0.5760 H     1 <1>   0.3700 
 41 H        6.7270     0.0670     0.8050 H     1 <1>   0.0800 
 42 H        7.6630     0.4010     2.2270 H     1 <1>   0.0800 
 43 H        8.2310     3.4410    -0.0460 H     1 <1>   0.0800 
 44 H        8.5350     2.4220    -1.4180 H     1 <1>   0.0800 
 45 H        8.7850     0.5370    -0.1300 H     1 <1>   0.0800 
 46 H        9.2040     1.7140     1.0720 H     1 <1>   0.0800 
 47 H        4.3330     6.9240     1.6660 H     1 <1>   0.1500 
 48 H        8.5670     6.3730    -0.7670 H     1 <1>   0.4000 
 49 H        7.7060    10.2250     0.4750 H     1 <1>   0.0800 
 50 H        6.3450    10.6030    -0.5550 H     1 <1>   0.0800 
 51 H        9.3840     8.1530    -2.3180 H     1 <1>   0.0800 
 52 H        9.5450     8.4890    -0.6100 H     1 <1>   0.0800 
 53 H        8.6000    10.4490    -1.7690 H     1 <1>   0.0800 
 54 H        7.3350     9.4660    -2.4360 H     1 <1>   0.0800 
@<TRIPOS>BOND
  1   1   2  2   
  2   1   3  2   
  3   1   4  1   
  4   1   5  1   
  5   4   6  ar  
  6   4   7  ar  
  7   5  29  1   
  8   5  30  1   
  9   5  31  1   
 10   6   8  ar  
 11   6  32  1   
 12   7   9  ar  
 13   7  33  1   
 14   8  10  ar  
 15   8  34  1   
 16   9  10  ar  
 17   9  35  1   
 18  10  11  1   
 19  11  12  1   
 20  11  13  1   
 21  11  14  1   
 22  12  15  2   
 23  12  16  am  
 24  13  17  1   
 25  13  36  1   
 26  13  37  1   
 27  14  18  1   
 28  14  38  1   
 29  14  39  1   
 30  16  19  1   
 31  16  40  1   
 32  17  20  1   
 33  17  41  1   
 34  17  42  1   
 35  18  20  1   
 36  18  43  1   
 37  18  44  1   
 38  19  21  2   
 39  19  22  1   
 40  20  45  1   
 41  20  46  1   
 42  21  23  1   
 43  21  24  1   
 44  22  25  2   
 45  22  47  1   
 46  23  25  1   
 47  23  26  1   
 48  24  27  1   
 49  24  48  1   
 50  26  28  1   
 51  26  49  1   
 52  26  50  1   
 53  27  28  1   
 54  27  51  1   
 55  27  52  1   
 56  28  53  1   
 57  28  54  1   
@<TRIPOS>SUBSTRUCTURE
  1 ****  12 GROUP 4 **** **** 0

# MOE 2024.06 (io_trps.svl 2023.06)
