@<TRIPOS>MOLECULE
NONAME
39 40 1 0 0 
SMALL
USER_CHARGES


@<TRIPOS>ATOM
  1 CL       0.8980     0.9600    -2.0400 Cl    1 <1>  -0.1230 
  2 C       -0.2480     1.9760    -1.1860 C.2   1 <1>   0.1230 
  3 C       -1.3250     1.5650    -0.4770 C.2   1 <1>  -0.3020 
  4 C       -0.1860     3.3600    -1.1350 C.2   1 <1>  -0.1500 
  5 N       -1.9510     2.6590     0.0250 N.pl3 1 <1>   0.0480 
  6 C       -1.2510     3.7850    -0.3720 C.2   1 <1>  -0.2370 
  7 C       -3.1700     2.5990     0.8580 C.3   1 <1>   0.0160 
  8 C       -1.6060     5.1380    -0.0260 C.2   1 <1>   0.7150 
  9 O       -2.6890     5.4130     0.4550 O.2   1 <1>  -0.5700 
 10 N       -0.6720     6.1180    -0.2310 N.am  1 <1>  -0.4940 
 11 C       -0.7550     7.5190    -0.0420 C.2   1 <1>  -0.0880 
 12 N        0.2330     8.2760     0.5100 N.pl3 1 <1>   0.3140 
 13 C       -1.7550     8.3790    -0.3540 C.2   1 <1>  -0.1810 
 14 N       -0.1040     9.5830     0.5570 N.2   1 <1>  -0.7070 
 15 C        1.5150     7.7990     1.0650 C.3   1 <1>   0.0960 
 16 C       -1.2940     9.6290     0.0430 C.2   1 <1>   0.1390 
 17 C       -3.1000     8.1020    -1.0000 C.3   1 <1>  -0.0590 
 18 C        2.5570     7.6030    -0.0450 C.3   1 <1>  -0.1600 
 19 C        3.8710     7.0480     0.5190 C.3   1 <1>  -0.1600 
 20 C        4.9050     6.8490    -0.5920 C.3   1 <1>  -0.2400 
 21 H       -1.6640     0.5580    -0.3140 H     1 <1>   0.1500 
 22 H        0.5730     3.9410    -1.6270 H     1 <1>   0.1500 
 23 H       -3.4340     1.5760     1.0480 H     1 <1>   0.0800 
 24 H       -3.9770     3.0870     0.3410 H     1 <1>   0.0800 
 25 H       -2.9900     3.1030     1.7910 H     1 <1>   0.0800 
 26 H        0.2340     5.7540    -0.5130 H     1 <1>   0.3700 
 27 H        1.3370     6.8760     1.5860 H     1 <1>   0.0800 
 28 H        1.8640     8.5280     1.7730 H     1 <1>   0.0800 
 29 H       -1.8540    10.5430    -0.0620 H     1 <1>   0.1500 
 30 H       -3.0510     7.2080    -1.5940 H     1 <1>   0.0800 
 31 H       -3.3850     8.9210    -1.6340 H     1 <1>   0.0800 
 32 H       -3.8460     7.9700    -0.2380 H     1 <1>   0.0800 
 33 H        2.7440     8.5530    -0.5170 H     1 <1>   0.0800 
 34 H        2.1750     6.9240    -0.7870 H     1 <1>   0.0800 
 35 H        3.6920     6.1040     1.0070 H     1 <1>   0.0800 
 36 H        4.2680     7.7320     1.2510 H     1 <1>   0.0800 
 37 H        4.5430     6.1510    -1.3260 H     1 <1>   0.0800 
 38 H        5.8200     6.4640    -0.1780 H     1 <1>   0.0800 
 39 H        5.1190     7.7850    -1.0790 H     1 <1>   0.0800 
@<TRIPOS>BOND
  1   1   2  1   
  2   2   3  2   
  3   2   4  1   
  4   3   5  1   
  5   3  21  1   
  6   4   6  2   
  7   4  22  1   
  8   5   6  1   
  9   5   7  1   
 10   6   8  1   
 11   7  23  1   
 12   7  24  1   
 13   7  25  1   
 14   8   9  2   
 15   8  10  am  
 16  10  11  1   
 17  10  26  1   
 18  11  12  1   
 19  11  13  2   
 20  12  14  1   
 21  12  15  1   
 22  13  16  1   
 23  13  17  1   
 24  14  16  2   
 25  15  18  1   
 26  15  27  1   
 27  15  28  1   
 28  16  29  1   
 29  17  30  1   
 30  17  31  1   
 31  17  32  1   
 32  18  19  1   
 33  18  33  1   
 34  18  34  1   
 35  19  20  1   
 36  19  35  1   
 37  19  36  1   
 38  20  37  1   
 39  20  38  1   
 40  20  39  1   
@<TRIPOS>SUBSTRUCTURE
  1 ****  10 GROUP 4 **** **** 0

# MOE 2024.06 (io_trps.svl 2023.06)
