@<TRIPOS>MOLECULE
NONAME
56 59 1 0 0 
SMALL
USER_CHARGES


@<TRIPOS>ATOM
  1 O       -2.4810     0.1620    -1.1470 O.3   1 <1>  -0.0190 
  2 N       -1.4540     0.7490    -1.6780 N.2   1 <1>  -0.4100 
  3 C       -2.3590     0.4090     0.1330 C.2   1 <1>   0.2980 
  4 C       -0.7980     1.2950    -0.7290 C.2   1 <1>   0.3350 
  5 N       -1.3460     1.1010     0.4650 N.2   1 <1>  -0.5650 
  6 C       -3.4020    -0.1410     1.0960 C.3   1 <1>   0.1000 
  7 C        0.4900     2.1090    -0.8770 C.3   1 <1>   0.1010 
  8 C       -3.4010    -1.6800     1.0820 C.3   1 <1>  -0.1600 
  9 C       -4.8010     0.4150     0.7800 C.3   1 <1>  -0.1600 
 10 C        0.1760     3.6100    -0.9440 C.3   1 <1>  -0.2400 
 11 C        1.3140     1.6890    -2.1040 C.3   1 <1>  -0.2400 
 12 C       -4.5050    -2.2440     1.9770 C.3   1 <1>   0.2090 
 13 C       -5.8700    -0.2100     1.6770 C.3   1 <1>   0.2090 
 14 N       -5.8200    -1.7020     1.5140 N.pl3 1 <1>  -0.8380 
 15 C       -6.8510    -2.3950     0.9690 C.ar  1 <1>   0.7710 
 16 N       -7.9770    -1.7580     0.6600 N.ar  1 <1>  -0.6200 
 17 N       -6.7190    -3.7050     0.7380 N.ar  1 <1>  -0.1790 
 18 C       -8.9590    -2.4260     0.1280 C.ar  1 <1>   0.4100 
 19 C       -7.7100    -4.4750     0.1790 C.ar  1 <1>   0.3610 
 20 N      -10.0460    -1.6980    -0.1440 N.pl3 1 <1>  -0.9000 
 21 C       -8.8990    -3.8270    -0.1510 C.ar  1 <1>   0.0000 
 22 C       -7.5490    -5.8390    -0.0540 C.ar  1 <1>  -0.1500 
 23 C       -9.9320    -4.5850    -0.7240 C.ar  1 <1>  -0.1500 
 24 C       -8.5730    -6.5750    -0.6190 C.ar  1 <1>   0.0820 
 25 C       -9.7800    -5.9380    -0.9590 C.ar  1 <1>   0.0820 
 26 O       -8.4680    -7.9040    -0.8670 O.3   1 <1>  -0.3620 
 27 O      -10.7590    -6.7060    -1.5130 O.3   1 <1>  -0.3620 
 28 C       -7.3210    -8.6710    -0.5730 C.3   1 <1>   0.0400 
 29 C      -12.0100    -6.1780    -1.8930 C.3   1 <1>   0.0400 
 30 H       -3.1290     0.1860     2.0850 H     1 <1>   0.0800 
 31 H        1.0860     1.9270     0.0000 H     1 <1>   0.0800 
 32 H       -2.4450    -2.0340     1.4260 H     1 <1>   0.0800 
 33 H       -3.5400    -2.0370     0.0760 H     1 <1>   0.0800 
 34 H       -5.0550     0.2230    -0.2480 H     1 <1>   0.0800 
 35 H       -4.7990     1.4820     0.9190 H     1 <1>   0.0800 
 36 H       -0.4320     3.8240    -1.8060 H     1 <1>   0.0800 
 37 H        1.0830     4.1830    -1.0050 H     1 <1>   0.0800 
 38 H       -0.3630     3.9110    -0.0630 H     1 <1>   0.0800 
 39 H        0.7630     1.8750    -3.0090 H     1 <1>   0.0800 
 40 H        1.5390     0.6380    -2.0510 H     1 <1>   0.0800 
 41 H        2.2390     2.2360    -2.1410 H     1 <1>   0.0800 
 42 H       -4.3340    -1.9370     2.9970 H     1 <1>   0.0800 
 43 H       -4.4770    -3.3180     1.9550 H     1 <1>   0.0800 
 44 H       -6.8310     0.2020     1.4180 H     1 <1>   0.0800 
 45 H       -5.6810     0.0460     2.7070 H     1 <1>   0.0800 
 46 H       -5.8290    -4.1150     0.9750 H     1 <1>   0.4570 
 47 H      -10.9120    -2.0480    -0.5570 H     1 <1>   0.4000 
 48 H      -10.0540    -0.6960     0.0680 H     1 <1>   0.4000 
 49 H       -6.6240    -6.3140     0.2090 H     1 <1>   0.1500 
 50 H      -10.8480    -4.0880    -0.9790 H     1 <1>   0.1500 
 51 H       -7.5190    -9.6860    -0.8710 H     1 <1>   0.0800 
 52 H       -7.1350    -8.6350     0.4850 H     1 <1>   0.0800 
 53 H       -6.4880    -8.2870    -1.1330 H     1 <1>   0.0800 
 54 H      -12.5990    -6.9810    -2.3000 H     1 <1>   0.0800 
 55 H      -11.8600    -5.4230    -2.6430 H     1 <1>   0.0800 
 56 H      -12.5000    -5.7750    -1.0240 H     1 <1>   0.0800 
@<TRIPOS>BOND
  1   1   2  1   
  2   1   3  1   
  3   2   4  2   
  4   3   5  2   
  5   3   6  1   
  6   4   5  1   
  7   4   7  1   
  8   6   8  1   
  9   6   9  1   
 10   6  30  1   
 11   7  10  1   
 12   7  11  1   
 13   7  31  1   
 14   8  12  1   
 15   8  32  1   
 16   8  33  1   
 17   9  13  1   
 18   9  34  1   
 19   9  35  1   
 20  10  36  1   
 21  10  37  1   
 22  10  38  1   
 23  11  39  1   
 24  11  40  1   
 25  11  41  1   
 26  12  14  1   
 27  12  42  1   
 28  12  43  1   
 29  13  14  1   
 30  13  44  1   
 31  13  45  1   
 32  14  15  1   
 33  15  16  ar  
 34  15  17  ar  
 35  16  18  ar  
 36  17  19  ar  
 37  17  46  1   
 38  18  20  1   
 39  18  21  ar  
 40  19  21  ar  
 41  19  22  ar  
 42  20  47  1   
 43  20  48  1   
 44  21  23  ar  
 45  22  24  ar  
 46  22  49  1   
 47  23  25  ar  
 48  23  50  1   
 49  24  25  ar  
 50  24  26  1   
 51  25  27  1   
 52  26  28  1   
 53  27  29  1   
 54  28  51  1   
 55  28  52  1   
 56  28  53  1   
 57  29  54  1   
 58  29  55  1   
 59  29  56  1   
@<TRIPOS>SUBSTRUCTURE
  1 ****  15 GROUP 4 **** **** 0

# MOE 2024.06 (io_trps.svl 2023.06)
