@<TRIPOS>MOLECULE
NONAME
51 54 1 0 0 
SMALL
USER_CHARGES


@<TRIPOS>ATOM
  1 S       -1.4490    -0.6040     1.6330 S.3   1 <1>  -0.0800 
  2 C       -2.4320     0.1210     0.3690 C.2   1 <1>  -0.1400 
  3 C       -0.0740     0.3950     1.1990 C.2   1 <1>  -0.1100 
  4 C       -1.7240     1.0490    -0.3020 C.2   1 <1>  -0.1500 
  5 C       -3.8600    -0.3660     0.2200 C.3   1 <1>   0.0200 
  6 C       -0.3820     1.2040     0.1690 C.2   1 <1>  -0.1500 
  7 C       -3.8960    -1.7960    -0.3310 C.3   1 <1>  -0.1600 
  8 C       -5.3360    -2.3090    -0.4940 C.3   1 <1>  -0.0990 
  9 C       -5.3760    -3.7070    -1.0740 C.2   1 <1>   0.5690 
 10 O       -5.7350    -3.8660    -2.2130 O.2   1 <1>  -0.5700 
 11 N       -5.0200    -4.7480    -0.2840 N.am  1 <1>  -0.7300 
 12 C       -4.9380    -6.1610    -0.7240 C.3   1 <1>   0.2200 
 13 C       -6.1330    -6.9700    -0.2350 C.3   1 <1>  -0.0800 
 14 C       -3.8130    -6.8420     0.0420 C.3   1 <1>   0.1200 
 15 C       -5.7340    -7.3120     1.2070 C.3   1 <1>   0.1200 
 16 C       -7.5010    -6.2700    -0.3770 C.3   1 <1>  -0.0170 
 17 O       -4.3500    -7.1260     1.2990 O.3   1 <1>  -0.5600 
 18 C       -8.7400    -7.0920    -0.0030 C.ar  1 <1>  -0.1440 
 19 C      -10.0060    -6.4580     0.0570 C.ar  1 <1>   0.0000 
 20 C       -8.7060    -8.4300     0.2770 C.ar  1 <1>  -0.1500 
 21 C      -11.1250    -7.2390     0.4350 C.ar  1 <1>   0.3100 
 22 C      -10.2290    -5.0930    -0.2440 C.ar  1 <1>  -0.1500 
 23 C       -9.8760    -9.1130     0.6310 C.ar  1 <1>   0.1600 
 24 N      -11.0440    -8.5620     0.7190 N.ar  1 <1>  -0.6200 
 25 C      -12.3870    -6.6290     0.5190 C.ar  1 <1>  -0.1500 
 26 C      -11.4730    -4.5290    -0.1560 C.ar  1 <1>  -0.1500 
 27 C      -12.5670    -5.3030     0.2330 C.ar  1 <1>  -0.1500 
 28 H        0.8290     0.2690     1.7690 H     1 <1>   0.1500 
 29 H       -2.0900     1.6410    -1.1230 H     1 <1>   0.1500 
 30 H       -4.3470    -0.3220     1.1790 H     1 <1>   0.0800 
 31 H       -4.3840     0.2920    -0.4520 H     1 <1>   0.0800 
 32 H        0.2840     1.9150    -0.2890 H     1 <1>   0.1500 
 33 H       -3.4010    -1.8170    -1.2880 H     1 <1>   0.0800 
 34 H       -3.3550    -2.4490     0.3320 H     1 <1>   0.0800 
 35 H       -5.8800    -1.6550    -1.1520 H     1 <1>   0.0800 
 36 H       -5.8370    -2.3140     0.4570 H     1 <1>   0.0800 
 37 H       -4.7430    -4.5990     0.6890 H     1 <1>   0.3700 
 38 H       -4.8030    -6.2190    -1.7910 H     1 <1>   0.0800 
 39 H       -6.1520    -7.8810    -0.8060 H     1 <1>   0.0800 
 40 H       -2.9420    -6.2190     0.1490 H     1 <1>   0.0800 
 41 H       -3.5440    -7.7740    -0.4220 H     1 <1>   0.0800 
 42 H       -5.9630    -8.3310     1.4640 H     1 <1>   0.0800 
 43 H       -6.1990    -6.6470     1.9140 H     1 <1>   0.0800 
 44 H       -7.6100    -5.9460    -1.3980 H     1 <1>   0.0800 
 45 H       -7.4930    -5.3910     0.2420 H     1 <1>   0.0800 
 46 H       -7.8060    -9.0110     0.2390 H     1 <1>   0.1500 
 47 H       -9.4060    -4.4760    -0.5550 H     1 <1>   0.1500 
 48 H       -9.7980   -10.1650     0.8460 H     1 <1>   0.1500 
 49 H      -13.2150    -7.2460     0.8160 H     1 <1>   0.1500 
 50 H      -11.6250    -3.4880    -0.3880 H     1 <1>   0.1500 
 51 H      -13.5410    -4.8490     0.3000 H     1 <1>   0.1500 
@<TRIPOS>BOND
  1   1   2  1   
  2   1   3  1   
  3   2   4  2   
  4   2   5  1   
  5   3   6  2   
  6   3  28  1   
  7   4   6  1   
  8   4  29  1   
  9   5   7  1   
 10   5  30  1   
 11   5  31  1   
 12   6  32  1   
 13   7   8  1   
 14   7  33  1   
 15   7  34  1   
 16   8   9  1   
 17   8  35  1   
 18   8  36  1   
 19   9  10  2   
 20   9  11  am  
 21  11  12  1   
 22  11  37  1   
 23  12  13  1   
 24  12  14  1   
 25  12  38  1   
 26  13  15  1   
 27  13  16  1   
 28  13  39  1   
 29  14  17  1   
 30  14  40  1   
 31  14  41  1   
 32  15  17  1   
 33  15  42  1   
 34  15  43  1   
 35  16  18  1   
 36  16  44  1   
 37  16  45  1   
 38  18  19  ar  
 39  18  20  ar  
 40  19  21  ar  
 41  19  22  ar  
 42  20  23  ar  
 43  20  46  1   
 44  21  24  ar  
 45  21  25  ar  
 46  22  26  ar  
 47  22  47  1   
 48  23  24  ar  
 49  23  48  1   
 50  25  27  ar  
 51  25  49  1   
 52  26  27  ar  
 53  26  50  1   
 54  27  51  1   
@<TRIPOS>SUBSTRUCTURE
  1 ****  11 GROUP 4 **** **** 0

# MOE 2024.06 (io_trps.svl 2023.06)
