@<TRIPOS>MOLECULE
NONAME
53 55 1 0 0 
SMALL
USER_CHARGES


@<TRIPOS>ATOM
  1 O        2.7180     3.5830     0.8870 O.2   1 <1>  -0.5700 
  2 C        1.5660     3.3580     1.1950 C.2   1 <1>   0.7800 
  3 O        1.2240     2.8760     2.3770 O.3   1 <1>  -0.4300 
  4 N        0.4910     3.6120     0.4220 N.am  1 <1>  -0.6600 
  5 C       -0.1840     2.7450     2.4780 C.3   1 <1>   0.1200 
  6 C       -0.7330     3.2220     1.1250 C.3   1 <1>   0.1400 
  7 C        0.5240     3.9090    -1.0420 C.3   1 <1>   0.2010 
  8 C        0.0530     5.3090    -1.4640 C.2   1 <1>   0.5690 
  9 O       -0.8730     5.3460    -2.2380 O.2   1 <1>  -0.5700 
 10 N        0.6850     6.4730    -1.0670 N.am  1 <1>  -0.6600 
 11 C        1.6120     6.5870     0.0990 C.3   1 <1>   0.1400 
 12 C        0.4180     7.7560    -1.7740 C.3   1 <1>   0.1400 
 13 C        3.0560     6.2450    -0.2990 C.3   1 <1>   0.3430 
 14 C        1.7200     8.4650    -2.1770 C.3   1 <1>  -0.1600 
 15 N        3.6660     7.2020    -1.2850 N.4   1 <1>  -0.9590 
 16 C        2.8760     7.5160    -2.5090 C.3   1 <1>   0.3430 
 17 C        5.0510     6.7660    -1.5890 C.3   1 <1>   0.5240 
 18 C        5.8800     7.1270    -0.3680 C.2   1 <1>   0.0460 
 19 N        5.7320     8.3520     0.1830 N.2   1 <1>  -0.5650 
 20 C        6.7650     6.3820     0.3320 C.2   1 <1>  -0.3320 
 21 C        6.5410     8.3380     1.1930 C.2   1 <1>   0.0060 
 22 N        7.1990     7.1670     1.3380 N.pl3 1 <1>   0.0330 
 23 C        7.2540     4.9550     0.1440 C.3   1 <1>  -0.0600 
 24 C        6.7470     9.5100     2.1360 C.3   1 <1>   0.0200 
 25 C        8.1470    10.1120     1.9820 C.3   1 <1>  -0.2400 
 26 H       -0.5320     3.3600     3.2880 H     1 <1>   0.0800 
 27 H       -0.4240     1.7130     2.6650 H     1 <1>   0.0800 
 28 H       -1.2390     2.4240     0.6080 H     1 <1>   0.0800 
 29 H       -1.3950     4.0630     1.2420 H     1 <1>   0.0800 
 30 H       -0.0900     3.1850    -1.5470 H     1 <1>   0.0800 
 31 H        1.5270     3.7740    -1.4050 H     1 <1>   0.0800 
 32 H        1.2900     5.9370     0.8880 H     1 <1>   0.0800 
 33 H        1.5790     7.5840     0.5020 H     1 <1>   0.0800 
 34 H       -0.1760     8.3970    -1.1440 H     1 <1>   0.0800 
 35 H       -0.1570     7.5660    -2.6660 H     1 <1>   0.0800 
 36 H        3.0690     5.2490    -0.7050 H     1 <1>   0.0800 
 37 H        3.6590     6.2300     0.5960 H     1 <1>   0.0800 
 38 H        2.0150     9.1630    -1.4130 H     1 <1>   0.0800 
 39 H        1.5010     9.0500    -3.0530 H     1 <1>   0.0800 
 40 H        3.8550     8.0780    -0.7640 H     1 <1>   0.4500 
 41 H        3.5180     8.0070    -3.2230 H     1 <1>   0.0800 
 42 H        2.4970     6.6120    -2.9610 H     1 <1>   0.0800 
 43 H        5.4360     7.3090    -2.4360 H     1 <1>   0.0800 
 44 H        5.0960     5.7090    -1.7870 H     1 <1>   0.0800 
 45 H        7.8840     6.9370     2.0640 H     1 <1>   0.2700 
 46 H        6.8010     4.5020    -0.7180 H     1 <1>   0.0800 
 47 H        7.0070     4.3620     1.0080 H     1 <1>   0.0800 
 48 H        8.3220     4.9430     0.0130 H     1 <1>   0.0800 
 49 H        6.5960     9.1870     3.1510 H     1 <1>   0.0800 
 50 H        6.0130    10.2670     1.9190 H     1 <1>   0.0800 
 51 H        8.9030     9.3890     2.2330 H     1 <1>   0.0800 
 52 H        8.2560    10.9640     2.6310 H     1 <1>   0.0800 
 53 H        8.2990    10.4330     0.9660 H     1 <1>   0.0800 
@<TRIPOS>BOND
  1   1   2  2   
  2   2   3  1   
  3   2   4  am  
  4   3   5  1   
  5   4   6  1   
  6   4   7  1   
  7   5   6  1   
  8   5  26  1   
  9   5  27  1   
 10   6  28  1   
 11   6  29  1   
 12   7   8  1   
 13   7  30  1   
 14   7  31  1   
 15   8   9  2   
 16   8  10  am  
 17  10  11  1   
 18  10  12  1   
 19  11  13  1   
 20  11  32  1   
 21  11  33  1   
 22  12  14  1   
 23  12  34  1   
 24  12  35  1   
 25  13  15  1   
 26  13  36  1   
 27  13  37  1   
 28  14  16  1   
 29  14  38  1   
 30  14  39  1   
 31  15  16  1   
 32  15  17  1   
 33  15  40  1   
 34  16  41  1   
 35  16  42  1   
 36  17  18  1   
 37  17  43  1   
 38  17  44  1   
 39  18  19  1   
 40  18  20  2   
 41  19  21  2   
 42  20  22  1   
 43  20  23  1   
 44  21  22  1   
 45  21  24  1   
 46  22  45  1   
 47  23  46  1   
 48  23  47  1   
 49  23  48  1   
 50  24  25  1   
 51  24  49  1   
 52  24  50  1   
 53  25  51  1   
 54  25  52  1   
 55  25  53  1   
@<TRIPOS>SUBSTRUCTURE
  1 ****  13 GROUP 4 **** **** 0

# MOE 2024.06 (io_trps.svl 2023.06)
