@<TRIPOS>MOLECULE
NONAME
45 46 1 0 0 
SMALL
USER_CHARGES


@<TRIPOS>ATOM
  1 N       -1.0690    -0.0860     1.7060 N.ar  1 <1>  -0.6200 
  2 C       -1.6020     0.5700     0.6960 C.ar  1 <1>   0.4100 
  3 C       -0.1930     0.5780     2.4290 C.ar  1 <1>   0.4760 
  4 N       -2.5220    -0.0980    -0.0680 N.pl3 1 <1>  -0.8690 
  5 C       -1.2420     1.8810     0.4070 C.ar  1 <1>  -0.1430 
  6 N        0.2330     1.8120     2.2520 N.ar  1 <1>  -0.6200 
  7 C        0.4080    -0.1600     3.6010 C.3   1 <1>  -0.0970 
  8 C       -2.7180    -1.5640    -0.0790 C.3   1 <1>   0.4690 
  9 C       -0.3050     2.4520     1.2340 C.ar  1 <1>   0.1600 
 10 C       -1.8810     2.6110    -0.7800 C.3   1 <1>  -0.0160 
 11 C       -2.0410    -2.0910    -1.3450 C.2   1 <1>   0.0060 
 12 C       -4.2300    -1.9000     0.0110 C.3   1 <1>  -0.0800 
 13 C       -1.4260     4.0650    -0.9810 C.3   1 <1>  -0.1600 
 14 N       -2.6030    -2.3080    -2.4870 N.2   1 <1>  -0.5650 
 15 N       -0.7290    -2.3580    -1.3990 N.pl3 1 <1>   0.3140 
 16 C       -4.9060    -1.2450     1.2320 C.3   1 <1>  -0.2400 
 17 C       -4.4710    -3.4190     0.0820 C.3   1 <1>  -0.2400 
 18 C       -2.1270     4.7050    -2.1840 C.3   1 <1>  -0.2400 
 19 C       -1.5690    -2.7320    -3.2210 C.2   1 <1>   0.3660 
 20 N       -0.4290    -2.7800    -2.6190 N.2   1 <1>  -0.7070 
 21 C        0.3100    -2.2020    -0.3690 C.3   1 <1>   0.0160 
 22 H       -2.7970     0.3160    -0.9590 H     1 <1>   0.4000 
 23 H       -0.1510    -1.0530     3.8120 H     1 <1>   0.0800 
 24 H        0.3950     0.4710     4.4690 H     1 <1>   0.0800 
 25 H        1.4240    -0.4240     3.3720 H     1 <1>   0.0800 
 26 H       -2.2450    -2.0080     0.7790 H     1 <1>   0.0800 
 27 H        0.0300     3.4620     1.0800 H     1 <1>   0.1500 
 28 H       -2.9490     2.6030    -0.6450 H     1 <1>   0.0800 
 29 H       -1.6590     2.0570    -1.6760 H     1 <1>   0.0800 
 30 H       -4.7060    -1.5290    -0.8800 H     1 <1>   0.0800 
 31 H       -0.3620     4.0930    -1.1430 H     1 <1>   0.0800 
 32 H       -1.6540     4.6400    -0.0990 H     1 <1>   0.0800 
 33 H       -4.4270    -1.5580     2.1430 H     1 <1>   0.0800 
 34 H       -5.9460    -1.5150     1.2770 H     1 <1>   0.0800 
 35 H       -4.8460    -0.1730     1.1700 H     1 <1>   0.0800 
 36 H       -4.0070    -3.8390     0.9570 H     1 <1>   0.0800 
 37 H       -4.0720    -3.9110    -0.7880 H     1 <1>   0.0800 
 38 H       -5.5260    -3.6270     0.1200 H     1 <1>   0.0800 
 39 H       -1.9010     4.1630    -3.0860 H     1 <1>   0.0800 
 40 H       -1.7930     5.7210    -2.3050 H     1 <1>   0.0800 
 41 H       -3.1930     4.7130    -2.0410 H     1 <1>   0.0800 
 42 H       -1.7040    -3.0100    -4.2540 H     1 <1>   0.1500 
 43 H       -0.0510    -2.5710     0.5730 H     1 <1>   0.0800 
 44 H        0.5620    -1.1620    -0.2800 H     1 <1>   0.0800 
 45 H        1.1830    -2.7570    -0.6610 H     1 <1>   0.0800 
@<TRIPOS>BOND
  1   1   2  ar  
  2   1   3  ar  
  3   2   4  1   
  4   2   5  ar  
  5   3   6  ar  
  6   3   7  1   
  7   4   8  1   
  8   4  22  1   
  9   5   9  ar  
 10   5  10  1   
 11   6   9  ar  
 12   7  23  1   
 13   7  24  1   
 14   7  25  1   
 15   8  11  1   
 16   8  12  1   
 17   8  26  1   
 18   9  27  1   
 19  10  13  1   
 20  10  28  1   
 21  10  29  1   
 22  11  14  2   
 23  11  15  1   
 24  12  16  1   
 25  12  17  1   
 26  12  30  1   
 27  13  18  1   
 28  13  31  1   
 29  13  32  1   
 30  14  19  1   
 31  15  20  1   
 32  15  21  1   
 33  16  33  1   
 34  16  34  1   
 35  16  35  1   
 36  17  36  1   
 37  17  37  1   
 38  17  38  1   
 39  18  39  1   
 40  18  40  1   
 41  18  41  1   
 42  19  20  2   
 43  19  42  1   
 44  21  43  1   
 45  21  44  1   
 46  21  45  1   
@<TRIPOS>SUBSTRUCTURE
  1 ****   4 GROUP 4 **** **** 0

# MOE 2024.06 (io_trps.svl 2023.06)
