@<TRIPOS>MOLECULE
NONAME
47 48 1 0 0 
SMALL
USER_CHARGES


@<TRIPOS>ATOM
  1 S        0.3520    -1.0160     0.7050 S.o2  1 <1>   1.0900 
  2 O        1.7380    -1.2240     1.0540 O.2   1 <1>  -0.6500 
  3 O       -0.2070     0.3140     0.7710 O.2   1 <1>  -0.6500 
  4 C       -0.6360    -2.1170     1.7260 C.3   1 <1>   0.0890 
  5 C        0.1190    -1.6250    -0.9560 C.3   1 <1>  -0.1350 
  6 C       -2.0370    -2.3630     1.1830 C.ar  1 <1>  -0.1440 
  7 C       -2.4120    -3.6150     0.7230 C.ar  1 <1>   0.1600 
  8 C       -2.9590    -1.3350     1.1230 C.ar  1 <1>  -0.1500 
  9 N       -3.5910    -3.9140     0.2130 N.ar  1 <1>  -0.6200 
 10 C       -4.1930    -1.6380     0.5990 C.ar  1 <1>  -0.1500 
 11 C       -4.4790    -2.9290     0.1600 C.ar  1 <1>   0.4100 
 12 N       -5.7290    -3.2150    -0.3570 N.pl3 1 <1>  -0.8380 
 13 C       -5.8920    -4.2730    -1.4160 C.3   1 <1>   0.2090 
 14 C       -6.9340    -2.9750     0.4870 C.3   1 <1>   0.2090 
 15 C       -6.5320    -5.5620    -0.8690 C.3   1 <1>   0.2000 
 16 C       -7.4960    -4.2940     1.0240 C.3   1 <1>  -0.1600 
 17 O       -6.7650    -6.4350    -1.9230 O.3   1 <1>  -0.6800 
 18 C       -7.8500    -5.3200    -0.0890 C.3   1 <1>  -0.1060 
 19 C       -8.2840    -6.6680     0.5230 C.2   1 <1>   0.9060 
 20 C       -8.9820    -4.7830    -1.0250 C.3   1 <1>  -0.1600 
 21 O       -8.6290    -6.7290     1.7100 O.co2 1 <1>  -0.9000 
 22 O       -8.2980    -7.6760    -0.2030 O.co2 1 <1>  -0.9000 
 23 C      -10.3080    -4.4610    -0.3150 C.3   1 <1>  -0.1600 
 24 C      -11.3860    -4.0570    -1.3240 C.3   1 <1>  -0.2400 
 25 H       -0.1270    -3.0570     1.8170 H     1 <1>   0.0800 
 26 H       -0.7140    -1.7050     2.7140 H     1 <1>   0.0800 
 27 H        0.4280    -2.6490    -1.0330 H     1 <1>   0.0800 
 28 H        0.7020    -1.0420    -1.6430 H     1 <1>   0.0800 
 29 H       -0.9120    -1.5500    -1.2460 H     1 <1>   0.0800 
 30 H       -1.7060    -4.4270     0.7710 H     1 <1>   0.1500 
 31 H       -2.7280    -0.3370     1.4610 H     1 <1>   0.1500 
 32 H       -4.9520    -0.8840     0.5130 H     1 <1>   0.1500 
 33 H       -6.5080    -3.8780    -2.2010 H     1 <1>   0.0800 
 34 H       -4.9350    -4.5170    -1.8410 H     1 <1>   0.0800 
 35 H       -6.6790    -2.3450     1.3210 H     1 <1>   0.0800 
 36 H       -7.6780    -2.4640    -0.0970 H     1 <1>   0.0800 
 37 H       -5.8210    -6.0420    -0.2180 H     1 <1>   0.0800 
 38 H       -6.7590    -4.7310     1.6770 H     1 <1>   0.0800 
 39 H       -8.3570    -4.0970     1.6340 H     1 <1>   0.0800 
 40 H       -7.3420    -7.1560    -1.5280 H     1 <1>   0.4000 
 41 H       -8.6520    -3.9070    -1.5510 H     1 <1>   0.0800 
 42 H       -9.1830    -5.5360    -1.7680 H     1 <1>   0.0800 
 43 H      -10.6440    -5.3270     0.2330 H     1 <1>   0.0800 
 44 H      -10.1710    -3.6580     0.3870 H     1 <1>   0.0800 
 45 H      -11.5640    -4.8600    -2.0170 H     1 <1>   0.0800 
 46 H      -11.0790    -3.1840    -1.8730 H     1 <1>   0.0800 
 47 H      -12.3050    -3.8380    -0.8100 H     1 <1>   0.0800 
@<TRIPOS>BOND
  1   1   2  2   
  2   1   3  2   
  3   1   4  1   
  4   1   5  1   
  5   4   6  1   
  6   4  25  1   
  7   4  26  1   
  8   5  27  1   
  9   5  28  1   
 10   5  29  1   
 11   6   7  ar  
 12   6   8  ar  
 13   7   9  ar  
 14   7  30  1   
 15   8  10  ar  
 16   8  31  1   
 17   9  11  ar  
 18  10  11  ar  
 19  10  32  1   
 20  11  12  1   
 21  12  13  1   
 22  12  14  1   
 23  13  15  1   
 24  13  33  1   
 25  13  34  1   
 26  14  16  1   
 27  14  35  1   
 28  14  36  1   
 29  15  17  1   
 30  15  18  1   
 31  15  37  1   
 32  16  18  1   
 33  16  38  1   
 34  16  39  1   
 35  17  40  1   
 36  18  19  1   
 37  18  20  1   
 38  19  21  ar  
 39  19  22  ar  
 40  20  23  1   
 41  20  41  1   
 42  20  42  1   
 43  23  24  1   
 44  23  43  1   
 45  23  44  1   
 46  24  45  1   
 47  24  46  1   
 48  24  47  1   
@<TRIPOS>SUBSTRUCTURE
  1 ****  11 GROUP 4 **** **** 0

# MOE 2024.06 (io_trps.svl 2023.06)
