@<TRIPOS>MOLECULE
NONAME
39 41 1 0 0 
SMALL
USER_CHARGES


@<TRIPOS>ATOM
  1 O        0.3220    -1.0450     1.9850 O.3   1 <1>  -0.6800 
  2 C        0.6120    -2.1410     1.1900 C.3   1 <1>   0.2000 
  3 C        1.7920    -1.9000     0.2300 C.3   1 <1>   0.0000 
  4 C       -0.5830    -2.4910     0.3070 C.3   1 <1>  -0.1600 
  5 C        3.1350    -2.0870     0.9620 C.3   1 <1>   0.2090 
  6 C        1.7620    -0.4920    -0.4320 C.3   1 <1>  -0.1600 
  7 C        1.5400    -3.0010    -0.8170 C.3   1 <1>  -0.1600 
  8 C        0.0170    -3.0930    -0.9720 C.3   1 <1>  -0.1600 
  9 N        4.2760    -1.8670     0.0280 N.pl3 1 <1>  -0.8380 
 10 C        3.0070    -0.2200    -1.2990 C.3   1 <1>  -0.1600 
 11 C        5.4350    -2.5980     0.1610 C.ar  1 <1>   0.4100 
 12 C        4.3120    -0.4960    -0.5440 C.3   1 <1>   0.2090 
 13 N        6.5730    -1.9460     0.3050 N.ar  1 <1>  -0.6200 
 14 C        5.4130    -3.9790     0.1440 C.ar  1 <1>  -0.1500 
 15 C        7.6540    -2.6870     0.4410 C.ar  1 <1>   0.4770 
 16 C        6.5980    -4.6430     0.2910 C.ar  1 <1>   0.1600 
 17 N        7.7420    -4.0060     0.4450 N.ar  1 <1>  -0.6200 
 18 C        8.9550    -1.9410     0.6080 C.3   1 <1>  -0.0970 
 19 H       -0.5010    -1.2020     2.4850 H     1 <1>   0.4000 
 20 H        0.8330    -2.9740     1.8370 H     1 <1>   0.0800 
 21 H       -1.2310    -3.1950     0.7980 H     1 <1>   0.0800 
 22 H       -1.1360    -1.6020     0.0530 H     1 <1>   0.0800 
 23 H        3.1910    -3.0710     1.3930 H     1 <1>   0.0800 
 24 H        3.2020    -1.3730     1.7650 H     1 <1>   0.0800 
 25 H        0.8750    -0.3690    -1.0270 H     1 <1>   0.0800 
 26 H        1.7360     0.2580     0.3400 H     1 <1>   0.0800 
 27 H        2.0300    -2.8140    -1.7550 H     1 <1>   0.0800 
 28 H        1.9040    -3.9410    -0.4390 H     1 <1>   0.0800 
 29 H       -0.2920    -4.1150    -1.1110 H     1 <1>   0.0800 
 30 H       -0.3000    -2.5170    -1.8260 H     1 <1>   0.0800 
 31 H        3.0010     0.8060    -1.6190 H     1 <1>   0.0800 
 32 H        2.9890    -0.8290    -2.1830 H     1 <1>   0.0800 
 33 H        4.4370     0.2150     0.2550 H     1 <1>   0.0800 
 34 H        5.1470    -0.3990    -1.2180 H     1 <1>   0.0800 
 35 H        4.4870    -4.4990     0.0090 H     1 <1>   0.1500 
 36 H        6.6220    -5.7190     0.2820 H     1 <1>   0.1500 
 37 H        9.5790    -2.4490     1.3190 H     1 <1>   0.0800 
 38 H        8.7690    -0.9420     0.9580 H     1 <1>   0.0800 
 39 H        9.4600    -1.8950    -0.3370 H     1 <1>   0.0800 
@<TRIPOS>BOND
  1   1   2  1   
  2   1  19  1   
  3   2   3  1   
  4   2   4  1   
  5   2  20  1   
  6   3   5  1   
  7   3   6  1   
  8   3   7  1   
  9   4   8  1   
 10   4  21  1   
 11   4  22  1   
 12   5   9  1   
 13   5  23  1   
 14   5  24  1   
 15   6  10  1   
 16   6  25  1   
 17   6  26  1   
 18   7   8  1   
 19   7  27  1   
 20   7  28  1   
 21   8  29  1   
 22   8  30  1   
 23   9  11  1   
 24   9  12  1   
 25  10  12  1   
 26  10  31  1   
 27  10  32  1   
 28  11  13  ar  
 29  11  14  ar  
 30  12  33  1   
 31  12  34  1   
 32  13  15  ar  
 33  14  16  ar  
 34  14  35  1   
 35  15  17  ar  
 36  15  18  1   
 37  16  17  ar  
 38  16  36  1   
 39  18  37  1   
 40  18  38  1   
 41  18  39  1   
@<TRIPOS>SUBSTRUCTURE
  1 ****   9 GROUP 4 **** **** 0

# MOE 2024.06 (io_trps.svl 2023.06)
