@<TRIPOS>MOLECULE
NONAME
44 46 1 0 0 
SMALL
USER_CHARGES


@<TRIPOS>ATOM
  1 O        3.8150    -1.7980    -0.5280 O.co2 1 <1>  -0.9000 
  2 C        4.1590    -0.6470    -0.2880 C.2   1 <1>   0.9060 
  3 O        4.8990    -0.0010    -1.0440 O.co2 1 <1>  -0.9000 
  4 C        3.5310     0.0640     0.9020 C.3   1 <1>  -0.1860 
  5 C        4.3880     1.1980     1.5240 C.3   1 <1>   0.2000 
  6 C        2.1680     0.6230     0.4380 C.3   1 <1>  -0.1600 
  7 O        5.7060     1.1250     1.1100 O.3   1 <1>  -0.6800 
  8 C        3.8420     2.6110     1.1940 C.3   1 <1>   0.3430 
  9 C        2.3930     1.6760    -0.6580 C.3   1 <1>   0.3430 
 10 N        3.3320     2.7660    -0.2210 N.4   1 <1>  -0.9590 
 11 C        4.4790     2.8570    -1.1710 C.3   1 <1>   0.4860 
 12 C        5.0860     4.2390    -1.0250 C.ar  1 <1>  -0.1440 
 13 C        6.2580     4.4130    -0.3380 C.ar  1 <1>  -0.1500 
 14 C        4.4440     5.3530    -1.5900 C.ar  1 <1>  -0.1500 
 15 C        6.8320     5.6880    -0.1690 C.ar  1 <1>   0.0000 
 16 C        4.9810     6.6020    -1.4410 C.ar  1 <1>  -0.1500 
 17 C        6.1790     6.8060    -0.7280 C.ar  1 <1>   0.0000 
 18 C        8.0340     5.8890     0.5390 C.ar  1 <1>  -0.1500 
 19 C        6.7520     8.0800    -0.5540 C.ar  1 <1>  -0.1500 
 20 C        8.5700     7.1380     0.6940 C.ar  1 <1>  -0.1500 
 21 C        7.9200     8.2570     0.1390 C.ar  1 <1>   0.0820 
 22 O        8.3940     9.5220     0.2540 O.3   1 <1>  -0.3620 
 23 C        9.5980     9.8050     0.9310 C.3   1 <1>   0.0400 
 24 H        3.3590    -0.6850     1.6530 H     1 <1>   0.0800 
 25 H        4.4040     1.0900     2.5950 H     1 <1>   0.0800 
 26 H        1.6120     1.0370     1.2600 H     1 <1>   0.0800 
 27 H        1.5820    -0.1820     0.0260 H     1 <1>   0.0800 
 28 H        5.7080     0.6540     0.2190 H     1 <1>   0.4000 
 29 H        4.6070     3.3400     1.4040 H     1 <1>   0.0800 
 30 H        3.0230     2.8010     1.8650 H     1 <1>   0.0800 
 31 H        1.4450     2.1000    -0.9450 H     1 <1>   0.0800 
 32 H        2.8040     1.1750    -1.5220 H     1 <1>   0.0800 
 33 H        2.8600     3.6720    -0.2850 H     1 <1>   0.4500 
 34 H        5.2230     2.1140    -0.9510 H     1 <1>   0.0800 
 35 H        4.1470     2.7080    -2.1850 H     1 <1>   0.0800 
 36 H        6.7720     3.5690     0.0930 H     1 <1>   0.1500 
 37 H        3.5330     5.2230    -2.1480 H     1 <1>   0.1500 
 38 H        4.4970     7.4610    -1.8720 H     1 <1>   0.1500 
 39 H        8.5290     5.0320     0.9600 H     1 <1>   0.1500 
 40 H        6.2590     8.9350    -0.9780 H     1 <1>   0.1500 
 41 H        9.4860     7.2550     1.2400 H     1 <1>   0.1500 
 42 H        9.7660    10.8660     0.8820 H     1 <1>   0.0800 
 43 H       10.4040     9.2850     0.4440 H     1 <1>   0.0800 
 44 H        9.5030     9.4980     1.9570 H     1 <1>   0.0800 
@<TRIPOS>BOND
  1   1   2  ar  
  2   2   3  ar  
  3   2   4  1   
  4   4   5  1   
  5   4   6  1   
  6   4  24  1   
  7   5   7  1   
  8   5   8  1   
  9   5  25  1   
 10   6   9  1   
 11   6  26  1   
 12   6  27  1   
 13   7  28  1   
 14   8  10  1   
 15   8  29  1   
 16   8  30  1   
 17   9  10  1   
 18   9  31  1   
 19   9  32  1   
 20  10  11  1   
 21  10  33  1   
 22  11  12  1   
 23  11  34  1   
 24  11  35  1   
 25  12  13  ar  
 26  12  14  ar  
 27  13  15  ar  
 28  13  36  1   
 29  14  16  ar  
 30  14  37  1   
 31  15  17  ar  
 32  15  18  ar  
 33  16  17  ar  
 34  16  38  1   
 35  17  19  ar  
 36  18  20  ar  
 37  18  39  1   
 38  19  21  ar  
 39  19  40  1   
 40  20  21  ar  
 41  20  41  1   
 42  21  22  1   
 43  22  23  1   
 44  23  42  1   
 45  23  43  1   
 46  23  44  1   
@<TRIPOS>SUBSTRUCTURE
  1 ****  13 GROUP 4 **** **** 0

# MOE 2024.06 (io_trps.svl 2023.06)
