@<TRIPOS>MOLECULE
NONAME
47 49 1 0 0 
SMALL
USER_CHARGES


@<TRIPOS>ATOM
  1 S       -2.4000    -2.9120    -3.2610 S.3   1 <1>  -0.0800 
  2 C       -3.7220    -3.8780    -2.6480 C.2   1 <1>   0.2280 
  3 C       -1.9910    -2.4770    -1.6280 C.2   1 <1>  -0.1100 
  4 N       -3.8410    -3.8720    -1.3760 N.2   1 <1>  -0.5650 
  5 C       -2.8530    -3.0760    -0.7910 C.2   1 <1>   0.0460 
  6 C       -2.8660    -2.9560     0.7260 C.3   1 <1>   0.5240 
  7 N       -4.2880    -2.7800     1.1210 N.4   1 <1>  -0.9590 
  8 C       -4.6710    -3.4710     2.3890 C.3   1 <1>   0.3430 
  9 C       -4.7430    -1.3670     1.0580 C.3   1 <1>   0.3430 
 10 C       -6.0100    -4.2300     2.2320 C.3   1 <1>   0.1400 
 11 C       -6.2040    -1.2950     0.6100 C.3   1 <1>  -0.1600 
 12 N       -6.9300    -3.5970     1.2260 N.am  1 <1>  -0.6600 
 13 C       -7.1880    -2.1370     1.4320 C.3   1 <1>   0.1400 
 14 C       -7.5760    -4.2580     0.1990 C.2   1 <1>   0.5690 
 15 O       -8.1990    -3.6460    -0.6380 O.2   1 <1>  -0.5700 
 16 C       -7.5730    -5.8010     0.0380 C.3   1 <1>   0.4840 
 17 N       -8.7590    -6.3200    -0.7240 N.4   1 <1>  -0.9590 
 18 C       -6.3950    -6.3020    -0.7910 C.3   1 <1>  -0.1600 
 19 C       -8.3780    -7.5840    -1.4100 C.3   1 <1>   0.3430 
 20 C      -10.0070    -6.4200     0.0890 C.3   1 <1>   0.2630 
 21 C       -6.8540    -7.6480    -1.3490 C.3   1 <1>  -0.1600 
 22 H       -4.3210    -4.3920    -3.3820 H     1 <1>   0.1500 
 23 H       -1.1490    -1.8200    -1.4890 H     1 <1>   0.1500 
 24 H       -2.2580    -2.1300     1.0580 H     1 <1>   0.0800 
 25 H       -2.4770    -3.8710     1.1420 H     1 <1>   0.0800 
 26 H       -4.7880    -3.2540     0.3440 H     1 <1>   0.4500 
 27 H       -3.9080    -4.1740     2.6810 H     1 <1>   0.0800 
 28 H       -4.7630    -2.7470     3.1820 H     1 <1>   0.0800 
 29 H       -4.6260    -0.8980     2.0220 H     1 <1>   0.0800 
 30 H       -4.1440    -0.8220     0.3450 H     1 <1>   0.0800 
 31 H       -6.5020    -4.2720     3.1900 H     1 <1>   0.0800 
 32 H       -5.7870    -5.2410     1.9450 H     1 <1>   0.0800 
 33 H       -6.5130    -0.2670     0.6730 H     1 <1>   0.0800 
 34 H       -6.2780    -1.5700    -0.4290 H     1 <1>   0.0800 
 35 H       -8.1930    -1.9030     1.1150 H     1 <1>   0.0800 
 36 H       -7.1210    -1.8860     2.4770 H     1 <1>   0.0800 
 37 H       -7.5490    -6.2650     1.0080 H     1 <1>   0.0800 
 38 H       -8.9150    -5.5880    -1.4420 H     1 <1>   0.4500 
 39 H       -6.2130    -5.6170    -1.6020 H     1 <1>   0.0800 
 40 H       -5.4950    -6.3910    -0.2080 H     1 <1>   0.0800 
 41 H       -8.8010    -8.4380    -0.9050 H     1 <1>   0.0800 
 42 H       -8.7210    -7.5740    -2.4320 H     1 <1>   0.0800 
 43 H       -9.8840    -7.1350     0.8850 H     1 <1>   0.0800 
 44 H      -10.8310    -6.7350    -0.5330 H     1 <1>   0.0800 
 45 H      -10.2520    -5.4600     0.5150 H     1 <1>   0.0800 
 46 H       -6.5660    -8.4480    -0.6890 H     1 <1>   0.0800 
 47 H       -6.4340    -7.8440    -2.3210 H     1 <1>   0.0800 
@<TRIPOS>BOND
  1   1   2  1   
  2   1   3  1   
  3   2   4  2   
  4   2  22  1   
  5   3   5  2   
  6   3  23  1   
  7   4   5  1   
  8   5   6  1   
  9   6   7  1   
 10   6  24  1   
 11   6  25  1   
 12   7   8  1   
 13   7   9  1   
 14   7  26  1   
 15   8  10  1   
 16   8  27  1   
 17   8  28  1   
 18   9  11  1   
 19   9  29  1   
 20   9  30  1   
 21  10  12  1   
 22  10  31  1   
 23  10  32  1   
 24  11  13  1   
 25  11  33  1   
 26  11  34  1   
 27  12  13  1   
 28  12  14  am  
 29  13  35  1   
 30  13  36  1   
 31  14  15  2   
 32  14  16  1   
 33  16  17  1   
 34  16  18  1   
 35  16  37  1   
 36  17  19  1   
 37  17  20  1   
 38  17  38  1   
 39  18  21  1   
 40  18  39  1   
 41  18  40  1   
 42  19  21  1   
 43  19  41  1   
 44  19  42  1   
 45  20  43  1   
 46  20  44  1   
 47  20  45  1   
 48  21  46  1   
 49  21  47  1   
@<TRIPOS>SUBSTRUCTURE
  1 ****  14 GROUP 4 **** **** 0

# MOE 2024.06 (io_trps.svl 2023.06)
