@<TRIPOS>MOLECULE
NONAME
50 52 1 0 0 
SMALL
USER_CHARGES


@<TRIPOS>ATOM
  1 O       -0.6970     0.6000    -1.0010 O.2   1 <1>  -0.5700 
  2 C       -1.5930     1.0540    -0.3310 C.2   1 <1>   0.5690 
  3 N       -2.5670     0.2520     0.1900 N.am  1 <1>  -0.6600 
  4 C       -1.6380     2.5520    -0.0720 C.3   1 <1>  -0.0990 
  5 C       -3.7720     0.6860     0.9400 C.3   1 <1>   0.1400 
  6 C       -2.5720    -1.2170    -0.0110 C.3   1 <1>   0.1400 
  7 C       -0.3370     3.2790    -0.4540 C.3   1 <1>  -0.0220 
  8 C       -4.6480    -0.5640     1.0260 C.3   1 <1>   0.2000 
  9 C       -3.6870    -1.7430     0.8940 C.3   1 <1>  -0.0800 
 10 C       -0.4380     4.7750    -0.1410 C.2   1 <1>  -0.1240 
 11 O       -5.3270    -0.6300     2.2310 O.3   1 <1>  -0.6800 
 12 C       -4.3640    -3.0140     0.3600 C.3   1 <1>   0.0200 
 13 C       -0.9490     5.6630    -1.0420 C.2   1 <1>  -0.0290 
 14 C        0.0030     5.2830     1.1230 C.2   1 <1>   0.3750 
 15 C       -3.3540    -4.1310     0.1800 C.2   1 <1>  -0.0400 
 16 N       -0.9900     6.9720    -0.6660 N.am  1 <1>  -0.5390 
 17 C       -1.4930     5.3750    -2.4330 C.3   1 <1>  -0.1020 
 18 N       -0.0560     6.5220     1.4540 N.2   1 <1>  -0.6610 
 19 C        0.5840     4.3540     2.1760 C.3   1 <1>  -0.1790 
 20 O       -2.7130    -4.6050     1.2150 O.3   1 <1>  -0.0190 
 21 C       -2.9320    -4.7930    -0.9070 C.2   1 <1>  -0.1500 
 22 C       -0.5600     7.4060     0.5470 C.2   1 <1>   0.8410 
 23 N       -1.8810    -5.5470     0.8780 N.2   1 <1>  -0.4100 
 24 C       -1.9910    -5.6830    -0.3950 C.2   1 <1>   0.1080 
 25 O       -0.6360     8.5920     0.8020 O.2   1 <1>  -0.5700 
 26 C       -1.1990    -6.6760    -1.2160 C.3   1 <1>  -0.0590 
 27 H       -2.4530     2.9660    -0.6360 H     1 <1>   0.0800 
 28 H       -1.8360     2.7150     0.9700 H     1 <1>   0.0800 
 29 H       -3.4790     1.0150     1.9220 H     1 <1>   0.0800 
 30 H       -4.2850     1.4740     0.4160 H     1 <1>   0.0800 
 31 H       -2.7790    -1.4250    -1.0470 H     1 <1>   0.0800 
 32 H       -1.6160    -1.6430     0.2510 H     1 <1>   0.0800 
 33 H       -0.1380     3.1330    -1.5010 H     1 <1>   0.0800 
 34 H        0.4940     2.8280     0.0580 H     1 <1>   0.0800 
 35 H       -5.3710    -0.5540     0.2280 H     1 <1>   0.0800 
 36 H       -3.2430    -1.9530     1.8520 H     1 <1>   0.0800 
 37 H       -4.7020    -0.7460     2.9730 H     1 <1>   0.4000 
 38 H       -4.8380    -2.8110    -0.5830 H     1 <1>   0.0800 
 39 H       -5.1230    -3.3370     1.0520 H     1 <1>   0.0800 
 40 H       -1.3420     7.7160    -1.2650 H     1 <1>   0.3700 
 41 H       -2.4690     5.8130    -2.5400 H     1 <1>   0.0800 
 42 H       -1.5840     4.3240    -2.6320 H     1 <1>   0.0800 
 43 H       -0.8410     5.8050    -3.1730 H     1 <1>   0.0800 
 44 H       -0.0960     3.5540     2.3930 H     1 <1>   0.0800 
 45 H        0.7670     4.8940     3.0890 H     1 <1>   0.0800 
 46 H        1.5200     3.9530     1.8340 H     1 <1>   0.0800 
 47 H       -3.2200    -4.6910    -1.9360 H     1 <1>   0.1500 
 48 H       -1.8680    -7.3370    -1.7350 H     1 <1>   0.0800 
 49 H       -0.5630    -7.2570    -0.5740 H     1 <1>   0.0800 
 50 H       -0.5890    -6.1530    -1.9300 H     1 <1>   0.0800 
@<TRIPOS>BOND
  1   1   2  2   
  2   2   3  am  
  3   2   4  1   
  4   3   5  1   
  5   3   6  1   
  6   4   7  1   
  7   4  27  1   
  8   4  28  1   
  9   5   8  1   
 10   5  29  1   
 11   5  30  1   
 12   6   9  1   
 13   6  31  1   
 14   6  32  1   
 15   7  10  1   
 16   7  33  1   
 17   7  34  1   
 18   8   9  1   
 19   8  11  1   
 20   8  35  1   
 21   9  12  1   
 22   9  36  1   
 23  10  13  2   
 24  10  14  1   
 25  11  37  1   
 26  12  15  1   
 27  12  38  1   
 28  12  39  1   
 29  13  16  1   
 30  13  17  1   
 31  14  18  2   
 32  14  19  1   
 33  15  20  1   
 34  15  21  2   
 35  16  22  am  
 36  16  40  1   
 37  17  41  1   
 38  17  42  1   
 39  17  43  1   
 40  18  22  1   
 41  19  44  1   
 42  19  45  1   
 43  19  46  1   
 44  20  23  1   
 45  21  24  1   
 46  21  47  1   
 47  22  25  2   
 48  23  24  2   
 49  24  26  1   
 50  26  48  1   
 51  26  49  1   
 52  26  50  1   
@<TRIPOS>SUBSTRUCTURE
  1 ****   2 GROUP 4 **** **** 0

# MOE 2024.06 (io_trps.svl 2023.06)
