@<TRIPOS>MOLECULE
NONAME
48 50 1 0 0 
SMALL
USER_CHARGES


@<TRIPOS>ATOM
  1 O       -0.3020     0.5760     1.1390 O.2   1 <1>  -0.5700 
  2 C       -0.9280     0.9630     0.1760 C.2   1 <1>   0.7800 
  3 O       -2.0590     0.3710    -0.2090 O.3   1 <1>  -0.4300 
  4 N       -0.5220     2.0600    -0.5400 N.am  1 <1>  -0.6600 
  5 C       -2.6600    -0.7740     0.3610 C.3   1 <1>   0.2800 
  6 C        0.7370     2.7900    -0.1910 C.3   1 <1>   0.1400 
  7 C       -1.3930     2.7550    -1.5340 C.3   1 <1>   0.1400 
  8 C       -1.7180    -1.9780     0.2490 C.3   1 <1>  -0.2400 
  9 C       -3.9080    -1.0320    -0.4830 C.3   1 <1>  -0.2400 
 10 C       -3.0780    -0.4900     1.8080 C.3   1 <1>  -0.2400 
 11 C        0.4120     4.2200     0.2910 C.3   1 <1>   0.5660 
 12 C       -1.7140     4.1820    -1.0440 C.3   1 <1>   0.3430 
 13 N       -0.4760     4.9460    -0.6620 N.4   1 <1>  -0.9060 
 14 C        1.6500     5.0800     0.4650 C.ar  1 <1>  -0.1440 
 15 C        2.5720     5.2630    -0.5370 C.ar  1 <1>  -0.1500 
 16 C        1.8440     5.7230     1.6970 C.ar  1 <1>  -0.1500 
 17 C        3.7020     6.0870    -0.3610 C.ar  1 <1>   0.0000 
 18 C        2.9310     6.5270     1.8930 C.ar  1 <1>  -0.1500 
 19 C        3.8830     6.7350     0.8770 C.ar  1 <1>   0.0000 
 20 C        4.6580     6.2890    -1.3780 C.ar  1 <1>  -0.1500 
 21 C        5.0100     7.5640     1.0520 C.ar  1 <1>  -0.1500 
 22 C        5.7420     7.0990    -1.1810 C.ar  1 <1>  -0.1500 
 23 C        5.9190     7.7450     0.0470 C.ar  1 <1>  -0.1500 
 24 H        1.3750     2.8170    -1.0560 H     1 <1>   0.0800 
 25 H        1.2780     2.2750     0.5860 H     1 <1>   0.0800 
 26 H       -2.3140     2.2170    -1.6820 H     1 <1>   0.0800 
 27 H       -0.8880     2.7940    -2.4840 H     1 <1>   0.0800 
 28 H       -1.3900    -2.1070    -0.7660 H     1 <1>   0.0800 
 29 H       -2.2290    -2.8720     0.5570 H     1 <1>   0.0800 
 30 H       -0.8600    -1.8640     0.8870 H     1 <1>   0.0800 
 31 H       -3.6370    -1.2100    -1.5090 H     1 <1>   0.0800 
 32 H       -4.5760    -0.1910    -0.4350 H     1 <1>   0.0800 
 33 H       -4.4320    -1.8980    -0.1190 H     1 <1>   0.0800 
 34 H       -2.2220    -0.3740     2.4460 H     1 <1>   0.0800 
 35 H       -3.6520    -1.3160     2.1890 H     1 <1>   0.0800 
 36 H       -3.6840     0.3950     1.8600 H     1 <1>   0.0800 
 37 H       -0.0850     4.1330     1.2440 H     1 <1>   0.0800 
 38 H       -2.3670     4.1030    -0.1890 H     1 <1>   0.0800 
 39 H       -2.2490     4.7100    -1.8160 H     1 <1>   0.0800 
 40 H        0.0870     5.1600    -1.4900 H     1 <1>   0.4500 
 41 H       -0.7120     5.8500    -0.2370 H     1 <1>   0.4500 
 42 H        2.4740     4.7870    -1.4960 H     1 <1>   0.1500 
 43 H        1.1390     5.5850     2.5010 H     1 <1>   0.1500 
 44 H        3.0840     7.0200     2.8380 H     1 <1>   0.1500 
 45 H        4.5270     5.7920    -2.3220 H     1 <1>   0.1500 
 46 H        5.1440     8.0570     1.9980 H     1 <1>   0.1500 
 47 H        6.4700     7.2510    -1.9600 H     1 <1>   0.1500 
 48 H        6.7780     8.3790     0.1850 H     1 <1>   0.1500 
@<TRIPOS>BOND
  1   1   2  2   
  2   2   3  1   
  3   2   4  am  
  4   3   5  1   
  5   4   6  1   
  6   4   7  1   
  7   5   8  1   
  8   5   9  1   
  9   5  10  1   
 10   6  11  1   
 11   6  24  1   
 12   6  25  1   
 13   7  12  1   
 14   7  26  1   
 15   7  27  1   
 16   8  28  1   
 17   8  29  1   
 18   8  30  1   
 19   9  31  1   
 20   9  32  1   
 21   9  33  1   
 22  10  34  1   
 23  10  35  1   
 24  10  36  1   
 25  11  13  1   
 26  11  14  1   
 27  11  37  1   
 28  12  13  1   
 29  12  38  1   
 30  12  39  1   
 31  13  40  1   
 32  13  41  1   
 33  14  15  ar  
 34  14  16  ar  
 35  15  17  ar  
 36  15  42  1   
 37  16  18  ar  
 38  16  43  1   
 39  17  19  ar  
 40  17  20  ar  
 41  18  19  ar  
 42  18  44  1   
 43  19  21  ar  
 44  20  22  ar  
 45  20  45  1   
 46  21  23  ar  
 47  21  46  1   
 48  22  23  ar  
 49  22  47  1   
 50  23  48  1   
@<TRIPOS>SUBSTRUCTURE
  1 ****  11 GROUP 4 **** **** 0

# MOE 2024.06 (io_trps.svl 2023.06)
