@<TRIPOS>MOLECULE
NONAME
43 45 1 0 0 
SMALL
USER_CHARGES


@<TRIPOS>ATOM
  1 O        0.5040     0.0590    -0.8070 O.2   1 <1>  -0.5700 
  2 C        1.2550    -0.7450    -0.2990 C.2   1 <1>   0.5690 
  3 N        2.2800    -0.3140     0.5220 N.am  1 <1>  -0.6600 
  4 C        1.0040    -2.2240    -0.6610 C.3   1 <1>   0.2610 
  5 C        2.3840     1.1270     0.8970 C.3   1 <1>   0.1400 
  6 C        3.2860    -1.1950     1.1820 C.3   1 <1>   0.0600 
  7 O        1.1500    -3.0750     0.4710 O.3   1 <1>  -0.3620 
  8 C        1.9320    -2.7130    -1.7870 C.3   1 <1>  -0.2400 
  9 C        3.1950     1.8930    -0.1520 C.3   1 <1>   0.0210 
 10 C        0.5860    -4.3110     0.5520 C.ar  1 <1>   0.0820 
 11 C        3.4380     3.3360     0.2470 C.2   1 <1>   0.3350 
 12 C       -0.2690    -4.8430    -0.4160 C.ar  1 <1>  -0.1500 
 13 C        0.9070    -5.0570     1.6850 C.ar  1 <1>  -0.1500 
 14 N        3.0670     3.8920     1.3320 N.2   1 <1>  -0.4100 
 15 N        4.1000     4.1510    -0.5620 N.2   1 <1>  -0.5650 
 16 C       -0.7670    -6.1130    -0.2070 C.ar  1 <1>   0.0820 
 17 C        0.3940    -6.3330     1.8750 C.ar  1 <1>  -0.1500 
 18 O        3.4690     5.1250     1.2880 O.3   1 <1>  -0.0190 
 19 C        4.0780     5.2150     0.1330 C.2   1 <1>   0.2980 
 20 O       -1.5900    -6.8160    -0.9920 O.3   1 <1>  -0.3630 
 21 C       -0.4460    -6.8380     0.9040 C.ar  1 <1>   0.0820 
 22 C        4.6870     6.5380    -0.2690 C.3   1 <1>  -0.0600 
 23 C       -1.8110    -8.0650    -0.3390 C.3   1 <1>   0.4000 
 24 O       -1.0540    -8.0310     0.8690 O.3   1 <1>  -0.3630 
 25 H       -0.0200    -2.2830    -0.9810 H     1 <1>   0.0800 
 26 H        2.8520     1.2170     1.8630 H     1 <1>   0.0800 
 27 H        1.3990     1.5570     0.9710 H     1 <1>   0.0800 
 28 H        3.4340    -2.1020     0.6280 H     1 <1>   0.0800 
 29 H        2.9480    -1.4440     2.1730 H     1 <1>   0.0800 
 30 H        4.2330    -0.6880     1.2520 H     1 <1>   0.0800 
 31 H        2.9610    -2.6400    -1.4900 H     1 <1>   0.0800 
 32 H        1.7890    -2.0950    -2.6550 H     1 <1>   0.0800 
 33 H        1.7100    -3.7280    -2.0550 H     1 <1>   0.0800 
 34 H        2.6640     1.8830    -1.0860 H     1 <1>   0.0800 
 35 H        4.1480     1.4190    -0.2900 H     1 <1>   0.0800 
 36 H       -0.5570    -4.3190    -1.3060 H     1 <1>   0.1500 
 37 H        1.5630    -4.6290     2.4210 H     1 <1>   0.1500 
 38 H        0.6340    -6.9180     2.7450 H     1 <1>   0.1500 
 39 H        5.1460     6.4510    -1.2370 H     1 <1>   0.0800 
 40 H        5.4320     6.8260     0.4490 H     1 <1>   0.0800 
 41 H        3.9220     7.2910    -0.3090 H     1 <1>   0.0800 
 42 H       -1.4580    -8.8670    -0.9640 H     1 <1>   0.0800 
 43 H       -2.8560    -8.1710    -0.1070 H     1 <1>   0.0800 
@<TRIPOS>BOND
  1   1   2  2   
  2   2   3  am  
  3   2   4  1   
  4   3   5  1   
  5   3   6  1   
  6   4   7  1   
  7   4   8  1   
  8   4  25  1   
  9   5   9  1   
 10   5  26  1   
 11   5  27  1   
 12   6  28  1   
 13   6  29  1   
 14   6  30  1   
 15   7  10  1   
 16   8  31  1   
 17   8  32  1   
 18   8  33  1   
 19   9  11  1   
 20   9  34  1   
 21   9  35  1   
 22  10  12  ar  
 23  10  13  ar  
 24  11  14  2   
 25  11  15  1   
 26  12  16  ar  
 27  12  36  1   
 28  13  17  ar  
 29  13  37  1   
 30  14  18  1   
 31  15  19  2   
 32  16  20  1   
 33  16  21  ar  
 34  17  21  ar  
 35  17  38  1   
 36  18  19  1   
 37  19  22  1   
 38  20  23  1   
 39  21  24  1   
 40  22  39  1   
 41  22  40  1   
 42  22  41  1   
 43  23  24  1   
 44  23  42  1   
 45  23  43  1   
@<TRIPOS>SUBSTRUCTURE
  1 ****   2 GROUP 4 **** **** 0

# MOE 2024.06 (io_trps.svl 2023.06)
