@<TRIPOS>MOLECULE
NONAME
42 44 1 0 0 
SMALL
USER_CHARGES


@<TRIPOS>ATOM
  1 F      -12.9870     1.4370     0.5810 F     1 <1>  -0.1900 
  2 C      -11.7950     0.9160     0.3940 C.ar  1 <1>   0.1900 
  3 C      -11.6910    -0.4070    -0.0570 C.ar  1 <1>   0.1000 
  4 C      -10.7060     1.7100     0.6480 C.ar  1 <1>  -0.1500 
  5 N      -12.7860    -1.2520    -0.3260 N.pl3 1 <1>  -0.8690 
  6 C      -10.3990    -0.8900    -0.2480 C.ar  1 <1>   0.0830 
  7 C       -9.4080     1.2210     0.4510 C.ar  1 <1>   0.0860 
  8 C      -13.7960    -1.4860     0.7590 C.3   1 <1>   0.2090 
  9 O      -10.2680    -2.1870    -0.6700 O.3   1 <1>  -0.3630 
 10 C       -9.2600    -0.0990    -0.0170 C.ar  1 <1>   0.1000 
 11 C       -8.2460     2.0260     0.7130 C.2   1 <1>   0.4690 
 12 C      -15.2080    -1.1210     0.2560 C.3   1 <1>   0.3430 
 13 C       -9.0490    -2.8310    -0.3490 C.3   1 <1>   0.1200 
 14 N       -7.9670    -0.5950    -0.2600 N.pl3 1 <1>  -0.5690 
 15 O       -8.3840     3.0920     1.3040 O.2   1 <1>  -0.5700 
 16 C       -6.9810     1.5230     0.3150 C.2   1 <1>  -0.2360 
 17 N      -15.1050     0.0070    -0.7100 N.4   1 <1>  -0.9060 
 18 C       -7.8350    -1.9910    -0.7810 C.3   1 <1>   0.2890 
 19 C       -6.8830     0.2400    -0.1370 C.2   1 <1>  -0.0500 
 20 C       -5.8270     2.3660     0.3900 C.2   1 <1>   1.0500 
 21 C      -16.2690     0.1810    -1.6190 C.3   1 <1>   0.2630 
 22 C       -6.5520    -2.6700    -0.2800 C.3   1 <1>  -0.2400 
 23 O       -4.8340     1.9870     1.0390 O.co2 1 <1>  -0.9000 
 24 O       -5.7350     3.3970    -0.2990 O.co2 1 <1>  -0.9000 
 25 H      -10.8370     2.7190     0.9990 H     1 <1>   0.1500 
 26 H      -12.4060    -2.1520    -0.6760 H     1 <1>   0.4000 
 27 H      -13.7740    -2.5180     1.0660 H     1 <1>   0.0800 
 28 H      -13.5570    -0.8870     1.6220 H     1 <1>   0.0800 
 29 H      -15.8500    -0.8670     1.0840 H     1 <1>   0.0800 
 30 H      -15.6220    -1.9830    -0.2420 H     1 <1>   0.0800 
 31 H       -9.0280    -2.9870     0.7150 H     1 <1>   0.0800 
 32 H       -9.0400    -3.7860    -0.8430 H     1 <1>   0.0800 
 33 H      -14.8660     0.8730    -0.2060 H     1 <1>   0.4500 
 34 H      -14.2280    -0.2060    -1.2300 H     1 <1>   0.4500 
 35 H       -7.8120    -1.9520    -1.8570 H     1 <1>   0.0800 
 36 H       -5.9070    -0.1220    -0.4150 H     1 <1>   0.1500 
 37 H      -17.1570     0.4120    -1.0530 H     1 <1>   0.0800 
 38 H      -16.4410    -0.7210    -2.1840 H     1 <1>   0.0800 
 39 H      -16.0830     0.9880    -2.3110 H     1 <1>   0.0800 
 40 H       -6.4740    -2.5790     0.7900 H     1 <1>   0.0800 
 41 H       -5.6850    -2.2320    -0.7390 H     1 <1>   0.0800 
 42 H       -6.5580    -3.7130    -0.5380 H     1 <1>   0.0800 
@<TRIPOS>BOND
  1   1   2  1   
  2   2   3  ar  
  3   2   4  ar  
  4   3   5  1   
  5   3   6  ar  
  6   4   7  ar  
  7   4  25  1   
  8   5   8  1   
  9   5  26  1   
 10   6   9  1   
 11   6  10  ar  
 12   7  10  ar  
 13   7  11  1   
 14   8  12  1   
 15   8  27  1   
 16   8  28  1   
 17   9  13  1   
 18  10  14  1   
 19  11  15  2   
 20  11  16  1   
 21  12  17  1   
 22  12  29  1   
 23  12  30  1   
 24  13  18  1   
 25  13  31  1   
 26  13  32  1   
 27  14  18  1   
 28  14  19  1   
 29  16  19  2   
 30  16  20  1   
 31  17  21  1   
 32  17  33  1   
 33  17  34  1   
 34  18  22  1   
 35  18  35  1   
 36  19  36  1   
 37  20  23  ar  
 38  20  24  ar  
 39  21  37  1   
 40  21  38  1   
 41  21  39  1   
 42  22  40  1   
 43  22  41  1   
 44  22  42  1   
@<TRIPOS>SUBSTRUCTURE
  1 ****  10 GROUP 4 **** **** 0

# MOE 2024.06 (io_trps.svl 2023.06)
