@<TRIPOS>MOLECULE
NONAME
57 60 1 0 0 
SMALL
USER_CHARGES


@<TRIPOS>ATOM
  1 O        1.6360    -3.5640    -1.4920 O.3   1 <1>  -0.5600 
  2 C        1.9870    -2.6390    -0.4990 C.3   1 <1>   0.1200 
  3 C        0.4160    -3.2900    -2.1300 C.3   1 <1>   0.1200 
  4 C        0.9380    -2.6260     0.6370 C.3   1 <1>   0.3430 
  5 C       -0.7370    -3.1410    -1.1100 C.3   1 <1>   0.3430 
  6 N       -0.2680    -3.4490     0.2870 N.4   1 <1>  -0.9590 
  7 C       -1.3430    -3.3940     1.3180 C.3   1 <1>   0.4860 
  8 C       -2.5030    -4.2610     0.8810 C.ar  1 <1>  -0.1430 
  9 C       -2.4110    -5.6420     0.9410 C.ar  1 <1>   0.1600 
 10 C       -3.6690    -3.6960     0.3960 C.ar  1 <1>  -0.1500 
 11 N       -3.3470    -6.4790     0.5450 N.ar  1 <1>  -0.6200 
 12 C       -4.6550    -4.5630    -0.0110 C.ar  1 <1>  -0.1500 
 13 C       -4.4680    -5.9420     0.0740 C.ar  1 <1>   0.4100 
 14 N       -5.4650    -6.8000    -0.3540 N.pl3 1 <1>  -0.8380 
 15 C       -6.8820    -6.5610     0.0210 C.3   1 <1>   0.2090 
 16 C       -5.2320    -8.2580    -0.5210 C.3   1 <1>   0.2090 
 17 C       -7.4480    -7.9320     0.4130 C.3   1 <1>  -0.0800 
 18 C       -6.6020    -8.9290    -0.3950 C.3   1 <1>  -0.0800 
 19 C       -8.9910    -8.1080     0.2720 C.3   1 <1>   0.2800 
 20 C       -7.2560    -9.2250    -1.7540 C.3   1 <1>  -0.1600 
 21 O       -9.4960    -7.2270    -0.6660 O.3   1 <1>  -0.6800 
 22 C       -9.3220    -9.5230    -0.2400 C.3   1 <1>  -0.1600 
 23 C       -9.7430    -7.8350     1.5930 C.3   1 <1>  -0.1600 
 24 C       -8.6470    -9.8660    -1.5860 C.3   1 <1>  -0.1600 
 25 C       -9.5740    -6.4190     2.1720 C.3   1 <1>  -0.2400 
 26 H        2.9520    -2.9190    -0.1130 H     1 <1>   0.0800 
 27 H        2.0760    -1.6660    -0.9510 H     1 <1>   0.0800 
 28 H        0.5250    -2.3950    -2.7170 H     1 <1>   0.0800 
 29 H        0.2100    -4.1070    -2.8010 H     1 <1>   0.0800 
 30 H        0.6500    -1.6050     0.8300 H     1 <1>   0.0800 
 31 H        1.3950    -3.0090     1.5350 H     1 <1>   0.0800 
 32 H       -1.5380    -3.8060    -1.3920 H     1 <1>   0.0800 
 33 H       -1.1200    -2.1350    -1.1570 H     1 <1>   0.0800 
 34 H        0.0750    -4.4190     0.2190 H     1 <1>   0.4500 
 35 H       -0.9680    -3.7460     2.2650 H     1 <1>   0.0800 
 36 H       -1.6830    -2.3790     1.4430 H     1 <1>   0.0800 
 37 H       -1.5170    -6.0990     1.3320 H     1 <1>   0.1500 
 38 H       -3.8180    -2.6320     0.3310 H     1 <1>   0.1500 
 39 H       -5.5800    -4.1920    -0.4100 H     1 <1>   0.1500 
 40 H       -6.9600    -5.8640     0.8360 H     1 <1>   0.0800 
 41 H       -7.3830    -6.1560    -0.8410 H     1 <1>   0.0800 
 42 H       -4.7750    -8.4570    -1.4750 H     1 <1>   0.0800 
 43 H       -4.5870    -8.6190     0.2610 H     1 <1>   0.0800 
 44 H       -7.1860    -8.0920     1.4430 H     1 <1>   0.0800 
 45 H       -6.4910    -9.8560     0.1410 H     1 <1>   0.0800 
 46 H       -7.3620    -8.2980    -2.2940 H     1 <1>   0.0800 
 47 H       -6.6280    -9.8710    -2.3400 H     1 <1>   0.0800 
 48 H      -10.4410    -7.4130    -0.8060 H     1 <1>   0.4000 
 49 H       -8.9780   -10.2280     0.4970 H     1 <1>   0.0800 
 50 H      -10.3860    -9.6560    -0.3240 H     1 <1>   0.0800 
 51 H      -10.7920    -8.0200     1.4420 H     1 <1>   0.0800 
 52 H       -9.4080    -8.5420     2.3320 H     1 <1>   0.0800 
 53 H       -8.5620   -10.9360    -1.6650 H     1 <1>   0.0800 
 54 H       -9.2730    -9.5310    -2.3960 H     1 <1>   0.0800 
 55 H       -9.8600    -5.6740     1.4500 H     1 <1>   0.0800 
 56 H       -8.5560    -6.2440     2.4680 H     1 <1>   0.0800 
 57 H      -10.1980    -6.3040     3.0410 H     1 <1>   0.0800 
@<TRIPOS>BOND
  1   1   2  1   
  2   1   3  1   
  3   2   4  1   
  4   2  26  1   
  5   2  27  1   
  6   3   5  1   
  7   3  28  1   
  8   3  29  1   
  9   4   6  1   
 10   4  30  1   
 11   4  31  1   
 12   5   6  1   
 13   5  32  1   
 14   5  33  1   
 15   6   7  1   
 16   6  34  1   
 17   7   8  1   
 18   7  35  1   
 19   7  36  1   
 20   8   9  ar  
 21   8  10  ar  
 22   9  11  ar  
 23   9  37  1   
 24  10  12  ar  
 25  10  38  1   
 26  11  13  ar  
 27  12  13  ar  
 28  12  39  1   
 29  13  14  1   
 30  14  15  1   
 31  14  16  1   
 32  15  17  1   
 33  15  40  1   
 34  15  41  1   
 35  16  18  1   
 36  16  42  1   
 37  16  43  1   
 38  17  18  1   
 39  17  19  1   
 40  17  44  1   
 41  18  20  1   
 42  18  45  1   
 43  19  21  1   
 44  19  22  1   
 45  19  23  1   
 46  20  24  1   
 47  20  46  1   
 48  20  47  1   
 49  21  48  1   
 50  22  24  1   
 51  22  49  1   
 52  22  50  1   
 53  23  25  1   
 54  23  51  1   
 55  23  52  1   
 56  24  53  1   
 57  24  54  1   
 58  25  55  1   
 59  25  56  1   
 60  25  57  1   
@<TRIPOS>SUBSTRUCTURE
  1 ****  13 GROUP 4 **** **** 0

# MOE 2024.06 (io_trps.svl 2023.06)
