@<TRIPOS>MOLECULE
NONAME
51 54 1 0 0 
SMALL
USER_CHARGES


@<TRIPOS>ATOM
  1 S        0.4640     0.4080    -0.3580 S.3   1 <1>  -0.0800 
  2 C        0.5240    -1.3600    -0.3000 C.2   1 <1>  -0.0130 
  3 C       -1.2740     0.4250    -0.5770 C.2   1 <1>  -0.1400 
  4 C        1.7960    -2.0220    -0.1160 C.ar  1 <1>   0.3630 
  5 C       -0.7430    -1.8300    -0.4470 C.2   1 <1>  -0.1500 
  6 C       -1.7500    -0.8310    -0.6020 C.2   1 <1>  -0.1500 
  7 C       -1.9440     1.7770    -0.7000 C.3   1 <1>  -0.0600 
  8 N        2.9150    -1.3200    -0.2770 N.ar  1 <1>  -0.6200 
  9 C        1.8230    -3.3730     0.2230 C.ar  1 <1>  -0.1500 
 10 C        4.0750    -1.9440    -0.1170 C.ar  1 <1>   0.4100 
 11 C        3.0180    -4.0190     0.4140 C.ar  1 <1>  -0.1500 
 12 N        5.1680    -1.1310    -0.3380 N.pl3 1 <1>  -0.8380 
 13 C        4.1850    -3.2920     0.2540 C.ar  1 <1>  -0.1790 
 14 C        5.4400     0.0120     0.5760 C.3   1 <1>   0.2090 
 15 C        6.3200    -1.5110    -1.2150 C.3   1 <1>   0.2090 
 16 C        5.4530    -3.9170     0.5000 C.2   1 <1>   0.9790 
 17 C        6.7540    -0.1890     1.3570 C.3   1 <1>   0.2090 
 18 C        7.6500    -1.6450    -0.4380 C.3   1 <1>   0.2090 
 19 O        6.0620    -4.5070    -0.4150 O.co2 1 <1>  -0.9000 
 20 O        5.9480    -3.9290     1.6410 O.co2 1 <1>  -0.9000 
 21 N        7.9140    -0.4660     0.4520 N.pl3 1 <1>  -0.8380 
 22 C        8.7690     0.5340     0.0470 C.ar  1 <1>   0.4100 
 23 N        8.2220     1.7020    -0.2260 N.ar  1 <1>  -0.6200 
 24 C       10.1430     0.3300    -0.0780 C.ar  1 <1>  -0.1430 
 25 C        9.0480     2.6320    -0.6520 C.ar  1 <1>   0.4700 
 26 C       10.8930     1.3870    -0.5470 C.ar  1 <1>   0.1670 
 27 C       10.7790    -1.0070     0.3140 C.3   1 <1>  -0.0970 
 28 N       10.3520     2.5530    -0.8380 N.ar  1 <1>  -0.6200 
 29 C       12.3930     1.3050    -0.7650 C.3   1 <1>  -0.0970 
 30 H       -1.0130    -2.8690    -0.4580 H     1 <1>   0.1500 
 31 H       -2.7850    -1.1010    -0.7250 H     1 <1>   0.1500 
 32 H       -1.5450     2.3050    -1.5470 H     1 <1>   0.0800 
 33 H       -1.7660     2.3550     0.1880 H     1 <1>   0.0800 
 34 H       -3.0040     1.6550    -0.8310 H     1 <1>   0.0800 
 35 H        0.9060    -3.9130     0.3460 H     1 <1>   0.1500 
 36 H        3.0700    -5.0590     0.6880 H     1 <1>   0.1500 
 37 H        4.6260     0.1190     1.2710 H     1 <1>   0.0800 
 38 H        5.5080     0.9150    -0.0030 H     1 <1>   0.0800 
 39 H        6.4410    -0.7460    -1.9610 H     1 <1>   0.0800 
 40 H        6.1050    -2.4300    -1.7300 H     1 <1>   0.0800 
 41 H        6.6300    -1.0240     2.0270 H     1 <1>   0.0800 
 42 H        6.9560     0.6860     1.9470 H     1 <1>   0.0800 
 43 H        8.4490    -1.7560    -1.1470 H     1 <1>   0.0800 
 44 H        7.6290    -2.5360     0.1640 H     1 <1>   0.0800 
 45 H        8.6000     3.5830    -0.8800 H     1 <1>   0.1500 
 46 H       10.1880    -1.5060     1.0630 H     1 <1>   0.0800 
 47 H       11.7580    -0.8650     0.7290 H     1 <1>   0.0800 
 48 H       10.8480    -1.6460    -0.5470 H     1 <1>   0.0800 
 49 H       12.6790     0.3330    -1.1190 H     1 <1>   0.0800 
 50 H       12.9010     1.5160     0.1580 H     1 <1>   0.0800 
 51 H       12.6990     2.0290    -1.4990 H     1 <1>   0.0800 
@<TRIPOS>BOND
  1   1   2  1   
  2   1   3  1   
  3   2   4  1   
  4   2   5  2   
  5   3   6  2   
  6   3   7  1   
  7   4   8  ar  
  8   4   9  ar  
  9   5   6  1   
 10   5  30  1   
 11   6  31  1   
 12   7  32  1   
 13   7  33  1   
 14   7  34  1   
 15   8  10  ar  
 16   9  11  ar  
 17   9  35  1   
 18  10  12  1   
 19  10  13  ar  
 20  11  13  ar  
 21  11  36  1   
 22  12  14  1   
 23  12  15  1   
 24  13  16  1   
 25  14  17  1   
 26  14  37  1   
 27  14  38  1   
 28  15  18  1   
 29  15  39  1   
 30  15  40  1   
 31  16  19  ar  
 32  16  20  ar  
 33  17  21  1   
 34  17  41  1   
 35  17  42  1   
 36  18  21  1   
 37  18  43  1   
 38  18  44  1   
 39  21  22  1   
 40  22  23  ar  
 41  22  24  ar  
 42  23  25  ar  
 43  24  26  ar  
 44  24  27  1   
 45  25  28  ar  
 46  25  45  1   
 47  26  28  ar  
 48  26  29  1   
 49  27  46  1   
 50  27  47  1   
 51  27  48  1   
 52  29  49  1   
 53  29  50  1   
 54  29  51  1   
@<TRIPOS>SUBSTRUCTURE
  1 ****  12 GROUP 4 **** **** 0

# MOE 2024.06 (io_trps.svl 2023.06)
