@<TRIPOS>MOLECULE
NONAME
58 61 1 0 0 
SMALL
USER_CHARGES


@<TRIPOS>ATOM
  1 F        0.8470    -3.0790    -2.2530 F     1 <1>  -0.1900 
  2 C        0.1490    -3.1190    -1.1460 C.ar  1 <1>   0.1900 
  3 C        0.6470    -2.5500     0.0150 C.ar  1 <1>   0.1900 
  4 C       -1.0870    -3.7350    -1.1580 C.ar  1 <1>  -0.1500 
  5 F        1.8210    -1.9670     0.0190 F     1 <1>  -0.1900 
  6 C       -0.0830    -2.5870     1.1890 C.ar  1 <1>  -0.1500 
  7 C       -1.8340    -3.7810     0.0140 C.ar  1 <1>   0.1000 
  8 C       -1.3240    -3.2050     1.1790 C.ar  1 <1>  -0.1500 
  9 N       -3.0780    -4.4010     0.0020 N.pl3 1 <1>  -0.8380 
 10 C       -4.2510    -3.5120     0.0980 C.3   1 <1>   0.2090 
 11 C       -3.2020    -5.6380     0.7950 C.3   1 <1>   0.2090 
 12 C       -5.4440    -4.2540    -0.4940 C.3   1 <1>  -0.1600 
 13 C       -4.3640    -6.4420     0.2190 C.3   1 <1>  -0.1600 
 14 C       -5.6640    -5.6140     0.1970 C.3   1 <1>   0.4230 
 15 N       -6.7670    -6.3680    -0.4950 N.4   1 <1>  -0.9590 
 16 C       -6.9280    -7.7690     0.0800 C.3   1 <1>   0.3430 
 17 C       -8.0440    -5.5660    -0.4050 C.3   1 <1>   0.3430 
 18 C       -8.1910    -8.5290    -0.4300 C.3   1 <1>   0.4230 
 19 C       -9.2930    -6.3620    -0.8220 C.3   1 <1>  -0.1600 
 20 N       -8.3670    -9.9390     0.0720 N.4   1 <1>  -0.9590 
 21 C       -9.4310    -7.7010    -0.0520 C.3   1 <1>  -0.1060 
 22 C       -9.5350   -10.6580    -0.5310 C.3   1 <1>   0.3430 
 23 C       -7.1570   -10.8060     0.1420 C.3   1 <1>   0.2630 
 24 C       -9.3490    -7.4990     1.4710 C.2   1 <1>   0.9060 
 25 C      -10.7560    -8.4200    -0.4360 C.3   1 <1>  -0.1600 
 26 C      -10.5120    -9.7080    -1.2380 C.3   1 <1>  -0.1600 
 27 O       -9.0520    -8.4840     2.1570 O.co2 1 <1>  -0.9000 
 28 O       -9.3760    -6.3660     1.9390 O.co2 1 <1>  -0.9000 
 29 H       -1.4680    -4.1730    -2.0600 H     1 <1>   0.1500 
 30 H        0.3140    -2.1420     2.0840 H     1 <1>   0.1500 
 31 H       -1.9060    -3.2410     2.0810 H     1 <1>   0.1500 
 32 H       -4.4310    -3.2530     1.1290 H     1 <1>   0.0800 
 33 H       -4.0640    -2.6050    -0.4550 H     1 <1>   0.0800 
 34 H       -2.2870    -6.2040     0.7280 H     1 <1>   0.0800 
 35 H       -3.3790    -5.3940     1.8300 H     1 <1>   0.0800 
 36 H       -5.2600    -4.3920    -1.5440 H     1 <1>   0.0800 
 37 H       -6.2990    -3.6150    -0.3720 H     1 <1>   0.0800 
 38 H       -4.4720    -7.3130     0.8360 H     1 <1>   0.0800 
 39 H       -4.0960    -6.7440    -0.7780 H     1 <1>   0.0800 
 40 H       -5.9570    -5.4270     1.2190 H     1 <1>   0.0800 
 41 H       -6.5060    -6.4290    -1.4870 H     1 <1>   0.4500 
 42 H       -6.0600    -8.3520    -0.1710 H     1 <1>   0.0800 
 43 H       -6.9840    -7.6980     1.1550 H     1 <1>   0.0800 
 44 H       -8.1720    -5.2160     0.6070 H     1 <1>   0.0800 
 45 H       -7.9740    -4.6920    -1.0300 H     1 <1>   0.0800 
 46 H       -8.1250    -8.5740    -1.5030 H     1 <1>   0.0800 
 47 H      -10.1500    -5.7470    -0.6020 H     1 <1>   0.0800 
 48 H       -9.2820    -6.5270    -1.8840 H     1 <1>   0.0800 
 49 H       -8.6660    -9.7460     1.0700 H     1 <1>   0.4500 
 50 H       -9.1920   -11.3940    -1.2400 H     1 <1>   0.0800 
 51 H      -10.0600   -11.1790     0.2550 H     1 <1>   0.0800 
 52 H       -6.7690   -10.9930    -0.8460 H     1 <1>   0.0800 
 53 H       -7.4080   -11.7500     0.5970 H     1 <1>   0.0800 
 54 H       -6.3940   -10.3400     0.7420 H     1 <1>   0.0800 
 55 H      -11.2900    -8.6820     0.4650 H     1 <1>   0.0800 
 56 H      -11.4040    -7.7650    -0.9930 H     1 <1>   0.0800 
 57 H      -10.1310    -9.4650    -2.2140 H     1 <1>   0.0800 
 58 H      -11.4480   -10.2200    -1.3860 H     1 <1>   0.0800 
@<TRIPOS>BOND
  1   1   2  1   
  2   2   3  ar  
  3   2   4  ar  
  4   3   5  1   
  5   3   6  ar  
  6   4   7  ar  
  7   4  29  1   
  8   6   8  ar  
  9   6  30  1   
 10   7   8  ar  
 11   7   9  1   
 12   8  31  1   
 13   9  10  1   
 14   9  11  1   
 15  10  12  1   
 16  10  32  1   
 17  10  33  1   
 18  11  13  1   
 19  11  34  1   
 20  11  35  1   
 21  12  14  1   
 22  12  36  1   
 23  12  37  1   
 24  13  14  1   
 25  13  38  1   
 26  13  39  1   
 27  14  15  1   
 28  14  40  1   
 29  15  16  1   
 30  15  17  1   
 31  15  41  1   
 32  16  18  1   
 33  16  42  1   
 34  16  43  1   
 35  17  19  1   
 36  17  44  1   
 37  17  45  1   
 38  18  20  1   
 39  18  21  1   
 40  18  46  1   
 41  19  21  1   
 42  19  47  1   
 43  19  48  1   
 44  20  22  1   
 45  20  23  1   
 46  20  49  1   
 47  21  24  1   
 48  21  25  1   
 49  22  26  1   
 50  22  50  1   
 51  22  51  1   
 52  23  52  1   
 53  23  53  1   
 54  23  54  1   
 55  24  27  ar  
 56  24  28  ar  
 57  25  26  1   
 58  25  55  1   
 59  25  56  1   
 60  26  57  1   
 61  26  58  1   
@<TRIPOS>SUBSTRUCTURE
  1 ****  14 GROUP 4 **** **** 0

# MOE 2024.06 (io_trps.svl 2023.06)
