@<TRIPOS>MOLECULE
NONAME
38 39 1 0 0 
SMALL
USER_CHARGES


@<TRIPOS>ATOM
  1 S        0.0800    -0.1830     0.5430 S.o2  1 <1>   1.3330 
  2 O        0.4570    -1.1590     1.5410 O.2   1 <1>  -0.6500 
  3 O       -0.5580     1.0470     0.9540 O.2   1 <1>  -0.6500 
  4 N       -0.9260    -0.9570    -0.5850 N.am  1 <1>  -0.8490 
  5 C        1.5100     0.2520    -0.4480 C.3   1 <1>  -0.0550 
  6 C       -0.6270    -2.3830    -0.7510 C.3   1 <1>   0.1160 
  7 C       -2.3480    -0.7780    -0.2780 C.3   1 <1>   0.1160 
  8 C        2.5790     1.0510     0.3260 C.3   1 <1>  -0.0800 
  9 C        3.6510     1.5820    -0.6120 C.3   1 <1>   0.2200 
 10 C        3.3900     0.1600     1.2770 C.3   1 <1>   0.1200 
 11 N        4.3020     2.7550     0.0100 N.am  1 <1>  -0.7300 
 12 C        4.6340     0.4200    -0.6460 C.3   1 <1>   0.1200 
 13 O        4.5890    -0.1490     0.6280 O.3   1 <1>  -0.5600 
 14 C        4.3370     4.0150    -0.5060 C.2   1 <1>   0.7160 
 15 O        3.7630     4.2290    -1.5560 O.2   1 <1>  -0.5700 
 16 C        5.0540     5.0630     0.1910 C.2   1 <1>  -0.0860 
 17 C        5.6880     4.9590     1.3870 C.2   1 <1>  -0.1100 
 18 C        5.1710     6.3950    -0.3490 C.2   1 <1>  -0.1500 
 19 S        6.4330     6.4650     1.8700 S.3   1 <1>  -0.0800 
 20 C        5.8680     7.2550     0.4140 C.2   1 <1>  -0.1100 
 21 H        1.9490    -0.6390    -0.8530 H     1 <1>   0.0800 
 22 H        1.1670     0.8510    -1.2700 H     1 <1>   0.0800 
 23 H       -1.2280    -2.7970    -1.5420 H     1 <1>   0.0800 
 24 H       -0.8310    -2.9200     0.1620 H     1 <1>   0.0800 
 25 H        0.4100    -2.5190    -1.0060 H     1 <1>   0.0800 
 26 H       -2.9550    -1.2670    -1.0200 H     1 <1>   0.0800 
 27 H       -2.5970     0.2700    -0.2790 H     1 <1>   0.0800 
 28 H       -2.5760    -1.1870     0.6930 H     1 <1>   0.0800 
 29 H        2.0950     1.8550     0.8550 H     1 <1>   0.0800 
 30 H        3.2780     1.8270    -1.5930 H     1 <1>   0.0800 
 31 H        2.8940    -0.7590     1.5340 H     1 <1>   0.0800 
 32 H        3.6370     0.6910     2.1800 H     1 <1>   0.0800 
 33 H        4.8420     2.5440     0.8480 H     1 <1>   0.3700 
 34 H        5.6390     0.7310    -0.8700 H     1 <1>   0.0800 
 35 H        4.3180    -0.3290    -1.3510 H     1 <1>   0.0800 
 36 H        5.8000     4.1290     2.0610 H     1 <1>   0.1500 
 37 H        4.7170     6.6370    -1.2960 H     1 <1>   0.1500 
 38 H        6.1200     8.2920     0.2820 H     1 <1>   0.1500 
@<TRIPOS>BOND
  1   1   2  2   
  2   1   3  2   
  3   1   4  am  
  4   1   5  1   
  5   4   6  1   
  6   4   7  1   
  7   5   8  1   
  8   5  21  1   
  9   5  22  1   
 10   6  23  1   
 11   6  24  1   
 12   6  25  1   
 13   7  26  1   
 14   7  27  1   
 15   7  28  1   
 16   8   9  1   
 17   8  10  1   
 18   8  29  1   
 19   9  11  1   
 20   9  12  1   
 21   9  30  1   
 22  10  13  1   
 23  10  31  1   
 24  10  32  1   
 25  11  14  am  
 26  11  33  1   
 27  12  13  1   
 28  12  34  1   
 29  12  35  1   
 30  14  15  2   
 31  14  16  1   
 32  16  17  2   
 33  16  18  1   
 34  17  19  1   
 35  17  36  1   
 36  18  20  2   
 37  18  37  1   
 38  19  20  1   
 39  20  38  1   
@<TRIPOS>SUBSTRUCTURE
  1 ****   8 GROUP 4 **** **** 0

# MOE 2024.06 (io_trps.svl 2023.06)
