@<TRIPOS>MOLECULE
NONAME
53 55 1 0 0 
SMALL
USER_CHARGES


@<TRIPOS>ATOM
  1 O       -0.4640     0.6420     0.4090 O.2   1 <1>  -0.5700 
  2 C       -0.4020     1.8490     0.4340 C.2   1 <1>   0.5690 
  3 N       -1.4690     2.6300     0.7890 N.am  1 <1>  -0.6600 
  4 C        0.9150     2.5080     0.0170 C.3   1 <1>   0.1810 
  5 C       -1.3690     4.1270     0.7850 C.3   1 <1>   0.3640 
  6 C       -2.7280     2.0590     1.3480 C.3   1 <1>   0.0600 
  7 O        1.0520     3.8260     0.4900 O.3   1 <1>  -0.5600 
  8 C       -2.5680     4.7690     0.0640 C.ar  1 <1>  -0.1430 
  9 C       -0.0430     4.6700     0.1880 C.3   1 <1>   0.2610 
 10 C       -3.0370     4.3980    -1.2020 C.ar  1 <1>  -0.1430 
 11 C       -3.2080     5.8040     0.7360 C.ar  1 <1>  -0.1500 
 12 C        0.2330     6.1210     0.6290 C.2   1 <1>   0.5690 
 13 C       -4.1260     5.0650    -1.7470 C.ar  1 <1>  -0.1500 
 14 C       -2.4330     3.2750    -2.0400 C.3   1 <1>  -0.0960 
 15 C       -4.2880     6.4630     0.1810 C.ar  1 <1>  -0.1500 
 16 O       -0.2380     6.4860     1.6860 O.2   1 <1>  -0.5700 
 17 N        0.9870     6.9600    -0.1760 N.am  1 <1>  -0.5090 
 18 C       -4.7500     6.0920    -1.0650 C.ar  1 <1>  -0.1500 
 19 C        0.9100     8.4570    -0.1770 C.3   1 <1>   0.0490 
 20 C        2.0070     6.4230    -1.1300 C.3   1 <1>   0.1400 
 21 C        0.9720     9.2170     1.1110 C.3   1 <1>  -0.2000 
 22 C       -0.3010     9.1830     0.3240 C.3   1 <1>  -0.2000 
 23 C        3.3370     6.0830    -0.4280 C.3   1 <1>  -0.0800 
 24 C        4.0340     7.3210     0.1560 C.3   1 <1>  -0.2400 
 25 C        4.2830     5.3850    -1.4150 C.3   1 <1>  -0.2400 
 26 H        0.9860     2.5200    -1.0540 H     1 <1>   0.0800 
 27 H        1.7340     1.9350     0.4120 H     1 <1>   0.0800 
 28 H       -1.4030     4.4200     1.8190 H     1 <1>   0.0800 
 29 H       -3.5630     2.3210     0.7210 H     1 <1>   0.0800 
 30 H       -2.8970     2.4480     2.3370 H     1 <1>   0.0800 
 31 H       -2.6670     0.9860     1.4070 H     1 <1>   0.0800 
 32 H       -0.1500     4.6830    -0.8780 H     1 <1>   0.0800 
 33 H       -2.8630     6.1170     1.7080 H     1 <1>   0.1500 
 34 H       -4.5030     4.7880    -2.7160 H     1 <1>   0.1500 
 35 H       -2.7600     3.3410    -3.0620 H     1 <1>   0.0800 
 36 H       -2.7460     2.3220    -1.6530 H     1 <1>   0.0800 
 37 H       -1.3630     3.3140    -2.0410 H     1 <1>   0.0800 
 38 H       -4.7660     7.2630     0.7190 H     1 <1>   0.1500 
 39 H       -5.5910     6.5990    -1.5020 H     1 <1>   0.1500 
 40 H        1.4020     8.8940    -1.0290 H     1 <1>   0.1000 
 41 H        1.6310     5.5390    -1.6100 H     1 <1>   0.0800 
 42 H        2.1900     7.1400    -1.9120 H     1 <1>   0.0800 
 43 H        1.0230     8.6750     2.0380 H     1 <1>   0.1000 
 44 H        1.5250    10.1380     1.1430 H     1 <1>   0.1000 
 45 H       -0.6070    10.0840    -0.1760 H     1 <1>   0.1000 
 46 H       -1.1370     8.6290     0.7130 H     1 <1>   0.1000 
 47 H        3.1370     5.3960     0.3760 H     1 <1>   0.0800 
 48 H        4.1960     8.0640    -0.6050 H     1 <1>   0.0800 
 49 H        4.9830     7.0490     0.5820 H     1 <1>   0.0800 
 50 H        3.4350     7.7500     0.9390 H     1 <1>   0.0800 
 51 H        4.5210     6.0340    -2.2390 H     1 <1>   0.0800 
 52 H        3.8280     4.4890    -1.7990 H     1 <1>   0.0800 
 53 H        5.1980     5.1090    -0.9210 H     1 <1>   0.0800 
@<TRIPOS>BOND
  1   1   2  2   
  2   2   3  am  
  3   2   4  1   
  4   3   5  1   
  5   3   6  1   
  6   4   7  1   
  7   4  26  1   
  8   4  27  1   
  9   5   8  1   
 10   5   9  1   
 11   5  28  1   
 12   6  29  1   
 13   6  30  1   
 14   6  31  1   
 15   7   9  1   
 16   8  10  ar  
 17   8  11  ar  
 18   9  12  1   
 19   9  32  1   
 20  10  13  ar  
 21  10  14  1   
 22  11  15  ar  
 23  11  33  1   
 24  12  16  2   
 25  12  17  am  
 26  13  18  ar  
 27  13  34  1   
 28  14  35  1   
 29  14  36  1   
 30  14  37  1   
 31  15  18  ar  
 32  15  38  1   
 33  17  19  1   
 34  17  20  1   
 35  18  39  1   
 36  19  21  1   
 37  19  22  1   
 38  19  40  1   
 39  20  23  1   
 40  20  41  1   
 41  20  42  1   
 42  21  22  1   
 43  21  43  1   
 44  21  44  1   
 45  22  45  1   
 46  22  46  1   
 47  23  24  1   
 48  23  25  1   
 49  23  47  1   
 50  24  48  1   
 51  24  49  1   
 52  24  50  1   
 53  25  51  1   
 54  25  52  1   
 55  25  53  1   
@<TRIPOS>SUBSTRUCTURE
  1 ****   9 GROUP 4 **** **** 0

# MOE 2024.06 (io_trps.svl 2023.06)
