@<TRIPOS>MOLECULE
NONAME
53 56 1 0 0 
SMALL
USER_CHARGES


@<TRIPOS>ATOM
  1 O       -0.6120     0.3770    -1.9540 O.2   1 <1>  -0.5700 
  2 C       -1.5840     0.9690    -1.5220 C.2   1 <1>   0.5440 
  3 N       -2.8120     0.3410    -1.5390 N.am  1 <1>  -0.6600 
  4 C       -1.4180     2.3110    -1.0100 C.ar  1 <1>   0.0860 
  5 C       -4.0700     0.9370    -0.9940 C.3   1 <1>   0.1400 
  6 C       -2.9830    -1.0840    -1.9530 C.3   1 <1>   0.1400 
  7 C       -1.5370     2.6400     0.3490 C.ar  1 <1>   0.0830 
  8 C       -1.1550     3.3490    -1.9030 C.ar  1 <1>  -0.1500 
  9 C       -4.6210     0.0710     0.1530 C.3   1 <1>   0.1900 
 10 C       -3.5910    -1.9150    -0.8090 C.3   1 <1>   0.1100 
 11 O       -1.7560     1.7230     1.3190 O.3   1 <1>  -0.3630 
 12 C       -1.4460     3.9590     0.7650 C.ar  1 <1>  -0.1500 
 13 C       -1.0490     4.6600    -1.4810 C.ar  1 <1>  -0.1500 
 14 N       -4.8540    -1.3220    -0.3100 N.3   1 <1>  -0.8100 
 15 C       -5.9200     0.6830     0.7150 C.3   1 <1>   0.1200 
 16 C       -0.9130     0.5920     1.4110 C.3   1 <1>   0.0400 
 17 C       -1.2020     4.9760    -0.1410 C.ar  1 <1>  -0.1430 
 18 C       -5.4490    -2.1220     0.7860 C.3   1 <1>   0.3330 
 19 O       -6.4350    -0.1110     1.7450 O.3   1 <1>  -0.5600 
 20 C       -1.0940     6.4200     0.3140 C.3   1 <1>  -0.0970 
 21 C       -5.8170    -3.5260     0.3070 C.ar  1 <1>  -0.1430 
 22 C       -6.7100    -1.4280     1.3440 C.3   1 <1>   0.1200 
 23 C       -6.5090    -3.7150    -0.8820 C.ar  1 <1>  -0.1500 
 24 C       -5.4660    -4.6340     1.0660 C.ar  1 <1>  -0.1500 
 25 C       -6.8460    -4.9890    -1.3060 C.ar  1 <1>  -0.1500 
 26 C       -5.8020    -5.9090     0.6430 C.ar  1 <1>  -0.1500 
 27 C       -6.4920    -6.0870    -0.5430 C.ar  1 <1>  -0.1500 
 28 H       -3.9020     1.9360    -0.6380 H     1 <1>   0.0800 
 29 H       -4.8020     0.9870    -1.7810 H     1 <1>   0.0800 
 30 H       -3.6360    -1.1270    -2.8060 H     1 <1>   0.0800 
 31 H       -2.0390    -1.5150    -2.2390 H     1 <1>   0.0800 
 32 H       -1.0350     3.1130    -2.9470 H     1 <1>   0.1500 
 33 H       -3.8930     0.0700     0.9460 H     1 <1>   0.0800 
 34 H       -2.8760    -1.9850    -0.0080 H     1 <1>   0.0800 
 35 H       -3.7760    -2.9090    -1.1770 H     1 <1>   0.0800 
 36 H       -1.5610     4.1780     1.8110 H     1 <1>   0.1500 
 37 H       -0.8480     5.4380    -2.1970 H     1 <1>   0.1500 
 38 H       -6.6640     0.7700    -0.0580 H     1 <1>   0.0800 
 39 H       -5.7240     1.6590     1.1240 H     1 <1>   0.0800 
 40 H       -0.8930     0.2720     2.4370 H     1 <1>   0.0800 
 41 H        0.0790     0.8590     1.0890 H     1 <1>   0.0800 
 42 H       -1.3090    -0.1950     0.7960 H     1 <1>   0.0800 
 43 H       -4.7350    -2.2020     1.5870 H     1 <1>   0.0800 
 44 H       -1.7930     7.0290    -0.2290 H     1 <1>   0.0800 
 45 H       -0.0990     6.7860     0.1350 H     1 <1>   0.0800 
 46 H       -1.3080     6.5090     1.3640 H     1 <1>   0.0800 
 47 H       -7.0740    -1.9640     2.2010 H     1 <1>   0.0800 
 48 H       -7.4840    -1.4050     0.5980 H     1 <1>   0.0800 
 49 H       -6.7810    -2.8630    -1.4810 H     1 <1>   0.1500 
 50 H       -4.9300    -4.5120     1.9900 H     1 <1>   0.1500 
 51 H       -7.3810    -5.1240    -2.2290 H     1 <1>   0.1500 
 52 H       -5.5260    -6.7630     1.2370 H     1 <1>   0.1500 
 53 H       -6.7530    -7.0780    -0.8710 H     1 <1>   0.1500 
@<TRIPOS>BOND
  1   1   2  2   
  2   2   3  am  
  3   2   4  1   
  4   3   5  1   
  5   3   6  1   
  6   4   7  ar  
  7   4   8  ar  
  8   5   9  1   
  9   5  28  1   
 10   5  29  1   
 11   6  10  1   
 12   6  30  1   
 13   6  31  1   
 14   7  11  1   
 15   7  12  ar  
 16   8  13  ar  
 17   8  32  1   
 18   9  14  1   
 19   9  15  1   
 20   9  33  1   
 21  10  14  1   
 22  10  34  1   
 23  10  35  1   
 24  11  16  1   
 25  12  17  ar  
 26  12  36  1   
 27  13  17  ar  
 28  13  37  1   
 29  14  18  1   
 30  15  19  1   
 31  15  38  1   
 32  15  39  1   
 33  16  40  1   
 34  16  41  1   
 35  16  42  1   
 36  17  20  1   
 37  18  21  1   
 38  18  22  1   
 39  18  43  1   
 40  19  22  1   
 41  20  44  1   
 42  20  45  1   
 43  20  46  1   
 44  21  23  ar  
 45  21  24  ar  
 46  22  47  1   
 47  22  48  1   
 48  23  25  ar  
 49  23  49  1   
 50  24  26  ar  
 51  24  50  1   
 52  25  27  ar  
 53  25  51  1   
 54  26  27  ar  
 55  26  52  1   
 56  27  53  1   
@<TRIPOS>SUBSTRUCTURE
  1 ****   9 GROUP 4 **** **** 0

# MOE 2024.06 (io_trps.svl 2023.06)
