@<TRIPOS>MOLECULE
NONAME
38 39 1 0 0 
SMALL
USER_CHARGES


@<TRIPOS>ATOM
  1 O       -1.0070     0.0460     1.4080 O.2   1 <1>  -0.5700 
  2 C       -2.0050     0.7290     1.2380 C.2   1 <1>   0.5440 
  3 N       -3.2230     0.2260     1.6660 N.am  1 <1>  -0.6600 
  4 C       -1.8930     2.0110     0.5420 C.ar  1 <1>   0.3960 
  5 C       -3.3310    -1.2020     2.0630 C.3   1 <1>   0.3200 
  6 C       -4.4070     1.1030     1.9480 C.3   1 <1>   0.1400 
  7 N       -2.0810     3.1470     1.2380 N.ar  1 <1>  -0.6200 
  8 C       -1.6220     2.0240    -0.8360 C.ar  1 <1>  -0.1440 
  9 C       -3.4850    -2.0380     0.8100 C.2   1 <1>  -0.3320 
 10 C       -5.1300     1.5640     0.6720 C.3   1 <1>   0.1200 
 11 C       -1.9720     4.2820     0.5760 C.ar  1 <1>   0.1600 
 12 C       -1.5210     3.2250    -1.5060 C.ar  1 <1>  -0.1500 
 13 C       -1.4370     0.7260    -1.6210 C.3   1 <1>  -0.0960 
 14 N       -4.6490    -2.2780     0.1790 N.pl3 1 <1>   0.0330 
 15 C       -2.5320    -2.6740     0.0960 C.2   1 <1>   0.0770 
 16 O       -5.3380     0.4830    -0.1670 O.3   1 <1>  -0.6800 
 17 C       -1.6990     4.3770    -0.7750 C.ar  1 <1>  -0.1500 
 18 C       -4.3260    -3.0380    -0.8890 C.2   1 <1>   0.0070 
 19 N       -3.0640    -3.3010    -0.9710 N.2   1 <1>  -0.5650 
 20 C       -5.3530    -3.5150    -1.8910 C.3   1 <1>  -0.0600 
 21 H       -4.1640    -1.3580     2.7260 H     1 <1>   0.0800 
 22 H       -2.4380    -1.5010     2.5870 H     1 <1>   0.0800 
 23 H       -4.0820     1.9690     2.4990 H     1 <1>   0.0800 
 24 H       -5.1100     0.5820     2.5720 H     1 <1>   0.0800 
 25 H       -4.5460     2.2950     0.1420 H     1 <1>   0.0800 
 26 H       -6.0860     1.9960     0.9110 H     1 <1>   0.0800 
 27 H       -2.1070     5.1910     1.1380 H     1 <1>   0.1500 
 28 H       -1.3100     3.2700    -2.5610 H     1 <1>   0.1500 
 29 H       -2.2820     0.0750    -1.4810 H     1 <1>   0.0800 
 30 H       -0.5530     0.2140    -1.2830 H     1 <1>   0.0800 
 31 H       -1.3340     0.9180    -2.6730 H     1 <1>   0.0800 
 32 H       -5.5770    -1.9070     0.4110 H     1 <1>   0.2700 
 33 H       -1.4720    -2.7020     0.2950 H     1 <1>   0.1500 
 34 H       -4.4800     0.0090    -0.2670 H     1 <1>   0.4000 
 35 H       -1.6260     5.3410    -1.2460 H     1 <1>   0.1500 
 36 H       -5.8520    -2.6740    -2.3360 H     1 <1>   0.0800 
 37 H       -6.0760    -4.1450    -1.4070 H     1 <1>   0.0800 
 38 H       -4.8680    -4.0790    -2.6670 H     1 <1>   0.0800 
@<TRIPOS>BOND
  1   1   2  2   
  2   2   3  am  
  3   2   4  1   
  4   3   5  1   
  5   3   6  1   
  6   4   7  ar  
  7   4   8  ar  
  8   5   9  1   
  9   5  21  1   
 10   5  22  1   
 11   6  10  1   
 12   6  23  1   
 13   6  24  1   
 14   7  11  ar  
 15   8  12  ar  
 16   8  13  1   
 17   9  14  1   
 18   9  15  2   
 19  10  16  1   
 20  10  25  1   
 21  10  26  1   
 22  11  17  ar  
 23  11  27  1   
 24  12  17  ar  
 25  12  28  1   
 26  13  29  1   
 27  13  30  1   
 28  13  31  1   
 29  14  18  1   
 30  14  32  1   
 31  15  19  1   
 32  15  33  1   
 33  16  34  1   
 34  17  35  1   
 35  18  19  2   
 36  18  20  1   
 37  20  36  1   
 38  20  37  1   
 39  20  38  1   
@<TRIPOS>SUBSTRUCTURE
  1 ****   3 GROUP 4 **** **** 0

# MOE 2024.06 (io_trps.svl 2023.06)
