@<TRIPOS>MOLECULE
NONAME
54 56 1 0 0 
SMALL
USER_CHARGES


@<TRIPOS>ATOM
  1 O       -0.2930    -1.4460    -2.0330 O.2   1 <1>  -0.5700 
  2 C        0.0020    -1.8880    -0.9510 C.2   1 <1>   0.5690 
  3 N        1.2330    -2.3020    -0.5740 N.am  1 <1>  -0.6600 
  4 C       -0.9860    -2.0350     0.1720 C.3   1 <1>  -0.0990 
  5 C        1.2440    -2.7890     0.8190 C.3   1 <1>   0.1400 
  6 C        2.4380    -2.3830    -1.4400 C.3   1 <1>   0.1400 
  7 C       -0.2490    -2.9460     1.1610 C.3   1 <1>   0.2200 
  8 C        2.9000    -0.9870    -1.8570 C.3   1 <1>   0.1200 
  9 N       -0.6590    -4.3450     0.9130 N.am  1 <1>  -0.7300 
 10 O        4.1330    -1.1040    -2.4960 O.3   1 <1>  -0.5600 
 11 C       -1.0390    -5.2460     1.8620 C.2   1 <1>   0.5690 
 12 C        4.6170     0.0980    -3.0010 C.3   1 <1>   0.0400 
 13 O       -1.0860    -4.9240     3.0280 O.2   1 <1>  -0.5700 
 14 C       -1.4040    -6.6960     1.4410 C.3   1 <1>   0.3410 
 15 O       -1.2010    -6.8100     0.0260 O.3   1 <1>  -0.3630 
 16 C       -2.8810    -6.9830     1.7640 C.3   1 <1>  -0.2400 
 17 C       -0.4940    -7.7040     2.1660 C.3   1 <1>  -0.2400 
 18 C       -1.4140    -7.9700    -0.6390 C.ar  1 <1>   0.0820 
 19 C       -0.3680    -8.8660    -0.8130 C.ar  1 <1>  -0.1500 
 20 C       -2.6640    -8.2350    -1.1880 C.ar  1 <1>  -0.1500 
 21 C       -0.6010   -10.0390    -1.5070 C.ar  1 <1>  -0.1440 
 22 C       -2.8860    -9.4130    -1.8820 C.ar  1 <1>  -0.1500 
 23 C       -1.8420   -10.3090    -2.0300 C.ar  1 <1>  -0.1440 
 24 C        0.3730   -11.1510    -1.8030 C.3   1 <1>  -0.0170 
 25 C       -1.8580   -11.6390    -2.7410 C.3   1 <1>  -0.0170 
 26 C       -0.3680   -12.0080    -2.8450 C.3   1 <1>  -0.1600 
 27 H       -1.9150    -2.4530    -0.1670 H     1 <1>   0.0800 
 28 H       -1.1540    -1.0680     0.6040 H     1 <1>   0.0800 
 29 H        1.6990    -2.0450     1.4490 H     1 <1>   0.0800 
 30 H        1.7710    -3.7220     0.9100 H     1 <1>   0.0800 
 31 H        2.1980    -2.9530    -2.3210 H     1 <1>   0.0800 
 32 H        3.2310    -2.8770    -0.9070 H     1 <1>   0.0800 
 33 H       -0.4490    -2.6770     2.1850 H     1 <1>   0.0800 
 34 H        3.0230    -0.3590    -0.9930 H     1 <1>   0.0800 
 35 H        2.1910    -0.5520    -2.5410 H     1 <1>   0.0800 
 36 H       -0.5990    -4.6740    -0.0570 H     1 <1>   0.3700 
 37 H        5.5680    -0.0930    -3.4670 H     1 <1>   0.0800 
 38 H        4.7420     0.7990    -2.1940 H     1 <1>   0.0800 
 39 H        3.9250     0.4800    -3.7320 H     1 <1>   0.0800 
 40 H       -3.5160    -6.3160     1.2090 H     1 <1>   0.0800 
 41 H       -3.0600    -6.8210     2.8120 H     1 <1>   0.0800 
 42 H       -3.1370    -8.0020     1.5390 H     1 <1>   0.0800 
 43 H        0.5330    -7.5350     1.8960 H     1 <1>   0.0800 
 44 H       -0.7710    -8.7160     1.9310 H     1 <1>   0.0800 
 45 H       -0.5860    -7.5760     3.2290 H     1 <1>   0.0800 
 46 H        0.6050    -8.6480    -0.4150 H     1 <1>   0.1500 
 47 H       -3.4570    -7.5190    -1.0730 H     1 <1>   0.1500 
 48 H       -3.8520    -9.6270    -2.3030 H     1 <1>   0.1500 
 49 H        0.5540   -11.7160    -0.9060 H     1 <1>   0.0800 
 50 H        1.3010   -10.7710    -2.1920 H     1 <1>   0.0800 
 51 H       -2.3160   -11.5640    -3.7120 H     1 <1>   0.0800 
 52 H       -2.3870   -12.3590    -2.1410 H     1 <1>   0.0800 
 53 H       -0.2030   -13.0590    -2.6890 H     1 <1>   0.0800 
 54 H       -0.0140   -11.7400    -3.8260 H     1 <1>   0.0800 
@<TRIPOS>BOND
  1   1   2  2   
  2   2   3  am  
  3   2   4  1   
  4   3   5  1   
  5   3   6  1   
  6   4   7  1   
  7   4  27  1   
  8   4  28  1   
  9   5   7  1   
 10   5  29  1   
 11   5  30  1   
 12   6   8  1   
 13   6  31  1   
 14   6  32  1   
 15   7   9  1   
 16   7  33  1   
 17   8  10  1   
 18   8  34  1   
 19   8  35  1   
 20   9  11  am  
 21   9  36  1   
 22  10  12  1   
 23  11  13  2   
 24  11  14  1   
 25  12  37  1   
 26  12  38  1   
 27  12  39  1   
 28  14  15  1   
 29  14  16  1   
 30  14  17  1   
 31  15  18  1   
 32  16  40  1   
 33  16  41  1   
 34  16  42  1   
 35  17  43  1   
 36  17  44  1   
 37  17  45  1   
 38  18  19  ar  
 39  18  20  ar  
 40  19  21  ar  
 41  19  46  1   
 42  20  22  ar  
 43  20  47  1   
 44  21  23  ar  
 45  21  24  1   
 46  22  23  ar  
 47  22  48  1   
 48  23  25  1   
 49  24  26  1   
 50  24  49  1   
 51  24  50  1   
 52  25  26  1   
 53  25  51  1   
 54  25  52  1   
 55  26  53  1   
 56  26  54  1   
@<TRIPOS>SUBSTRUCTURE
  1 ****  15 GROUP 4 **** **** 0

# MOE 2024.06 (io_trps.svl 2023.06)
