@<TRIPOS>MOLECULE
NONAME
51 54 1 0 0 
SMALL
USER_CHARGES


@<TRIPOS>ATOM
  1 S       -2.1150     1.0750     1.0090 S.3   1 <1>  -0.3320 
  2 C       -0.8410     0.8980    -0.2480 C.ar  1 <1>   0.1020 
  3 C       -3.5600     0.1920     0.2910 C.3   1 <1>   0.1500 
  4 C       -0.9170     1.5620    -1.4690 C.ar  1 <1>  -0.1440 
  5 C        0.2120     0.0520     0.0510 C.ar  1 <1>  -0.1500 
  6 C       -4.7430     0.4090     1.2340 C.3   1 <1>  -0.1600 
  7 C       -3.1940    -1.2890     0.1680 C.3   1 <1>  -0.1600 
  8 C        0.0800     1.3260    -2.4040 C.ar  1 <1>  -0.1500 
  9 C       -2.0240     2.5480    -1.8160 C.3   1 <1>  -0.0970 
 10 C        1.2000    -0.1670    -0.8920 C.ar  1 <1>  -0.1500 
 11 C       -5.9300    -0.4610     0.8320 C.3   1 <1>   0.3430 
 12 C       -4.4120    -2.1260    -0.2070 C.3   1 <1>   0.3430 
 13 C        1.1290     0.4660    -2.1210 C.ar  1 <1>  -0.1500 
 14 N       -5.5090    -1.8920     0.7820 N.4   1 <1>  -0.9590 
 15 C       -6.6830    -2.7910     0.5590 C.3   1 <1>   0.4810 
 16 C       -6.2580    -4.2500     0.7210 C.2   1 <1>  -0.0380 
 17 N       -5.8720    -4.9660    -0.3980 N.pl3 1 <1>  -0.5840 
 18 C       -6.2430    -4.8620     1.9370 C.2   1 <1>  -0.1360 
 19 C       -5.4470    -6.3000    -0.2650 C.2   1 <1>  -0.0680 
 20 C       -5.8270    -6.2140     2.1230 C.2   1 <1>   0.5650 
 21 N       -5.4210    -6.9240     0.9610 N.pl3 1 <1>   0.5610 
 22 C       -5.0140    -7.1940    -1.1820 C.2   1 <1>  -0.1500 
 23 O       -5.8190    -6.6950     3.2460 O.2   1 <1>  -0.5700 
 24 N       -4.9600    -8.2070     0.8090 N.2   1 <1>  -0.7070 
 25 C       -4.7310    -8.3460    -0.4560 C.2   1 <1>   0.1080 
 26 C       -4.2100    -9.6390    -1.0400 C.3   1 <1>  -0.0590 
 27 H       -3.7520     0.6230    -0.6760 H     1 <1>   0.0800 
 28 H        0.2590    -0.4290     1.0100 H     1 <1>   0.1500 
 29 H       -5.0320     1.4450     1.2050 H     1 <1>   0.0800 
 30 H       -4.4550     0.1790     2.2450 H     1 <1>   0.0800 
 31 H       -2.7850    -1.6470     1.0970 H     1 <1>   0.0800 
 32 H       -2.4390    -1.4100    -0.5890 H     1 <1>   0.0800 
 33 H        0.0510     1.8180    -3.3610 H     1 <1>   0.1500 
 34 H       -2.3680     3.0660    -0.9390 H     1 <1>   0.0800 
 35 H       -2.8490     2.0360    -2.2750 H     1 <1>   0.0800 
 36 H       -1.6580     3.2880    -2.5060 H     1 <1>   0.0800 
 37 H        2.0230    -0.8250    -0.6710 H     1 <1>   0.1500 
 38 H       -6.2920    -0.1510    -0.1360 H     1 <1>   0.0800 
 39 H       -6.7240    -0.3300     1.5500 H     1 <1>   0.0800 
 40 H       -4.1310    -3.1680    -0.2150 H     1 <1>   0.0800 
 41 H       -4.7450    -1.8560    -1.1960 H     1 <1>   0.0800 
 42 H        1.8950     0.2960    -2.8570 H     1 <1>   0.1500 
 43 H       -5.1220    -2.1340     1.7050 H     1 <1>   0.4500 
 44 H       -7.0970    -2.6370    -0.4240 H     1 <1>   0.0800 
 45 H       -7.4480    -2.5710     1.2850 H     1 <1>   0.0800 
 46 H       -5.9660    -4.6120    -1.3620 H     1 <1>   0.4000 
 47 H       -6.5430    -4.3600     2.8390 H     1 <1>   0.1500 
 48 H       -4.9010    -7.0760    -2.2440 H     1 <1>   0.1500 
 49 H       -4.0900    -9.5550    -2.1040 H     1 <1>   0.0800 
 50 H       -4.9010   -10.4340    -0.8250 H     1 <1>   0.0800 
 51 H       -3.2610    -9.8770    -0.5960 H     1 <1>   0.0800 
@<TRIPOS>BOND
  1   1   2  1   
  2   1   3  1   
  3   2   4  ar  
  4   2   5  ar  
  5   3   6  1   
  6   3   7  1   
  7   3  27  1   
  8   4   8  ar  
  9   4   9  1   
 10   5  10  ar  
 11   5  28  1   
 12   6  11  1   
 13   6  29  1   
 14   6  30  1   
 15   7  12  1   
 16   7  31  1   
 17   7  32  1   
 18   8  13  ar  
 19   8  33  1   
 20   9  34  1   
 21   9  35  1   
 22   9  36  1   
 23  10  13  ar  
 24  10  37  1   
 25  11  14  1   
 26  11  38  1   
 27  11  39  1   
 28  12  14  1   
 29  12  40  1   
 30  12  41  1   
 31  13  42  1   
 32  14  15  1   
 33  14  43  1   
 34  15  16  1   
 35  15  44  1   
 36  15  45  1   
 37  16  17  1   
 38  16  18  2   
 39  17  19  1   
 40  17  46  1   
 41  18  20  1   
 42  18  47  1   
 43  19  21  1   
 44  19  22  2   
 45  20  21  1   
 46  20  23  2   
 47  21  24  1   
 48  22  25  1   
 49  22  48  1   
 50  24  25  2   
 51  25  26  1   
 52  26  49  1   
 53  26  50  1   
 54  26  51  1   
@<TRIPOS>SUBSTRUCTURE
  1 ****  12 GROUP 4 **** **** 0

# MOE 2024.06 (io_trps.svl 2023.06)
