@<TRIPOS>MOLECULE
NONAME
50 52 1 0 0 
SMALL
USER_CHARGES


@<TRIPOS>ATOM
  1 O       -0.0900     1.2470    -0.8080 O.2   1 <1>  -0.5700 
  2 C       -0.3470     2.4180    -0.6580 C.2   1 <1>   0.5690 
  3 N       -1.3130     2.8840     0.1980 N.am  1 <1>  -0.6600 
  4 C        0.4490     3.4230    -1.4850 C.3   1 <1>   0.1810 
  5 C       -1.5900     4.3580     0.3070 C.3   1 <1>   0.3640 
  6 C       -2.0960     2.0320     1.1380 C.3   1 <1>   0.2200 
  7 O        0.6190     4.6360    -0.8010 O.3   1 <1>  -0.5600 
  8 C       -3.0180     4.6340    -0.1740 C.ar  1 <1>  -0.1440 
  9 C       -0.5990     5.2810    -0.4580 C.3   1 <1>   0.2610 
 10 C       -1.1650     1.3880     2.1640 C.3   1 <1>  -0.2400 
 11 C       -2.9280     0.9910     0.3880 C.3   1 <1>  -0.2400 
 12 C       -3.4910     4.1030    -1.3680 C.ar  1 <1>  -0.1500 
 13 C       -3.8610     5.4360     0.5830 C.ar  1 <1>  -0.1500 
 14 C       -0.3090     6.5440     0.3670 C.2   1 <1>   0.5690 
 15 C       -4.7810     4.3650    -1.7940 C.ar  1 <1>  -0.1500 
 16 C       -5.1510     5.6990     0.1590 C.ar  1 <1>  -0.1500 
 17 O       -1.2170     7.1520     0.8850 O.2   1 <1>  -0.5700 
 18 N        0.9730     6.9630     0.5030 N.am  1 <1>  -0.7300 
 19 C       -5.6130     5.1640    -1.0300 C.ar  1 <1>  -0.1500 
 20 C        1.4140     8.1950     1.1700 C.3   1 <1>   0.3210 
 21 C        2.5590     8.7740     0.3690 C.2   1 <1>  -0.1810 
 22 C        2.4660     9.3030    -0.9120 C.2   1 <1>   0.1390 
 23 C        3.8640     8.8980     0.6930 C.2   1 <1>  -0.3020 
 24 N        3.6120     9.7220    -1.3550 N.2   1 <1>  -0.7070 
 25 N        4.4780     9.4730    -0.3600 N.pl3 1 <1>   0.3140 
 26 C        5.9000     9.8080    -0.4820 C.3   1 <1>   0.0160 
 27 H       -0.0530     3.6140    -2.4160 H     1 <1>   0.0800 
 28 H        1.4250     3.0220    -1.6880 H     1 <1>   0.0800 
 29 H       -1.5300     4.6120     1.3520 H     1 <1>   0.0800 
 30 H       -2.7870     2.6600     1.6770 H     1 <1>   0.0800 
 31 H       -1.0550     5.6000    -1.3770 H     1 <1>   0.0800 
 32 H       -0.4960     0.6920     1.6910 H     1 <1>   0.0800 
 33 H       -1.7440     0.8530     2.8940 H     1 <1>   0.0800 
 34 H       -0.5920     2.1430     2.6700 H     1 <1>   0.0800 
 35 H       -2.3010     0.2730    -0.1080 H     1 <1>   0.0800 
 36 H       -3.5610     1.4710    -0.3350 H     1 <1>   0.0800 
 37 H       -3.5540     0.4610     1.0820 H     1 <1>   0.0800 
 38 H       -2.8600     3.4740    -1.9710 H     1 <1>   0.1500 
 39 H       -3.5160     5.8700     1.5070 H     1 <1>   0.1500 
 40 H       -5.1390     3.9460    -2.7180 H     1 <1>   0.1500 
 41 H       -5.7950     6.3240     0.7530 H     1 <1>   0.1500 
 42 H        1.7120     6.4160     0.0480 H     1 <1>   0.3700 
 43 H       -6.6170     5.3690    -1.3590 H     1 <1>   0.1500 
 44 H        0.6030     8.9020     1.2250 H     1 <1>   0.0800 
 45 H        1.7410     7.9630     2.1690 H     1 <1>   0.0800 
 46 H        1.5530     9.3620    -1.4820 H     1 <1>   0.1500 
 47 H        4.3810     8.6150     1.5920 H     1 <1>   0.1500 
 48 H        6.3700     9.7460     0.4810 H     1 <1>   0.0800 
 49 H        5.9890    10.8070    -0.8670 H     1 <1>   0.0800 
 50 H        6.3630     9.1190    -1.1620 H     1 <1>   0.0800 
@<TRIPOS>BOND
  1   1   2  2   
  2   2   3  am  
  3   2   4  1   
  4   3   5  1   
  5   3   6  1   
  6   4   7  1   
  7   4  27  1   
  8   4  28  1   
  9   5   8  1   
 10   5   9  1   
 11   5  29  1   
 12   6  10  1   
 13   6  11  1   
 14   6  30  1   
 15   7   9  1   
 16   8  12  ar  
 17   8  13  ar  
 18   9  14  1   
 19   9  31  1   
 20  10  32  1   
 21  10  33  1   
 22  10  34  1   
 23  11  35  1   
 24  11  36  1   
 25  11  37  1   
 26  12  15  ar  
 27  12  38  1   
 28  13  16  ar  
 29  13  39  1   
 30  14  17  2   
 31  14  18  am  
 32  15  19  ar  
 33  15  40  1   
 34  16  19  ar  
 35  16  41  1   
 36  18  20  1   
 37  18  42  1   
 38  19  43  1   
 39  20  21  1   
 40  20  44  1   
 41  20  45  1   
 42  21  22  1   
 43  21  23  2   
 44  22  24  2   
 45  22  46  1   
 46  23  25  1   
 47  23  47  1   
 48  24  25  1   
 49  25  26  1   
 50  26  48  1   
 51  26  49  1   
 52  26  50  1   
@<TRIPOS>SUBSTRUCTURE
  1 ****   9 GROUP 4 **** **** 0

# MOE 2024.06 (io_trps.svl 2023.06)
