@<TRIPOS>MOLECULE
NONAME
54 56 1 0 0 
SMALL
USER_CHARGES


@<TRIPOS>ATOM
  1 O       -0.3420     0.9210    -0.0780 O.2   1 <1>  -0.5700 
  2 C       -0.3880     2.1290    -0.0590 C.2   1 <1>   0.5690 
  3 N       -1.2080     2.8210     0.7900 N.am  1 <1>  -0.6600 
  4 C        0.4900     2.9000    -1.0430 C.3   1 <1>   0.1810 
  5 C       -1.2810     4.3200     0.7580 C.3   1 <1>   0.3640 
  6 C       -2.0510     2.1430     1.8170 C.3   1 <1>   0.0600 
  7 O        0.7920     4.1950    -0.5900 O.3   1 <1>  -0.5600 
  8 C       -2.7380     4.7900     0.6010 C.ar  1 <1>  -0.1430 
  9 C       -0.3470     4.9940    -0.2850 C.3   1 <1>   0.2610 
 10 C       -3.6140     4.3600    -0.4030 C.ar  1 <1>  -0.1430 
 11 C       -3.1960     5.7120     1.5350 C.ar  1 <1>  -0.1500 
 12 C        0.1090     6.3620     0.2380 C.2   1 <1>   0.5690 
 13 C       -4.9110     4.8540    -0.4340 C.ar  1 <1>  -0.1500 
 14 C       -3.2360     3.3550    -1.4850 C.3   1 <1>  -0.0960 
 15 C       -4.4890     6.1980     1.4930 C.ar  1 <1>  -0.1500 
 16 O       -0.7000     7.2400     0.4170 O.2   1 <1>  -0.5700 
 17 N        1.4320     6.5580     0.4890 N.am  1 <1>  -0.7300 
 18 C       -5.3500     5.7670     0.5060 C.ar  1 <1>  -0.1500 
 19 C        2.0530     7.8160     0.9800 C.3   1 <1>   0.1400 
 20 C        2.8690     8.5460    -0.1170 C.3   1 <1>   0.0000 
 21 C        3.4220     9.8530     0.4780 C.3   1 <1>  -0.1600 
 22 C        1.9430     9.0670    -1.2310 C.3   1 <1>  -0.1600 
 23 C        3.9760     7.5960    -0.6370 C.3   1 <1>   0.1200 
 24 C        2.2810    10.8730     0.3870 C.3   1 <1>  -0.1600 
 25 C        1.3080    10.3410    -0.6710 C.3   1 <1>  -0.1600 
 26 O        4.8130     8.2210    -1.5500 O.3   1 <1>  -0.6800 
 27 H       -0.0030     2.9720    -1.9950 H     1 <1>   0.0800 
 28 H        1.4180     2.3740    -1.1730 H     1 <1>   0.0800 
 29 H       -0.9360     4.6480     1.7240 H     1 <1>   0.0800 
 30 H       -1.8550     2.5630     2.7880 H     1 <1>   0.0800 
 31 H       -1.8380     1.0880     1.8490 H     1 <1>   0.0800 
 32 H       -3.0930     2.2750     1.5810 H     1 <1>   0.0800 
 33 H       -0.8840     5.1610    -1.2000 H     1 <1>   0.0800 
 34 H       -2.5430     6.0750     2.3100 H     1 <1>   0.1500 
 35 H       -5.5980     4.5290    -1.1950 H     1 <1>   0.1500 
 36 H       -3.9850     3.3190    -2.2550 H     1 <1>   0.0800 
 37 H       -3.1540     2.3700    -1.0610 H     1 <1>   0.0800 
 38 H       -2.3080     3.6200    -1.9500 H     1 <1>   0.0800 
 39 H       -4.8200     6.9140     2.2240 H     1 <1>   0.1500 
 40 H        2.0570     5.7740     0.2780 H     1 <1>   0.3700 
 41 H       -6.3580     6.1410     0.4660 H     1 <1>   0.1500 
 42 H        1.2800     8.4660     1.3540 H     1 <1>   0.0800 
 43 H        2.6970     7.5780     1.8080 H     1 <1>   0.0800 
 44 H        3.7730     9.7320     1.4880 H     1 <1>   0.0800 
 45 H        4.2420    10.2160    -0.1170 H     1 <1>   0.0800 
 46 H        2.5170     9.3360    -2.0990 H     1 <1>   0.0800 
 47 H        1.1970     8.3510    -1.5280 H     1 <1>   0.0800 
 48 H        3.5410     6.7430    -1.1280 H     1 <1>   0.0800 
 49 H        4.5890     7.2520     0.1780 H     1 <1>   0.0800 
 50 H        1.7770    10.9540     1.3350 H     1 <1>   0.0800 
 51 H        2.6610    11.8430     0.1140 H     1 <1>   0.0800 
 52 H        1.1330    11.0630    -1.4500 H     1 <1>   0.0800 
 53 H        0.3650    10.1000    -0.2070 H     1 <1>   0.0800 
 54 H        4.2860     8.6450    -2.2540 H     1 <1>   0.4000 
@<TRIPOS>BOND
  1   1   2  2   
  2   2   3  am  
  3   2   4  1   
  4   3   5  1   
  5   3   6  1   
  6   4   7  1   
  7   4  27  1   
  8   4  28  1   
  9   5   8  1   
 10   5   9  1   
 11   5  29  1   
 12   6  30  1   
 13   6  31  1   
 14   6  32  1   
 15   7   9  1   
 16   8  10  ar  
 17   8  11  ar  
 18   9  12  1   
 19   9  33  1   
 20  10  13  ar  
 21  10  14  1   
 22  11  15  ar  
 23  11  34  1   
 24  12  16  2   
 25  12  17  am  
 26  13  18  ar  
 27  13  35  1   
 28  14  36  1   
 29  14  37  1   
 30  14  38  1   
 31  15  18  ar  
 32  15  39  1   
 33  17  19  1   
 34  17  40  1   
 35  18  41  1   
 36  19  20  1   
 37  19  42  1   
 38  19  43  1   
 39  20  21  1   
 40  20  22  1   
 41  20  23  1   
 42  21  24  1   
 43  21  44  1   
 44  21  45  1   
 45  22  25  1   
 46  22  46  1   
 47  22  47  1   
 48  23  26  1   
 49  23  48  1   
 50  23  49  1   
 51  24  25  1   
 52  24  50  1   
 53  24  51  1   
 54  25  52  1   
 55  25  53  1   
 56  26  54  1   
@<TRIPOS>SUBSTRUCTURE
  1 ****  12 GROUP 4 **** **** 0

# MOE 2024.06 (io_trps.svl 2023.06)
