@<TRIPOS>MOLECULE
NONAME
47 49 1 0 0 
SMALL
USER_CHARGES


@<TRIPOS>ATOM
  1 S        0.0320     0.1980    -1.5870 S.o2  1 <1>   1.4470 
  2 O       -0.9060     1.0650    -2.2710 O.2   1 <1>  -0.6500 
  3 O        0.8480    -0.7200    -2.3510 O.2   1 <1>  -0.6500 
  4 N       -0.8470    -0.6880    -0.4400 N.am  1 <1>  -0.8490 
  5 C        1.1310     1.1930    -0.5400 C.ar  1 <1>  -0.0090 
  6 C       -1.5350    -1.8490    -1.0480 C.3   1 <1>   0.1960 
  7 C       -1.7990     0.1500     0.2920 C.3   1 <1>   0.1960 
  8 C        1.1910     2.5760    -0.6630 C.ar  1 <1>  -0.1500 
  9 C        1.9400     0.5910     0.4170 C.ar  1 <1>  -0.1500 
 10 C       -2.1420    -2.7690     0.0310 C.3   1 <1>  -0.1060 
 11 C       -2.4410    -0.6430     1.4290 C.3   1 <1>  -0.1600 
 12 C        2.0230     3.3400     0.1380 C.ar  1 <1>   0.0820 
 13 C        2.7790     1.3400     1.2240 C.ar  1 <1>  -0.1500 
 14 C       -3.0080    -3.8350    -0.6340 C.2   1 <1>   0.9060 
 15 C       -3.0990    -1.9040     0.8750 C.3   1 <1>   0.2000 
 16 C       -1.0240    -3.4390     0.8850 C.3   1 <1>  -0.0650 
 17 O        1.9980     4.6800    -0.0630 O.3   1 <1>  -0.3630 
 18 C        2.8230     2.7150     1.0880 C.ar  1 <1>  -0.1500 
 19 O       -3.0620    -3.9130    -1.8660 O.co2 1 <1>  -0.9000 
 20 O       -3.6920    -4.5710     0.0940 O.co2 1 <1>  -0.9000 
 21 O       -3.6040    -2.6350     1.9310 O.3   1 <1>  -0.6800 
 22 C       -0.0580    -4.3230     0.0800 C.3   1 <1>  -0.1950 
 23 C        2.8300     5.5500     0.6700 C.3   1 <1>   0.0400 
 24 C        1.2730    -4.6940     0.6530 C.3   1 <1>  -0.2000 
 25 C        1.1920    -3.7720    -0.5290 C.3   1 <1>  -0.2000 
 26 H       -2.3130    -1.4990    -1.7080 H     1 <1>   0.0800 
 27 H       -0.8500    -2.4200    -1.6510 H     1 <1>   0.0800 
 28 H       -1.2930     1.0050     0.7070 H     1 <1>   0.0800 
 29 H       -2.5650     0.5050    -0.3800 H     1 <1>   0.0800 
 30 H        0.5800     3.0740    -1.3960 H     1 <1>   0.1500 
 31 H        1.9060    -0.4800     0.5280 H     1 <1>   0.1500 
 32 H       -3.1860    -0.0360     1.9090 H     1 <1>   0.0800 
 33 H       -1.6900    -0.8970     2.1540 H     1 <1>   0.0800 
 34 H        3.3970     0.8490     1.9570 H     1 <1>   0.1500 
 35 H       -3.9390    -1.6220     0.2610 H     1 <1>   0.0800 
 36 H       -0.4570    -2.6860     1.4010 H     1 <1>   0.0800 
 37 H       -1.4820    -4.0620     1.6330 H     1 <1>   0.0800 
 38 H        3.4800     3.2770     1.7250 H     1 <1>   0.1500 
 39 H       -3.8420    -3.5260     1.5420 H     1 <1>   0.4000 
 40 H       -0.5750    -5.0930    -0.4710 H     1 <1>   0.1000 
 41 H        2.6470     6.5530     0.3290 H     1 <1>   0.0800 
 42 H        3.8570     5.2850     0.4910 H     1 <1>   0.0800 
 43 H        2.5870     5.4700     1.7150 H     1 <1>   0.0800 
 44 H        1.5600    -4.2880     1.6070 H     1 <1>   0.1000 
 45 H        1.6280    -5.6990     0.5060 H     1 <1>   0.1000 
 46 H        1.4680    -4.1260    -1.5060 H     1 <1>   0.1000 
 47 H        1.4050    -2.7260    -0.3990 H     1 <1>   0.1000 
@<TRIPOS>BOND
  1   1   2  2   
  2   1   3  2   
  3   1   4  am  
  4   1   5  1   
  5   4   6  1   
  6   4   7  1   
  7   5   8  ar  
  8   5   9  ar  
  9   6  10  1   
 10   6  26  1   
 11   6  27  1   
 12   7  11  1   
 13   7  28  1   
 14   7  29  1   
 15   8  12  ar  
 16   8  30  1   
 17   9  13  ar  
 18   9  31  1   
 19  10  14  1   
 20  10  15  1   
 21  10  16  1   
 22  11  15  1   
 23  11  32  1   
 24  11  33  1   
 25  12  17  1   
 26  12  18  ar  
 27  13  18  ar  
 28  13  34  1   
 29  14  19  ar  
 30  14  20  ar  
 31  15  21  1   
 32  15  35  1   
 33  16  22  1   
 34  16  36  1   
 35  16  37  1   
 36  17  23  1   
 37  18  38  1   
 38  21  39  1   
 39  22  24  1   
 40  22  25  1   
 41  22  40  1   
 42  23  41  1   
 43  23  42  1   
 44  23  43  1   
 45  24  25  1   
 46  24  44  1   
 47  24  45  1   
 48  25  46  1   
 49  25  47  1   
@<TRIPOS>SUBSTRUCTURE
  1 ****   4 GROUP 4 **** **** 0

# MOE 2024.06 (io_trps.svl 2023.06)
