@<TRIPOS>MOLECULE
NONAME
52 56 1 0 0 
SMALL
USER_CHARGES


@<TRIPOS>ATOM
  1 O       -2.5660    -1.6410     0.8300 O.2   1 <1>  -0.5700 
  2 C       -2.2640    -0.4920     0.6200 C.2   1 <1>   0.5690 
  3 N       -0.9720    -0.1130     0.7810 N.am  1 <1>  -0.7300 
  4 C       -3.3280     0.5360     0.2550 C.3   1 <1>   0.0420 
  5 C       -0.4140     1.2430     0.5840 C.3   1 <1>   0.1400 
  6 C       -4.3160    -0.0720    -0.7400 C.2   1 <1>   0.5690 
  7 C       -2.7140     1.8670    -0.2520 C.3   1 <1>  -0.1600 
  8 C       -1.5320     2.2910     0.6300 C.3   1 <1>  -0.1600 
  9 O       -4.0680     0.0510    -1.9190 O.2   1 <1>  -0.5700 
 10 N       -5.4700    -0.7050    -0.3310 N.am  1 <1>  -0.6600 
 11 C       -6.4880    -1.1540    -1.3220 C.3   1 <1>   0.1400 
 12 C       -5.7550    -1.1990     1.0490 C.3   1 <1>   0.1400 
 13 C       -6.4910    -2.6810    -1.3720 C.3   1 <1>  -0.1600 
 14 C       -5.7800    -2.7280     1.0430 C.3   1 <1>  -0.1600 
 15 C       -6.7640    -3.2830     0.0110 C.3   1 <1>   0.4600 
 16 O       -8.0530    -2.8950     0.4430 O.3   1 <1>  -0.5600 
 17 C       -6.6860    -4.8040    -0.0270 C.2   1 <1>  -0.3320 
 18 C       -9.1590    -3.6160    -0.0470 C.3   1 <1>   0.1200 
 19 N       -5.5600    -5.5490    -0.2450 N.pl3 1 <1>   0.0330 
 20 C       -7.7370    -5.6270     0.1550 C.2   1 <1>  -0.1810 
 21 C       -9.1200    -5.0830     0.4140 C.3   1 <1>   0.0210 
 22 C       -5.9150    -6.8760    -0.1960 C.ar  1 <1>  -0.1520 
 23 C       -7.2820    -6.9590     0.0580 C.ar  1 <1>   0.0000 
 24 C       -5.1450    -8.0310    -0.3510 C.ar  1 <1>  -0.1500 
 25 C       -7.8920    -8.2130     0.1590 C.ar  1 <1>  -0.1500 
 26 C       -5.7580    -9.2580    -0.2510 C.ar  1 <1>  -0.1500 
 27 C       -7.1330    -9.3490     0.0040 C.ar  1 <1>  -0.1500 
 28 H       -0.3110    -0.8600     1.0040 H     1 <1>   0.3700 
 29 H       -3.8520     0.7740     1.1570 H     1 <1>   0.0800 
 30 H        0.0780     1.2780    -0.3740 H     1 <1>   0.0800 
 31 H        0.3140     1.4510     1.3500 H     1 <1>   0.0800 
 32 H       -3.4700     2.6330    -0.2590 H     1 <1>   0.0800 
 33 H       -2.3570     1.7470    -1.2610 H     1 <1>   0.0800 
 34 H       -1.1430     3.2340     0.2880 H     1 <1>   0.0800 
 35 H       -1.8580     2.4210     1.6470 H     1 <1>   0.0800 
 36 H       -6.2740    -0.7580    -2.3000 H     1 <1>   0.0800 
 37 H       -7.4570    -0.7920    -1.0230 H     1 <1>   0.0800 
 38 H       -6.7120    -0.8200     1.3690 H     1 <1>   0.0800 
 39 H       -5.0130    -0.8710     1.7520 H     1 <1>   0.0800 
 40 H       -5.5280    -3.0080    -1.7190 H     1 <1>   0.0800 
 41 H       -7.2170    -3.0290    -2.0810 H     1 <1>   0.0800 
 42 H       -6.0450    -3.0960     2.0170 H     1 <1>   0.0800 
 43 H       -4.7900    -3.0800     0.8230 H     1 <1>   0.0800 
 44 H       -9.1530    -3.5630    -1.1210 H     1 <1>   0.0800 
 45 H      -10.0500    -3.1360     0.3170 H     1 <1>   0.0800 
 46 H       -4.6120    -5.1910    -0.4010 H     1 <1>   0.2700 
 47 H       -9.8500    -5.6530    -0.1280 H     1 <1>   0.0800 
 48 H       -9.3430    -5.1440     1.4640 H     1 <1>   0.0800 
 49 H       -4.0900    -7.9510    -0.5460 H     1 <1>   0.1500 
 50 H       -8.9470    -8.2660     0.3560 H     1 <1>   0.1500 
 51 H       -5.1870   -10.1620    -0.3670 H     1 <1>   0.1500 
 52 H       -7.5880   -10.3210     0.0790 H     1 <1>   0.1500 
@<TRIPOS>BOND
  1   1   2  2   
  2   2   3  am  
  3   2   4  1   
  4   3   5  1   
  5   3  28  1   
  6   4   6  1   
  7   4   7  1   
  8   4  29  1   
  9   5   8  1   
 10   5  30  1   
 11   5  31  1   
 12   6   9  2   
 13   6  10  am  
 14   7   8  1   
 15   7  32  1   
 16   7  33  1   
 17   8  34  1   
 18   8  35  1   
 19  10  11  1   
 20  10  12  1   
 21  11  13  1   
 22  11  36  1   
 23  11  37  1   
 24  12  14  1   
 25  12  38  1   
 26  12  39  1   
 27  13  15  1   
 28  13  40  1   
 29  13  41  1   
 30  14  15  1   
 31  14  42  1   
 32  14  43  1   
 33  15  16  1   
 34  15  17  1   
 35  16  18  1   
 36  17  19  1   
 37  17  20  2   
 38  18  21  1   
 39  18  44  1   
 40  18  45  1   
 41  19  22  1   
 42  19  46  1   
 43  20  21  1   
 44  20  23  1   
 45  21  47  1   
 46  21  48  1   
 47  22  23  ar  
 48  22  24  ar  
 49  23  25  ar  
 50  24  26  ar  
 51  24  49  1   
 52  25  27  ar  
 53  25  50  1   
 54  26  27  ar  
 55  26  51  1   
 56  27  52  1   
@<TRIPOS>SUBSTRUCTURE
  1 ****  14 GROUP 4 **** **** 0

# MOE 2024.06 (io_trps.svl 2023.06)
