@<TRIPOS>MOLECULE
NONAME
52 54 1 0 0 
SMALL
USER_CHARGES


@<TRIPOS>ATOM
  1 O       -1.3380     0.1730    -1.7380 O.2   1 <1>  -0.5700 
  2 C       -1.6250     0.5650    -0.6350 C.2   1 <1>   0.5690 
  3 N       -2.0130    -0.2810     0.3480 N.am  1 <1>  -0.7300 
  4 C       -1.5520     2.0440    -0.3340 C.3   1 <1>  -0.0990 
  5 C       -2.0950    -1.7540     0.2160 C.3   1 <1>   0.2200 
  6 C       -0.1310     2.4570     0.0590 C.3   1 <1>  -0.0160 
  7 C       -3.5420    -2.2210     0.1280 C.3   1 <1>  -0.0800 
  8 C       -1.6810    -2.3850     1.5380 C.3   1 <1>   0.1200 
  9 C       -0.0830     3.9400     0.3880 C.ar  1 <1>  -0.1440 
 10 C       -3.9690    -2.3110     1.5980 C.3   1 <1>   0.1200 
 11 C       -4.4730    -1.3680    -0.7530 C.3   1 <1>  -0.0160 
 12 O       -2.7980    -2.2510     2.3630 O.3   1 <1>  -0.5600 
 13 C        0.1060     4.8720    -0.6200 C.ar  1 <1>  -0.1500 
 14 C       -0.2330     4.3740     1.6940 C.ar  1 <1>  -0.1500 
 15 C       -5.8600    -1.9860    -0.8350 C.ar  1 <1>  -0.1440 
 16 C        0.1460     6.2340    -0.3290 C.ar  1 <1>   0.0820 
 17 C       -0.1950     5.7250     1.9910 C.ar  1 <1>  -0.1500 
 18 C       -6.9080    -1.5460    -0.0530 C.ar  1 <1>  -0.1500 
 19 C       -6.1390    -3.0250    -1.7000 C.ar  1 <1>  -0.1500 
 20 O        0.3290     7.1870    -1.2830 O.3   1 <1>  -0.3620 
 21 C       -0.0060     6.6600     0.9870 C.ar  1 <1>  -0.1440 
 22 C       -8.1480    -2.1530    -0.1650 C.ar  1 <1>   0.1600 
 23 C       -7.4160    -3.5620    -1.7350 C.ar  1 <1>   0.1600 
 24 C        0.5070     6.8510    -2.6410 C.3   1 <1>   0.0400 
 25 C        0.0340     8.1430     1.3320 C.3   1 <1>  -0.0970 
 26 N       -8.4260    -3.1520    -0.9860 N.ar  1 <1>  -0.6200 
 27 H       -2.2720     0.0650     1.2740 H     1 <1>   0.3700 
 28 H       -1.8550     2.5880    -1.2100 H     1 <1>   0.0800 
 29 H       -2.2350     2.2870     0.4590 H     1 <1>   0.0800 
 30 H       -1.4940    -2.0980    -0.6090 H     1 <1>   0.0800 
 31 H        0.5440     2.2420    -0.7520 H     1 <1>   0.0800 
 32 H        0.1930     1.8850     0.9120 H     1 <1>   0.0800 
 33 H       -3.5380    -3.2230    -0.2650 H     1 <1>   0.0800 
 34 H       -0.8340    -1.8980     1.9880 H     1 <1>   0.0800 
 35 H       -1.4820    -3.4350     1.4170 H     1 <1>   0.0800 
 36 H       -4.4780    -3.2360     1.8090 H     1 <1>   0.0800 
 37 H       -4.5880    -1.4800     1.8870 H     1 <1>   0.0800 
 38 H       -4.0560    -1.2930    -1.7440 H     1 <1>   0.0800 
 39 H       -4.5520    -0.3690    -0.3620 H     1 <1>   0.0800 
 40 H        0.2200     4.5210    -1.6260 H     1 <1>   0.1500 
 41 H       -0.3810     3.6640     2.4890 H     1 <1>   0.1500 
 42 H       -0.3130     6.0430     3.0120 H     1 <1>   0.1500 
 43 H       -6.7750    -0.7380     0.6420 H     1 <1>   0.1500 
 44 H       -5.3780    -3.4210    -2.3470 H     1 <1>   0.1500 
 45 H       -8.9540    -1.7970     0.4530 H     1 <1>   0.1500 
 46 H       -7.6150    -4.3710    -2.4160 H     1 <1>   0.1500 
 47 H        0.6390     7.7630    -3.1950 H     1 <1>   0.0800 
 48 H       -0.3690     6.3340    -2.9900 H     1 <1>   0.0800 
 49 H        1.3840     6.2360    -2.7360 H     1 <1>   0.0800 
 50 H       -0.0980     8.3020     2.3860 H     1 <1>   0.0800 
 51 H       -0.7480     8.6590     0.8040 H     1 <1>   0.0800 
 52 H        0.9810     8.5580     1.0360 H     1 <1>   0.0800 
@<TRIPOS>BOND
  1   1   2  2   
  2   2   3  am  
  3   2   4  1   
  4   3   5  1   
  5   3  27  1   
  6   4   6  1   
  7   4  28  1   
  8   4  29  1   
  9   5   7  1   
 10   5   8  1   
 11   5  30  1   
 12   6   9  1   
 13   6  31  1   
 14   6  32  1   
 15   7  10  1   
 16   7  11  1   
 17   7  33  1   
 18   8  12  1   
 19   8  34  1   
 20   8  35  1   
 21   9  13  ar  
 22   9  14  ar  
 23  10  12  1   
 24  10  36  1   
 25  10  37  1   
 26  11  15  1   
 27  11  38  1   
 28  11  39  1   
 29  13  16  ar  
 30  13  40  1   
 31  14  17  ar  
 32  14  41  1   
 33  15  18  ar  
 34  15  19  ar  
 35  16  20  1   
 36  16  21  ar  
 37  17  21  ar  
 38  17  42  1   
 39  18  22  ar  
 40  18  43  1   
 41  19  23  ar  
 42  19  44  1   
 43  20  24  1   
 44  21  25  1   
 45  22  26  ar  
 46  22  45  1   
 47  23  26  ar  
 48  23  46  1   
 49  24  47  1   
 50  24  48  1   
 51  24  49  1   
 52  25  50  1   
 53  25  51  1   
 54  25  52  1   
@<TRIPOS>SUBSTRUCTURE
  1 ****   2 GROUP 4 **** **** 0

# MOE 2024.06 (io_trps.svl 2023.06)
