@<TRIPOS>MOLECULE
Untitled Document
61 64 1 0 0 
SMALL
USER_CHARGES


@<TRIPOS>ATOM
  1 F       -0.1730    -1.8880    -0.0090 F     1 <1>  -0.1900 
  2 C        1.0540    -2.3310     0.0350 C.ar  1 <1>   0.1900 
  3 C        1.2780    -3.6860    -0.0380 C.ar  1 <1>  -0.1500 
  4 C        2.0880    -1.3990     0.1560 C.ar  1 <1>  -0.1500 
  5 C        2.6040    -4.0970     0.0140 C.ar  1 <1>   0.1400 
  6 C        3.3960    -1.8370     0.2060 C.ar  1 <1>  -0.1500 
  7 O        3.1030    -5.3220    -0.0350 O.3   1 <1>  -0.0190 
  8 C        3.6530    -3.2140     0.1330 C.ar  1 <1>   0.0000 
  9 N        4.4130    -5.3010     0.0440 N.2   1 <1>  -0.4100 
 10 C        4.7680    -4.0740     0.1440 C.2   1 <1>   0.1080 
 11 C        6.2160    -3.6210     0.2590 C.3   1 <1>   0.1010 
 12 C        7.0040    -4.0330    -0.9940 C.3   1 <1>  -0.1600 
 13 C        6.8640    -4.2170     1.5190 C.3   1 <1>  -0.1600 
 14 C        8.4930    -3.7230    -0.8620 C.3   1 <1>   0.3430 
 15 C        8.3540    -3.9000     1.5990 C.3   1 <1>   0.3430 
 16 N        9.0350    -4.3820     0.3640 N.4   1 <1>  -0.9590 
 17 C       10.5130    -4.2280     0.4870 C.3   1 <1>   0.3430 
 18 C       11.2240    -5.0570    -0.5770 C.3   1 <1>  -0.1600 
 19 C       12.7360    -5.0200    -0.3630 C.3   1 <1>   0.1200 
 20 O       13.3120    -5.8760    -1.3180 O.3   1 <1>  -0.3630 
 21 C       14.2180    -6.7950    -0.8950 C.ar  1 <1>   0.0820 
 22 C       13.9240    -7.7740     0.0630 C.ar  1 <1>   0.0820 
 23 C       15.4740    -6.7460    -1.4730 C.ar  1 <1>  -0.1500 
 24 O       12.6640    -7.8310     0.5920 O.3   1 <1>  -0.3620 
 25 C       14.9250    -8.6680     0.4350 C.ar  1 <1>  -0.1500 
 26 C       16.4550    -7.6460    -1.0970 C.ar  1 <1>  -0.1500 
 27 C       12.2310    -8.9770     1.2940 C.3   1 <1>   0.0400 
 28 C       16.1890    -8.6120    -0.1380 C.ar  1 <1>  -0.1440 
 29 C       17.2810    -9.5950     0.2690 C.3   1 <1>   0.3440 
 30 O       16.7710   -10.8690     0.1640 O.3   1 <1>  -0.6800 
 31 C       17.7450    -9.3960     1.7070 C.3   1 <1>  -0.2400 
 32 H        0.4770    -4.3950    -0.1310 H     1 <1>   0.1500 
 33 H        1.8440    -0.3520     0.2090 H     1 <1>   0.1500 
 34 H        4.2060    -1.1370     0.2990 H     1 <1>   0.1500 
 35 H        6.2350    -2.5470     0.3390 H     1 <1>   0.0800 
 36 H        6.6080    -3.5130    -1.8500 H     1 <1>   0.0800 
 37 H        6.8810    -5.0870    -1.1780 H     1 <1>   0.0800 
 38 H        6.7300    -5.2850     1.5330 H     1 <1>   0.0800 
 39 H        6.3700    -3.8230     2.3910 H     1 <1>   0.0800 
 40 H        8.6390    -2.6560    -0.8000 H     1 <1>   0.0800 
 41 H        9.0060    -4.0840    -1.7390 H     1 <1>   0.0800 
 42 H        8.7750    -4.3850     2.4660 H     1 <1>   0.0800 
 43 H        8.4950    -2.8360     1.7040 H     1 <1>   0.0800 
 44 H        8.8390    -5.3900     0.2800 H     1 <1>   0.4500 
 45 H       10.8300    -4.5750     1.4580 H     1 <1>   0.0800 
 46 H       10.7900    -3.1890     0.3930 H     1 <1>   0.0800 
 47 H       11.0170    -4.6760    -1.5610 H     1 <1>   0.0800 
 48 H       10.9000    -6.0810    -0.5120 H     1 <1>   0.0800 
 49 H       13.0060    -5.3480     0.6270 H     1 <1>   0.0800 
 50 H       13.1360    -4.0350    -0.5280 H     1 <1>   0.0800 
 51 H       15.6810    -6.0000    -2.2190 H     1 <1>   0.1500 
 52 H       14.7430    -9.4250     1.1750 H     1 <1>   0.1500 
 53 H       17.4260    -7.5870    -1.5580 H     1 <1>   0.1500 
 54 H       11.1810    -8.8730     1.4960 H     1 <1>   0.0800 
 55 H       12.7750    -9.0490     2.2190 H     1 <1>   0.0800 
 56 H       12.3980    -9.8470     0.6820 H     1 <1>   0.0800 
 57 H       18.1200    -9.5250    -0.4030 H     1 <1>   0.0800 
 58 H       16.2710   -10.9320    -0.6710 H     1 <1>   0.4000 
 59 H       16.9250    -9.5240     2.3900 H     1 <1>   0.0800 
 60 H       18.1370    -8.4030     1.8240 H     1 <1>   0.0800 
 61 H       18.5200   -10.1020     1.9430 H     1 <1>   0.0800 
@<TRIPOS>BOND
  1   1   2  1   
  2   2   3  ar  
  3   2   4  ar  
  4   3   5  ar  
  5   3  32  1   
  6   4   6  ar  
  7   4  33  1   
  8   5   7  1   
  9   5   8  ar  
 10   6   8  ar  
 11   6  34  1   
 12   7   9  1   
 13   8  10  1   
 14   9  10  2   
 15  10  11  1   
 16  11  12  1   
 17  11  13  1   
 18  11  35  1   
 19  12  14  1   
 20  12  36  1   
 21  12  37  1   
 22  13  15  1   
 23  13  38  1   
 24  13  39  1   
 25  14  16  1   
 26  14  40  1   
 27  14  41  1   
 28  15  16  1   
 29  15  42  1   
 30  15  43  1   
 31  16  17  1   
 32  16  44  1   
 33  17  18  1   
 34  17  45  1   
 35  17  46  1   
 36  18  19  1   
 37  18  47  1   
 38  18  48  1   
 39  19  20  1   
 40  19  49  1   
 41  19  50  1   
 42  20  21  1   
 43  21  22  ar  
 44  21  23  ar  
 45  22  24  1   
 46  22  25  ar  
 47  23  26  ar  
 48  23  51  1   
 49  24  27  1   
 50  25  28  ar  
 51  25  52  1   
 52  26  28  ar  
 53  26  53  1   
 54  27  54  1   
 55  27  55  1   
 56  27  56  1   
 57  28  29  1   
 58  29  30  1   
 59  29  31  1   
 60  29  57  1   
 61  30  58  1   
 62  31  59  1   
 63  31  60  1   
 64  31  61  1   
@<TRIPOS>SUBSTRUCTURE
  1 ****  16 GROUP 4 **** **** 0

# MOE 2024.06 (io_trps.svl 2023.06)
