@<TRIPOS>MOLECULE
NONAME
49 51 1 0 0 
SMALL
USER_CHARGES


@<TRIPOS>ATOM
  1 O        0.2880     0.0960    -0.6060 O.3   1 <1>  -0.5600 
  2 C        1.5150    -0.5370    -0.8420 C.3   1 <1>   0.3440 
  3 C        0.2420     1.4610    -0.9110 C.3   1 <1>   0.2000 
  4 C        1.4170    -2.0050    -0.4550 C.ar  1 <1>  -0.1440 
  5 C        2.6200     0.1360     0.0030 C.3   1 <1>   0.3430 
  6 C       -1.2030     1.9560    -0.6940 C.3   1 <1>  -0.0800 
  7 C        1.2740     2.2190    -0.0430 C.3   1 <1>   0.3430 
  8 C        2.1120    -2.9580    -1.1890 C.ar  1 <1>  -0.1500 
  9 C        0.6600    -2.4130     0.6350 C.ar  1 <1>  -0.1500 
 10 N        2.6660     1.6390    -0.1580 N.4   1 <1>  -0.9590 
 11 C       -1.3700     3.4230    -1.1210 C.3   1 <1>  -0.2400 
 12 C       -1.7020     1.7810     0.7510 C.3   1 <1>  -0.2400 
 13 C        2.0600    -4.2930    -0.8310 C.ar  1 <1>  -0.1500 
 14 C        0.6080    -3.7490     0.9930 C.ar  1 <1>  -0.1500 
 15 C        3.6170     2.2620     0.8100 C.3   1 <1>   0.4860 
 16 C        1.3100    -4.6900     0.2610 C.ar  1 <1>  -0.1500 
 17 C        3.6740     3.7500     0.5610 C.ar  1 <1>  -0.1430 
 18 C        3.0170     4.6390     1.3810 C.ar  1 <1>   0.1600 
 19 C        4.3720     4.2800    -0.5000 C.ar  1 <1>   0.1600 
 20 N        3.0200     5.9290     1.1500 N.ar  1 <1>  -0.6200 
 21 N        4.3890     5.5660    -0.7480 N.ar  1 <1>  -0.6200 
 22 C        3.7110     6.3280     0.0950 C.ar  1 <1>   0.4770 
 23 C        3.7350     7.8130    -0.1790 C.3   1 <1>  -0.0970 
 24 H        1.7350    -0.4570    -1.8930 H     1 <1>   0.0800 
 25 H        0.4870     1.5770    -1.9540 H     1 <1>   0.0800 
 26 H        3.5700    -0.2970    -0.2640 H     1 <1>   0.0800 
 27 H        2.4290    -0.1130     1.0330 H     1 <1>   0.0800 
 28 H       -1.8370     1.3640    -1.3350 H     1 <1>   0.0800 
 29 H        0.9450     2.1720     0.9810 H     1 <1>   0.0800 
 30 H        1.2820     3.2560    -0.3370 H     1 <1>   0.0800 
 31 H        2.6990    -2.6780    -2.0470 H     1 <1>   0.1500 
 32 H        0.0980    -1.6980     1.2110 H     1 <1>   0.1500 
 33 H        2.9980     1.8530    -1.1070 H     1 <1>   0.4500 
 34 H       -0.8180     4.0910    -0.4830 H     1 <1>   0.0800 
 35 H       -2.4100     3.7010    -1.0690 H     1 <1>   0.0800 
 36 H       -1.0460     3.5630    -2.1380 H     1 <1>   0.0800 
 37 H       -1.1590     2.4010     1.4410 H     1 <1>   0.0800 
 38 H       -1.6120     0.7530     1.0590 H     1 <1>   0.0800 
 39 H       -2.7430     2.0480     0.8120 H     1 <1>   0.0800 
 40 H        2.5990    -5.0290    -1.4030 H     1 <1>   0.1500 
 41 H        0.0170    -4.0590     1.8380 H     1 <1>   0.1500 
 42 H        3.2920     2.0740     1.8210 H     1 <1>   0.0800 
 43 H        4.6020     1.8400     0.6880 H     1 <1>   0.0800 
 44 H        1.2670    -5.7290     0.5390 H     1 <1>   0.1500 
 45 H        2.4670     4.3010     2.2440 H     1 <1>   0.1500 
 46 H        4.9310     3.6480    -1.1710 H     1 <1>   0.1500 
 47 H        2.9370     8.3050     0.3460 H     1 <1>   0.0800 
 48 H        3.6210     7.9920    -1.2320 H     1 <1>   0.0800 
 49 H        4.6730     8.2190     0.1480 H     1 <1>   0.0800 
@<TRIPOS>BOND
  1   1   2  1   
  2   1   3  1   
  3   2   4  1   
  4   2   5  1   
  5   2  24  1   
  6   3   6  1   
  7   3   7  1   
  8   3  25  1   
  9   4   8  ar  
 10   4   9  ar  
 11   5  10  1   
 12   5  26  1   
 13   5  27  1   
 14   6  11  1   
 15   6  12  1   
 16   6  28  1   
 17   7  10  1   
 18   7  29  1   
 19   7  30  1   
 20   8  13  ar  
 21   8  31  1   
 22   9  14  ar  
 23   9  32  1   
 24  10  15  1   
 25  10  33  1   
 26  11  34  1   
 27  11  35  1   
 28  11  36  1   
 29  12  37  1   
 30  12  38  1   
 31  12  39  1   
 32  13  16  ar  
 33  13  40  1   
 34  14  16  ar  
 35  14  41  1   
 36  15  17  1   
 37  15  42  1   
 38  15  43  1   
 39  16  44  1   
 40  17  18  ar  
 41  17  19  ar  
 42  18  20  ar  
 43  18  45  1   
 44  19  21  ar  
 45  19  46  1   
 46  20  22  ar  
 47  21  22  ar  
 48  22  23  1   
 49  23  47  1   
 50  23  48  1   
 51  23  49  1   
@<TRIPOS>SUBSTRUCTURE
  1 ****  10 GROUP 4 **** **** 0

# MOE 2024.06 (io_trps.svl 2023.06)
