@<TRIPOS>MOLECULE
NONAME
54 57 1 0 0 
SMALL
USER_CHARGES


@<TRIPOS>ATOM
  1 O       -1.9870     1.9820     2.5540 O.2   1 <1>  -0.5700 
  2 C       -2.3870     1.3780     1.5760 C.2   1 <1>   0.7160 
  3 N       -3.2170     0.2920     1.7540 N.am  1 <1>  -0.6600 
  4 C       -1.9760     1.8160     0.2800 C.2   1 <1>  -0.0860 
  5 C       -3.9090    -0.3870     0.6150 C.3   1 <1>   0.3200 
  6 C       -3.6640    -0.1660     3.1050 C.3   1 <1>   0.0600 
  7 C       -2.8090     2.4580    -0.6390 C.2   1 <1>   0.3720 
  8 C       -0.7920     1.7050    -0.3810 C.2   1 <1>   0.0870 
  9 C       -3.8210    -1.9030     0.7320 C.2   1 <1>   0.0060 
 10 N       -2.1870     2.6950    -1.7390 N.2   1 <1>  -0.4100 
 11 N       -4.1560     2.7660    -0.4130 N.pl3 1 <1>  -0.8210 
 12 O       -0.9750     2.2440    -1.5610 O.3   1 <1>  -0.0190 
 13 C        0.4840     1.1130    -0.0510 C.ar  1 <1>   0.0530 
 14 N       -4.8480    -2.6510     0.9870 N.2   1 <1>  -0.5650 
 15 N       -2.6650    -2.5990     0.5780 N.pl3 1 <1>   0.0480 
 16 C       -4.3790     3.8390     0.6060 C.3   1 <1>   0.2090 
 17 C       -4.9740     3.0430    -1.6360 C.3   1 <1>   0.2090 
 18 C        0.8960     0.8960     1.2650 C.ar  1 <1>  -0.1500 
 19 C        1.3620     0.7170    -1.0630 C.ar  1 <1>  -0.1500 
 20 C       -4.3450    -3.8970     1.0020 C.2   1 <1>   0.0770 
 21 C       -3.0180    -3.8850     0.7540 C.2   1 <1>  -0.3020 
 22 C       -1.2990    -2.1130     0.2830 C.3   1 <1>   0.0960 
 23 C       -5.8820     4.0370     0.8750 C.3   1 <1>   0.1200 
 24 C       -6.4510     3.2750    -1.2690 C.3   1 <1>   0.1200 
 25 C        2.1060     0.2950     1.5560 C.ar  1 <1>  -0.1500 
 26 C        2.5750     0.1170    -0.7800 C.ar  1 <1>  -0.1500 
 27 C       -1.0940    -1.9660    -1.2270 C.3   1 <1>  -0.2400 
 28 O       -6.5750     4.2940    -0.3150 O.3   1 <1>  -0.5600 
 29 C        2.9490    -0.1000     0.5330 C.ar  1 <1>  -0.1500 
 30 H       -3.4950    -0.0940    -0.3310 H     1 <1>   0.0800 
 31 H       -4.9450    -0.0960     0.6190 H     1 <1>   0.0800 
 32 H       -3.3170     0.4970     3.8780 H     1 <1>   0.0800 
 33 H       -3.2790    -1.1520     3.3000 H     1 <1>   0.0800 
 34 H       -4.7390    -0.2020     3.1410 H     1 <1>   0.0800 
 35 H       -3.9570     4.7650     0.2550 H     1 <1>   0.0800 
 36 H       -3.8920     3.5820     1.5300 H     1 <1>   0.0800 
 37 H       -4.9010     2.2080    -2.3120 H     1 <1>   0.0800 
 38 H       -4.5940     3.9150    -2.1400 H     1 <1>   0.0800 
 39 H        0.2760     1.2050     2.0840 H     1 <1>   0.1500 
 40 H        1.0910     0.8770    -2.0920 H     1 <1>   0.1500 
 41 H       -4.9730    -4.7520     1.1910 H     1 <1>   0.1500 
 42 H       -2.3250    -4.7040     0.6950 H     1 <1>   0.1500 
 43 H       -0.5920    -2.8200     0.6800 H     1 <1>   0.0800 
 44 H       -1.1420    -1.1730     0.7790 H     1 <1>   0.0800 
 45 H       -6.0340     4.8760     1.5310 H     1 <1>   0.0800 
 46 H       -6.2990     3.1580     1.3340 H     1 <1>   0.0800 
 47 H       -6.8840     2.3750    -0.8700 H     1 <1>   0.0800 
 48 H       -7.0070     3.5720    -2.1400 H     1 <1>   0.0800 
 49 H        2.3970     0.1390     2.5810 H     1 <1>   0.1500 
 50 H        3.2300    -0.1800    -1.5800 H     1 <1>   0.1500 
 51 H       -1.2910    -2.9000    -1.7230 H     1 <1>   0.0800 
 52 H       -0.0770    -1.6860    -1.4280 H     1 <1>   0.0800 
 53 H       -1.7420    -1.2070    -1.6260 H     1 <1>   0.0800 
 54 H        3.8930    -0.5660     0.7580 H     1 <1>   0.1500 
@<TRIPOS>BOND
  1   1   2  2   
  2   2   3  am  
  3   2   4  1   
  4   3   5  1   
  5   3   6  1   
  6   4   7  1   
  7   4   8  2   
  8   5   9  1   
  9   5  30  1   
 10   5  31  1   
 11   6  32  1   
 12   6  33  1   
 13   6  34  1   
 14   7  10  2   
 15   7  11  1   
 16   8  12  1   
 17   8  13  1   
 18   9  14  2   
 19   9  15  1   
 20  10  12  1   
 21  11  16  1   
 22  11  17  1   
 23  13  18  ar  
 24  13  19  ar  
 25  14  20  1   
 26  15  21  1   
 27  15  22  1   
 28  16  23  1   
 29  16  35  1   
 30  16  36  1   
 31  17  24  1   
 32  17  37  1   
 33  17  38  1   
 34  18  25  ar  
 35  18  39  1   
 36  19  26  ar  
 37  19  40  1   
 38  20  21  2   
 39  20  41  1   
 40  21  42  1   
 41  22  27  1   
 42  22  43  1   
 43  22  44  1   
 44  23  28  1   
 45  23  45  1   
 46  23  46  1   
 47  24  28  1   
 48  24  47  1   
 49  24  48  1   
 50  25  29  ar  
 51  25  49  1   
 52  26  29  ar  
 53  26  50  1   
 54  27  51  1   
 55  27  52  1   
 56  27  53  1   
 57  29  54  1   
@<TRIPOS>SUBSTRUCTURE
  1 ****   4 GROUP 4 **** **** 0

# MOE 2024.06 (io_trps.svl 2023.06)
