@<TRIPOS>MOLECULE
NONAME
49 52 1 0 0 
SMALL
USER_CHARGES


@<TRIPOS>ATOM
  1 O        0.4820     0.1300     1.2400 O.2   1 <1>  -0.5700 
  2 C        1.5820     0.3850     0.8050 C.2   1 <1>   0.6900 
  3 N        2.4870    -0.5120     0.2810 N.am  1 <1>  -0.4770 
  4 N        2.0690     1.6440     0.7850 N.am  1 <1>  -0.4900 
  5 C        2.4370    -1.9130     0.2300 C.ar  1 <1>   0.1170 
  6 C        3.6970     0.2620    -0.1290 C.3   1 <1>   0.2010 
  7 C        3.3070     1.6740     0.2600 C.2   1 <1>   0.5690 
  8 C        3.1030    -2.6180    -0.7710 C.ar  1 <1>  -0.1500 
  9 C        1.7390    -2.6510     1.1820 C.ar  1 <1>  -0.1500 
 10 O        3.9870     2.6550     0.1200 O.2   1 <1>  -0.5700 
 11 C        3.0700    -3.9980    -0.8130 C.ar  1 <1>  -0.1500 
 12 C        1.7090    -4.0320     1.1370 C.ar  1 <1>  -0.1500 
 13 C        2.3680    -4.7440     0.1340 C.ar  1 <1>   0.0860 
 14 C        2.3450    -6.1920     0.0690 C.2   1 <1>   0.5440 
 15 O        3.3740    -6.7990    -0.1650 O.2   1 <1>  -0.5700 
 16 N        1.1850    -6.9120     0.2470 N.am  1 <1>  -0.6600 
 17 C       -0.1830    -6.3770     0.0180 C.3   1 <1>   0.1400 
 18 C        1.1710    -8.3960     0.2190 C.3   1 <1>   0.1400 
 19 C       -1.0000    -7.5840    -0.4390 C.3   1 <1>   0.2000 
 20 C       -0.3070    -8.7910     0.1840 C.3   1 <1>  -0.0800 
 21 O       -2.3140    -7.5060    -0.0090 O.3   1 <1>  -0.6800 
 22 C       -0.5750   -10.1020    -0.5690 C.3   1 <1>   0.0210 
 23 C        0.2110   -11.2460     0.0410 C.2   1 <1>   0.1080 
 24 N        0.0090   -11.6700     1.2500 N.2   1 <1>  -0.7070 
 25 C        1.2240   -11.9490    -0.6020 C.2   1 <1>  -0.1500 
 26 N        0.8980   -12.6690     1.4110 N.pl3 1 <1>   0.3000 
 27 C        1.6460   -12.8560     0.3040 C.2   1 <1>  -0.3320 
 28 C        2.7360   -13.9030     0.1770 C.3   1 <1>  -0.0600 
 29 H        1.5540     2.4480     1.1270 H     1 <1>   0.3700 
 30 H        4.5630    -0.0610     0.4200 H     1 <1>   0.0800 
 31 H        3.8590     0.1970    -1.1890 H     1 <1>   0.0800 
 32 H        3.6490    -2.0910    -1.5300 H     1 <1>   0.1500 
 33 H        1.2180    -2.1420     1.9730 H     1 <1>   0.1500 
 34 H        3.5980    -4.5260    -1.5900 H     1 <1>   0.1500 
 35 H        1.1740    -4.5750     1.8950 H     1 <1>   0.1500 
 36 H       -0.5690    -5.9880     0.9440 H     1 <1>   0.0800 
 37 H       -0.1750    -5.6100    -0.7370 H     1 <1>   0.0800 
 38 H        1.6820    -8.7360    -0.6660 H     1 <1>   0.0800 
 39 H        1.6640    -8.7990     1.0870 H     1 <1>   0.0800 
 40 H       -0.9950    -7.6370    -1.5150 H     1 <1>   0.0800 
 41 H       -0.6250    -8.9020     1.2070 H     1 <1>   0.0800 
 42 H       -2.3590    -7.6130     0.9610 H     1 <1>   0.4000 
 43 H       -0.3070    -9.9970    -1.6040 H     1 <1>   0.0800 
 44 H       -1.6230   -10.3380    -0.5160 H     1 <1>   0.0800 
 45 H        1.5760   -11.7820    -1.6040 H     1 <1>   0.1500 
 46 H        0.9680   -13.2020     2.2860 H     1 <1>   0.2700 
 47 H        3.1860   -13.8520    -0.7980 H     1 <1>   0.0800 
 48 H        2.3250   -14.8880     0.3130 H     1 <1>   0.0800 
 49 H        3.5010   -13.7360     0.9150 H     1 <1>   0.0800 
@<TRIPOS>BOND
  1   1   2  2   
  2   2   3  am  
  3   2   4  am  
  4   3   5  1   
  5   3   6  1   
  6   4   7  am  
  7   4  29  1   
  8   5   8  ar  
  9   5   9  ar  
 10   6   7  1   
 11   6  30  1   
 12   6  31  1   
 13   7  10  2   
 14   8  11  ar  
 15   8  32  1   
 16   9  12  ar  
 17   9  33  1   
 18  11  13  ar  
 19  11  34  1   
 20  12  13  ar  
 21  12  35  1   
 22  13  14  1   
 23  14  15  2   
 24  14  16  am  
 25  16  17  1   
 26  16  18  1   
 27  17  19  1   
 28  17  36  1   
 29  17  37  1   
 30  18  20  1   
 31  18  38  1   
 32  18  39  1   
 33  19  20  1   
 34  19  21  1   
 35  19  40  1   
 36  20  22  1   
 37  20  41  1   
 38  21  42  1   
 39  22  23  1   
 40  22  43  1   
 41  22  44  1   
 42  23  24  2   
 43  23  25  1   
 44  24  26  1   
 45  25  27  2   
 46  25  45  1   
 47  26  27  1   
 48  26  46  1   
 49  27  28  1   
 50  28  47  1   
 51  28  48  1   
 52  28  49  1   
@<TRIPOS>SUBSTRUCTURE
  1 ****  14 GROUP 4 **** **** 0

# MOE 2024.06 (io_trps.svl 2023.06)
