@<TRIPOS>MOLECULE
NONAME
56 59 1 0 0 
SMALL
USER_CHARGES


@<TRIPOS>ATOM
  1 CL      -0.3480    -1.8780     2.8940 Cl    1 <1>  -0.1770 
  2 C       -1.3150    -2.6180     1.6490 C.ar  1 <1>   0.1770 
  3 C       -2.6860    -2.4740     1.6770 C.ar  1 <1>  -0.1500 
  4 C       -0.6930    -3.3400     0.6460 C.ar  1 <1>  -0.1500 
  5 C       -3.4530    -3.0590     0.6830 C.ar  1 <1>   0.0830 
  6 C       -1.4650    -3.9330    -0.3370 C.ar  1 <1>  -0.1500 
  7 O       -4.7890    -2.8830     0.7480 O.3   1 <1>  -0.3630 
  8 C       -2.8570    -3.8190    -0.3360 C.ar  1 <1>   0.0860 
  9 C       -5.4080    -2.0800    -0.2400 C.3   1 <1>   0.1200 
 10 C       -3.6320    -4.4880    -1.3550 C.2   1 <1>   0.5440 
 11 C       -6.6580    -2.7980    -0.7520 C.3   1 <1>  -0.1600 
 12 O       -3.7780    -3.9380    -2.4310 O.2   1 <1>  -0.5700 
 13 N       -4.1890    -5.7350    -1.1480 N.am  1 <1>  -0.6600 
 14 C       -7.6500    -3.1340     0.3760 C.3   1 <1>   0.0960 
 15 C       -3.9450    -6.5510     0.0710 C.3   1 <1>   0.1400 
 16 C       -5.0560    -6.3960    -2.1650 C.3   1 <1>   0.1400 
 17 N       -8.7320    -4.0440    -0.0670 N.pl3 1 <1>   0.3140 
 18 C       -5.2830    -6.9020     0.7220 C.3   1 <1>  -0.1600 
 19 C       -6.3940    -6.8060    -1.5370 C.3   1 <1>  -0.1600 
 20 N       -9.0910    -4.2350    -1.3420 N.2   1 <1>  -0.4180 
 21 C       -9.4620    -4.8410     0.7160 C.2   1 <1>  -0.3020 
 22 C       -6.2190    -7.6400    -0.2520 C.3   1 <1>  -0.0800 
 23 N      -10.0040    -5.1410    -1.3800 N.2   1 <1>  -0.2270 
 24 C      -10.2480    -5.5290    -0.1260 C.2   1 <1>   0.0460 
 25 C       -7.5580    -7.9220     0.4470 C.3   1 <1>   0.1400 
 26 C      -11.2830    -6.5920     0.1920 C.3   1 <1>   0.0210 
 27 N       -8.5060    -8.6160    -0.4510 N.am  1 <1>  -0.7300 
 28 C      -10.6500    -7.9100     0.6600 C.3   1 <1>  -0.0990 
 29 C       -9.8600    -8.6010    -0.4380 C.2   1 <1>   0.5690 
 30 O      -10.4690    -9.1860    -1.2960 O.2   1 <1>  -0.5700 
 31 H       -3.1540    -1.9090     2.4620 H     1 <1>   0.1500 
 32 H        0.3790    -3.4310     0.6410 H     1 <1>   0.1500 
 33 H       -0.9930    -4.4970    -1.1230 H     1 <1>   0.1500 
 34 H       -4.7190    -1.9040    -1.0500 H     1 <1>   0.0800 
 35 H       -5.6610    -1.1380     0.2120 H     1 <1>   0.0800 
 36 H       -6.3460    -3.6970    -1.2510 H     1 <1>   0.0800 
 37 H       -7.1430    -2.1740    -1.4810 H     1 <1>   0.0800 
 38 H       -8.0980    -2.2320     0.7520 H     1 <1>   0.0800 
 39 H       -7.1320    -3.6190     1.1820 H     1 <1>   0.0800 
 40 H       -3.3310    -6.0220     0.7780 H     1 <1>   0.0800 
 41 H       -3.4270    -7.4520    -0.2110 H     1 <1>   0.0800 
 42 H       -4.5480    -7.2660    -2.5430 H     1 <1>   0.0800 
 43 H       -5.2440    -5.7360    -2.9940 H     1 <1>   0.0800 
 44 H       -5.7450    -5.9910     1.0600 H     1 <1>   0.0800 
 45 H       -5.0970    -7.5180     1.5850 H     1 <1>   0.0800 
 46 H       -6.9580    -7.3590    -2.2670 H     1 <1>   0.0800 
 47 H       -6.9550    -5.9190    -1.3180 H     1 <1>   0.0800 
 48 H       -9.3790    -4.8740     1.7850 H     1 <1>   0.1500 
 49 H       -5.7640    -8.5820    -0.5090 H     1 <1>   0.0800 
 50 H       -7.9870    -6.9920     0.7710 H     1 <1>   0.0800 
 51 H       -7.3890    -8.5380     1.3130 H     1 <1>   0.0800 
 52 H      -11.8880    -6.7720    -0.6800 H     1 <1>   0.0800 
 53 H      -11.9280    -6.2170     0.9650 H     1 <1>   0.0800 
 54 H       -8.0920    -9.1000    -1.2500 H     1 <1>   0.3700 
 55 H      -11.4360    -8.5790     0.9580 H     1 <1>   0.0800 
 56 H      -10.0340    -7.7380     1.5210 H     1 <1>   0.0800 
@<TRIPOS>BOND
  1   1   2  1   
  2   2   3  ar  
  3   2   4  ar  
  4   3   5  ar  
  5   3  31  1   
  6   4   6  ar  
  7   4  32  1   
  8   5   7  1   
  9   5   8  ar  
 10   6   8  ar  
 11   6  33  1   
 12   7   9  1   
 13   8  10  1   
 14   9  11  1   
 15   9  34  1   
 16   9  35  1   
 17  10  12  2   
 18  10  13  am  
 19  11  14  1   
 20  11  36  1   
 21  11  37  1   
 22  13  15  1   
 23  13  16  1   
 24  14  17  1   
 25  14  38  1   
 26  14  39  1   
 27  15  18  1   
 28  15  40  1   
 29  15  41  1   
 30  16  19  1   
 31  16  42  1   
 32  16  43  1   
 33  17  20  1   
 34  17  21  1   
 35  18  22  1   
 36  18  44  1   
 37  18  45  1   
 38  19  22  1   
 39  19  46  1   
 40  19  47  1   
 41  20  23  2   
 42  21  24  2   
 43  21  48  1   
 44  22  25  1   
 45  22  49  1   
 46  23  24  1   
 47  24  26  1   
 48  25  27  1   
 49  25  50  1   
 50  25  51  1   
 51  26  28  1   
 52  26  52  1   
 53  26  53  1   
 54  27  29  am  
 55  27  54  1   
 56  28  29  1   
 57  28  55  1   
 58  28  56  1   
 59  29  30  2   
@<TRIPOS>SUBSTRUCTURE
  1 ****  18 GROUP 4 **** **** 0

# MOE 2024.06 (io_trps.svl 2023.06)
