@<TRIPOS>MOLECULE
NONAME
41 43 1 0 0 
SMALL
USER_CHARGES


@<TRIPOS>ATOM
  1 O       -0.4470    -1.5890    -1.6390 O.2   1 <1>  -0.5700 
  2 C        0.7260    -1.8200    -1.4020 C.2   1 <1>   0.8410 
  3 N        1.6480    -1.6340    -2.3980 N.2   1 <1>  -0.6610 
  4 N        1.1120    -2.2770    -0.1510 N.am  1 <1>  -0.4690 
  5 C        2.8760    -1.9000    -2.1350 C.2   1 <1>   0.3760 
  6 C        2.4290    -2.5650     0.1060 C.2   1 <1>  -0.0410 
  7 C        0.0930    -2.5020     0.9210 C.3   1 <1>   0.2010 
  8 C        3.3290    -2.3770    -0.8850 C.2   1 <1>  -0.1360 
  9 C       -0.1690    -3.9870     1.1680 C.2   1 <1>   0.5690 
 10 O        0.4310    -4.5190     2.0740 O.2   1 <1>  -0.5700 
 11 N       -1.0490    -4.6960     0.3940 N.am  1 <1>  -0.6600 
 12 C       -1.8110    -4.1960    -0.7820 C.3   1 <1>   0.1400 
 13 C       -1.2610    -6.1550     0.5590 C.3   1 <1>   0.1400 
 14 C       -2.8300    -5.2970    -1.0690 C.3   1 <1>   0.2000 
 15 C       -2.0970    -6.5790    -0.6560 C.3   1 <1>  -0.0800 
 16 O       -3.9240    -5.1020    -0.2380 O.3   1 <1>  -0.6800 
 17 C       -3.0100    -7.7920    -0.3940 C.3   1 <1>   0.0200 
 18 C       -2.2370    -9.0730    -0.1270 C.2   1 <1>  -0.0400 
 19 O       -2.8980   -10.1350     0.2500 O.3   1 <1>  -0.0190 
 20 C       -0.9370    -9.4050    -0.1940 C.2   1 <1>  -0.1500 
 21 N       -2.1130   -11.1550     0.4430 N.2   1 <1>  -0.4100 
 22 C       -0.9250   -10.7440     0.1840 C.2   1 <1>   0.1080 
 23 C        0.3130   -11.6080     0.2790 C.3   1 <1>  -0.0590 
 24 H        3.6140    -1.7580    -2.9050 H     1 <1>   0.0600 
 25 H        2.6970    -2.9340     1.0850 H     1 <1>   0.1500 
 26 H        0.4570    -2.0690     1.8350 H     1 <1>   0.0800 
 27 H       -0.8310    -2.0090     0.6830 H     1 <1>   0.0800 
 28 H        4.3760    -2.5790    -0.7590 H     1 <1>   0.1500 
 29 H       -2.2900    -3.2510    -0.5930 H     1 <1>   0.0800 
 30 H       -1.1410    -4.1000    -1.6190 H     1 <1>   0.0800 
 31 H       -0.3180    -6.6730     0.5970 H     1 <1>   0.0800 
 32 H       -1.7960    -6.3300     1.4770 H     1 <1>   0.0800 
 33 H       -3.1700    -5.3040    -2.0900 H     1 <1>   0.0800 
 34 H       -1.4170    -6.8290    -1.4510 H     1 <1>   0.0800 
 35 H       -3.6040    -4.9250     0.6700 H     1 <1>   0.4000 
 36 H       -3.6450    -7.9500    -1.2480 H     1 <1>   0.0800 
 37 H       -3.6460    -7.5980     0.4510 H     1 <1>   0.0800 
 38 H       -0.0790    -8.8200    -0.4670 H     1 <1>   0.1500 
 39 H        1.0020   -11.1810     0.9840 H     1 <1>   0.0800 
 40 H        0.7850   -11.6760    -0.6830 H     1 <1>   0.0800 
 41 H        0.0470   -12.5960     0.6080 H     1 <1>   0.0800 
@<TRIPOS>BOND
  1   1   2  2   
  2   2   3  1   
  3   2   4  am  
  4   3   5  2   
  5   4   6  1   
  6   4   7  1   
  7   5   8  1   
  8   5  24  1   
  9   6   8  2   
 10   6  25  1   
 11   7   9  1   
 12   7  26  1   
 13   7  27  1   
 14   8  28  1   
 15   9  10  2   
 16   9  11  am  
 17  11  12  1   
 18  11  13  1   
 19  12  14  1   
 20  12  29  1   
 21  12  30  1   
 22  13  15  1   
 23  13  31  1   
 24  13  32  1   
 25  14  15  1   
 26  14  16  1   
 27  14  33  1   
 28  15  17  1   
 29  15  34  1   
 30  16  35  1   
 31  17  18  1   
 32  17  36  1   
 33  17  37  1   
 34  18  19  1   
 35  18  20  2   
 36  19  21  1   
 37  20  22  1   
 38  20  38  1   
 39  21  22  2   
 40  22  23  1   
 41  23  39  1   
 42  23  40  1   
 43  23  41  1   
@<TRIPOS>SUBSTRUCTURE
  1 ****  11 GROUP 4 **** **** 0

# MOE 2024.06 (io_trps.svl 2023.06)
