@<TRIPOS>MOLECULE
NONAME
51 53 1 0 0 
SMALL
USER_CHARGES


@<TRIPOS>ATOM
  1 CL      -3.6410    -2.1000     0.4980 Cl    1 <1>  -0.1770 
  2 C       -3.4080    -0.4540     1.0380 C.ar  1 <1>   0.1770 
  3 C       -3.6190     0.5890     0.1520 C.ar  1 <1>  -0.1440 
  4 C       -3.0150    -0.2270     2.3460 C.ar  1 <1>  -0.1500 
  5 C       -3.4140     1.8730     0.6250 C.ar  1 <1>   0.1900 
  6 C       -4.0530     0.3250    -1.2700 C.3   1 <1>   0.4860 
  7 C       -2.8190     1.0730     2.7920 C.ar  1 <1>  -0.1500 
  8 F       -3.6030     2.8800    -0.1850 F     1 <1>  -0.1900 
  9 C       -3.0190     2.1350     1.9250 C.ar  1 <1>  -0.1500 
 10 N       -5.5280     0.1800    -1.2870 N.4   1 <1>  -0.9590 
 11 C       -6.0080    -0.9050    -2.2020 C.3   1 <1>   0.3430 
 12 C       -6.2550     1.4660    -1.4560 C.3   1 <1>   0.3430 
 13 C       -7.4890    -1.2580    -1.9460 C.3   1 <1>   0.1400 
 14 C       -7.3360     1.5860    -0.3790 C.3   1 <1>  -0.1600 
 15 N       -7.9030    -0.8550    -0.5690 N.am  1 <1>  -0.6600 
 16 C       -8.4460     0.5230    -0.4300 C.3   1 <1>   0.1400 
 17 C       -7.4620    -1.5610     0.5230 C.2   1 <1>   0.6160 
 18 O       -6.6350    -0.9710     1.1970 O.2   1 <1>  -0.5700 
 19 C       -7.8010    -2.9350     0.8270 C.2   1 <1>   0.0290 
 20 C       -8.9480    -3.5780     0.2430 C.2   1 <1>   0.6160 
 21 C       -7.0260    -3.6640     1.6960 C.2   1 <1>  -0.1500 
 22 O       -9.6680    -3.0140    -0.5740 O.2   1 <1>  -0.5700 
 23 N       -9.2470    -4.8990     0.5910 N.am  1 <1>  -0.4690 
 24 C       -7.3380    -4.9990     2.0020 C.2   1 <1>  -0.1500 
 25 C       -8.4290    -5.6000     1.4560 C.2   1 <1>  -0.0290 
 26 C      -10.4660    -5.5540     0.0160 C.3   1 <1>   0.0600 
 27 C       -8.7490    -7.0500     1.7960 C.3   1 <1>  -0.1020 
 28 H       -2.8640    -1.0600     3.0110 H     1 <1>   0.1500 
 29 H       -3.5870    -0.5850    -1.6120 H     1 <1>   0.0800 
 30 H       -3.7430     1.1300    -1.9170 H     1 <1>   0.0800 
 31 H       -2.5120     1.2550     3.8090 H     1 <1>   0.1500 
 32 H       -2.8700     3.1500     2.2520 H     1 <1>   0.1500 
 33 H       -5.8030    -0.1490    -0.3340 H     1 <1>   0.4500 
 34 H       -5.4230    -1.7940    -2.0250 H     1 <1>   0.0800 
 35 H       -5.8730    -0.6240    -3.2330 H     1 <1>   0.0800 
 36 H       -6.7000     1.5200    -2.4370 H     1 <1>   0.0800 
 37 H       -5.5710     2.2920    -1.3510 H     1 <1>   0.0800 
 38 H       -7.6340    -2.3160    -2.0800 H     1 <1>   0.0800 
 39 H       -8.1130    -0.7610    -2.6690 H     1 <1>   0.0800 
 40 H       -7.8000     2.5510    -0.4750 H     1 <1>   0.0800 
 41 H       -6.8720     1.5710     0.5920 H     1 <1>   0.0800 
 42 H       -9.1140     0.7230    -1.2520 H     1 <1>   0.0800 
 43 H       -9.0290     0.5780     0.4750 H     1 <1>   0.0800 
 44 H       -6.1590    -3.2330     2.1670 H     1 <1>   0.1500 
 45 H       -6.6900    -5.5250     2.6820 H     1 <1>   0.1500 
 46 H      -11.0920    -4.8500    -0.5020 H     1 <1>   0.0800 
 47 H      -11.0520    -5.9900     0.8050 H     1 <1>   0.0800 
 48 H      -10.1690    -6.3210    -0.6760 H     1 <1>   0.0800 
 49 H       -9.6940    -7.1140     2.3050 H     1 <1>   0.0800 
 50 H       -7.9960    -7.4650     2.4420 H     1 <1>   0.0800 
 51 H       -8.7850    -7.6440     0.9010 H     1 <1>   0.0800 
@<TRIPOS>BOND
  1   1   2  1   
  2   2   3  ar  
  3   2   4  ar  
  4   3   5  ar  
  5   3   6  1   
  6   4   7  ar  
  7   4  28  1   
  8   5   8  1   
  9   5   9  ar  
 10   6  10  1   
 11   6  29  1   
 12   6  30  1   
 13   7   9  ar  
 14   7  31  1   
 15   9  32  1   
 16  10  11  1   
 17  10  12  1   
 18  10  33  1   
 19  11  13  1   
 20  11  34  1   
 21  11  35  1   
 22  12  14  1   
 23  12  36  1   
 24  12  37  1   
 25  13  15  1   
 26  13  38  1   
 27  13  39  1   
 28  14  16  1   
 29  14  40  1   
 30  14  41  1   
 31  15  16  1   
 32  15  17  am  
 33  16  42  1   
 34  16  43  1   
 35  17  18  2   
 36  17  19  1   
 37  19  20  1   
 38  19  21  2   
 39  20  22  2   
 40  20  23  am  
 41  21  24  1   
 42  21  44  1   
 43  23  25  1   
 44  23  26  1   
 45  24  25  2   
 46  24  45  1   
 47  25  27  1   
 48  26  46  1   
 49  26  47  1   
 50  26  48  1   
 51  27  49  1   
 52  27  50  1   
 53  27  51  1   
@<TRIPOS>SUBSTRUCTURE
  1 ****  18 GROUP 4 **** **** 0

# MOE 2024.06 (io_trps.svl 2023.06)
