@<TRIPOS>MOLECULE
NONAME
55 57 1 0 0 
SMALL
USER_CHARGES


@<TRIPOS>ATOM
  1 S        0.3720    -0.8840    -1.4800 S.o2  1 <1>   1.4470 
  2 O       -0.6590    -0.4670    -2.4070 O.2   1 <1>  -0.6500 
  3 O        1.3610    -1.8220    -1.9730 O.2   1 <1>  -0.6500 
  4 N       -0.4330    -1.6950    -0.2220 N.am  1 <1>  -0.8490 
  5 C        1.2550     0.4740    -0.6570 C.ar  1 <1>  -0.0090 
  6 C       -0.8820    -3.0160    -0.7000 C.3   1 <1>   0.1960 
  7 C       -1.5370    -0.8910     0.3120 C.3   1 <1>   0.1960 
  8 C        0.7300     1.7590    -0.5410 C.ar  1 <1>   0.0830 
  9 C        2.5010     0.2330    -0.0920 C.ar  1 <1>  -0.1500 
 10 C       -1.6080    -3.8950     0.3370 C.3   1 <1>   0.2090 
 11 C       -1.9240    -1.3710     1.7120 C.3   1 <1>  -0.1600 
 12 O       -0.4960     2.0030    -1.0660 O.3   1 <1>  -0.3630 
 13 C        1.4510     2.7570     0.1090 C.ar  1 <1>  -0.1500 
 14 C        3.2270     1.2190     0.5560 C.ar  1 <1>  -0.1440 
 15 N       -2.9960    -3.4050     0.6430 N.pl3 1 <1>  -0.8380 
 16 C       -3.0720    -2.3840     1.7330 C.3   1 <1>   0.2090 
 17 C       -0.9210     3.3060    -1.3960 C.3   1 <1>   0.0400 
 18 C        2.6950     2.4980     0.6560 C.ar  1 <1>  -0.1430 
 19 C        4.5890     0.8720     1.1410 C.3   1 <1>  -0.0970 
 20 C       -4.1100    -3.9080     0.0330 C.ar  1 <1>   0.1000 
 21 C        3.4500     3.6190     1.3580 C.3   1 <1>  -0.0970 
 22 C       -5.3570    -3.9400     0.6770 C.ar  1 <1>  -0.1500 
 23 C       -4.0770    -4.4210    -1.2720 C.ar  1 <1>  -0.1500 
 24 C       -6.4760    -4.4340     0.0570 C.ar  1 <1>   0.2180 
 25 C       -5.2070    -4.9080    -1.8720 C.ar  1 <1>   0.2110 
 26 N       -6.3900    -4.9090    -1.2090 N.ar  1 <1>  -0.1790 
 27 C       -7.8280    -4.4700     0.7490 C.3   1 <1>  -0.0970 
 28 H       -0.0160    -3.5710    -1.0190 H     1 <1>   0.0800 
 29 H       -1.5150    -2.8880    -1.5610 H     1 <1>   0.0800 
 30 H       -2.3820    -0.9010    -0.3590 H     1 <1>   0.0800 
 31 H       -1.2140     0.1290     0.4110 H     1 <1>   0.0800 
 32 H        2.9120    -0.7600    -0.1690 H     1 <1>   0.1500 
 33 H       -1.0210    -3.9480     1.2370 H     1 <1>   0.0800 
 34 H       -1.6720    -4.8960    -0.0520 H     1 <1>   0.0800 
 35 H       -2.2440    -0.5190     2.2830 H     1 <1>   0.0800 
 36 H       -1.0600    -1.7690     2.2160 H     1 <1>   0.0800 
 37 H        1.0450     3.7460     0.2020 H     1 <1>   0.1500 
 38 H       -3.9920    -1.8360     1.6290 H     1 <1>   0.0800 
 39 H       -3.0870    -2.8840     2.6870 H     1 <1>   0.0800 
 40 H       -1.8310     3.2240    -1.9650 H     1 <1>   0.0800 
 41 H       -0.1620     3.7820    -1.9910 H     1 <1>   0.0800 
 42 H       -1.1060     3.8560    -0.4910 H     1 <1>   0.0800 
 43 H        4.8330    -0.1600     0.9670 H     1 <1>   0.0800 
 44 H        4.5900     1.0450     2.2020 H     1 <1>   0.0800 
 45 H        5.3510     1.4790     0.6860 H     1 <1>   0.0800 
 46 H        2.8900     4.5360     1.3390 H     1 <1>   0.0800 
 47 H        4.3920     3.7900     0.8690 H     1 <1>   0.0800 
 48 H        3.6310     3.3560     2.3840 H     1 <1>   0.0800 
 49 H       -5.4240    -3.5780     1.6860 H     1 <1>   0.1500 
 50 H       -3.1510    -4.4200    -1.8150 H     1 <1>   0.1500 
 51 H       -5.1760    -5.2950    -2.8790 H     1 <1>   0.1500 
 52 H       -7.2310    -5.2760    -1.6660 H     1 <1>   0.4570 
 53 H       -7.7550    -4.0670     1.7450 H     1 <1>   0.0800 
 54 H       -8.1860    -5.4810     0.8240 H     1 <1>   0.0800 
 55 H       -8.5450    -3.8810     0.2040 H     1 <1>   0.0800 
@<TRIPOS>BOND
  1   1   2  2   
  2   1   3  2   
  3   1   4  am  
  4   1   5  1   
  5   4   6  1   
  6   4   7  1   
  7   5   8  ar  
  8   5   9  ar  
  9   6  10  1   
 10   6  28  1   
 11   6  29  1   
 12   7  11  1   
 13   7  30  1   
 14   7  31  1   
 15   8  12  1   
 16   8  13  ar  
 17   9  14  ar  
 18   9  32  1   
 19  10  15  1   
 20  10  33  1   
 21  10  34  1   
 22  11  16  1   
 23  11  35  1   
 24  11  36  1   
 25  12  17  1   
 26  13  18  ar  
 27  13  37  1   
 28  14  18  ar  
 29  14  19  1   
 30  15  16  1   
 31  15  20  1   
 32  16  38  1   
 33  16  39  1   
 34  17  40  1   
 35  17  41  1   
 36  17  42  1   
 37  18  21  1   
 38  19  43  1   
 39  19  44  1   
 40  19  45  1   
 41  20  22  ar  
 42  20  23  ar  
 43  21  46  1   
 44  21  47  1   
 45  21  48  1   
 46  22  24  ar  
 47  22  49  1   
 48  23  25  ar  
 49  23  50  1   
 50  24  26  ar  
 51  24  27  1   
 52  25  26  ar  
 53  25  51  1   
 54  26  52  1   
 55  27  53  1   
 56  27  54  1   
 57  27  55  1   
@<TRIPOS>SUBSTRUCTURE
  1 ****   7 GROUP 4 **** **** 0

# MOE 2024.06 (io_trps.svl 2023.06)
