@<TRIPOS>MOLECULE
NONAME
41 42 1 0 0 
SMALL
USER_CHARGES


@<TRIPOS>ATOM
  1 O       -0.4340     0.7210     0.5310 O.2   1 <1>  -0.5700 
  2 C       -0.3330     1.8990     0.3000 C.2   1 <1>   0.5690 
  3 N       -1.1600     2.7900     0.8900 N.am  1 <1>  -0.7300 
  4 C        0.7180     2.4030    -0.6920 C.3   1 <1>   0.1810 
  5 C       -1.1290     4.2480     0.6190 C.3   1 <1>   0.3640 
  6 O        0.9920     3.7780    -0.5400 O.3   1 <1>  -0.5600 
  7 C       -2.5490     4.7280     0.3340 C.ar  1 <1>  -0.1440 
  8 C       -0.1640     4.6080    -0.5390 C.3   1 <1>   0.2610 
  9 C       -3.0050     5.9050     0.9110 C.ar  1 <1>  -0.1500 
 10 C       -3.4010     4.0140    -0.5010 C.ar  1 <1>  -0.1500 
 11 C        0.1830     6.1030    -0.4700 C.2   1 <1>   0.5690 
 12 C       -4.2890     6.3590     0.6630 C.ar  1 <1>  -0.1500 
 13 C       -4.6850     4.4670    -0.7490 C.ar  1 <1>  -0.1500 
 14 O       -0.3880     6.8240    -1.2560 O.2   1 <1>  -0.5700 
 15 N        1.0750     6.6290     0.4460 N.am  1 <1>  -0.6600 
 16 C       -5.1300     5.6390    -0.1670 C.ar  1 <1>  -0.1500 
 17 C        1.3680     8.0900     0.4530 C.3   1 <1>   0.1400 
 18 C        1.9320     5.8180     1.3620 C.3   1 <1>   0.0600 
 19 C        2.6010     8.3820    -0.4050 C.3   1 <1>  -0.1600 
 20 C        2.8860     9.8820    -0.4370 C.3   1 <1>   0.1200 
 21 O        4.0060    10.1000    -1.2150 O.3   1 <1>  -0.6800 
 22 H       -1.8950     2.4470     1.5100 H     1 <1>   0.3700 
 23 H        0.3770     2.2330    -1.6970 H     1 <1>   0.0800 
 24 H        1.6370     1.8670    -0.5420 H     1 <1>   0.0800 
 25 H       -0.7840     4.7360     1.5130 H     1 <1>   0.0800 
 26 H       -0.6700     4.4420    -1.4730 H     1 <1>   0.0800 
 27 H       -2.3640     6.4840     1.5530 H     1 <1>   0.1500 
 28 H       -3.0720     3.0990    -0.9640 H     1 <1>   0.1500 
 29 H       -4.6330     7.2740     1.1120 H     1 <1>   0.1500 
 30 H       -5.3370     3.9070    -1.3960 H     1 <1>   0.1500 
 31 H       -6.1280     5.9930    -0.3600 H     1 <1>   0.1500 
 32 H        0.5220     8.6330     0.0630 H     1 <1>   0.0800 
 33 H        1.5280     8.4220     1.4640 H     1 <1>   0.0800 
 34 H        2.1660     6.3800     2.2490 H     1 <1>   0.0800 
 35 H        2.8470     5.5590     0.8590 H     1 <1>   0.0800 
 36 H        1.4360     4.9120     1.6600 H     1 <1>   0.0800 
 37 H        2.4120     8.0400    -1.4090 H     1 <1>   0.0800 
 38 H        3.4500     7.8620    -0.0010 H     1 <1>   0.0800 
 39 H        3.0800    10.2670     0.5500 H     1 <1>   0.0800 
 40 H        2.0660    10.4220    -0.8790 H     1 <1>   0.0800 
 41 H        4.7650     9.5820    -0.8850 H     1 <1>   0.4000 
@<TRIPOS>BOND
  1   1   2  2   
  2   2   3  am  
  3   2   4  1   
  4   3   5  1   
  5   3  22  1   
  6   4   6  1   
  7   4  23  1   
  8   4  24  1   
  9   5   7  1   
 10   5   8  1   
 11   5  25  1   
 12   6   8  1   
 13   7   9  ar  
 14   7  10  ar  
 15   8  11  1   
 16   8  26  1   
 17   9  12  ar  
 18   9  27  1   
 19  10  13  ar  
 20  10  28  1   
 21  11  14  2   
 22  11  15  am  
 23  12  16  ar  
 24  12  29  1   
 25  13  16  ar  
 26  13  30  1   
 27  15  17  1   
 28  15  18  1   
 29  16  31  1   
 30  17  19  1   
 31  17  32  1   
 32  17  33  1   
 33  18  34  1   
 34  18  35  1   
 35  18  36  1   
 36  19  20  1   
 37  19  37  1   
 38  19  38  1   
 39  20  21  1   
 40  20  39  1   
 41  20  40  1   
 42  21  41  1   
@<TRIPOS>SUBSTRUCTURE
  1 ****   8 GROUP 4 **** **** 0

# MOE 2024.06 (io_trps.svl 2023.06)
