@<TRIPOS>MOLECULE
NONAME
44 46 1 0 0 
SMALL
USER_CHARGES


@<TRIPOS>ATOM
  1 S       -2.1820     0.0640    -0.8930 S.3   1 <1>  -0.0800 
  2 C       -1.9860    -1.1850     0.2940 C.2   1 <1>   0.4420 
  3 C       -1.6190     1.1810     0.3010 C.2   1 <1>   0.2280 
  4 N       -1.5490    -0.7280     1.4110 N.2   1 <1>  -0.3380 
  5 N       -2.3130    -2.4670    -0.1010 N.am  1 <1>  -0.4940 
  6 N       -1.3420     0.6250     1.4080 N.2   1 <1>  -0.3380 
  7 C       -2.2540    -3.6300     0.6110 C.2   1 <1>   0.5690 
  8 O       -1.8920    -3.7050     1.7550 O.2   1 <1>  -0.5700 
  9 C       -2.6890    -4.9040    -0.0800 C.3   1 <1>  -0.0990 
 10 C       -4.1170    -5.2980     0.3310 C.3   1 <1>  -0.0990 
 11 C       -4.5750    -6.5320    -0.4140 C.2   1 <1>   0.5690 
 12 O       -4.8500    -6.4300    -1.5840 O.2   1 <1>  -0.5700 
 13 N       -4.6520    -7.7100     0.2470 N.am  1 <1>  -0.7300 
 14 C       -5.0580    -8.9970    -0.3620 C.3   1 <1>   0.2200 
 15 C       -6.4360    -9.3820     0.1500 C.3   1 <1>  -0.0800 
 16 C       -4.1950   -10.1220     0.1980 C.3   1 <1>   0.1200 
 17 C       -6.1070   -10.0620     1.4840 C.3   1 <1>   0.1200 
 18 C       -7.1570   -10.3300    -0.8280 C.3   1 <1>  -0.0170 
 19 O       -4.7750   -10.4840     1.4150 O.3   1 <1>  -0.5600 
 20 C       -8.5430   -10.7030    -0.3260 C.ar  1 <1>  -0.1430 
 21 C       -8.8190   -11.9430     0.2160 C.ar  1 <1>  -0.1500 
 22 C       -9.6000    -9.8180    -0.3890 C.ar  1 <1>  -0.1500 
 23 C      -10.1000   -12.2260     0.6610 C.ar  1 <1>   0.1600 
 24 C      -10.8440   -10.2010     0.0840 C.ar  1 <1>   0.1600 
 25 N      -11.1190   -11.3840     0.6090 N.ar  1 <1>  -0.6200 
 26 H       -1.5460     2.2190     0.0310 H     1 <1>   0.1500 
 27 H       -2.6460    -2.5480    -1.0560 H     1 <1>   0.3700 
 28 H       -2.6370    -4.7800    -1.1470 H     1 <1>   0.0800 
 29 H       -2.0080    -5.6900     0.1940 H     1 <1>   0.0800 
 30 H       -4.7960    -4.4970     0.1040 H     1 <1>   0.0800 
 31 H       -4.1540    -5.4750     1.3910 H     1 <1>   0.0800 
 32 H       -4.4070    -7.7740     1.2380 H     1 <1>   0.3700 
 33 H       -5.0040    -8.9380    -1.4370 H     1 <1>   0.0800 
 34 H       -7.0510    -8.5120     0.3010 H     1 <1>   0.0800 
 35 H       -3.1740    -9.8230     0.3570 H     1 <1>   0.0800 
 36 H       -4.2250   -10.9820    -0.4470 H     1 <1>   0.0800 
 37 H       -6.7320   -10.9120     1.6920 H     1 <1>   0.0800 
 38 H       -6.1820    -9.3600     2.2960 H     1 <1>   0.0800 
 39 H       -6.5770   -11.2240    -0.9780 H     1 <1>   0.0800 
 40 H       -7.2580    -9.8460    -1.7840 H     1 <1>   0.0800 
 41 H       -8.0520   -12.6910     0.2980 H     1 <1>   0.1500 
 42 H       -9.4690    -8.8350    -0.8020 H     1 <1>   0.1500 
 43 H      -10.2960   -13.1980     1.0810 H     1 <1>   0.1500 
 44 H      -11.6570    -9.4970     0.0260 H     1 <1>   0.1500 
@<TRIPOS>BOND
  1   1   2  1   
  2   1   3  1   
  3   2   4  2   
  4   2   5  1   
  5   3   6  2   
  6   3  26  1   
  7   4   6  1   
  8   5   7  am  
  9   5  27  1   
 10   7   8  2   
 11   7   9  1   
 12   9  10  1   
 13   9  28  1   
 14   9  29  1   
 15  10  11  1   
 16  10  30  1   
 17  10  31  1   
 18  11  12  2   
 19  11  13  am  
 20  13  14  1   
 21  13  32  1   
 22  14  15  1   
 23  14  16  1   
 24  14  33  1   
 25  15  17  1   
 26  15  18  1   
 27  15  34  1   
 28  16  19  1   
 29  16  35  1   
 30  16  36  1   
 31  17  19  1   
 32  17  37  1   
 33  17  38  1   
 34  18  20  1   
 35  18  39  1   
 36  18  40  1   
 37  20  21  ar  
 38  20  22  ar  
 39  21  23  ar  
 40  21  41  1   
 41  22  24  ar  
 42  22  42  1   
 43  23  25  ar  
 44  23  43  1   
 45  24  25  ar  
 46  24  44  1   
@<TRIPOS>SUBSTRUCTURE
  1 ****  11 GROUP 4 **** **** 0

# MOE 2024.06 (io_trps.svl 2023.06)
