@<TRIPOS>MOLECULE
NONAME
43 46 1 0 0 
SMALL
USER_CHARGES


@<TRIPOS>ATOM
  1 S        0.4770    -0.5920     1.4650 S.3   1 <1>  -0.0800 
  2 C        0.3830    -2.0320     0.4480 C.ar  1 <1>   0.0400 
  3 C       -1.2120    -0.7440     1.9160 C.2   1 <1>  -0.1100 
  4 C       -0.8970    -2.5650     0.4900 C.ar  1 <1>   0.0000 
  5 C        1.4130    -2.5760    -0.2960 C.ar  1 <1>  -0.1500 
  6 C       -1.8040    -1.8110     1.3270 C.2   1 <1>  -0.0860 
  7 C       -1.1390    -3.7160    -0.2570 C.ar  1 <1>  -0.1500 
  8 C        1.1480    -3.7160    -1.0330 C.ar  1 <1>  -0.1500 
  9 C       -3.1890    -2.1970     1.4720 C.2   1 <1>   0.7160 
 10 C       -0.1240    -4.2810    -1.0110 C.ar  1 <1>  -0.1500 
 11 O       -3.4590    -3.2800     1.9560 O.2   1 <1>  -0.5700 
 12 N       -4.2100    -1.3650     1.0630 N.am  1 <1>  -0.6600 
 13 C       -5.6460    -1.7120     1.2880 C.3   1 <1>   0.1400 
 14 C       -4.0120    -0.1550     0.2170 C.3   1 <1>   0.1400 
 15 C       -6.3780    -1.9580    -0.0550 C.3   1 <1>   0.0000 
 16 C       -4.7160    -0.3440    -1.1320 C.3   1 <1>  -0.1600 
 17 C       -7.8690    -2.2970     0.1480 C.3   1 <1>   0.2000 
 18 C       -6.1980    -0.7210    -0.9620 C.3   1 <1>  -0.1600 
 19 C       -5.8600    -3.2440    -0.7240 C.3   1 <1>  -0.1600 
 20 O       -8.4460    -1.6040     1.1990 O.3   1 <1>  -0.6800 
 21 C       -7.9540    -3.8040     0.4030 C.3   1 <1>  -0.1600 
 22 C       -6.6050    -4.3880    -0.0330 C.3   1 <1>  -0.1600 
 23 H       -1.6080    -0.0060     2.5900 H     1 <1>   0.1500 
 24 H        2.3870    -2.1210    -0.2940 H     1 <1>   0.1500 
 25 H       -2.1170    -4.1660    -0.2410 H     1 <1>   0.1500 
 26 H        1.9240    -4.1690    -1.6250 H     1 <1>   0.1500 
 27 H       -0.3180    -5.1710    -1.5850 H     1 <1>   0.1500 
 28 H       -5.7330    -2.5760     1.9230 H     1 <1>   0.0800 
 29 H       -6.1060    -0.8860     1.8030 H     1 <1>   0.0800 
 30 H       -4.4270     0.6970     0.7270 H     1 <1>   0.0800 
 31 H       -2.9680     0.0350     0.0430 H     1 <1>   0.0800 
 32 H       -4.6420     0.5680    -1.6970 H     1 <1>   0.0800 
 33 H       -4.2030    -1.1100    -1.6870 H     1 <1>   0.0800 
 34 H       -8.4210    -2.0550    -0.7450 H     1 <1>   0.0800 
 35 H       -6.6360    -0.9000    -1.9280 H     1 <1>   0.0800 
 36 H       -6.7210     0.1100    -0.5190 H     1 <1>   0.0800 
 37 H       -6.1240    -3.2420    -1.7680 H     1 <1>   0.0800 
 38 H       -4.7930    -3.3640    -0.6450 H     1 <1>   0.0800 
 39 H       -8.1500    -1.9820     2.0480 H     1 <1>   0.4000 
 40 H       -8.1300    -4.0290     1.4410 H     1 <1>   0.0800 
 41 H       -8.7490    -4.2230    -0.1890 H     1 <1>   0.0800 
 42 H       -6.0480    -4.7030     0.8340 H     1 <1>   0.0800 
 43 H       -6.7250    -5.2320    -0.6900 H     1 <1>   0.0800 
@<TRIPOS>BOND
  1   1   2  1   
  2   1   3  1   
  3   2   4  ar  
  4   2   5  ar  
  5   3   6  2   
  6   3  23  1   
  7   4   6  1   
  8   4   7  ar  
  9   5   8  ar  
 10   5  24  1   
 11   6   9  1   
 12   7  10  ar  
 13   7  25  1   
 14   8  10  ar  
 15   8  26  1   
 16   9  11  2   
 17   9  12  am  
 18  10  27  1   
 19  12  13  1   
 20  12  14  1   
 21  13  15  1   
 22  13  28  1   
 23  13  29  1   
 24  14  16  1   
 25  14  30  1   
 26  14  31  1   
 27  15  17  1   
 28  15  18  1   
 29  15  19  1   
 30  16  18  1   
 31  16  32  1   
 32  16  33  1   
 33  17  20  1   
 34  17  21  1   
 35  17  34  1   
 36  18  35  1   
 37  18  36  1   
 38  19  22  1   
 39  19  37  1   
 40  19  38  1   
 41  20  39  1   
 42  21  22  1   
 43  21  40  1   
 44  21  41  1   
 45  22  42  1   
 46  22  43  1   
@<TRIPOS>SUBSTRUCTURE
  1 ****   9 GROUP 4 **** **** 0

# MOE 2024.06 (io_trps.svl 2023.06)
