@<TRIPOS>MOLECULE
NONAME
45 48 1 0 0 
SMALL
USER_CHARGES


@<TRIPOS>ATOM
  1 S       -1.6970    -1.4300    -1.8630 S.3   1 <1>  -0.4600 
  2 C       -1.7220    -0.5600    -0.2540 C.3   1 <1>   0.1310 
  3 C       -0.2660    -2.5340    -1.7040 C.3   1 <1>  -0.0100 
  4 C       -1.8790    -1.5400     0.9050 C.2   1 <1>   0.5690 
  5 O       -0.8910    -1.7620     1.5680 O.2   1 <1>  -0.5700 
  6 N       -3.0820    -2.1480     1.1760 N.am  1 <1>  -0.6600 
  7 C       -3.2270    -3.1240     2.2920 C.3   1 <1>   0.1400 
  8 C       -4.3130    -2.0240     0.3470 C.3   1 <1>   0.1400 
  9 C       -3.5310    -4.5030     1.7050 C.3   1 <1>  -0.1600 
 10 C       -4.6280    -3.3860    -0.2730 C.3   1 <1>  -0.1600 
 11 C       -4.7680    -4.4730     0.8020 C.3   1 <1>   0.4600 
 12 O       -5.8600    -4.1540     1.6400 O.3   1 <1>  -0.5600 
 13 C       -4.9960    -5.8420     0.1730 C.2   1 <1>  -0.3320 
 14 C       -7.1540    -4.5000     1.2060 C.3   1 <1>   0.1200 
 15 N       -4.1050    -6.5430    -0.5920 N.pl3 1 <1>   0.0330 
 16 C       -6.1340    -6.5540     0.2950 C.2   1 <1>  -0.1810 
 17 C       -7.3090    -6.0250     1.0780 C.3   1 <1>   0.0210 
 18 C       -4.6970    -7.7290    -0.9530 C.ar  1 <1>  -0.1520 
 19 C       -5.9770    -7.7680    -0.4060 C.ar  1 <1>   0.0000 
 20 C       -4.2150    -8.7910    -1.7220 C.ar  1 <1>  -0.1500 
 21 C       -6.7910    -8.8830    -0.6270 C.ar  1 <1>  -0.1500 
 22 C       -5.0270    -9.8820    -1.9330 C.ar  1 <1>  -0.1500 
 23 C       -6.3150    -9.9280    -1.3850 C.ar  1 <1>  -0.1500 
 24 H       -2.5300     0.1460    -0.2760 H     1 <1>   0.0800 
 25 H       -0.7900    -0.0330    -0.1680 H     1 <1>   0.0800 
 26 H       -0.1500    -3.0590    -2.6350 H     1 <1>   0.0800 
 27 H       -0.4590    -3.2190    -0.8980 H     1 <1>   0.0800 
 28 H        0.5990    -1.9300    -1.4940 H     1 <1>   0.0800 
 29 H       -4.0320    -2.8110     2.9350 H     1 <1>   0.0800 
 30 H       -2.3280    -3.1690     2.8820 H     1 <1>   0.0800 
 31 H       -4.1940    -1.2940    -0.4330 H     1 <1>   0.0800 
 32 H       -5.1310    -1.7100     0.9750 H     1 <1>   0.0800 
 33 H       -3.6910    -5.2120     2.4970 H     1 <1>   0.0800 
 34 H       -2.6760    -4.8280     1.1440 H     1 <1>   0.0800 
 35 H       -3.8290    -3.6470    -0.9410 H     1 <1>   0.0800 
 36 H       -5.5240    -3.3290    -0.8600 H     1 <1>   0.0800 
 37 H       -7.3350    -4.0260     0.2580 H     1 <1>   0.0800 
 38 H       -7.8540    -4.1150     1.9250 H     1 <1>   0.0800 
 39 H       -3.1590    -6.2520    -0.8530 H     1 <1>   0.2700 
 40 H       -8.2270    -6.2550     0.5700 H     1 <1>   0.0800 
 41 H       -7.3290    -6.4760     2.0530 H     1 <1>   0.0800 
 42 H       -3.2250    -8.7480    -2.1390 H     1 <1>   0.1500 
 43 H       -7.7760    -8.9050    -0.2000 H     1 <1>   0.1500 
 44 H       -4.6800   -10.7120    -2.5220 H     1 <1>   0.1500 
 45 H       -6.9300   -10.7930    -1.5640 H     1 <1>   0.1500 
@<TRIPOS>BOND
  1   1   2  1   
  2   1   3  1   
  3   2   4  1   
  4   2  24  1   
  5   2  25  1   
  6   3  26  1   
  7   3  27  1   
  8   3  28  1   
  9   4   5  2   
 10   4   6  am  
 11   6   7  1   
 12   6   8  1   
 13   7   9  1   
 14   7  29  1   
 15   7  30  1   
 16   8  10  1   
 17   8  31  1   
 18   8  32  1   
 19   9  11  1   
 20   9  33  1   
 21   9  34  1   
 22  10  11  1   
 23  10  35  1   
 24  10  36  1   
 25  11  12  1   
 26  11  13  1   
 27  12  14  1   
 28  13  15  1   
 29  13  16  2   
 30  14  17  1   
 31  14  37  1   
 32  14  38  1   
 33  15  18  1   
 34  15  39  1   
 35  16  17  1   
 36  16  19  1   
 37  17  40  1   
 38  17  41  1   
 39  18  19  ar  
 40  18  20  ar  
 41  19  21  ar  
 42  20  22  ar  
 43  20  42  1   
 44  21  23  ar  
 45  21  43  1   
 46  22  23  ar  
 47  22  44  1   
 48  23  45  1   
@<TRIPOS>SUBSTRUCTURE
  1 ****  11 GROUP 4 **** **** 0

# MOE 2024.06 (io_trps.svl 2023.06)
