@<TRIPOS>MOLECULE
NONAME
46 48 1 0 0 
SMALL
USER_CHARGES


@<TRIPOS>ATOM
  1 F       -2.6550    -0.1310     1.5860 F     1 <1>  -0.1900 
  2 C       -2.6320     1.0120     0.9550 C.ar  1 <1>   0.1900 
  3 C       -1.8850     2.0450     1.4760 C.ar  1 <1>  -0.1500 
  4 C       -3.3590     1.1400    -0.2120 C.ar  1 <1>  -0.1500 
  5 C       -1.8480     3.2710     0.8150 C.ar  1 <1>   0.0860 
  6 C       -3.3300     2.3520    -0.8790 C.ar  1 <1>  -0.1500 
  7 C       -2.5790     3.4160    -0.3740 C.ar  1 <1>   0.0830 
  8 C       -1.0760     4.3620     1.3620 C.2   1 <1>   0.5440 
  9 O       -2.5160     4.6160    -1.0080 O.3   1 <1>  -0.3630 
 10 O       -1.6030     5.1790     2.0940 O.2   1 <1>  -0.5700 
 11 N        0.2500     4.5590     1.0430 N.am  1 <1>  -0.6600 
 12 C       -3.4200     4.9640    -2.0360 C.3   1 <1>   0.0400 
 13 C        1.1110     5.4710     1.8860 C.3   1 <1>   0.1400 
 14 C        0.7610     4.2910    -0.3340 C.3   1 <1>   0.1400 
 15 C        1.1280     6.9340     1.3680 C.3   1 <1>   0.4230 
 16 C        0.8850     5.5650    -1.2110 C.3   1 <1>  -0.0800 
 17 N       -0.1210     7.1580     0.5530 N.4   1 <1>  -0.9590 
 18 C        2.4680     7.2650     0.6590 C.3   1 <1>   0.1200 
 19 C        2.3360     6.0480    -1.3520 C.3   1 <1>   0.1200 
 20 C       -0.0460     6.7520    -0.8860 C.3   1 <1>   0.3430 
 21 C       -0.6170     8.5920     0.6730 C.3   1 <1>   0.2370 
 22 O        2.9400     6.1960    -0.1130 O.3   1 <1>  -0.5600 
 23 C        0.3490     9.6550     0.1460 C.2   1 <1>   0.9060 
 24 O        1.1460    10.1530     0.9460 O.co2 1 <1>  -0.9000 
 25 O        0.3950     9.8450    -1.0730 O.co2 1 <1>  -0.9000 
 26 H       -1.3370     1.9050     2.3910 H     1 <1>   0.1500 
 27 H       -3.9310     0.3080    -0.5830 H     1 <1>   0.1500 
 28 H       -3.8940     2.4440    -1.7880 H     1 <1>   0.1500 
 29 H       -3.2590     5.9960    -2.2920 H     1 <1>   0.0800 
 30 H       -4.4260     4.8330    -1.6770 H     1 <1>   0.0800 
 31 H       -3.2340     4.3430    -2.8950 H     1 <1>   0.0800 
 32 H        0.7310     5.4790     2.8930 H     1 <1>   0.0800 
 33 H        2.1110     5.0770     1.9410 H     1 <1>   0.0800 
 34 H        1.7190     3.8050    -0.2590 H     1 <1>   0.0800 
 35 H        0.1030     3.5990    -0.8300 H     1 <1>   0.0800 
 36 H        1.0780     7.5840     2.2260 H     1 <1>   0.0800 
 37 H        0.6120     5.2640    -2.2060 H     1 <1>   0.0800 
 38 H       -0.8130     6.5260     1.0030 H     1 <1>   0.4500 
 39 H        3.2120     7.4420     1.4150 H     1 <1>   0.0800 
 40 H        2.4130     8.1510     0.0530 H     1 <1>   0.0800 
 41 H        2.3970     6.9840    -1.8850 H     1 <1>   0.0800 
 42 H        2.9130     5.3170    -1.8920 H     1 <1>   0.0800 
 43 H       -1.0410     6.5080    -1.2160 H     1 <1>   0.0800 
 44 H        0.2810     7.5970    -1.4710 H     1 <1>   0.0800 
 45 H       -1.5380     8.7030     0.1320 H     1 <1>   0.0800 
 46 H       -0.8040     8.8230     1.7050 H     1 <1>   0.0800 
@<TRIPOS>BOND
  1   1   2  1   
  2   2   3  ar  
  3   2   4  ar  
  4   3   5  ar  
  5   3  26  1   
  6   4   6  ar  
  7   4  27  1   
  8   5   7  ar  
  9   5   8  1   
 10   6   7  ar  
 11   6  28  1   
 12   7   9  1   
 13   8  10  2   
 14   8  11  am  
 15   9  12  1   
 16  11  13  1   
 17  11  14  1   
 18  12  29  1   
 19  12  30  1   
 20  12  31  1   
 21  13  15  1   
 22  13  32  1   
 23  13  33  1   
 24  14  16  1   
 25  14  34  1   
 26  14  35  1   
 27  15  17  1   
 28  15  18  1   
 29  15  36  1   
 30  16  19  1   
 31  16  20  1   
 32  16  37  1   
 33  17  20  1   
 34  17  21  1   
 35  17  38  1   
 36  18  22  1   
 37  18  39  1   
 38  18  40  1   
 39  19  22  1   
 40  19  41  1   
 41  19  42  1   
 42  20  43  1   
 43  20  44  1   
 44  21  23  1   
 45  21  45  1   
 46  21  46  1   
 47  23  24  ar  
 48  23  25  ar  
@<TRIPOS>SUBSTRUCTURE
  1 ****  11 GROUP 4 **** **** 0

# MOE 2024.06 (io_trps.svl 2023.06)
