@<TRIPOS>MOLECULE
NONAME
46 49 1 0 0 
SMALL
USER_CHARGES


@<TRIPOS>ATOM
  1 O       -1.6120     1.0960    -1.8590 O.2   1 <1>  -0.5700 
  2 C       -1.7230     0.9670    -0.6530 C.2   1 <1>   0.7160 
  3 N       -1.9100    -0.2840    -0.1360 N.am  1 <1>  -0.5100 
  4 C       -1.6370     2.0990     0.2070 C.2   1 <1>  -0.0860 
  5 C       -2.6450    -1.3770    -0.8620 C.3   1 <1>   0.2250 
  6 C       -2.7350    -0.5820     1.0870 C.3   1 <1>   0.2250 
  7 C       -2.7280     2.8300     0.6770 C.2   1 <1>   0.3720 
  8 C       -0.5680     2.6940     0.7930 C.2   1 <1>   0.0870 
  9 C       -2.9470    -2.0070     0.5210 C.3   1 <1>   0.2580 
 10 N       -2.3430     3.7600     1.4810 N.2   1 <1>  -0.4100 
 11 N       -4.0580     2.5720     0.3120 N.pl3 1 <1>  -0.8210 
 12 O       -1.0400     3.6630     1.5370 O.3   1 <1>  -0.0190 
 13 C        0.8470     2.4310     0.7310 C.ar  1 <1>   0.0530 
 14 O       -1.9430    -2.8880     0.9260 O.3   1 <1>  -0.6580 
 15 C       -4.3540     2.8320    -1.1240 C.3   1 <1>   0.2090 
 16 C       -5.1360     3.1820     1.1430 C.3   1 <1>   0.2090 
 17 C        1.6720     2.6940     1.8260 C.ar  1 <1>  -0.1500 
 18 C        1.4490     1.9070    -0.4140 C.ar  1 <1>  -0.1500 
 19 C       -5.7560     3.4240    -1.1620 C.3   1 <1>  -0.1600 
 20 C       -5.9220     4.0810     0.1990 C.3   1 <1>  -0.1600 
 21 C        3.0280     2.4360     1.7830 C.ar  1 <1>  -0.1500 
 22 C        2.8060     1.6450    -0.4640 C.ar  1 <1>  -0.1500 
 23 C        3.6090     1.9080     0.6420 C.ar  1 <1>   0.0830 
 24 O        4.9430     1.6830     0.6790 O.3   1 <1>  -0.3630 
 25 C        5.6380     1.1760    -0.4390 C.3   1 <1>   0.0400 
 26 H       -1.9980    -1.9660    -1.4870 H     1 <1>   0.0000 
 27 H       -3.5180    -0.9930    -1.3630 H     1 <1>   0.0000 
 28 H       -3.6360     0.0060     1.1100 H     1 <1>   0.0000 
 29 H       -2.1580    -0.5450     1.9940 H     1 <1>   0.0000 
 30 H       -3.9250    -2.4350     0.6500 H     1 <1>   0.0000 
 31 H       -1.0730    -2.4670     0.7770 H     1 <1>   0.4000 
 32 H       -4.3030     1.9200    -1.6950 H     1 <1>   0.0800 
 33 H       -3.6440     3.5390    -1.5220 H     1 <1>   0.0800 
 34 H       -4.7570     3.7390     1.9830 H     1 <1>   0.0800 
 35 H       -5.7690     2.3940     1.5110 H     1 <1>   0.0800 
 36 H        1.2420     3.1040     2.7230 H     1 <1>   0.1500 
 37 H        0.8520     1.7070    -1.2850 H     1 <1>   0.1500 
 38 H       -6.4700     2.6270    -1.2760 H     1 <1>   0.0800 
 39 H       -5.8730     4.1210    -1.9730 H     1 <1>   0.0800 
 40 H       -5.4690     5.0570     0.1950 H     1 <1>   0.0800 
 41 H       -6.9520     4.1700     0.4940 H     1 <1>   0.0800 
 42 H        3.6500     2.6430     2.6360 H     1 <1>   0.1500 
 43 H        3.2200     1.2410    -1.3670 H     1 <1>   0.1500 
 44 H        6.6770     1.0930    -0.1760 H     1 <1>   0.0800 
 45 H        5.5220     1.8590    -1.2610 H     1 <1>   0.0800 
 46 H        5.2440     0.2060    -0.6840 H     1 <1>   0.0800 
@<TRIPOS>BOND
  1   1   2  2   
  2   2   3  am  
  3   2   4  1   
  4   3   5  1   
  5   3   6  1   
  6   4   7  1   
  7   4   8  2   
  8   5   9  1   
  9   5  26  1   
 10   5  27  1   
 11   6   9  1   
 12   6  28  1   
 13   6  29  1   
 14   7  10  2   
 15   7  11  1   
 16   8  12  1   
 17   8  13  1   
 18   9  14  1   
 19   9  30  1   
 20  10  12  1   
 21  11  15  1   
 22  11  16  1   
 23  13  17  ar  
 24  13  18  ar  
 25  14  31  1   
 26  15  19  1   
 27  15  32  1   
 28  15  33  1   
 29  16  20  1   
 30  16  34  1   
 31  16  35  1   
 32  17  21  ar  
 33  17  36  1   
 34  18  22  ar  
 35  18  37  1   
 36  19  20  1   
 37  19  38  1   
 38  19  39  1   
 39  20  40  1   
 40  20  41  1   
 41  21  23  ar  
 42  21  42  1   
 43  22  23  ar  
 44  22  43  1   
 45  23  24  1   
 46  24  25  1   
 47  25  44  1   
 48  25  45  1   
 49  25  46  1   
@<TRIPOS>SUBSTRUCTURE
  1 ****   4 GROUP 4 **** **** 0

# MOE 2024.06 (io_trps.svl 2023.06)
