@<TRIPOS>MOLECULE
NONAME
52 53 1 0 0 
SMALL
USER_CHARGES


@<TRIPOS>ATOM
  1 O       -1.7710    -0.0630    -1.5380 O.2   1 <1>  -0.5700 
  2 C       -1.9320     0.5620    -0.5030 C.2   1 <1>   0.5440 
  3 N       -2.4300    -0.1110     0.5920 N.am  1 <1>  -0.6600 
  4 C       -1.6900     1.9900    -0.4850 C.ar  1 <1>   0.0860 
  5 C       -2.5180    -1.5990     0.6020 C.3   1 <1>   0.3200 
  6 C       -3.0700     0.5820     1.7480 C.3   1 <1>   0.1400 
  7 C       -0.7020     2.5820     0.3100 C.ar  1 <1>   0.0830 
  8 C       -2.4700     2.8220    -1.2830 C.ar  1 <1>  -0.1500 
  9 C       -3.8170    -2.0470    -0.0430 C.2   1 <1>   0.0060 
 10 C       -4.5190     0.9550     1.4160 C.3   1 <1>   0.1200 
 11 O        0.0810     1.7880     1.0610 O.3   1 <1>  -0.5320 
 12 C       -0.5140     3.9650     0.3300 C.ar  1 <1>  -0.1430 
 13 C       -2.3030     4.1930    -1.2880 C.ar  1 <1>  -0.1430 
 14 N       -4.7800    -2.6780     0.5520 N.2   1 <1>  -0.5650 
 15 N       -4.0600    -1.7900    -1.3440 N.pl3 1 <1>   0.0330 
 16 O       -5.1140     1.5250     2.5320 O.3   1 <1>  -0.6800 
 17 C       -1.3250     4.7500    -0.4770 C.ar  1 <1>  -0.1500 
 18 C        0.5440     4.6540     1.2040 C.3   1 <1>   0.0630 
 19 C       -3.1890     5.0670    -2.1730 C.3   1 <1>   0.0630 
 20 C       -5.7000    -2.8430    -0.4190 C.2   1 <1>   0.0770 
 21 C       -5.2780    -2.3050    -1.5850 C.2   1 <1>  -0.3020 
 22 C       -0.1060     5.6350     2.1860 C.3   1 <1>  -0.2400 
 23 C        1.5860     5.3670     0.3350 C.3   1 <1>  -0.2400 
 24 C       -2.3490     5.8300    -3.2030 C.3   1 <1>  -0.2400 
 25 C       -4.0250     6.0320    -1.3270 C.3   1 <1>  -0.2400 
 26 H       -2.4700    -1.9660     1.6110 H     1 <1>   0.0800 
 27 H       -1.6870    -2.0150     0.0590 H     1 <1>   0.0800 
 28 H       -2.5220     1.4750     1.9890 H     1 <1>   0.0800 
 29 H       -3.0520    -0.0650     2.6070 H     1 <1>   0.0800 
 30 H       -3.2200     2.3680    -1.9070 H     1 <1>   0.1500 
 31 H       -5.0930     0.0880     1.1360 H     1 <1>   0.0800 
 32 H       -4.5460     1.6810     0.6230 H     1 <1>   0.0800 
 33 H        0.7960     2.2640     1.5160 H     1 <1>   0.4500 
 34 H       -3.4160    -1.2750    -1.9630 H     1 <1>   0.2700 
 35 H       -5.3370     0.8360     3.1880 H     1 <1>   0.4000 
 36 H       -1.1970     5.8170    -0.4810 H     1 <1>   0.1500 
 37 H        1.0710     3.9310     1.7970 H     1 <1>   0.0800 
 38 H       -3.8710     4.4330    -2.7140 H     1 <1>   0.0800 
 39 H       -6.6320    -3.3480    -0.2250 H     1 <1>   0.1500 
 40 H       -5.7620    -2.2600    -2.5430 H     1 <1>   0.1500 
 41 H       -0.5810     6.4480     1.6680 H     1 <1>   0.0800 
 42 H        0.6340     6.0420     2.8510 H     1 <1>   0.0800 
 43 H       -0.8490     5.1250     2.7740 H     1 <1>   0.0800 
 44 H        1.1370     6.1630    -0.2310 H     1 <1>   0.0800 
 45 H        2.0300     4.6680    -0.3520 H     1 <1>   0.0800 
 46 H        2.3640     5.7820     0.9510 H     1 <1>   0.0800 
 47 H       -1.6830     6.5220    -2.7190 H     1 <1>   0.0800 
 48 H       -2.9890     6.3790    -3.8710 H     1 <1>   0.0800 
 49 H       -1.7640     5.1380    -3.7810 H     1 <1>   0.0800 
 50 H       -3.3950     6.7280    -0.8020 H     1 <1>   0.0800 
 51 H       -4.6000     5.4800    -0.6050 H     1 <1>   0.0800 
 52 H       -4.7020     6.5860    -1.9520 H     1 <1>   0.0800 
@<TRIPOS>BOND
  1   1   2  2   
  2   2   3  am  
  3   2   4  1   
  4   3   5  1   
  5   3   6  1   
  6   4   7  ar  
  7   4   8  ar  
  8   5   9  1   
  9   5  26  1   
 10   5  27  1   
 11   6  10  1   
 12   6  28  1   
 13   6  29  1   
 14   7  11  1   
 15   7  12  ar  
 16   8  13  ar  
 17   8  30  1   
 18   9  14  2   
 19   9  15  1   
 20  10  16  1   
 21  10  31  1   
 22  10  32  1   
 23  11  33  1   
 24  12  17  ar  
 25  12  18  1   
 26  13  17  ar  
 27  13  19  1   
 28  14  20  1   
 29  15  21  1   
 30  15  34  1   
 31  16  35  1   
 32  17  36  1   
 33  18  22  1   
 34  18  23  1   
 35  18  37  1   
 36  19  24  1   
 37  19  25  1   
 38  19  38  1   
 39  20  21  2   
 40  20  39  1   
 41  21  40  1   
 42  22  41  1   
 43  22  42  1   
 44  22  43  1   
 45  23  44  1   
 46  23  45  1   
 47  23  46  1   
 48  24  47  1   
 49  24  48  1   
 50  24  49  1   
 51  25  50  1   
 52  25  51  1   
 53  25  52  1   
@<TRIPOS>SUBSTRUCTURE
  1 ****   4 GROUP 4 **** **** 0

# MOE 2024.06 (io_trps.svl 2023.06)
