@<TRIPOS>MOLECULE
NONAME
48 51 1 0 0 
SMALL
USER_CHARGES


@<TRIPOS>ATOM
  1 O        0.5470     0.3500    -0.3170 O.3   1 <1>  -0.5600 
  2 C        0.6300     1.7380    -0.1540 C.3   1 <1>   0.2950 
  3 C        1.7390    -0.3320    -0.0510 C.3   1 <1>   0.2000 
  4 C       -0.7660     2.3170    -0.4060 C.3   1 <1>  -0.1950 
  5 C        1.6770     2.3290    -1.1190 C.3   1 <1>   0.2090 
  6 C        2.8630     0.1480    -1.0030 C.3   1 <1>   0.2090 
  7 C        1.4300    -1.8280    -0.1890 C.3   1 <1>  -0.1600 
  8 C       -1.1980     3.6010     0.2310 C.3   1 <1>  -0.2000 
  9 C       -1.8160     2.3000     0.6600 C.3   1 <1>  -0.2000 
 10 N        3.0060     1.6400    -0.9690 N.pl3 1 <1>  -0.8380 
 11 C        2.6070    -2.7300     0.2170 C.3   1 <1>  -0.1600 
 12 C        4.1150     2.2740    -0.4900 C.2   1 <1>   0.2710 
 13 C        2.2120    -4.2100     0.1520 C.3   1 <1>  -0.1600 
 14 N        3.9170     3.3080     0.3390 N.2   1 <1>  -0.6210 
 15 C        5.3810     1.8720    -0.8430 C.2   1 <1>  -0.1410 
 16 C        3.3850    -5.1110     0.5490 C.3   1 <1>  -0.2400 
 17 C        4.9460     3.9310     0.8130 C.2   1 <1>   0.9190 
 18 C        6.4350     2.5730    -0.3120 C.cat 1 <1>   0.7910 
 19 N        6.2200     3.5940     0.5150 N.pl3 1 <1>  -0.6690 
 20 N        4.7310     4.9540     1.6360 N.pl3 1 <1>  -0.8500 
 21 N        7.7680     2.4660    -0.4410 N.pl3 1 <1>  -0.3930 
 22 C        7.4620     4.0680     0.8540 C.2   1 <1>   0.5030 
 23 N        8.4090     3.4110     0.2970 N.2   1 <1>  -0.2600 
 24 H        0.9250     1.9400     0.8610 H     1 <1>   0.0800 
 25 H        2.0180    -0.1220     0.9670 H     1 <1>   0.0800 
 26 H       -1.0960     2.1380    -1.4150 H     1 <1>   0.1000 
 27 H        1.7690     3.3850    -0.9410 H     1 <1>   0.0800 
 28 H        1.3280     2.2020    -2.1290 H     1 <1>   0.0800 
 29 H        2.6320    -0.1630    -2.0070 H     1 <1>   0.0800 
 30 H        3.7870    -0.3160    -0.7140 H     1 <1>   0.0800 
 31 H        0.5890    -2.0530     0.4440 H     1 <1>   0.0800 
 32 H        1.1480    -2.0390    -1.2060 H     1 <1>   0.0800 
 33 H       -0.5410     4.1020     0.9210 H     1 <1>   0.1000 
 34 H       -1.7970     4.2890    -0.3410 H     1 <1>   0.1000 
 35 H       -2.8290     2.0800     0.3730 H     1 <1>   0.1000 
 36 H       -1.5640     1.8900     1.6230 H     1 <1>   0.1000 
 37 H        3.4430    -2.5670    -0.4400 H     1 <1>   0.0800 
 38 H        2.9130    -2.4910     1.2220 H     1 <1>   0.0800 
 39 H        1.3840    -4.3940     0.8160 H     1 <1>   0.0800 
 40 H        1.8970    -4.4580    -0.8480 H     1 <1>   0.0800 
 41 H        5.5370     1.0550    -1.5170 H     1 <1>   0.1500 
 42 H        3.7000    -4.8980     1.5550 H     1 <1>   0.0800 
 43 H        4.2180    -4.9630    -0.1160 H     1 <1>   0.0800 
 44 H        3.0870    -6.1440     0.4970 H     1 <1>   0.0800 
 45 H        3.7590     5.1890     1.8480 H     1 <1>   0.4000 
 46 H        5.4340     5.5340     2.0820 H     1 <1>   0.4000 
 47 H        8.2620     1.7750    -1.0180 H     1 <1>   0.4500 
 48 H        7.6030     4.9050     1.5200 H     1 <1>   0.1500 
@<TRIPOS>BOND
  1   1   2  1   
  2   1   3  1   
  3   2   4  1   
  4   2   5  1   
  5   2  24  1   
  6   3   6  1   
  7   3   7  1   
  8   3  25  1   
  9   4   8  1   
 10   4   9  1   
 11   4  26  1   
 12   5  10  1   
 13   5  27  1   
 14   5  28  1   
 15   6  10  1   
 16   6  29  1   
 17   6  30  1   
 18   7  11  1   
 19   7  31  1   
 20   7  32  1   
 21   8   9  1   
 22   8  33  1   
 23   8  34  1   
 24   9  35  1   
 25   9  36  1   
 26  10  12  1   
 27  11  13  1   
 28  11  37  1   
 29  11  38  1   
 30  12  14  1   
 31  12  15  2   
 32  13  16  1   
 33  13  39  1   
 34  13  40  1   
 35  14  17  2   
 36  15  18  1   
 37  15  41  1   
 38  16  42  1   
 39  16  43  1   
 40  16  44  1   
 41  17  19  1   
 42  17  20  1   
 43  18  19  ar  
 44  18  21  ar  
 45  19  22  1   
 46  20  45  1   
 47  20  46  1   
 48  21  23  1   
 49  21  47  1   
 50  22  23  2   
 51  22  48  1   
@<TRIPOS>SUBSTRUCTURE
  1 ****  10 GROUP 4 **** **** 0

# MOE 2024.06 (io_trps.svl 2023.06)
