@<TRIPOS>MOLECULE
NONAME
53 56 1 0 0 
SMALL
USER_CHARGES


@<TRIPOS>ATOM
  1 O        1.7810     0.4830     1.7770 O.3   1 <1>  -0.6800 
  2 C        1.8780     0.0110     0.4710 C.3   1 <1>   0.2000 
  3 C        2.5920    -1.3400     0.5010 C.3   1 <1>  -0.0800 
  4 C        2.8520     0.9030    -0.2990 C.3   1 <1>   0.3430 
  5 C        4.0920    -0.9800     0.5000 C.3   1 <1>   0.3430 
  6 C        2.2010    -2.2140    -0.7120 C.3   1 <1>  -0.0160 
  7 N        4.2190     0.4690     0.1380 N.4   1 <1>  -0.9590 
  8 C        2.7840    -3.6190    -0.6280 C.ar  1 <1>   0.1670 
  9 C        4.7010     1.2540     1.3190 C.3   1 <1>   0.4860 
 10 N        4.0980    -3.7190    -0.7600 N.ar  1 <1>  -0.6200 
 11 C        1.9460    -4.7160    -0.4280 C.ar  1 <1>   0.1600 
 12 C        4.7330     2.7270     0.9890 C.ar  1 <1>  -0.1430 
 13 C        4.5100    -4.9770    -0.6900 C.ar  1 <1>   0.1600 
 14 N        2.3590    -5.9670    -0.3470 N.ar  1 <1>  -0.6200 
 15 C        3.7690     3.5800     1.4720 C.ar  1 <1>   0.1600 
 16 C        5.7110     3.2810     0.1970 C.ar  1 <1>   0.1600 
 17 C        3.6690    -6.0640    -0.4890 C.ar  1 <1>   0.1600 
 18 N        3.7530     4.8520     1.1730 N.ar  1 <1>  -0.6200 
 19 N        5.7180     4.5500    -0.1140 N.ar  1 <1>  -0.6200 
 20 C        4.7330     5.2970     0.3870 C.ar  1 <1>   0.7200 
 21 N        4.7250     6.6340     0.0600 N.pl3 1 <1>  -0.8380 
 22 C        3.5330     7.4930     0.3350 C.3   1 <1>   0.2090 
 23 C        5.9300     7.2960    -0.5270 C.3   1 <1>   0.2090 
 24 C        3.4820     8.6670    -0.6480 C.3   1 <1>  -0.1600 
 25 C        5.9830     8.7730    -0.1220 C.3   1 <1>  -0.1600 
 26 C        4.7370     9.5540    -0.5740 C.3   1 <1>  -0.1600 
 27 H        1.0260     0.0680     2.2500 H     1 <1>   0.4000 
 28 H        0.8930    -0.0080     0.0340 H     1 <1>   0.0800 
 29 H        2.3440    -1.8860     1.3960 H     1 <1>   0.0800 
 30 H        2.6600     1.9470    -0.1140 H     1 <1>   0.0800 
 31 H        2.7390     0.7130    -1.3540 H     1 <1>   0.0800 
 32 H        4.6290    -1.5820    -0.2130 H     1 <1>   0.0800 
 33 H        4.5080    -1.1630     1.4770 H     1 <1>   0.0800 
 34 H        2.5370    -1.7610    -1.6290 H     1 <1>   0.0800 
 35 H        1.1290    -2.2880    -0.7660 H     1 <1>   0.0800 
 36 H        4.8830     0.5910    -0.6360 H     1 <1>   0.4500 
 37 H        4.0450     1.0920     2.1590 H     1 <1>   0.0800 
 38 H        5.6900     0.9280     1.5990 H     1 <1>   0.0800 
 39 H        0.8860    -4.5580    -0.3310 H     1 <1>   0.1500 
 40 H        5.5650    -5.1610    -0.7980 H     1 <1>   0.1500 
 41 H        2.9820     3.2140     2.1130 H     1 <1>   0.1500 
 42 H        6.5100     2.6780    -0.2000 H     1 <1>   0.1500 
 43 H        4.0970    -7.0500    -0.4450 H     1 <1>   0.1500 
 44 H        2.6310     6.9140     0.2370 H     1 <1>   0.0800 
 45 H        3.5920     7.8600     1.3450 H     1 <1>   0.0800 
 46 H        6.8250     6.8080    -0.1820 H     1 <1>   0.0800 
 47 H        5.8880     7.2100    -1.5990 H     1 <1>   0.0800 
 48 H        3.3860     8.2610    -1.6400 H     1 <1>   0.0800 
 49 H        2.6070     9.2610    -0.4550 H     1 <1>   0.0800 
 50 H        6.0670     8.8180     0.9500 H     1 <1>   0.0800 
 51 H        6.8650     9.2280    -0.5340 H     1 <1>   0.0800 
 52 H        4.5690    10.3630     0.1170 H     1 <1>   0.0800 
 53 H        4.9110     9.9850    -1.5450 H     1 <1>   0.0800 
@<TRIPOS>BOND
  1   1   2  1   
  2   1  27  1   
  3   2   3  1   
  4   2   4  1   
  5   2  28  1   
  6   3   5  1   
  7   3   6  1   
  8   3  29  1   
  9   4   7  1   
 10   4  30  1   
 11   4  31  1   
 12   5   7  1   
 13   5  32  1   
 14   5  33  1   
 15   6   8  1   
 16   6  34  1   
 17   6  35  1   
 18   7   9  1   
 19   7  36  1   
 20   8  10  ar  
 21   8  11  ar  
 22   9  12  1   
 23   9  37  1   
 24   9  38  1   
 25  10  13  ar  
 26  11  14  ar  
 27  11  39  1   
 28  12  15  ar  
 29  12  16  ar  
 30  13  17  ar  
 31  13  40  1   
 32  14  17  ar  
 33  15  18  ar  
 34  15  41  1   
 35  16  19  ar  
 36  16  42  1   
 37  17  43  1   
 38  18  20  ar  
 39  19  20  ar  
 40  20  21  1   
 41  21  22  1   
 42  21  23  1   
 43  22  24  1   
 44  22  44  1   
 45  22  45  1   
 46  23  25  1   
 47  23  46  1   
 48  23  47  1   
 49  24  26  1   
 50  24  48  1   
 51  24  49  1   
 52  25  26  1   
 53  25  50  1   
 54  25  51  1   
 55  26  52  1   
 56  26  53  1   
@<TRIPOS>SUBSTRUCTURE
  1 ****   7 GROUP 4 **** **** 0

# MOE 2024.06 (io_trps.svl 2023.06)
