@<TRIPOS>MOLECULE
NONAME
48 52 1 0 0 
SMALL
USER_CHARGES


@<TRIPOS>ATOM
  1 O       -2.7630     0.0150     0.5860 O.2   1 <1>  -0.5700 
  2 C       -2.9210     0.9940    -0.1260 C.2   1 <1>   0.5440 
  3 N       -3.8630     0.8650    -1.1190 N.am  1 <1>  -0.6600 
  4 C       -2.2160     2.2420     0.1070 C.ar  1 <1>   0.0860 
  5 C       -5.2690     1.2160    -0.7540 C.3   1 <1>   0.1400 
  6 C       -3.7860    -0.3460    -2.0020 C.3   1 <1>   0.1400 
  7 C       -2.3220     3.3180    -0.7650 C.ar  1 <1>  -0.1500 
  8 C       -1.3950     2.3990     1.2470 C.ar  1 <1>  -0.1500 
  9 C       -5.9550     0.0530     0.0180 C.3   1 <1>   0.4230 
 10 C       -4.7220    -1.4820    -1.5200 C.3   1 <1>   0.3430 
 11 C       -1.6520     4.5150    -0.5130 C.ar  1 <1>   0.0000 
 12 C       -0.7260     3.5700     1.5110 C.ar  1 <1>  -0.1500 
 13 N       -5.1810    -1.2400    -0.1100 N.4   1 <1>  -0.9590 
 14 C       -7.4240    -0.1350    -0.4260 C.3   1 <1>   0.1200 
 15 C       -0.8590     4.6370     0.6220 C.ar  1 <1>  -0.1520 
 16 C       -1.5710     5.7510    -1.1900 C.2   1 <1>  -0.1500 
 17 C       -5.8990    -2.3610     0.5620 C.3   1 <1>   0.5180 
 18 O       -8.0150    -1.2090     0.2510 O.3   1 <1>  -0.5600 
 19 N       -0.3170     5.8950     0.6380 N.pl3 1 <1>   0.0330 
 20 C       -0.7590     6.5610    -0.4700 C.2   1 <1>  -0.3020 
 21 C       -5.1390    -3.6750     0.3440 C.3   1 <1>  -0.1950 
 22 C       -7.3690    -2.4470     0.0950 C.3   1 <1>   0.1200 
 23 C       -4.9840    -4.6480     1.4730 C.3   1 <1>  -0.2000 
 24 C       -3.7880    -3.9040     0.9520 C.3   1 <1>  -0.2000 
 25 H       -5.2790     2.1030    -0.1430 H     1 <1>   0.0800 
 26 H       -5.8150     1.4430    -1.6540 H     1 <1>   0.0800 
 27 H       -4.0330    -0.0740    -3.0140 H     1 <1>   0.0800 
 28 H       -2.7730    -0.7130    -2.0090 H     1 <1>   0.0800 
 29 H       -2.9190     3.2540    -1.6550 H     1 <1>   0.1500 
 30 H       -1.2950     1.5710     1.9270 H     1 <1>   0.1500 
 31 H       -5.9750     0.3320     1.0580 H     1 <1>   0.0800 
 32 H       -4.1870    -2.4150    -1.5860 H     1 <1>   0.0800 
 33 H       -5.5750    -1.5450    -2.1750 H     1 <1>   0.0800 
 34 H       -0.1050     3.6720     2.3840 H     1 <1>   0.1500 
 35 H       -4.2940    -1.0670     0.4090 H     1 <1>   0.4500 
 36 H       -7.4930    -0.3180    -1.4840 H     1 <1>   0.0800 
 37 H       -7.9970     0.7460    -0.1940 H     1 <1>   0.0800 
 38 H       -2.0780     5.9710    -2.1130 H     1 <1>   0.1500 
 39 H       -5.9110    -2.1650     1.6220 H     1 <1>   0.0800 
 40 H        0.3130     6.2630     1.3590 H     1 <1>   0.2700 
 41 H       -0.4670     7.5760    -0.6800 H     1 <1>   0.1500 
 42 H       -5.3370    -4.1170    -0.6180 H     1 <1>   0.1000 
 43 H       -7.8990    -3.1690     0.6910 H     1 <1>   0.0800 
 44 H       -7.4330    -2.7430    -0.9370 H     1 <1>   0.0800 
 45 H       -5.3390    -4.4010     2.4600 H     1 <1>   0.1000 
 46 H       -5.0520    -5.7040     1.2710 H     1 <1>   0.1000 
 47 H       -3.0470    -4.4600     0.4010 H     1 <1>   0.1000 
 48 H       -3.3440    -3.1540     1.5860 H     1 <1>   0.1000 
@<TRIPOS>BOND
  1   1   2  2   
  2   2   3  am  
  3   2   4  1   
  4   3   5  1   
  5   3   6  1   
  6   4   7  ar  
  7   4   8  ar  
  8   5   9  1   
  9   5  25  1   
 10   5  26  1   
 11   6  10  1   
 12   6  27  1   
 13   6  28  1   
 14   7  11  ar  
 15   7  29  1   
 16   8  12  ar  
 17   8  30  1   
 18   9  13  1   
 19   9  14  1   
 20   9  31  1   
 21  10  13  1   
 22  10  32  1   
 23  10  33  1   
 24  11  15  ar  
 25  11  16  1   
 26  12  15  ar  
 27  12  34  1   
 28  13  17  1   
 29  13  35  1   
 30  14  18  1   
 31  14  36  1   
 32  14  37  1   
 33  15  19  1   
 34  16  20  2   
 35  16  38  1   
 36  17  21  1   
 37  17  22  1   
 38  17  39  1   
 39  18  22  1   
 40  19  20  1   
 41  19  40  1   
 42  20  41  1   
 43  21  23  1   
 44  21  24  1   
 45  21  42  1   
 46  22  43  1   
 47  22  44  1   
 48  23  24  1   
 49  23  45  1   
 50  23  46  1   
 51  24  47  1   
 52  24  48  1   
@<TRIPOS>SUBSTRUCTURE
  1 ****   2 GROUP 4 **** **** 0

# MOE 2024.06 (io_trps.svl 2023.06)
