@<TRIPOS>MOLECULE
NONAME
37 38 1 0 0 
SMALL
USER_CHARGES


@<TRIPOS>ATOM
  1 F       -1.1740    -0.3160    -0.9210 F     1 <1>  -0.1900 
  2 C       -1.8680    -0.9480    -0.0160 C.ar  1 <1>   0.1900 
  3 C       -1.7520    -2.3260     0.1430 C.ar  1 <1>  -0.1440 
  4 C       -2.7110    -0.1690     0.7500 C.ar  1 <1>  -0.1500 
  5 C       -2.5610    -2.9270     1.1220 C.ar  1 <1>  -0.1440 
  6 C       -0.7780    -3.1570    -0.7130 C.3   1 <1>   1.1640 
  7 C       -3.4820    -0.7720     1.7220 C.ar  1 <1>  -0.1500 
  8 C       -3.4040    -2.1410     1.9030 C.ar  1 <1>  -0.1500 
  9 C       -2.5750    -4.4330     1.3890 C.3   1 <1>   0.4860 
 10 F        0.0220    -2.5030    -1.5380 F     1 <1>  -0.3400 
 11 F       -1.4460    -4.0270    -1.4590 F     1 <1>  -0.3400 
 12 F        0.0150    -3.8880     0.0600 F     1 <1>  -0.3400 
 13 N       -3.8960    -4.9830     1.0040 N.4   1 <1>  -0.9590 
 14 C       -4.0700    -6.3960     1.5260 C.3   1 <1>   0.3430 
 15 C       -4.1360    -4.9130    -0.4700 C.3   1 <1>   0.3430 
 16 C       -5.0630    -7.2480     0.7100 C.3   1 <1>   0.2000 
 17 C       -5.6040    -5.2310    -0.7630 C.3   1 <1>  -0.1600 
 18 O       -4.3710    -7.8340    -0.3350 O.3   1 <1>  -0.6800 
 19 C       -6.1720    -6.3710     0.1210 C.3   1 <1>  -0.1860 
 20 C       -7.1620    -7.2330    -0.6260 C.2   1 <1>   0.9060 
 21 O       -8.3510    -7.1260    -0.3380 O.co2 1 <1>  -0.9000 
 22 O       -6.7210    -8.0170    -1.4750 O.co2 1 <1>  -0.9000 
 23 H       -2.7580     0.8950     0.5870 H     1 <1>   0.1500 
 24 H       -4.1390    -0.1750     2.3340 H     1 <1>   0.1500 
 25 H       -4.0150    -2.5820     2.6730 H     1 <1>   0.1500 
 26 H       -2.4050    -4.6000     2.4410 H     1 <1>   0.0800 
 27 H       -1.8010    -4.9440     0.8430 H     1 <1>   0.0800 
 28 H       -4.6310    -4.4030     1.4210 H     1 <1>   0.4500 
 29 H       -3.1260    -6.9150     1.5260 H     1 <1>   0.0800 
 30 H       -4.4220    -6.3480     2.5420 H     1 <1>   0.0800 
 31 H       -3.8990    -3.9350    -0.8560 H     1 <1>   0.0800 
 32 H       -3.5120    -5.6380    -0.9710 H     1 <1>   0.0800 
 33 H       -5.4750    -8.0440     1.3090 H     1 <1>   0.0800 
 34 H       -6.2100    -4.3500    -0.6470 H     1 <1>   0.0800 
 35 H       -5.6700    -5.5190    -1.7990 H     1 <1>   0.0800 
 36 H       -5.0770    -8.1500    -0.9820 H     1 <1>   0.4000 
 37 H       -6.7110    -5.9320     0.9400 H     1 <1>   0.0800 
@<TRIPOS>BOND
  1   1   2  1   
  2   2   3  ar  
  3   2   4  ar  
  4   3   5  ar  
  5   3   6  1   
  6   4   7  ar  
  7   4  23  1   
  8   5   8  ar  
  9   5   9  1   
 10   6  10  1   
 11   6  11  1   
 12   6  12  1   
 13   7   8  ar  
 14   7  24  1   
 15   8  25  1   
 16   9  13  1   
 17   9  26  1   
 18   9  27  1   
 19  13  14  1   
 20  13  15  1   
 21  13  28  1   
 22  14  16  1   
 23  14  29  1   
 24  14  30  1   
 25  15  17  1   
 26  15  31  1   
 27  15  32  1   
 28  16  18  1   
 29  16  19  1   
 30  16  33  1   
 31  17  19  1   
 32  17  34  1   
 33  17  35  1   
 34  18  36  1   
 35  19  20  1   
 36  19  37  1   
 37  20  21  ar  
 38  20  22  ar  
@<TRIPOS>SUBSTRUCTURE
  1 ****  15 GROUP 4 **** **** 0

# MOE 2024.06 (io_trps.svl 2023.06)
