@<TRIPOS>MOLECULE
NONAME
39 42 1 0 0 
SMALL
USER_CHARGES


@<TRIPOS>ATOM
  1 S       -1.1250     0.4220     0.8070 S.3   1 <1>  -0.0800 
  2 C       -0.5670     1.9530     0.1650 C.2   1 <1>  -0.1400 
  3 C        0.4280     0.1630     1.5900 C.2   1 <1>  -0.1100 
  4 C        0.6990     2.2130     0.5190 C.2   1 <1>  -0.1810 
  5 C       -1.4380     2.8460    -0.6760 C.3   1 <1>   0.0200 
  6 C        1.2690     1.1870     1.3450 C.2   1 <1>  -0.1500 
  7 C        1.4000     3.4920     0.0540 C.3   1 <1>   0.4610 
  8 C       -0.7930     4.2410    -0.6780 C.3   1 <1>   0.1200 
  9 O        0.5940     4.1580    -0.9040 O.3   1 <1>  -0.5600 
 10 C        1.6660     4.4350     1.2360 C.3   1 <1>  -0.1600 
 11 C        2.7100     3.1530    -0.6640 C.3   1 <1>  -0.1600 
 12 C        2.4380     5.6760     0.7940 C.3   1 <1>   0.2090 
 13 C        3.4590     4.4190    -1.0750 C.3   1 <1>   0.2090 
 14 N        3.7000     5.2480     0.1330 N.pl3 1 <1>  -0.8380 
 15 C        4.7570     6.1330     0.0870 C.ar  1 <1>   0.4100 
 16 N        4.4670     7.4250     0.0360 N.ar  1 <1>  -0.6200 
 17 C        6.0590     5.6420     0.0890 C.ar  1 <1>  -0.1500 
 18 C        5.4940     8.2720    -0.0220 C.ar  1 <1>   0.3830 
 19 C        7.1230     6.5070     0.0290 C.ar  1 <1>  -0.1500 
 20 C        5.2160     9.6840    -0.0800 C.1   1 <1>   0.4840 
 21 C        6.8190     7.8510    -0.0290 C.ar  1 <1>  -0.1500 
 22 N        5.0480    10.8130    -0.1260 N.1   1 <1>  -0.5570 
 23 H        0.5470    -0.7420     2.1590 H     1 <1>   0.1500 
 24 H       -2.4290     2.9020    -0.2630 H     1 <1>   0.0800 
 25 H       -1.4990     2.4610    -1.6780 H     1 <1>   0.0800 
 26 H        2.2770     1.2630     1.7150 H     1 <1>   0.1500 
 27 H       -0.9570     4.7320     0.2650 H     1 <1>   0.0800 
 28 H       -1.2180     4.8460    -1.4590 H     1 <1>   0.0800 
 29 H        2.2520     3.9190     1.9730 H     1 <1>   0.0800 
 30 H        0.7440     4.7180     1.7040 H     1 <1>   0.0800 
 31 H        2.4940     2.5550    -1.5290 H     1 <1>   0.0800 
 32 H        3.3440     2.5790    -0.0160 H     1 <1>   0.0800 
 33 H        2.6660     6.2880     1.6500 H     1 <1>   0.0800 
 34 H        1.8510     6.2590     0.1040 H     1 <1>   0.0800 
 35 H        2.8760     4.9830    -1.7850 H     1 <1>   0.0800 
 36 H        4.3940     4.1560    -1.5400 H     1 <1>   0.0800 
 37 H        6.2100     4.5810     0.1430 H     1 <1>   0.1500 
 38 H        8.1410     6.1550     0.0280 H     1 <1>   0.1500 
 39 H        7.6120     8.5770    -0.0770 H     1 <1>   0.1500 
@<TRIPOS>BOND
  1   1   2  1   
  2   1   3  1   
  3   2   4  2   
  4   2   5  1   
  5   3   6  2   
  6   3  23  1   
  7   4   6  1   
  8   4   7  1   
  9   5   8  1   
 10   5  24  1   
 11   5  25  1   
 12   6  26  1   
 13   7   9  1   
 14   7  10  1   
 15   7  11  1   
 16   8   9  1   
 17   8  27  1   
 18   8  28  1   
 19  10  12  1   
 20  10  29  1   
 21  10  30  1   
 22  11  13  1   
 23  11  31  1   
 24  11  32  1   
 25  12  14  1   
 26  12  33  1   
 27  12  34  1   
 28  13  14  1   
 29  13  35  1   
 30  13  36  1   
 31  14  15  1   
 32  15  16  ar  
 33  15  17  ar  
 34  16  18  ar  
 35  17  19  ar  
 36  17  37  1   
 37  18  20  1   
 38  18  21  ar  
 39  19  21  ar  
 40  19  38  1   
 41  20  22  3   
 42  21  39  1   
@<TRIPOS>SUBSTRUCTURE
  1 ****  14 GROUP 4 **** **** 0

# MOE 2024.06 (io_trps.svl 2023.06)
