@<TRIPOS>MOLECULE
NONAME
43 44 1 0 0 
SMALL
USER_CHARGES


@<TRIPOS>ATOM
  1 O       -0.5690     1.9560    -2.1420 O.3   1 <1>  -0.6800 
  2 C       -0.1010     2.8010    -1.1380 C.3   1 <1>   0.2000 
  3 C       -1.2080     3.0310    -0.0710 C.3   1 <1>   0.0000 
  4 C        1.1970     2.2160    -0.5510 C.3   1 <1>   0.2090 
  5 C       -0.5890     3.8970     1.0580 C.3   1 <1>  -0.1600 
  6 C       -1.6710     1.6550     0.4910 C.3   1 <1>   0.1200 
  7 C       -2.4490     3.7510    -0.6800 C.3   1 <1>  -0.1600 
  8 N        1.6800     3.0120     0.6240 N.pl3 1 <1>  -0.8380 
  9 C        0.6710     3.2770     1.6770 C.3   1 <1>   0.2090 
 10 O       -2.6200     1.8040     1.4960 O.3   1 <1>  -0.6800 
 11 C       -2.1850     5.0660    -1.4390 C.3   1 <1>  -0.1600 
 12 C        2.6070     4.0080     0.3910 C.ar  1 <1>   0.4100 
 13 C       -3.4970     5.6760    -1.9380 C.3   1 <1>  -0.2400 
 14 N        2.3900     4.8130    -0.6420 N.ar  1 <1>  -0.6200 
 15 C        3.7000     4.1370     1.2430 C.ar  1 <1>  -0.1500 
 16 C        3.2810     5.7680    -0.8360 C.ar  1 <1>   0.1670 
 17 C        4.6220     5.1350     1.0360 C.ar  1 <1>  -0.1500 
 18 C        4.3970     5.9700    -0.0390 C.ar  1 <1>  -0.1500 
 19 C        3.0200     6.6740    -2.0200 C.3   1 <1>  -0.0970 
 20 H       -1.3270     2.3780    -2.5900 H     1 <1>   0.4000 
 21 H        0.1620     3.7330    -1.6040 H     1 <1>   0.0800 
 22 H        1.9550     2.2190    -1.3150 H     1 <1>   0.0800 
 23 H        1.0380     1.1990    -0.2420 H     1 <1>   0.0800 
 24 H       -1.3100     4.0800     1.8320 H     1 <1>   0.0800 
 25 H       -0.3010     4.8550     0.6660 H     1 <1>   0.0800 
 26 H       -0.8500     1.0940     0.8980 H     1 <1>   0.0800 
 27 H       -2.1220     1.0640    -0.2880 H     1 <1>   0.0800 
 28 H       -2.9490     3.0720    -1.3490 H     1 <1>   0.0800 
 29 H       -3.1460     3.9600     0.1140 H     1 <1>   0.0800 
 30 H        0.4380     2.3580     2.1850 H     1 <1>   0.0800 
 31 H        1.0810     3.9590     2.4030 H     1 <1>   0.0800 
 32 H       -2.2690     2.3560     2.2190 H     1 <1>   0.4000 
 33 H       -1.6990     5.7810    -0.7980 H     1 <1>   0.0800 
 34 H       -1.5480     4.8930    -2.2880 H     1 <1>   0.0800 
 35 H       -4.1500     5.8950    -1.1110 H     1 <1>   0.0800 
 36 H       -3.9990     4.9980    -2.6060 H     1 <1>   0.0800 
 37 H       -3.2990     6.5920    -2.4670 H     1 <1>   0.0800 
 38 H        3.8040     3.4430     2.0540 H     1 <1>   0.1500 
 39 H        5.4770     5.2580     1.6770 H     1 <1>   0.1500 
 40 H        5.0850     6.7670    -0.2510 H     1 <1>   0.1500 
 41 H        3.7860     7.4210    -2.1160 H     1 <1>   0.0800 
 42 H        2.0710     7.1620    -1.8950 H     1 <1>   0.0800 
 43 H        2.9910     6.0860    -2.9200 H     1 <1>   0.0800 
@<TRIPOS>BOND
  1   1   2  1   
  2   1  20  1   
  3   2   3  1   
  4   2   4  1   
  5   2  21  1   
  6   3   5  1   
  7   3   6  1   
  8   3   7  1   
  9   4   8  1   
 10   4  22  1   
 11   4  23  1   
 12   5   9  1   
 13   5  24  1   
 14   5  25  1   
 15   6  10  1   
 16   6  26  1   
 17   6  27  1   
 18   7  11  1   
 19   7  28  1   
 20   7  29  1   
 21   8   9  1   
 22   8  12  1   
 23   9  30  1   
 24   9  31  1   
 25  10  32  1   
 26  11  13  1   
 27  11  33  1   
 28  11  34  1   
 29  12  14  ar  
 30  12  15  ar  
 31  13  35  1   
 32  13  36  1   
 33  13  37  1   
 34  14  16  ar  
 35  15  17  ar  
 36  15  38  1   
 37  16  18  ar  
 38  16  19  1   
 39  17  18  ar  
 40  17  39  1   
 41  18  40  1   
 42  19  41  1   
 43  19  42  1   
 44  19  43  1   
@<TRIPOS>SUBSTRUCTURE
  1 ****   8 GROUP 4 **** **** 0

# MOE 2024.06 (io_trps.svl 2023.06)
