@<TRIPOS>MOLECULE
NONAME
31 32 1 0 0 
SMALL
USER_CHARGES


@<TRIPOS>ATOM
  1 O        4.7270    -1.2130     1.7990 O.2   1 <1>  -0.5700 
  2 C        5.2560    -1.1830     0.7190 C.2   1 <1>   0.6590 
  3 O        5.9470    -2.2010     0.2290 O.3   1 <1>  -0.4300 
  4 C        5.1590     0.0440    -0.1650 C.3   1 <1>  -0.0190 
  5 C        6.1220    -3.4010     0.9560 C.3   1 <1>   0.0400 
  6 C        6.3970     0.9540    -0.2020 C.3   1 <1>   0.0000 
  7 C        4.0330     0.9590     0.3070 C.3   1 <1>   0.3430 
  8 C        5.8070     2.3010    -0.6350 C.3   1 <1>   0.3430 
  9 C        7.1470     1.1200     1.1310 C.3   1 <1>  -0.1600 
 10 C        7.5040     0.4970    -1.1570 C.3   1 <1>  -0.1600 
 11 N        4.4420     2.3540    -0.0400 N.4   1 <1>  -0.9060 
 12 C        8.5170     1.6790     0.7440 C.3   1 <1>  -0.1600 
 13 C        8.7570     1.2570    -0.7120 C.3   1 <1>  -0.1600 
 14 H        4.9240    -0.2850    -1.1610 H     1 <1>   0.0800 
 15 H        6.7130    -4.0770     0.3630 H     1 <1>   0.0800 
 16 H        5.1570    -3.8330     1.1570 H     1 <1>   0.0800 
 17 H        6.6290    -3.1800     1.8800 H     1 <1>   0.0800 
 18 H        3.9200     0.8770     1.3770 H     1 <1>   0.0800 
 19 H        3.0990     0.6900    -0.1610 H     1 <1>   0.0800 
 20 H        5.7340     2.3250    -1.7110 H     1 <1>   0.0800 
 21 H        6.4210     3.1240    -0.3060 H     1 <1>   0.0800 
 22 H        7.3090     0.1610     1.5950 H     1 <1>   0.0800 
 23 H        6.6400     1.7550     1.8380 H     1 <1>   0.0800 
 24 H        7.2740     0.6770    -2.1930 H     1 <1>   0.0800 
 25 H        7.6830    -0.5570    -1.0260 H     1 <1>   0.0800 
 26 H        4.4620     2.9210     0.8180 H     1 <1>   0.4500 
 27 H        3.7740     2.7940    -0.6860 H     1 <1>   0.4500 
 28 H        9.2860     1.2910     1.3920 H     1 <1>   0.0800 
 29 H        8.5220     2.7530     0.8180 H     1 <1>   0.0800 
 30 H        8.9090     2.1290    -1.3260 H     1 <1>   0.0800 
 31 H        9.6290     0.6290    -0.7940 H     1 <1>   0.0800 
@<TRIPOS>BOND
  1   1   2  2   
  2   2   3  1   
  3   2   4  1   
  4   3   5  1   
  5   4   6  1   
  6   4   7  1   
  7   4  14  1   
  8   5  15  1   
  9   5  16  1   
 10   5  17  1   
 11   6   8  1   
 12   6   9  1   
 13   6  10  1   
 14   7  11  1   
 15   7  18  1   
 16   7  19  1   
 17   8  11  1   
 18   8  20  1   
 19   8  21  1   
 20   9  12  1   
 21   9  22  1   
 22   9  23  1   
 23  10  13  1   
 24  10  24  1   
 25  10  25  1   
 26  11  26  1   
 27  11  27  1   
 28  12  13  1   
 29  12  28  1   
 30  12  29  1   
 31  13  30  1   
 32  13  31  1   
@<TRIPOS>SUBSTRUCTURE
  1 ****   6 GROUP 4 **** **** 0

# MOE 2024.06 (io_trps.svl 2023.06)
