@<TRIPOS>MOLECULE
NONAME
52 55 1 0 0 
SMALL
USER_CHARGES


@<TRIPOS>ATOM
  1 O        0.4840     0.1390    -0.2510 O.3   1 <1>  -0.5600 
  2 C        1.7580    -0.4450    -0.3020 C.3   1 <1>   0.3440 
  3 C        0.4830     1.5030    -0.5540 C.3   1 <1>   0.2950 
  4 C        1.6520    -1.9340     0.0180 C.ar  1 <1>  -0.1440 
  5 C        2.7010     0.2590     0.6960 C.3   1 <1>   0.1100 
  6 C       -0.9690     1.9880    -0.4870 C.3   1 <1>  -0.1950 
  7 C        1.3830     2.2720     0.4360 C.3   1 <1>   0.1100 
  8 C        2.4990    -2.8350    -0.6120 C.ar  1 <1>  -0.1500 
  9 C        0.7310    -2.4100     0.9420 C.ar  1 <1>  -0.1500 
 10 N        2.7550     1.7200     0.4730 N.3   1 <1>  -0.8100 
 11 C       -1.9050     1.7870    -1.6360 C.3   1 <1>  -0.2000 
 12 C       -1.4270     3.1690    -1.2860 C.3   1 <1>  -0.2000 
 13 C        2.4300    -4.1870    -0.3220 C.ar  1 <1>  -0.1500 
 14 C        0.6600    -3.7620     1.2330 C.ar  1 <1>  -0.1500 
 15 C        3.6220     2.3850     1.4740 C.3   1 <1>   0.2530 
 16 C        1.5110    -4.6510     0.6010 C.ar  1 <1>  -0.1500 
 17 C        3.7640     3.8930     1.2570 C.ar  1 <1>   0.1670 
 18 N        4.6410     4.3230     0.3720 N.ar  1 <1>  -0.6200 
 19 C        2.9970     4.7750     1.9830 C.ar  1 <1>  -0.1500 
 20 C        4.7260     5.6360     0.2160 C.ar  1 <1>   0.4770 
 21 C        3.1690     6.1160     1.7470 C.ar  1 <1>   0.1600 
 22 N        4.0310     6.5630     0.8630 N.ar  1 <1>  -0.6200 
 23 C        5.7420     6.1230    -0.8270 C.3   1 <1>   0.0630 
 24 C        6.8500     6.9780    -0.1900 C.3   1 <1>  -0.2400 
 25 C        5.0640     6.8980    -1.9690 C.3   1 <1>  -0.2400 
 26 H        2.1360    -0.3220    -1.3020 H     1 <1>   0.0800 
 27 H        0.8600     1.6260    -1.5550 H     1 <1>   0.0800 
 28 H        3.6880    -0.1550     0.5880 H     1 <1>   0.0800 
 29 H        2.3590     0.0490     1.6950 H     1 <1>   0.0800 
 30 H       -1.3810     1.8790     0.5010 H     1 <1>   0.1000 
 31 H        0.9410     2.2280     1.4160 H     1 <1>   0.0800 
 32 H        1.4190     3.3020     0.1260 H     1 <1>   0.0800 
 33 H        3.2190    -2.4890    -1.3340 H     1 <1>   0.1500 
 34 H        0.0620    -1.7260     1.4340 H     1 <1>   0.1500 
 35 H       -1.5310     1.3100    -2.5260 H     1 <1>   0.1000 
 36 H       -2.9240     1.5120    -1.4210 H     1 <1>   0.1000 
 37 H       -2.1250     3.8570    -0.8430 H     1 <1>   0.1000 
 38 H       -0.7380     3.6540    -1.9570 H     1 <1>   0.1000 
 39 H        3.0900    -4.8780    -0.8160 H     1 <1>   0.1500 
 40 H       -0.0590    -4.1190     1.9490 H     1 <1>   0.1500 
 41 H        3.2330     2.2030     2.4600 H     1 <1>   0.0800 
 42 H        4.6060     1.9510     1.4240 H     1 <1>   0.0800 
 43 H        1.4560    -5.7020     0.8270 H     1 <1>   0.1500 
 44 H        2.2850     4.4320     2.7090 H     1 <1>   0.1500 
 45 H        2.5890     6.8400     2.2930 H     1 <1>   0.1500 
 46 H        6.2100     5.2540    -1.2580 H     1 <1>   0.0800 
 47 H        6.4340     7.8750     0.2330 H     1 <1>   0.0800 
 48 H        7.5850     7.2490    -0.9260 H     1 <1>   0.0800 
 49 H        7.3340     6.4230     0.5930 H     1 <1>   0.0800 
 50 H        4.6010     7.7930    -1.5920 H     1 <1>   0.0800 
 51 H        4.3050     6.2860    -2.4230 H     1 <1>   0.0800 
 52 H        5.7840     7.1680    -2.7200 H     1 <1>   0.0800 
@<TRIPOS>BOND
  1   1   2  1   
  2   1   3  1   
  3   2   4  1   
  4   2   5  1   
  5   2  26  1   
  6   3   6  1   
  7   3   7  1   
  8   3  27  1   
  9   4   8  ar  
 10   4   9  ar  
 11   5  10  1   
 12   5  28  1   
 13   5  29  1   
 14   6  11  1   
 15   6  12  1   
 16   6  30  1   
 17   7  10  1   
 18   7  31  1   
 19   7  32  1   
 20   8  13  ar  
 21   8  33  1   
 22   9  14  ar  
 23   9  34  1   
 24  10  15  1   
 25  11  12  1   
 26  11  35  1   
 27  11  36  1   
 28  12  37  1   
 29  12  38  1   
 30  13  16  ar  
 31  13  39  1   
 32  14  16  ar  
 33  14  40  1   
 34  15  17  1   
 35  15  41  1   
 36  15  42  1   
 37  16  43  1   
 38  17  18  ar  
 39  17  19  ar  
 40  18  20  ar  
 41  19  21  ar  
 42  19  44  1   
 43  20  22  ar  
 44  20  23  1   
 45  21  22  ar  
 46  21  45  1   
 47  23  24  1   
 48  23  25  1   
 49  23  46  1   
 50  24  47  1   
 51  24  48  1   
 52  24  49  1   
 53  25  50  1   
 54  25  51  1   
 55  25  52  1   
@<TRIPOS>SUBSTRUCTURE
  1 ****  10 GROUP 4 **** **** 0

# MOE 2024.06 (io_trps.svl 2023.06)
