@<TRIPOS>MOLECULE
NONAME
57 61 1 0 0 
SMALL
USER_CHARGES


@<TRIPOS>ATOM
  1 O       -1.3450     4.3520     2.6340 O.2   1 <1>  -0.5700 
  2 C       -0.9680     3.8030     1.6080 C.2   1 <1>   0.7160 
  3 N       -1.9470     3.3160     0.7530 N.am  1 <1>  -0.6600 
  4 C        0.4700     3.7020     1.3500 C.2   1 <1>   0.2030 
  5 C       -3.3850     3.7150     0.9220 C.3   1 <1>   0.1400 
  6 C       -1.6280     2.4360    -0.4110 C.3   1 <1>   0.1400 
  7 N        1.0810     3.4420     0.2030 N.2   1 <1>  -0.7070 
  8 C        1.4300     3.8990     2.3530 C.2   1 <1>  -0.1500 
  9 C       -4.0710     3.9360    -0.4400 C.3   1 <1>   0.1430 
 10 C       -2.8710     1.6900    -0.9070 C.3   1 <1>  -0.1600 
 11 N        2.3960     3.4700     0.4650 N.pl3 1 <1>   0.3140 
 12 C        2.6290     3.7440     1.7620 C.2   1 <1>  -0.3020 
 13 C       -5.4830     4.4370    -0.1830 C.ar  1 <1>   0.1670 
 14 C       -4.0360     2.6300    -1.2800 C.3   1 <1>  -0.1600 
 15 C       -3.4340     5.1430    -1.1920 C.3   1 <1>  -0.1600 
 16 C        3.4140     3.2240    -0.5940 C.3   1 <1>   0.1760 
 17 N       -6.4900     3.7060     0.2340 N.ar  1 <1>  -0.6200 
 18 C       -5.5920     5.7740    -0.4150 C.ar  1 <1>  -0.1440 
 19 C       -4.2860     6.3790    -0.8600 C.3   1 <1>  -0.0170 
 20 C        4.2550     1.9830    -0.2640 C.3   1 <1>  -0.2400 
 21 C        4.3060     4.4580    -0.7900 C.3   1 <1>  -0.2400 
 22 C       -7.6510     4.3500     0.4100 C.ar  1 <1>   0.6200 
 23 C       -6.8130     6.3620    -0.2120 C.ar  1 <1>   0.1600 
 24 N       -7.8450     5.6600     0.1980 N.ar  1 <1>  -0.6200 
 25 C       -8.7910     3.5650     0.8660 C.ar  1 <1>   0.0000 
 26 C       -8.9010     2.1990     0.5890 C.ar  1 <1>  -0.1500 
 27 C       -9.8310     4.1410     1.6040 C.ar  1 <1>  -0.1500 
 28 C       -9.9810     1.4510     1.0200 C.ar  1 <1>  -0.1500 
 29 C      -10.9150     3.4000     2.0380 C.ar  1 <1>  -0.1500 
 30 C      -10.9930     2.0510     1.7470 C.ar  1 <1>  -0.1500 
 31 H       -3.4540     4.6190     1.5020 H     1 <1>   0.0800 
 32 H       -3.9020     2.9410     1.4610 H     1 <1>   0.0800 
 33 H       -0.8770     1.7190    -0.1230 H     1 <1>   0.0800 
 34 H       -1.2250     3.0400    -1.2060 H     1 <1>   0.0800 
 35 H        1.2060     4.1290     3.3800 H     1 <1>   0.1500 
 36 H       -3.1900     1.0230    -0.1240 H     1 <1>   0.0800 
 37 H       -2.6110     1.0830    -1.7560 H     1 <1>   0.0800 
 38 H        3.6150     3.8140     2.1820 H     1 <1>   0.1500 
 39 H       -3.9900     2.8620    -2.3280 H     1 <1>   0.0800 
 40 H       -4.9490     2.0810    -1.1320 H     1 <1>   0.0800 
 41 H       -3.4890     4.9860    -2.2540 H     1 <1>   0.0800 
 42 H       -2.4020     5.3020    -0.9330 H     1 <1>   0.0800 
 43 H        2.8790     3.0400    -1.5100 H     1 <1>   0.0800 
 44 H       -4.4100     7.0170    -1.7170 H     1 <1>   0.0800 
 45 H       -3.8480     6.9340    -0.0480 H     1 <1>   0.0800 
 46 H        4.8220     2.1330     0.6380 H     1 <1>   0.0800 
 47 H        4.9400     1.7780    -1.0670 H     1 <1>   0.0800 
 48 H        3.6140     1.1280    -0.1410 H     1 <1>   0.0800 
 49 H        4.8740     4.6650     0.0990 H     1 <1>   0.0800 
 50 H        3.6990     5.3130    -1.0310 H     1 <1>   0.0800 
 51 H        4.9910     4.2910    -1.6020 H     1 <1>   0.0800 
 52 H       -6.9470     7.4160    -0.3840 H     1 <1>   0.1500 
 53 H       -8.1240     1.7140     0.0230 H     1 <1>   0.1500 
 54 H       -9.7880     5.1900     1.8410 H     1 <1>   0.1500 
 55 H      -10.0340     0.4010     0.7900 H     1 <1>   0.1500 
 56 H      -11.6990     3.8740     2.6030 H     1 <1>   0.1500 
 57 H      -11.8350     1.4710     2.0830 H     1 <1>   0.1500 
@<TRIPOS>BOND
  1   1   2  2   
  2   2   3  am  
  3   2   4  1   
  4   3   5  1   
  5   3   6  1   
  6   4   7  2   
  7   4   8  1   
  8   5   9  1   
  9   5  31  1   
 10   5  32  1   
 11   6  10  1   
 12   6  33  1   
 13   6  34  1   
 14   7  11  1   
 15   8  12  2   
 16   8  35  1   
 17   9  13  1   
 18   9  14  1   
 19   9  15  1   
 20  10  14  1   
 21  10  36  1   
 22  10  37  1   
 23  11  12  1   
 24  11  16  1   
 25  12  38  1   
 26  13  17  ar  
 27  13  18  ar  
 28  14  39  1   
 29  14  40  1   
 30  15  19  1   
 31  15  41  1   
 32  15  42  1   
 33  16  20  1   
 34  16  21  1   
 35  16  43  1   
 36  17  22  ar  
 37  18  19  1   
 38  18  23  ar  
 39  19  44  1   
 40  19  45  1   
 41  20  46  1   
 42  20  47  1   
 43  20  48  1   
 44  21  49  1   
 45  21  50  1   
 46  21  51  1   
 47  22  24  ar  
 48  22  25  1   
 49  23  24  ar  
 50  23  52  1   
 51  25  26  ar  
 52  25  27  ar  
 53  26  28  ar  
 54  26  53  1   
 55  27  29  ar  
 56  27  54  1   
 57  28  30  ar  
 58  28  55  1   
 59  29  30  ar  
 60  29  56  1   
 61  30  57  1   
@<TRIPOS>SUBSTRUCTURE
  1 ****   5 GROUP 4 **** **** 0

# MOE 2024.06 (io_trps.svl 2023.06)
