@<TRIPOS>MOLECULE
NONAME
50 53 1 0 0 
SMALL
USER_CHARGES


@<TRIPOS>ATOM
  1 S        0.2370     0.2970    -1.9800 S.o2  1 <1>   1.4470 
  2 O       -0.5870    -0.6820    -2.6570 O.2   1 <1>  -0.6500 
  3 O        0.8700     1.3440    -2.7530 O.2   1 <1>  -0.6500 
  4 N       -0.7020     1.0510    -0.7810 N.am  1 <1>  -0.8490 
  5 C        1.5110    -0.5500    -1.0040 C.ar  1 <1>  -0.0090 
  6 C       -1.5530     0.1330     0.0130 C.3   1 <1>   0.1960 
  7 C       -1.3850     2.2660    -1.2130 C.3   1 <1>   0.1960 
  8 C        2.2670     0.1170    -0.0740 C.ar  1 <1>  -0.1500 
  9 C        1.7560    -1.9240    -1.1860 C.ar  1 <1>  -0.1500 
 10 C       -3.0900     0.2770    -0.2060 C.3   1 <1>   0.0000 
 11 C       -2.6030     1.9500    -2.0950 C.3   1 <1>  -0.1600 
 12 C        3.2610    -0.5200     0.6960 C.ar  1 <1>   0.0000 
 13 C        2.7130    -2.5760    -0.4570 C.ar  1 <1>  -0.1500 
 14 C       -3.7890     1.2570     0.7660 C.3   1 <1>   0.2000 
 15 C       -3.3670     0.6800    -1.6750 C.3   1 <1>  -0.1600 
 16 C       -3.8070    -1.0480     0.1040 C.3   1 <1>  -0.1600 
 17 C        3.4900    -1.8970     0.5000 C.ar  1 <1>   0.0000 
 18 C        4.0350     0.1660     1.6530 C.ar  1 <1>  -0.1500 
 19 O       -3.2570     1.1100     2.0510 O.3   1 <1>  -0.5600 
 20 C       -5.2530     0.8030     0.8070 C.3   1 <1>  -0.1600 
 21 C       -5.2570    -0.6880     0.4440 C.3   1 <1>  -0.1600 
 22 C        4.4840    -2.5360     1.2680 C.ar  1 <1>  -0.1500 
 23 C        4.9940    -0.4780     2.3850 C.ar  1 <1>  -0.1500 
 24 C       -3.3760     2.2290     2.8720 C.3   1 <1>   0.0400 
 25 C        5.2210    -1.8450     2.1910 C.ar  1 <1>  -0.1500 
 26 H       -1.2790    -0.8810    -0.2210 H     1 <1>   0.0800 
 27 H       -1.3120     0.2660     1.0520 H     1 <1>   0.0800 
 28 H       -1.7060     2.7980    -0.3350 H     1 <1>   0.0800 
 29 H       -0.7050     2.9160    -1.7390 H     1 <1>   0.0800 
 30 H        2.1020     1.1690     0.0840 H     1 <1>   0.1500 
 31 H        1.1710    -2.4580    -1.9160 H     1 <1>   0.1500 
 32 H       -3.2650     2.7970    -2.0650 H     1 <1>   0.0800 
 33 H       -2.2780     1.8430    -3.1160 H     1 <1>   0.0800 
 34 H        2.8880    -3.6260    -0.6070 H     1 <1>   0.1500 
 35 H       -3.6900     2.2820     0.4550 H     1 <1>   0.0800 
 36 H       -3.0470    -0.1270    -2.3120 H     1 <1>   0.0800 
 37 H       -4.4180     0.8140    -1.8590 H     1 <1>   0.0800 
 38 H       -3.7460    -1.7530    -0.7080 H     1 <1>   0.0800 
 39 H       -3.3590    -1.4940     0.9760 H     1 <1>   0.0800 
 40 H        3.8570     1.2170     1.7980 H     1 <1>   0.1500 
 41 H       -5.7040     0.9770     1.7680 H     1 <1>   0.0800 
 42 H       -5.8110     1.3460     0.0650 H     1 <1>   0.0800 
 43 H       -5.6080    -1.2850     1.2680 H     1 <1>   0.0800 
 44 H       -5.8940    -0.8570    -0.4060 H     1 <1>   0.0800 
 45 H        4.6550    -3.5860     1.1140 H     1 <1>   0.1500 
 46 H        5.5820     0.0510     3.1150 H     1 <1>   0.1500 
 47 H       -2.9670     1.9800     3.8360 H     1 <1>   0.0800 
 48 H       -4.4140     2.4920     2.9760 H     1 <1>   0.0800 
 49 H       -2.8190     3.0430     2.4430 H     1 <1>   0.0800 
 50 H        5.9790    -2.3380     2.7740 H     1 <1>   0.1500 
@<TRIPOS>BOND
  1   1   2  2   
  2   1   3  2   
  3   1   4  am  
  4   1   5  1   
  5   4   6  1   
  6   4   7  1   
  7   5   8  ar  
  8   5   9  ar  
  9   6  10  1   
 10   6  26  1   
 11   6  27  1   
 12   7  11  1   
 13   7  28  1   
 14   7  29  1   
 15   8  12  ar  
 16   8  30  1   
 17   9  13  ar  
 18   9  31  1   
 19  10  14  1   
 20  10  15  1   
 21  10  16  1   
 22  11  15  1   
 23  11  32  1   
 24  11  33  1   
 25  12  17  ar  
 26  12  18  ar  
 27  13  17  ar  
 28  13  34  1   
 29  14  19  1   
 30  14  20  1   
 31  14  35  1   
 32  15  36  1   
 33  15  37  1   
 34  16  21  1   
 35  16  38  1   
 36  16  39  1   
 37  17  22  ar  
 38  18  23  ar  
 39  18  40  1   
 40  19  24  1   
 41  20  21  1   
 42  20  41  1   
 43  20  42  1   
 44  21  43  1   
 45  21  44  1   
 46  22  25  ar  
 47  22  45  1   
 48  23  25  ar  
 49  23  46  1   
 50  24  47  1   
 51  24  48  1   
 52  24  49  1   
 53  25  50  1   
@<TRIPOS>SUBSTRUCTURE
  1 ****   6 GROUP 4 **** **** 0

# MOE 2024.06 (io_trps.svl 2023.06)
