@<TRIPOS>MOLECULE
NONAME
46 48 1 0 0 
SMALL
USER_CHARGES


@<TRIPOS>ATOM
  1 O       -0.7600     0.2530     2.4810 O.2   1 <1>  -0.5700 
  2 C       -1.5190     0.9280     1.8090 C.2   1 <1>   0.5440 
  3 N       -2.4300     0.2900     0.9860 N.am  1 <1>  -0.6600 
  4 C       -1.4780     2.3620     1.9620 C.ar  1 <1>   0.0860 
  5 C       -3.5160     1.0330     0.2770 C.3   1 <1>   0.2200 
  6 C       -2.3880    -1.1990     0.8550 C.3   1 <1>   0.0600 
  7 C       -1.0330     3.2070     0.9380 C.ar  1 <1>   0.3920 
  8 C       -1.8940     2.9530     3.1460 C.ar  1 <1>  -0.1500 
  9 C       -4.9180     0.5030     0.5590 C.3   1 <1>  -0.1600 
 10 C       -3.3920     0.9890    -1.2430 C.3   1 <1>  -0.1600 
 11 O       -0.5900     2.6380    -0.2010 O.3   1 <1>  -0.3630 
 12 N       -1.0180     4.5390     1.0050 N.ar  1 <1>  -0.6200 
 13 C       -1.8660     4.3270     3.2330 C.ar  1 <1>  -0.1500 
 14 C       -5.7670     1.0550    -0.5930 C.3   1 <1>  -0.0800 
 15 C       -4.7940     1.3480    -1.7510 C.3   1 <1>  -0.0800 
 16 C       -0.0520     3.4000    -1.2590 C.3   1 <1>   0.1200 
 17 C       -1.4280     5.0630     2.1460 C.ar  1 <1>   0.1600 
 18 C       -6.4540     2.3870    -0.2590 C.3   1 <1>  -0.1600 
 19 C       -4.9530     2.8390    -2.0870 C.3   1 <1>  -0.1600 
 20 C        0.4030     2.4390    -2.3540 C.3   1 <1>  -0.2400 
 21 C       -6.3130     3.2190    -1.5230 C.3   1 <1>   0.2000 
 22 O       -6.3400     4.5610    -1.2150 O.3   1 <1>  -0.6800 
 23 H       -3.5090     2.0680     0.5690 H     1 <1>   0.0800 
 24 H       -2.8130    -1.5220    -0.0760 H     1 <1>   0.0800 
 25 H       -2.9350    -1.6440     1.6670 H     1 <1>   0.0800 
 26 H       -1.3690    -1.5430     0.8990 H     1 <1>   0.0800 
 27 H       -2.2240     2.3410     3.9680 H     1 <1>   0.1500 
 28 H       -4.9360    -0.5700     0.5060 H     1 <1>   0.0800 
 29 H       -5.2760     0.8150     1.5240 H     1 <1>   0.0800 
 30 H       -2.6410     1.6700    -1.6010 H     1 <1>   0.0800 
 31 H       -3.1480    -0.0020    -1.5750 H     1 <1>   0.0800 
 32 H       -2.1790     4.8260     4.1330 H     1 <1>   0.1500 
 33 H       -6.5060     0.3340    -0.9020 H     1 <1>   0.0800 
 34 H       -5.0500     0.7520    -2.6120 H     1 <1>   0.0800 
 35 H       -0.8150     4.0680    -1.6210 H     1 <1>   0.0800 
 36 H        0.7800     3.9690    -0.8780 H     1 <1>   0.0800 
 37 H       -1.4130     6.1370     2.2230 H     1 <1>   0.1500 
 38 H       -5.9450     2.8750     0.5540 H     1 <1>   0.0800 
 39 H       -7.4880     2.2420    -0.0020 H     1 <1>   0.0800 
 40 H       -4.9110     3.0080    -3.1480 H     1 <1>   0.0800 
 41 H       -4.1840     3.4140    -1.6010 H     1 <1>   0.0800 
 42 H       -0.4320     1.8720    -2.7230 H     1 <1>   0.0800 
 43 H        1.1500     1.7690    -1.9670 H     1 <1>   0.0800 
 44 H        0.8290     2.9940    -3.1700 H     1 <1>   0.0800 
 45 H       -7.1020     3.0000    -2.2240 H     1 <1>   0.0800 
 46 H       -5.6010     4.7790    -0.6190 H     1 <1>   0.4000 
@<TRIPOS>BOND
  1   1   2  2   
  2   2   3  am  
  3   2   4  1   
  4   3   5  1   
  5   3   6  1   
  6   4   7  ar  
  7   4   8  ar  
  8   5   9  1   
  9   5  10  1   
 10   5  23  1   
 11   6  24  1   
 12   6  25  1   
 13   6  26  1   
 14   7  11  1   
 15   7  12  ar  
 16   8  13  ar  
 17   8  27  1   
 18   9  14  1   
 19   9  28  1   
 20   9  29  1   
 21  10  15  1   
 22  10  30  1   
 23  10  31  1   
 24  11  16  1   
 25  12  17  ar  
 26  13  17  ar  
 27  13  32  1   
 28  14  15  1   
 29  14  18  1   
 30  14  33  1   
 31  15  19  1   
 32  15  34  1   
 33  16  20  1   
 34  16  35  1   
 35  16  36  1   
 36  17  37  1   
 37  18  21  1   
 38  18  38  1   
 39  18  39  1   
 40  19  21  1   
 41  19  40  1   
 42  19  41  1   
 43  20  42  1   
 44  20  43  1   
 45  20  44  1   
 46  21  22  1   
 47  21  45  1   
 48  22  46  1   
@<TRIPOS>SUBSTRUCTURE
  1 ****   5 GROUP 4 **** **** 0

# MOE 2024.06 (io_trps.svl 2023.06)
