@<TRIPOS>MOLECULE
NONAME
44 46 1 0 0 
SMALL
USER_CHARGES


@<TRIPOS>ATOM
  1 O        1.6370     0.7670    -1.1190 O.3   1 <1>  -0.6800 
  2 C        1.5900     0.1810     0.1320 C.3   1 <1>   0.2800 
  3 C        3.0180     0.1140     0.7560 C.3   1 <1>  -0.0800 
  4 C        1.0320    -1.2400    -0.0720 C.3   1 <1>  -0.1600 
  5 C        0.6060     1.0150     0.9820 C.3   1 <1>  -0.1600 
  6 C        3.7510    -1.2250     0.5730 C.3   1 <1>  -0.0800 
  7 C        4.0250     1.1570     0.2560 C.3   1 <1>   0.2090 
  8 C        1.9270    -2.1350    -0.9560 C.3   1 <1>  -0.1600 
  9 C        0.9930     2.4890     1.1950 C.3   1 <1>  -0.2400 
 10 C        3.4310    -1.8420    -0.7990 C.3   1 <1>  -0.1600 
 11 C        5.2360    -0.8880     0.7340 C.3   1 <1>   0.2090 
 12 N        5.3600     0.5800     0.5400 N.pl3 1 <1>  -0.8380 
 13 C        6.5460     1.1390     0.0780 C.ar  1 <1>   0.4100 
 14 N        7.6260     0.3630     0.1150 N.ar  1 <1>  -0.6200 
 15 C        6.5930     2.4570    -0.3830 C.ar  1 <1>  -0.1500 
 16 C        8.7530     0.8970    -0.3190 C.ar  1 <1>   0.1600 
 17 C        7.7720     3.0070    -0.8350 C.ar  1 <1>  -0.1440 
 18 C        8.8820     2.1870    -0.7970 C.ar  1 <1>  -0.1500 
 19 C        7.8560     4.4340    -1.3430 C.3   1 <1>   0.2630 
 20 O        8.6790     5.1380    -0.4880 O.3   1 <1>  -0.6800 
 21 H        0.7610     0.6980    -1.5380 H     1 <1>   0.4000 
 22 H        2.9250     0.2570     1.8170 H     1 <1>   0.0800 
 23 H        0.9490    -1.7030     0.8960 H     1 <1>   0.0800 
 24 H        0.0390    -1.2020    -0.4830 H     1 <1>   0.0800 
 25 H       -0.3660     0.9800     0.5230 H     1 <1>   0.0800 
 26 H        0.5080     0.5500     1.9480 H     1 <1>   0.0800 
 27 H        3.4630    -1.9240     1.3390 H     1 <1>   0.0800 
 28 H        3.8980     2.0940     0.7660 H     1 <1>   0.0800 
 29 H        3.9430     1.3070    -0.8060 H     1 <1>   0.0800 
 30 H        1.7340    -3.1650    -0.7100 H     1 <1>   0.0800 
 31 H        1.6630    -1.9960    -1.9910 H     1 <1>   0.0800 
 32 H        1.1480     2.9830     0.2510 H     1 <1>   0.0800 
 33 H        1.8890     2.5690     1.7820 H     1 <1>   0.0800 
 34 H        0.2040     3.0000     1.7190 H     1 <1>   0.0800 
 35 H        3.7340    -1.1470    -1.5650 H     1 <1>   0.0800 
 36 H        3.9930    -2.7470    -0.9430 H     1 <1>   0.0800 
 37 H        5.8360    -1.4260     0.0190 H     1 <1>   0.0800 
 38 H        5.5730    -1.1320     1.7270 H     1 <1>   0.0800 
 39 H        5.6980     3.0450    -0.3810 H     1 <1>   0.1500 
 40 H        9.6260     0.2690    -0.2910 H     1 <1>   0.1500 
 41 H        9.8380     2.5470    -1.1310 H     1 <1>   0.1500 
 42 H        6.8890     4.9060    -1.3460 H     1 <1>   0.0800 
 43 H        8.2800     4.4740    -2.3320 H     1 <1>   0.0800 
 44 H        8.4960     4.8500     0.4280 H     1 <1>   0.4000 
@<TRIPOS>BOND
  1   1   2  1   
  2   1  21  1   
  3   2   3  1   
  4   2   4  1   
  5   2   5  1   
  6   3   6  1   
  7   3   7  1   
  8   3  22  1   
  9   4   8  1   
 10   4  23  1   
 11   4  24  1   
 12   5   9  1   
 13   5  25  1   
 14   5  26  1   
 15   6  10  1   
 16   6  11  1   
 17   6  27  1   
 18   7  12  1   
 19   7  28  1   
 20   7  29  1   
 21   8  10  1   
 22   8  30  1   
 23   8  31  1   
 24   9  32  1   
 25   9  33  1   
 26   9  34  1   
 27  10  35  1   
 28  10  36  1   
 29  11  12  1   
 30  11  37  1   
 31  11  38  1   
 32  12  13  1   
 33  13  14  ar  
 34  13  15  ar  
 35  14  16  ar  
 36  15  17  ar  
 37  15  39  1   
 38  16  18  ar  
 39  16  40  1   
 40  17  18  ar  
 41  17  19  1   
 42  18  41  1   
 43  19  20  1   
 44  19  42  1   
 45  19  43  1   
 46  20  44  1   
@<TRIPOS>SUBSTRUCTURE
  1 ****   7 GROUP 4 **** **** 0

# MOE 2024.06 (io_trps.svl 2023.06)
