@<TRIPOS>MOLECULE
NONAME
49 51 1 0 0 
SMALL
USER_CHARGES


@<TRIPOS>ATOM
  1 CL      -3.2960    -3.2720    -4.1050 Cl    1 <1>  -0.1770 
  2 C       -2.2910    -3.9510    -2.8510 C.ar  1 <1>   0.1770 
  3 C       -2.8910    -4.5860    -1.7830 C.ar  1 <1>  -0.1500 
  4 C       -0.9160    -3.8440    -2.9480 C.ar  1 <1>  -0.1500 
  5 C       -2.1010    -5.1380    -0.7850 C.ar  1 <1>   0.0820 
  6 C       -0.1260    -4.3860    -1.9480 C.ar  1 <1>  -0.1500 
  7 O       -2.7480    -5.7650     0.2280 O.3   1 <1>  -0.3630 
  8 C       -0.7130    -5.0310    -0.8700 C.ar  1 <1>  -0.1500 
  9 C       -2.0630    -6.1670     1.4020 C.3   1 <1>   0.1200 
 10 C       -3.0390    -6.9070     2.3270 C.3   1 <1>   0.2090 
 11 N       -3.3670    -8.2920     1.8370 N.pl3 1 <1>  -0.8380 
 12 C       -4.2980    -8.6090     0.8930 C.ar  1 <1>   0.7710 
 13 C       -2.7090    -9.3690     2.6510 C.3   1 <1>   0.1290 
 14 N       -4.7800    -9.8430     0.8420 N.ar  1 <1>  -0.6200 
 15 N       -4.7020    -7.6640     0.0290 N.ar  1 <1>  -0.1790 
 16 C       -5.7000   -10.1310    -0.0600 C.ar  1 <1>   0.4100 
 17 C       -5.6190    -7.9160    -0.9320 C.ar  1 <1>   0.2110 
 18 N       -6.2110   -11.3920    -0.0670 N.pl3 1 <1>  -0.8380 
 19 C       -6.1360    -9.1650    -0.9880 C.ar  1 <1>  -0.1500 
 20 C       -7.6140   -11.7300    -0.4480 C.3   1 <1>   0.2090 
 21 C       -5.4500   -12.5650     0.4660 C.3   1 <1>   0.2090 
 22 C       -7.5950   -12.8000    -1.5390 C.3   1 <1>  -0.1600 
 23 C       -5.4110   -13.6660    -0.5950 C.3   1 <1>  -0.1600 
 24 C       -6.8250   -14.0270    -1.0500 C.3   1 <1>   0.2000 
 25 O       -6.7380   -14.9290    -2.0850 O.3   1 <1>  -0.6800 
 26 H       -3.9610    -4.6370    -1.7380 H     1 <1>   0.1500 
 27 H       -0.4750    -3.3420    -3.7910 H     1 <1>   0.1500 
 28 H        0.9460    -4.3060    -2.0120 H     1 <1>   0.1500 
 29 H       -0.0670    -5.4400    -0.1170 H     1 <1>   0.1500 
 30 H       -1.6870    -5.2810     1.8850 H     1 <1>   0.0800 
 31 H       -1.2450    -6.8150     1.1380 H     1 <1>   0.0800 
 32 H       -3.9400    -6.3280     2.4460 H     1 <1>   0.0800 
 33 H       -2.5890    -6.9790     3.3040 H     1 <1>   0.0800 
 34 H       -1.6880    -9.1040     2.8680 H     1 <1>   0.0800 
 35 H       -2.6980   -10.3070     2.1230 H     1 <1>   0.0800 
 36 H       -3.2410    -9.5040     3.5780 H     1 <1>   0.0800 
 37 H       -4.1920    -6.7830     0.0960 H     1 <1>   0.4570 
 38 H       -5.8960    -7.1310    -1.6170 H     1 <1>   0.1500 
 39 H       -6.8540    -9.4390    -1.7370 H     1 <1>   0.1500 
 40 H       -8.1520   -10.8640    -0.7870 H     1 <1>   0.0800 
 41 H       -8.1280   -12.1100     0.4200 H     1 <1>   0.0800 
 42 H       -5.9340   -12.9250     1.3580 H     1 <1>   0.0800 
 43 H       -4.4410   -12.2890     0.7200 H     1 <1>   0.0800 
 44 H       -7.1330   -12.3920    -2.4190 H     1 <1>   0.0800 
 45 H       -8.6050   -13.0830    -1.7750 H     1 <1>   0.0800 
 46 H       -4.9340   -14.5360    -0.1810 H     1 <1>   0.0800 
 47 H       -4.8280   -13.3160    -1.4270 H     1 <1>   0.0800 
 48 H       -7.3620   -14.5040    -0.2460 H     1 <1>   0.0800 
 49 H       -6.2200   -14.5490    -2.8190 H     1 <1>   0.4000 
@<TRIPOS>BOND
  1   1   2  1   
  2   2   3  ar  
  3   2   4  ar  
  4   3   5  ar  
  5   3  26  1   
  6   4   6  ar  
  7   4  27  1   
  8   5   7  1   
  9   5   8  ar  
 10   6   8  ar  
 11   6  28  1   
 12   7   9  1   
 13   8  29  1   
 14   9  10  1   
 15   9  30  1   
 16   9  31  1   
 17  10  11  1   
 18  10  32  1   
 19  10  33  1   
 20  11  12  1   
 21  11  13  1   
 22  12  14  ar  
 23  12  15  ar  
 24  13  34  1   
 25  13  35  1   
 26  13  36  1   
 27  14  16  ar  
 28  15  17  ar  
 29  15  37  1   
 30  16  18  1   
 31  16  19  ar  
 32  17  19  ar  
 33  17  38  1   
 34  18  20  1   
 35  18  21  1   
 36  19  39  1   
 37  20  22  1   
 38  20  40  1   
 39  20  41  1   
 40  21  23  1   
 41  21  42  1   
 42  21  43  1   
 43  22  24  1   
 44  22  44  1   
 45  22  45  1   
 46  23  24  1   
 47  23  46  1   
 48  23  47  1   
 49  24  25  1   
 50  24  48  1   
 51  25  49  1   
@<TRIPOS>SUBSTRUCTURE
  1 ****  15 GROUP 4 **** **** 0

# MOE 2024.06 (io_trps.svl 2023.06)
