@<TRIPOS>MOLECULE
NONAME
56 58 1 0 0 
SMALL
USER_CHARGES


@<TRIPOS>ATOM
  1 S        0.4810    -0.3700     1.0880 S.3   1 <1>  -0.0800 
  2 C       -0.2540     1.1480     0.6200 C.2   1 <1>  -0.0450 
  3 C       -0.6420    -1.2340     0.0690 C.2   1 <1>   0.1980 
  4 C       -1.2650     0.8490    -0.2320 C.2   1 <1>   0.0460 
  5 C        0.3010     2.3630     1.1560 C.2   1 <1>   0.7150 
  6 N       -1.4630    -0.4780    -0.5410 N.2   1 <1>  -0.5650 
  7 C       -0.5500    -2.7560    -0.0020 C.3   1 <1>   0.1000 
  8 C       -2.2370     1.8060    -0.8950 C.3   1 <1>  -0.0590 
  9 O        1.0080     2.3690     2.1500 O.2   1 <1>  -0.5700 
 10 N        0.1850     3.5560     0.4880 N.am  1 <1>  -0.6600 
 11 C       -0.8200    -3.4000     1.3640 C.3   1 <1>  -0.2400 
 12 C        0.8040    -3.2150    -0.5580 C.3   1 <1>  -0.2400 
 13 C        0.9850     3.7570    -0.7590 C.3   1 <1>   0.1400 
 14 C       -0.2200     4.8050     1.1930 C.3   1 <1>   0.1400 
 15 C        2.5010     3.8040    -0.4640 C.3   1 <1>   0.3430 
 16 C        0.9320     5.4540     1.9800 C.3   1 <1>  -0.1600 
 17 N        2.8050     4.2380     0.9400 N.4   1 <1>  -0.9590 
 18 C        2.2610     5.5900     1.2330 C.3   1 <1>   0.3430 
 19 C        4.2740     4.1660     1.2310 C.3   1 <1>   0.5240 
 20 C        5.1260     4.9790     0.2470 C.2   1 <1>   0.1080 
 21 N        4.7280     6.0500    -0.3840 N.2   1 <1>  -0.7070 
 22 C        6.4370     4.6500    -0.0770 C.2   1 <1>  -0.1500 
 23 N        5.7890     6.4410    -1.1200 N.pl3 1 <1>   0.3140 
 24 C        6.8270     5.6010    -0.9500 C.2   1 <1>  -0.3020 
 25 C        5.7680     7.6460    -1.9770 C.3   1 <1>   0.0960 
 26 C        6.3900     8.8480    -1.2560 C.3   1 <1>  -0.2400 
 27 H       -1.3170    -3.0860    -0.6810 H     1 <1>   0.0800 
 28 H       -2.1180     2.8090    -0.5370 H     1 <1>   0.0800 
 29 H       -3.2440     1.4900    -0.6860 H     1 <1>   0.0800 
 30 H       -2.0900     1.7890    -1.9600 H     1 <1>   0.0800 
 31 H       -0.0570    -3.1290     2.0720 H     1 <1>   0.0800 
 32 H       -0.8420    -4.4710     1.2740 H     1 <1>   0.0800 
 33 H       -1.7720    -3.0690     1.7410 H     1 <1>   0.0800 
 34 H        1.6040    -2.9400     0.1060 H     1 <1>   0.0800 
 35 H        0.9790    -2.7590    -1.5170 H     1 <1>   0.0800 
 36 H        0.8120    -4.2830    -0.6820 H     1 <1>   0.0800 
 37 H        0.6880     4.6760    -1.2340 H     1 <1>   0.0800 
 38 H        0.7830     2.9600    -1.4540 H     1 <1>   0.0800 
 39 H       -1.0230     4.5750     1.8750 H     1 <1>   0.0800 
 40 H       -0.6060     5.5050     0.4710 H     1 <1>   0.0800 
 41 H        2.9810     4.4630    -1.1700 H     1 <1>   0.0800 
 42 H        2.9050     2.8170    -0.6200 H     1 <1>   0.0800 
 43 H        1.0920     4.9090     2.8940 H     1 <1>   0.0800 
 44 H        0.6120     6.4390     2.2710 H     1 <1>   0.0800 
 45 H        2.3010     3.5810     1.5700 H     1 <1>   0.4500 
 46 H        2.9560     6.1340     1.8520 H     1 <1>   0.0800 
 47 H        2.1340     6.1480     0.3190 H     1 <1>   0.0800 
 48 H        4.5940     3.1390     1.1920 H     1 <1>   0.0800 
 49 H        4.4590     4.5300     2.2280 H     1 <1>   0.0800 
 50 H        7.0130     3.8190     0.2940 H     1 <1>   0.1500 
 51 H        7.7730     5.7280    -1.4470 H     1 <1>   0.1500 
 52 H        4.7470     7.8610    -2.2340 H     1 <1>   0.0800 
 53 H        6.3110     7.4340    -2.8800 H     1 <1>   0.0800 
 54 H        5.8430     9.0650    -0.3550 H     1 <1>   0.0800 
 55 H        6.3540     9.7140    -1.8930 H     1 <1>   0.0800 
 56 H        7.4180     8.6490    -1.0090 H     1 <1>   0.0800 
@<TRIPOS>BOND
  1   1   2  1   
  2   1   3  1   
  3   2   4  2   
  4   2   5  1   
  5   3   6  2   
  6   3   7  1   
  7   4   6  1   
  8   4   8  1   
  9   5   9  2   
 10   5  10  am  
 11   7  11  1   
 12   7  12  1   
 13   7  27  1   
 14   8  28  1   
 15   8  29  1   
 16   8  30  1   
 17  10  13  1   
 18  10  14  1   
 19  11  31  1   
 20  11  32  1   
 21  11  33  1   
 22  12  34  1   
 23  12  35  1   
 24  12  36  1   
 25  13  15  1   
 26  13  37  1   
 27  13  38  1   
 28  14  16  1   
 29  14  39  1   
 30  14  40  1   
 31  15  17  1   
 32  15  41  1   
 33  15  42  1   
 34  16  18  1   
 35  16  43  1   
 36  16  44  1   
 37  17  18  1   
 38  17  19  1   
 39  17  45  1   
 40  18  46  1   
 41  18  47  1   
 42  19  20  1   
 43  19  48  1   
 44  19  49  1   
 45  20  21  2   
 46  20  22  1   
 47  21  23  1   
 48  22  24  2   
 49  22  50  1   
 50  23  24  1   
 51  23  25  1   
 52  24  51  1   
 53  25  26  1   
 54  25  52  1   
 55  25  53  1   
 56  26  54  1   
 57  26  55  1   
 58  26  56  1   
@<TRIPOS>SUBSTRUCTURE
  1 ****  15 GROUP 4 **** **** 0

# MOE 2024.06 (io_trps.svl 2023.06)
