@<TRIPOS>MOLECULE
NONAME
61 64 1 0 0 
SMALL
USER_CHARGES


@<TRIPOS>ATOM
  1 O       -1.0970    -1.9090    -1.1430 O.2   1 <1>  -0.5700 
  2 C       -1.8250    -1.0800    -0.6170 C.2   1 <1>   0.6160 
  3 N       -2.2120     0.0620    -1.2980 N.am  1 <1>  -0.4770 
  4 C       -2.3260    -1.3030     0.7030 C.2   1 <1>  -0.1240 
  5 C       -3.1590     0.9500    -0.7450 C.ar  1 <1>   0.1170 
  6 C       -1.5940     0.3680    -2.6260 C.3   1 <1>   0.0600 
  7 C       -3.2080    -0.4450     1.2650 C.2   1 <1>  -0.1780 
  8 C       -1.8230    -2.5280     1.4430 C.3   1 <1>   0.4810 
  9 C       -3.6620     0.7030     0.5480 C.ar  1 <1>   0.0280 
 10 C       -3.6300     2.0740    -1.4330 C.ar  1 <1>  -0.1500 
 11 N       -2.1730    -3.7890     0.7250 N.4   1 <1>  -0.9590 
 12 C       -4.5950     1.5800     1.1040 C.ar  1 <1>  -0.1500 
 13 C       -4.5530     2.9270    -0.8690 C.ar  1 <1>  -0.1500 
 14 C       -2.1820    -5.0460     1.4980 C.3   1 <1>   0.4230 
 15 C       -3.5150    -3.9210     0.1530 C.3   1 <1>   0.4230 
 16 C       -5.0380     2.6810     0.4070 C.ar  1 <1>  -0.1500 
 17 C       -2.4250    -6.0840     0.3710 C.3   1 <1>   0.0610 
 18 C       -3.4450    -4.8300     2.3640 C.3   1 <1>  -0.1600 
 19 C       -3.3930    -5.2810    -0.5490 C.3   1 <1>  -0.1600 
 20 C       -4.3840    -4.0810     1.4060 C.3   1 <1>  -0.1600 
 21 C       -2.9840    -7.3880     0.9450 C.2   1 <1>   0.5690 
 22 C       -1.1060    -6.4680    -0.3510 C.3   1 <1>  -0.0220 
 23 O       -2.5800    -7.7470     2.0240 O.2   1 <1>  -0.5700 
 24 N       -3.8750    -8.1340     0.2340 N.am  1 <1>  -0.7300 
 25 C       -0.2730    -5.2990    -0.8640 C.2   1 <1>  -0.2880 
 26 C       -4.4550    -9.4260     0.6890 C.3   1 <1>   0.0600 
 27 C        0.7880    -4.7350    -0.2740 C.2   1 <1>  -0.2760 
 28 C        1.5470    -3.5930    -0.9320 C.3   1 <1>  -0.1020 
 29 C        1.4030    -5.1260     1.0660 C.3   1 <1>  -0.1020 
 30 H       -1.1740     1.3580    -2.6090 H     1 <1>   0.0800 
 31 H       -2.3440     0.3100    -3.3950 H     1 <1>   0.0800 
 32 H       -0.8050    -0.3230    -2.8660 H     1 <1>   0.0800 
 33 H       -3.5990    -0.5830     2.2580 H     1 <1>   0.1500 
 34 H       -2.2530    -2.5350     2.4290 H     1 <1>   0.0800 
 35 H       -0.7510    -2.4660     1.5470 H     1 <1>   0.0800 
 36 H       -3.2810     2.2960    -2.4230 H     1 <1>   0.1500 
 37 H       -1.4770    -3.8770    -0.0420 H     1 <1>   0.4500 
 38 H       -4.9760     1.3960     2.0930 H     1 <1>   0.1500 
 39 H       -4.9030     3.7880    -1.4130 H     1 <1>   0.1500 
 40 H       -1.2820    -5.2310     2.0630 H     1 <1>   0.0800 
 41 H       -3.8070    -3.1120    -0.5000 H     1 <1>   0.0800 
 42 H       -5.7580     3.3520     0.8430 H     1 <1>   0.1500 
 43 H       -3.8870    -5.7400     2.7270 H     1 <1>   0.0800 
 44 H       -3.2080    -4.2290     3.2240 H     1 <1>   0.0800 
 45 H       -4.3630    -5.7330    -0.6510 H     1 <1>   0.0800 
 46 H       -2.9870    -5.1430    -1.5350 H     1 <1>   0.0800 
 47 H       -4.6620    -3.1200     1.8010 H     1 <1>   0.0800 
 48 H       -5.2820    -4.6380     1.1990 H     1 <1>   0.0800 
 49 H       -0.5070    -7.0600     0.3190 H     1 <1>   0.0800 
 50 H       -1.3300    -7.1130    -1.1830 H     1 <1>   0.0800 
 51 H       -4.1310    -7.8630    -0.7180 H     1 <1>   0.3700 
 52 H       -0.6230    -4.9470    -1.8220 H     1 <1>   0.1500 
 53 H       -4.1360    -9.6510     1.6930 H     1 <1>   0.0800 
 54 H       -4.1310   -10.2210     0.0390 H     1 <1>   0.0800 
 55 H       -5.5300    -9.3710     0.6720 H     1 <1>   0.0800 
 56 H        1.5220    -2.7150    -0.3120 H     1 <1>   0.0800 
 57 H        1.1170    -3.3430    -1.8860 H     1 <1>   0.0800 
 58 H        2.5730    -3.8730    -1.0930 H     1 <1>   0.0800 
 59 H        1.4360    -4.2750     1.7220 H     1 <1>   0.0800 
 60 H        2.4100    -5.4720     0.9130 H     1 <1>   0.0800 
 61 H        0.8600    -5.9080     1.5590 H     1 <1>   0.0800 
@<TRIPOS>BOND
  1   1   2  2   
  2   2   3  am  
  3   2   4  1   
  4   3   5  1   
  5   3   6  1   
  6   4   7  2   
  7   4   8  1   
  8   5   9  ar  
  9   5  10  ar  
 10   6  30  1   
 11   6  31  1   
 12   6  32  1   
 13   7   9  1   
 14   7  33  1   
 15   8  11  1   
 16   8  34  1   
 17   8  35  1   
 18   9  12  ar  
 19  10  13  ar  
 20  10  36  1   
 21  11  14  1   
 22  11  15  1   
 23  11  37  1   
 24  12  16  ar  
 25  12  38  1   
 26  13  16  ar  
 27  13  39  1   
 28  14  17  1   
 29  14  18  1   
 30  14  40  1   
 31  15  19  1   
 32  15  20  1   
 33  15  41  1   
 34  16  42  1   
 35  17  19  1   
 36  17  21  1   
 37  17  22  1   
 38  18  20  1   
 39  18  43  1   
 40  18  44  1   
 41  19  45  1   
 42  19  46  1   
 43  20  47  1   
 44  20  48  1   
 45  21  23  2   
 46  21  24  am  
 47  22  25  1   
 48  22  49  1   
 49  22  50  1   
 50  24  26  1   
 51  24  51  1   
 52  25  27  2   
 53  25  52  1   
 54  26  53  1   
 55  26  54  1   
 56  26  55  1   
 57  27  28  1   
 58  27  29  1   
 59  28  56  1   
 60  28  57  1   
 61  28  58  1   
 62  29  59  1   
 63  29  60  1   
 64  29  61  1   
@<TRIPOS>SUBSTRUCTURE
  1 ****  11 GROUP 4 **** **** 0

# MOE 2024.06 (io_trps.svl 2023.06)
