@<TRIPOS>MOLECULE
NONAME
48 50 1 0 0 
SMALL
USER_CHARGES


@<TRIPOS>ATOM
  1 S       -0.0670    -0.0310    -0.4180 S.o2  1 <1>   1.3330 
  2 O        1.1720    -0.7210    -0.1590 O.2   1 <1>  -0.6500 
  3 O       -0.4420     0.3280    -1.7660 O.2   1 <1>  -0.6500 
  4 N       -1.2280    -1.0980     0.1450 N.am  1 <1>  -0.9140 
  5 C       -0.2730     1.3680     0.6930 C.3   1 <1>  -0.0550 
  6 C       -1.7960    -1.9600    -0.8850 C.3   1 <1>   0.2760 
  7 C        0.6770     2.5720     0.5140 C.3   1 <1>  -0.0800 
  8 C       -2.9470    -2.7380    -0.2690 C.3   1 <1>  -0.0800 
  9 C       -0.8350    -3.0920    -1.2540 C.3   1 <1>   0.1200 
 10 C        0.5170     3.2470    -0.8540 C.3   1 <1>  -0.2400 
 11 C        2.1450     2.2020     0.7570 C.3   1 <1>  -0.2400 
 12 C       -2.2310    -3.9280     0.3790 C.3   1 <1>   0.1200 
 13 C       -3.9670    -3.1840    -1.3370 C.3   1 <1>  -0.0170 
 14 O       -1.0010    -4.0690    -0.2690 O.3   1 <1>  -0.5600 
 15 C       -5.1570    -3.9040    -0.7110 C.ar  1 <1>  -0.1440 
 16 C       -6.1810    -3.2160    -0.0170 C.ar  1 <1>   0.0000 
 17 C       -5.2620    -5.2610    -0.8050 C.ar  1 <1>  -0.1500 
 18 C       -7.2240    -3.9890     0.5510 C.ar  1 <1>   0.3100 
 19 C       -6.2350    -1.8110     0.1450 C.ar  1 <1>  -0.1500 
 20 C       -6.3420    -5.9280    -0.2150 C.ar  1 <1>   0.1600 
 21 N       -7.2890    -5.3390     0.4430 N.ar  1 <1>  -0.6200 
 22 C       -8.2440    -3.3360     1.2610 C.ar  1 <1>  -0.1500 
 23 C       -7.2470    -1.2060     0.8400 C.ar  1 <1>  -0.1500 
 24 C       -8.2640    -1.9760     1.4090 C.ar  1 <1>  -0.1500 
 25 H       -0.6940    -1.7340     0.7420 H     1 <1>   0.4200 
 26 H       -1.2800     1.7250     0.5950 H     1 <1>   0.0800 
 27 H       -0.1680     1.0140     1.7000 H     1 <1>   0.0800 
 28 H       -2.1130    -1.3870    -1.7410 H     1 <1>   0.0800 
 29 H        0.4030     3.2980     1.2620 H     1 <1>   0.0800 
 30 H       -3.4530    -2.1530     0.4780 H     1 <1>   0.0800 
 31 H        0.1960    -2.7890    -1.2930 H     1 <1>   0.0800 
 32 H       -1.1120    -3.5290    -2.1960 H     1 <1>   0.0800 
 33 H        0.8640     2.6080    -1.6470 H     1 <1>   0.0800 
 34 H        1.0900     4.1580    -0.8860 H     1 <1>   0.0800 
 35 H       -0.5140     3.4920    -1.0380 H     1 <1>   0.0800 
 36 H        2.5140     1.5450    -0.0110 H     1 <1>   0.0800 
 37 H        2.2610     1.7140     1.7090 H     1 <1>   0.0800 
 38 H        2.7550     3.0880     0.7580 H     1 <1>   0.0800 
 39 H       -2.7780    -4.8500     0.2950 H     1 <1>   0.0800 
 40 H       -2.0280    -3.7300     1.4180 H     1 <1>   0.0800 
 41 H       -3.4890    -3.8360    -2.0470 H     1 <1>   0.0800 
 42 H       -4.3230    -2.3310    -1.8890 H     1 <1>   0.0800 
 43 H       -4.5270    -5.8510    -1.3230 H     1 <1>   0.1500 
 44 H       -5.4680    -1.1980    -0.2870 H     1 <1>   0.1500 
 45 H       -6.3850    -7.0000    -0.3120 H     1 <1>   0.1500 
 46 H       -9.0180    -3.9480     1.6860 H     1 <1>   0.1500 
 47 H       -7.2740    -0.1360     0.9580 H     1 <1>   0.1500 
 48 H       -9.0530    -1.4890     1.9560 H     1 <1>   0.1500 
@<TRIPOS>BOND
  1   1   2  2   
  2   1   3  2   
  3   1   4  am  
  4   1   5  1   
  5   4   6  1   
  6   4  25  1   
  7   5   7  1   
  8   5  26  1   
  9   5  27  1   
 10   6   8  1   
 11   6   9  1   
 12   6  28  1   
 13   7  10  1   
 14   7  11  1   
 15   7  29  1   
 16   8  12  1   
 17   8  13  1   
 18   8  30  1   
 19   9  14  1   
 20   9  31  1   
 21   9  32  1   
 22  10  33  1   
 23  10  34  1   
 24  10  35  1   
 25  11  36  1   
 26  11  37  1   
 27  11  38  1   
 28  12  14  1   
 29  12  39  1   
 30  12  40  1   
 31  13  15  1   
 32  13  41  1   
 33  13  42  1   
 34  15  16  ar  
 35  15  17  ar  
 36  16  18  ar  
 37  16  19  ar  
 38  17  20  ar  
 39  17  43  1   
 40  18  21  ar  
 41  18  22  ar  
 42  19  23  ar  
 43  19  44  1   
 44  20  21  ar  
 45  20  45  1   
 46  22  24  ar  
 47  22  46  1   
 48  23  24  ar  
 49  23  47  1   
 50  24  48  1   
@<TRIPOS>SUBSTRUCTURE
  1 ****   8 GROUP 4 **** **** 0

# MOE 2024.06 (io_trps.svl 2023.06)
