@<TRIPOS>MOLECULE
NONAME
46 49 1 0 0 
SMALL
USER_CHARGES


@<TRIPOS>ATOM
  1 O        1.0730     1.3800    -1.3310 O.2   1 <1>  -0.5700 
  2 C        1.3340     0.2280    -1.0730 C.2   1 <1>   0.5690 
  3 N        2.2570    -0.0630    -0.0970 N.am  1 <1>  -0.6600 
  4 C        0.6330    -0.8530    -1.8910 C.3   1 <1>   0.0440 
  5 C        2.5460     0.9350     0.9860 C.3   1 <1>   0.1400 
  6 C        3.0050    -1.3490     0.0130 C.3   1 <1>   0.1400 
  7 C        0.0170    -1.9590    -1.0370 C.ar  1 <1>  -0.1440 
  8 C        4.0050     1.4680     1.0320 C.3   1 <1>   0.4230 
  9 C        4.5190    -1.1330    -0.2060 C.3   1 <1>  -0.0800 
 10 C        0.2730    -3.2950    -1.3350 C.ar  1 <1>  -0.1500 
 11 C       -0.8030    -1.6330     0.0430 C.ar  1 <1>  -0.1500 
 12 N        4.7540     1.4540    -0.2890 N.4   1 <1>  -0.9590 
 13 C        4.8240     0.7960     2.1550 C.3   1 <1>   0.1200 
 14 C        5.3500    -1.2570     1.0810 C.3   1 <1>   0.1200 
 15 C        4.8280     0.1370    -1.0190 C.3   1 <1>   0.3430 
 16 C       -0.2890    -4.2640    -0.5270 C.ar  1 <1>   0.0830 
 17 C       -1.3620    -2.6220     0.8430 C.ar  1 <1>  -0.1500 
 18 C        4.1720     2.4850    -1.2060 C.3   1 <1>   0.2630 
 19 O        4.7370    -0.5940     2.1360 O.3   1 <1>  -0.5600 
 20 O       -0.1700    -5.5920    -0.6230 O.3   1 <1>  -0.3630 
 21 C       -1.0830    -3.9370     0.5320 C.ar  1 <1>   0.0830 
 22 C       -0.9480    -6.1480     0.4370 C.3   1 <1>   0.4000 
 23 O       -1.5010    -5.0450     1.1530 O.3   1 <1>  -0.3620 
 24 H       -0.1530    -0.3940    -2.4620 H     1 <1>   0.0800 
 25 H        1.3370    -1.2640    -2.5890 H     1 <1>   0.0800 
 26 H        1.8900     1.7810     0.8800 H     1 <1>   0.0800 
 27 H        2.2990     0.4900     1.9350 H     1 <1>   0.0800 
 28 H        2.8130    -1.7970     0.9750 H     1 <1>   0.0800 
 29 H        2.6540    -2.0410    -0.7300 H     1 <1>   0.0800 
 30 H        3.9280     2.4990     1.3340 H     1 <1>   0.0800 
 31 H        4.8420    -1.9520    -0.8240 H     1 <1>   0.0800 
 32 H        0.8860    -3.5940    -2.1660 H     1 <1>   0.1500 
 33 H       -1.0140    -0.6020     0.2700 H     1 <1>   0.1500 
 34 H        5.7190     1.7330    -0.0770 H     1 <1>   0.4500 
 35 H        4.4250     1.1070     3.1050 H     1 <1>   0.0800 
 36 H        5.8590     1.0870     2.1210 H     1 <1>   0.0800 
 37 H        6.3560    -0.8900     0.9590 H     1 <1>   0.0800 
 38 H        5.4060    -2.2940     1.3680 H     1 <1>   0.0800 
 39 H        4.1330     0.1610    -1.8440 H     1 <1>   0.0800 
 40 H        5.8130     0.0380    -1.4450 H     1 <1>   0.0800 
 41 H       -1.9950    -2.3850     1.6790 H     1 <1>   0.1500 
 42 H        3.1580     2.2290    -1.4630 H     1 <1>   0.0800 
 43 H        4.7480     2.5490    -2.1150 H     1 <1>   0.0800 
 44 H        4.1690     3.4540    -0.7340 H     1 <1>   0.0800 
 45 H       -1.7420    -6.7460     0.0260 H     1 <1>   0.0800 
 46 H       -0.3130    -6.7200     1.0900 H     1 <1>   0.0800 
@<TRIPOS>BOND
  1   1   2  2   
  2   2   3  am  
  3   2   4  1   
  4   3   5  1   
  5   3   6  1   
  6   4   7  1   
  7   4  24  1   
  8   4  25  1   
  9   5   8  1   
 10   5  26  1   
 11   5  27  1   
 12   6   9  1   
 13   6  28  1   
 14   6  29  1   
 15   7  10  ar  
 16   7  11  ar  
 17   8  12  1   
 18   8  13  1   
 19   8  30  1   
 20   9  14  1   
 21   9  15  1   
 22   9  31  1   
 23  10  16  ar  
 24  10  32  1   
 25  11  17  ar  
 26  11  33  1   
 27  12  15  1   
 28  12  18  1   
 29  12  34  1   
 30  13  19  1   
 31  13  35  1   
 32  13  36  1   
 33  14  19  1   
 34  14  37  1   
 35  14  38  1   
 36  15  39  1   
 37  15  40  1   
 38  16  20  1   
 39  16  21  ar  
 40  17  21  ar  
 41  17  41  1   
 42  18  42  1   
 43  18  43  1   
 44  18  44  1   
 45  20  22  1   
 46  21  23  1   
 47  22  23  1   
 48  22  45  1   
 49  22  46  1   
@<TRIPOS>SUBSTRUCTURE
  1 ****   6 GROUP 4 **** **** 0

# MOE 2024.06 (io_trps.svl 2023.06)
