@<TRIPOS>MOLECULE
NONAME
55 58 1 0 0 
SMALL
USER_CHARGES


@<TRIPOS>ATOM
  1 O       -0.0660    -0.2310    -0.6700 O.2   1 <1>  -0.5700 
  2 C       -0.5160     0.7910    -0.1860 C.2   1 <1>   0.6900 
  3 N       -1.8700     0.9420    -0.0220 N.am  1 <1>  -0.6600 
  4 N        0.3100     1.7990     0.2220 N.am  1 <1>  -0.5470 
  5 C       -2.5440     2.2660     0.1640 C.3   1 <1>   0.1400 
  6 C       -2.7910    -0.2090    -0.2810 C.3   1 <1>   0.1400 
  7 C        1.6660     2.0630    -0.0080 C.ar  1 <1>   0.1170 
  8 C       -3.3830     2.6360    -1.0780 C.3   1 <1>   0.1430 
  9 C       -4.2180     0.2500    -0.6270 C.3   1 <1>  -0.1600 
 10 C        2.3010     3.0060     0.7910 C.ar  1 <1>  -0.1500 
 11 C        2.4050     1.4460    -1.0130 C.ar  1 <1>  -0.1500 
 12 C       -4.2650     3.8060    -0.6780 C.ar  1 <1>   0.1670 
 13 C       -4.1930     1.4250    -1.6180 C.3   1 <1>  -0.1600 
 14 C       -2.4970     3.2630    -2.1890 C.3   1 <1>  -0.1600 
 15 C        3.6320     3.3300     0.6030 C.ar  1 <1>   0.0830 
 16 C        3.7380     1.7590    -1.2090 C.ar  1 <1>  -0.1500 
 17 N       -5.3280     3.7270     0.0830 N.ar  1 <1>  -0.6200 
 18 C       -3.8020     4.9820    -1.1860 C.ar  1 <1>  -0.1430 
 19 C       -2.5490     4.7890    -2.0020 C.3   1 <1>  -0.0170 
 20 O        4.1540     4.2660     1.4360 O.3   1 <1>  -0.3630 
 21 C        4.3570     2.7000    -0.4050 C.ar  1 <1>  -0.1500 
 22 C       -5.9490     4.8850     0.3180 C.ar  1 <1>   0.7200 
 23 C       -4.5020     6.1230    -0.8900 C.ar  1 <1>   0.1600 
 24 C        5.5100     4.6420     1.3530 C.3   1 <1>   0.0400 
 25 N       -5.5780     6.0860    -0.1390 N.ar  1 <1>  -0.6200 
 26 N       -7.0800     4.8380     1.1110 N.pl3 1 <1>  -0.8380 
 27 C       -7.4590     3.6200     1.8790 C.3   1 <1>   0.1290 
 28 C       -8.0240     5.9860     1.2090 C.3   1 <1>   0.1290 
 29 H       -0.1390     2.4100     0.8940 H     1 <1>   0.3700 
 30 H       -1.8390     3.0510     0.3620 H     1 <1>   0.0800 
 31 H       -3.1920     2.1970     1.0220 H     1 <1>   0.0800 
 32 H       -2.8100    -0.8490     0.5850 H     1 <1>   0.0800 
 33 H       -2.4060    -0.7850    -1.1070 H     1 <1>   0.0800 
 34 H       -4.7320     0.5440     0.2730 H     1 <1>   0.0800 
 35 H       -4.7610    -0.5750    -1.0510 H     1 <1>   0.0800 
 36 H        1.7610     3.5000     1.5750 H     1 <1>   0.1500 
 37 H        1.9400     0.7150    -1.6500 H     1 <1>   0.1500 
 38 H       -3.7460     1.0630    -2.5280 H     1 <1>   0.0800 
 39 H       -5.1990     1.7270    -1.8520 H     1 <1>   0.0800 
 40 H       -2.9180     3.0430    -3.1540 H     1 <1>   0.0800 
 41 H       -1.4880     2.8880    -2.1680 H     1 <1>   0.0800 
 42 H        4.2920     1.2670    -1.9890 H     1 <1>   0.1500 
 43 H       -2.6040     5.3020    -2.9470 H     1 <1>   0.0800 
 44 H       -1.6950     5.1360    -1.4460 H     1 <1>   0.0800 
 45 H        5.3920     2.9250    -0.5770 H     1 <1>   0.1500 
 46 H       -4.1780     7.0760    -1.2690 H     1 <1>   0.1500 
 47 H        5.6990     5.3790     2.1130 H     1 <1>   0.0800 
 48 H        5.6970     5.0630     0.3810 H     1 <1>   0.0800 
 49 H        6.1240     3.7750     1.5240 H     1 <1>   0.0800 
 50 H       -6.5810     3.0780     2.1830 H     1 <1>   0.0800 
 51 H       -8.0690     2.9830     1.2630 H     1 <1>   0.0800 
 52 H       -8.0090     3.8950     2.7620 H     1 <1>   0.0800 
 53 H       -8.0120     6.5640     0.3010 H     1 <1>   0.0800 
 54 H       -7.7350     6.6190     2.0300 H     1 <1>   0.0800 
 55 H       -9.0260     5.6300     1.3690 H     1 <1>   0.0800 
@<TRIPOS>BOND
  1   1   2  2   
  2   2   3  am  
  3   2   4  am  
  4   3   5  1   
  5   3   6  1   
  6   4   7  1   
  7   4  29  1   
  8   5   8  1   
  9   5  30  1   
 10   5  31  1   
 11   6   9  1   
 12   6  32  1   
 13   6  33  1   
 14   7  10  ar  
 15   7  11  ar  
 16   8  12  1   
 17   8  13  1   
 18   8  14  1   
 19   9  13  1   
 20   9  34  1   
 21   9  35  1   
 22  10  15  ar  
 23  10  36  1   
 24  11  16  ar  
 25  11  37  1   
 26  12  17  ar  
 27  12  18  ar  
 28  13  38  1   
 29  13  39  1   
 30  14  19  1   
 31  14  40  1   
 32  14  41  1   
 33  15  20  1   
 34  15  21  ar  
 35  16  21  ar  
 36  16  42  1   
 37  17  22  ar  
 38  18  19  1   
 39  18  23  ar  
 40  19  43  1   
 41  19  44  1   
 42  20  24  1   
 43  21  45  1   
 44  22  25  ar  
 45  22  26  1   
 46  23  25  ar  
 47  23  46  1   
 48  24  47  1   
 49  24  48  1   
 50  24  49  1   
 51  26  27  1   
 52  26  28  1   
 53  27  50  1   
 54  27  51  1   
 55  27  52  1   
 56  28  53  1   
 57  28  54  1   
 58  28  55  1   
@<TRIPOS>SUBSTRUCTURE
  1 ****   5 GROUP 4 **** **** 0

# MOE 2024.06 (io_trps.svl 2023.06)
