@<TRIPOS>MOLECULE
NONAME
61 65 1 0 0 
SMALL
USER_CHARGES


@<TRIPOS>ATOM
  1 O       -1.9130     0.8190     2.0900 O.2   1 <1>  -0.5700 
  2 C       -2.3870     0.7860     0.9800 C.2   1 <1>   0.5770 
  3 N       -2.6250    -0.4200     0.3530 N.am  1 <1>  -0.6600 
  4 C       -2.7340     2.1080     0.2930 C.3   1 <1>   0.0530 
  5 C       -2.2510    -1.7020     1.0060 C.3   1 <1>   0.1400 
  6 C       -3.2840    -0.5840    -0.9660 C.3   1 <1>   0.1400 
  7 C       -2.5150     3.4140     1.1130 C.3   1 <1>   0.0000 
  8 C       -4.2470     2.4580     0.3070 C.3   1 <1>   0.0000 
  9 C       -3.5310    -2.4960     1.2620 C.3   1 <1>  -0.1600 
 10 C       -4.5860    -1.3600    -0.7530 C.3   1 <1>  -0.1600 
 11 C       -3.8230     3.9400     0.4690 C.3   1 <1>   0.0000 
 12 C       -4.3230    -2.6900    -0.0320 C.3   1 <1>   0.4230 
 13 N       -5.6030    -3.3380     0.3170 N.4   1 <1>  -0.9060 
 14 C       -6.4070    -3.8710    -0.8180 C.3   1 <1>   0.4230 
 15 C       -7.7340    -4.3780    -0.2610 C.3   1 <1>  -0.0800 
 16 C       -5.7800    -5.1800    -1.2830 C.3   1 <1>   0.1200 
 17 C       -7.4000    -5.8200     0.1690 C.3   1 <1>   0.1200 
 18 C       -8.8580    -4.3380    -1.3190 C.3   1 <1>  -0.0170 
 19 O       -6.0840    -6.0470    -0.2430 O.3   1 <1>  -0.5600 
 20 C      -10.1800    -4.8080    -0.7220 C.ar  1 <1>  -0.1440 
 21 C      -10.9570    -3.9950     0.1400 C.ar  1 <1>   0.0000 
 22 C      -10.6510    -6.0580    -1.0020 C.ar  1 <1>  -0.1500 
 23 C      -12.1370    -4.5580     0.6860 C.ar  1 <1>   0.3100 
 24 C      -10.6400    -2.6600     0.4880 C.ar  1 <1>  -0.1500 
 25 C      -11.8430    -6.5100    -0.4230 C.ar  1 <1>   0.1600 
 26 N      -12.5630    -5.8110     0.3940 N.ar  1 <1>  -0.6200 
 27 C      -12.9120    -3.7900     1.5690 C.ar  1 <1>  -0.1500 
 28 C      -11.4210    -1.9360     1.3480 C.ar  1 <1>  -0.1500 
 29 C      -12.5690    -2.5080     1.9010 C.ar  1 <1>  -0.1500 
 30 H       -2.3070     2.1940    -0.6930 H     1 <1>   0.0000 
 31 H       -1.5830    -2.2480     0.3610 H     1 <1>   0.0800 
 32 H       -1.7370    -1.5290     1.9370 H     1 <1>   0.0800 
 33 H       -3.4930     0.3660    -1.4250 H     1 <1>   0.0800 
 34 H       -2.6230    -1.1250    -1.6230 H     1 <1>   0.0800 
 35 H       -2.6160     3.2890     2.1780 H     1 <1>   0.0000 
 36 H       -1.6380     3.9670     0.8260 H     1 <1>   0.0000 
 37 H       -4.7550     2.2520    -0.6180 H     1 <1>   0.0000 
 38 H       -4.7600     2.0770     1.1750 H     1 <1>   0.0000 
 39 H       -4.1130    -1.9570     1.9900 H     1 <1>   0.0800 
 40 H       -3.2610    -3.4510     1.6780 H     1 <1>   0.0800 
 41 H       -5.0310    -1.5350    -1.7160 H     1 <1>   0.0800 
 42 H       -5.2510    -0.7430    -0.1730 H     1 <1>   0.0800 
 43 H       -3.6550     4.4300    -0.4750 H     1 <1>   0.0000 
 44 H       -4.4470     4.5010     1.1430 H     1 <1>   0.0000 
 45 H       -3.7510    -3.3320    -0.6840 H     1 <1>   0.0800 
 46 H       -6.1610    -2.6990     0.8910 H     1 <1>   0.4500 
 47 H       -5.4010    -4.1650     0.9000 H     1 <1>   0.4500 
 48 H       -6.5280    -3.1460    -1.6060 H     1 <1>   0.0800 
 49 H       -8.0500    -3.8040     0.5910 H     1 <1>   0.0800 
 50 H       -4.7140    -5.1340    -1.4190 H     1 <1>   0.0800 
 51 H       -6.2460    -5.5510    -2.1810 H     1 <1>   0.0800 
 52 H       -8.0310    -6.5530    -0.3050 H     1 <1>   0.0800 
 53 H       -7.4510    -5.9480     1.2380 H     1 <1>   0.0800 
 54 H       -8.6040    -4.9680    -2.1540 H     1 <1>   0.0800 
 55 H       -8.9820    -3.3430    -1.7080 H     1 <1>   0.0800 
 56 H      -10.1320    -6.7310    -1.6610 H     1 <1>   0.1500 
 57 H       -9.7740    -2.1910     0.0660 H     1 <1>   0.1500 
 58 H      -12.1800    -7.5030    -0.6700 H     1 <1>   0.1500 
 59 H      -13.7940    -4.2470     1.9770 H     1 <1>   0.1500 
 60 H      -11.1720    -0.9210     1.6070 H     1 <1>   0.1500 
 61 H      -13.1750    -1.9310     2.5790 H     1 <1>   0.1500 
@<TRIPOS>BOND
  1   1   2  2   
  2   2   3  am  
  3   2   4  1   
  4   3   5  1   
  5   3   6  1   
  6   4   7  1   
  7   4   8  1   
  8   4  30  1   
  9   5   9  1   
 10   5  31  1   
 11   5  32  1   
 12   6  10  1   
 13   6  33  1   
 14   6  34  1   
 15   7  11  1   
 16   7  35  1   
 17   7  36  1   
 18   8  11  1   
 19   8  37  1   
 20   8  38  1   
 21   9  12  1   
 22   9  39  1   
 23   9  40  1   
 24  10  12  1   
 25  10  41  1   
 26  10  42  1   
 27  11  43  1   
 28  11  44  1   
 29  12  13  1   
 30  12  45  1   
 31  13  14  1   
 32  13  46  1   
 33  13  47  1   
 34  14  15  1   
 35  14  16  1   
 36  14  48  1   
 37  15  17  1   
 38  15  18  1   
 39  15  49  1   
 40  16  19  1   
 41  16  50  1   
 42  16  51  1   
 43  17  19  1   
 44  17  52  1   
 45  17  53  1   
 46  18  20  1   
 47  18  54  1   
 48  18  55  1   
 49  20  21  ar  
 50  20  22  ar  
 51  21  23  ar  
 52  21  24  ar  
 53  22  25  ar  
 54  22  56  1   
 55  23  26  ar  
 56  23  27  ar  
 57  24  28  ar  
 58  24  57  1   
 59  25  26  ar  
 60  25  58  1   
 61  27  29  ar  
 62  27  59  1   
 63  28  29  ar  
 64  28  60  1   
 65  29  61  1   
@<TRIPOS>SUBSTRUCTURE
  1 ****  13 GROUP 4 **** **** 0

# MOE 2024.06 (io_trps.svl 2023.06)
