@<TRIPOS>MOLECULE
NONAME
52 55 1 0 0 
SMALL
USER_CHARGES


@<TRIPOS>ATOM
  1 O        0.3380     0.5410    -1.2060 O.2   1 <1>  -0.5700 
  2 C       -0.1770     1.3250    -0.4320 C.2   1 <1>   0.6900 
  3 N       -1.5430     1.3920    -0.3350 N.am  1 <1>  -0.6600 
  4 N        0.5680     2.1590     0.3530 N.am  1 <1>  -0.5470 
  5 C       -2.2630     2.6320     0.1130 C.3   1 <1>   0.1400 
  6 C       -2.3730     0.3150    -0.9520 C.3   1 <1>   0.1400 
  7 C        1.9390     2.4610     0.3980 C.ar  1 <1>   0.1170 
  8 C       -3.5130     2.9130    -0.7410 C.3   1 <1>   0.1430 
  9 C       -3.8140     0.3600    -0.4290 C.3   1 <1>  -0.1600 
 10 C        2.3580     3.7120     0.8700 C.ar  1 <1>  -0.1430 
 11 C        2.8970     1.5320     0.0030 C.ar  1 <1>  -0.1500 
 12 C       -4.1180     4.2230    -0.2640 C.ar  1 <1>   0.1670 
 13 C       -4.5050     1.7240    -0.6360 C.3   1 <1>  -0.1600 
 14 C       -3.1290     3.2390    -2.2160 C.3   1 <1>  -0.1600 
 15 C        3.7190     3.9900     0.9320 C.ar  1 <1>  -0.1500 
 16 C        1.3050     4.7430     1.3020 C.3   1 <1>  -0.0170 
 17 C        4.2450     1.8230     0.0650 C.ar  1 <1>  -0.1500 
 18 N       -4.7320     4.4040     0.8850 N.ar  1 <1>  -0.6200 
 19 C       -3.9260     5.2290    -1.1620 C.ar  1 <1>  -0.1430 
 20 C       -3.1630     4.7690    -2.3770 C.3   1 <1>  -0.0170 
 21 C        4.6570     3.0560     0.5320 C.ar  1 <1>  -0.1500 
 22 C        1.8340     6.1340     1.6720 C.3   1 <1>  -0.2400 
 23 C       -5.1680     5.6390     1.0880 C.ar  1 <1>   0.4770 
 24 C       -4.4160     6.4720    -0.8490 C.ar  1 <1>   0.1600 
 25 N       -5.0470     6.6890     0.2870 N.ar  1 <1>  -0.6200 
 26 C       -5.8960     5.8840     2.3870 C.3   1 <1>  -0.0970 
 27 H        0.0010     2.6730     1.0130 H     1 <1>   0.3700 
 28 H       -1.6100     3.4840     0.0530 H     1 <1>   0.0800 
 29 H       -2.5620     2.5090     1.1400 H     1 <1>   0.0800 
 30 H       -1.9350    -0.6430    -0.7250 H     1 <1>   0.0800 
 31 H       -2.3660     0.4350    -2.0220 H     1 <1>   0.0800 
 32 H       -3.7870     0.1330     0.6230 H     1 <1>   0.0800 
 33 H       -4.3920    -0.4130    -0.9040 H     1 <1>   0.0800 
 34 H        2.5920     0.5660    -0.3530 H     1 <1>   0.1500 
 35 H       -5.1330     1.6890    -1.5070 H     1 <1>   0.0800 
 36 H       -5.1610     1.8810     0.2030 H     1 <1>   0.0800 
 37 H       -3.8540     2.8200    -2.8900 H     1 <1>   0.0800 
 38 H       -2.1640     2.8500    -2.4880 H     1 <1>   0.0800 
 39 H        4.0810     4.9360     1.2890 H     1 <1>   0.1500 
 40 H        0.7710     4.3520     2.1500 H     1 <1>   0.0800 
 41 H        0.6020     4.8670     0.4970 H     1 <1>   0.0800 
 42 H        4.9690     1.0920    -0.2470 H     1 <1>   0.1500 
 43 H       -3.6570     5.0590    -3.2880 H     1 <1>   0.0800 
 44 H       -2.1660     5.1750    -2.3560 H     1 <1>   0.0800 
 45 H        5.7060     3.2880     0.5840 H     1 <1>   0.1500 
 46 H        2.4860     6.0760     2.5250 H     1 <1>   0.0800 
 47 H        1.0130     6.7840     1.9190 H     1 <1>   0.0800 
 48 H        2.3690     6.5640     0.8430 H     1 <1>   0.0800 
 49 H       -4.2910     7.2980    -1.5290 H     1 <1>   0.1500 
 50 H       -5.6580     5.1180     3.1010 H     1 <1>   0.0800 
 51 H       -6.9540     5.8800     2.2050 H     1 <1>   0.0800 
 52 H       -5.6120     6.8380     2.7900 H     1 <1>   0.0800 
@<TRIPOS>BOND
  1   1   2  2   
  2   2   3  am  
  3   2   4  am  
  4   3   5  1   
  5   3   6  1   
  6   4   7  1   
  7   4  27  1   
  8   5   8  1   
  9   5  28  1   
 10   5  29  1   
 11   6   9  1   
 12   6  30  1   
 13   6  31  1   
 14   7  10  ar  
 15   7  11  ar  
 16   8  12  1   
 17   8  13  1   
 18   8  14  1   
 19   9  13  1   
 20   9  32  1   
 21   9  33  1   
 22  10  15  ar  
 23  10  16  1   
 24  11  17  ar  
 25  11  34  1   
 26  12  18  ar  
 27  12  19  ar  
 28  13  35  1   
 29  13  36  1   
 30  14  20  1   
 31  14  37  1   
 32  14  38  1   
 33  15  21  ar  
 34  15  39  1   
 35  16  22  1   
 36  16  40  1   
 37  16  41  1   
 38  17  21  ar  
 39  17  42  1   
 40  18  23  ar  
 41  19  20  1   
 42  19  24  ar  
 43  20  43  1   
 44  20  44  1   
 45  21  45  1   
 46  22  46  1   
 47  22  47  1   
 48  22  48  1   
 49  23  25  ar  
 50  23  26  1   
 51  24  25  ar  
 52  24  49  1   
 53  26  50  1   
 54  26  51  1   
 55  26  52  1   
@<TRIPOS>SUBSTRUCTURE
  1 ****   5 GROUP 4 **** **** 0

# MOE 2024.06 (io_trps.svl 2023.06)
