@<TRIPOS>MOLECULE
NONAME
47 50 1 0 0 
SMALL
USER_CHARGES


@<TRIPOS>ATOM
  1 O        0.0270    -0.3960     0.4070 O.3   1 <1>  -0.3630 
  2 C        0.1040    -1.7400     0.3820 C.ar  1 <1>   0.0820 
  3 C       -1.0460    -0.0520     1.2800 C.3   1 <1>   0.4000 
  4 C        0.9790    -2.5870    -0.3000 C.ar  1 <1>   0.0820 
  5 C       -0.8740    -2.2590     1.1820 C.ar  1 <1>   0.0820 
  6 O       -1.5970    -1.2830     1.7380 O.3   1 <1>  -0.3630 
  7 O        1.9880    -2.2000    -1.1250 O.3   1 <1>  -0.3630 
  8 C        0.8150    -3.9560    -0.1340 C.ar  1 <1>  -0.1500 
  9 C       -1.0480    -3.6170     1.3540 C.ar  1 <1>  -0.1500 
 10 C        2.2900    -0.8350    -1.3150 C.3   1 <1>   0.0400 
 11 C       -0.1910    -4.4790     0.6770 C.ar  1 <1>  -0.1430 
 12 C       -0.3540    -5.9790     0.8130 C.3   1 <1>   0.4870 
 13 N       -0.9070    -6.5070    -0.4650 N.4   1 <1>  -0.9590 
 14 C       -2.2870    -5.9890    -0.7520 C.3   1 <1>   0.3430 
 15 C       -0.9850    -7.9950    -0.4670 C.3   1 <1>   0.3430 
 16 C       -3.2290    -7.2000    -0.7130 C.3   1 <1>   0.2000 
 17 C       -2.4260    -8.3380    -0.0920 C.3   1 <1>  -0.0800 
 18 O       -4.3610    -6.9500     0.0460 O.3   1 <1>  -0.6800 
 19 C       -2.8810    -9.7280    -0.5780 C.3   1 <1>  -0.0170 
 20 C       -2.1030   -10.8540     0.0890 C.ar  1 <1>   0.1670 
 21 N       -0.7970   -10.8810    -0.1330 N.ar  1 <1>  -0.6200 
 22 C       -2.7690   -11.7900     0.8800 C.ar  1 <1>   0.1600 
 23 C       -0.2130   -11.9080     0.4690 C.ar  1 <1>   0.1600 
 24 N       -2.1820   -12.8010     1.4940 N.ar  1 <1>  -0.6200 
 25 C       -0.8830   -12.8350     1.2570 C.ar  1 <1>   0.1600 
 26 H       -0.6660     0.5080     2.1160 H     1 <1>   0.0800 
 27 H       -1.7930     0.5000     0.7360 H     1 <1>   0.0800 
 28 H        1.5010    -4.6010    -0.6550 H     1 <1>   0.1500 
 29 H       -1.8330    -3.9630     2.0020 H     1 <1>   0.1500 
 30 H        3.1360    -0.7660    -1.9740 H     1 <1>   0.0800 
 31 H        2.5300    -0.3940    -0.3640 H     1 <1>   0.0800 
 32 H        1.4400    -0.3470    -1.7580 H     1 <1>   0.0800 
 33 H       -1.0160    -6.2070     1.6320 H     1 <1>   0.0800 
 34 H        0.6070    -6.4240     1.0140 H     1 <1>   0.0800 
 35 H       -0.2720    -6.1870    -1.2100 H     1 <1>   0.4500 
 36 H       -2.5880    -5.2610    -0.0170 H     1 <1>   0.0800 
 37 H       -2.3200    -5.5350    -1.7300 H     1 <1>   0.0800 
 38 H       -0.7810    -8.3700    -1.4580 H     1 <1>   0.0800 
 39 H       -0.2820    -8.4420     0.2190 H     1 <1>   0.0800 
 40 H       -3.5480    -7.4360    -1.7150 H     1 <1>   0.0800 
 41 H       -2.5000    -8.2990     0.9810 H     1 <1>   0.0800 
 42 H       -4.1830    -6.9170     1.0070 H     1 <1>   0.4000 
 43 H       -2.7530    -9.8100    -1.6440 H     1 <1>   0.0800 
 44 H       -3.9320    -9.8450    -0.3720 H     1 <1>   0.0800 
 45 H       -3.8330   -11.7030     1.0130 H     1 <1>   0.1500 
 46 H        0.8490   -12.0250     0.3340 H     1 <1>   0.1500 
 47 H       -0.3220   -13.6350     1.7080 H     1 <1>   0.1500 
@<TRIPOS>BOND
  1   1   2  1   
  2   1   3  1   
  3   2   4  ar  
  4   2   5  ar  
  5   3   6  1   
  6   3  26  1   
  7   3  27  1   
  8   4   7  1   
  9   4   8  ar  
 10   5   6  1   
 11   5   9  ar  
 12   7  10  1   
 13   8  11  ar  
 14   8  28  1   
 15   9  11  ar  
 16   9  29  1   
 17  10  30  1   
 18  10  31  1   
 19  10  32  1   
 20  11  12  1   
 21  12  13  1   
 22  12  33  1   
 23  12  34  1   
 24  13  14  1   
 25  13  15  1   
 26  13  35  1   
 27  14  16  1   
 28  14  36  1   
 29  14  37  1   
 30  15  17  1   
 31  15  38  1   
 32  15  39  1   
 33  16  17  1   
 34  16  18  1   
 35  16  40  1   
 36  17  19  1   
 37  17  41  1   
 38  18  42  1   
 39  19  20  1   
 40  19  43  1   
 41  19  44  1   
 42  20  21  ar  
 43  20  22  ar  
 44  21  23  ar  
 45  22  24  ar  
 46  22  45  1   
 47  23  25  ar  
 48  23  46  1   
 49  24  25  ar  
 50  25  47  1   
@<TRIPOS>SUBSTRUCTURE
  1 ****  13 GROUP 4 **** **** 0

# MOE 2024.06 (io_trps.svl 2023.06)
