@<TRIPOS>MOLECULE
NONAME
39 41 1 0 0 
SMALL
USER_CHARGES


@<TRIPOS>ATOM
  1 N       -0.8960    -0.2550    -0.6570 N.2   1 <1>  -0.7070 
  2 N       -1.8230     0.6090    -0.2020 N.pl3 1 <1>   0.3140 
  3 C        0.1990     0.4410    -0.7320 C.2   1 <1>   0.1390 
  4 C       -1.2950     1.8370     0.0010 C.2   1 <1>  -0.3320 
  5 C       -3.2160     0.1840     0.0030 C.3   1 <1>   0.0960 
  6 C        0.0100     1.7570    -0.3320 C.2   1 <1>  -0.1500 
  7 C       -2.0530     3.0560     0.5030 C.3   1 <1>  -0.0600 
  8 C       -3.2440    -1.3340     0.2150 C.3   1 <1>   0.3430 
  9 N       -4.6310    -1.8880     0.3690 N.4   1 <1>  -0.9590 
 10 C       -4.5920    -3.3380     0.7550 C.3   1 <1>   0.3430 
 11 C       -5.4470    -1.7910    -0.8860 C.3   1 <1>   0.3430 
 12 C       -5.2900    -4.0900    -0.3730 C.3   1 <1>  -0.0800 
 13 C       -6.2900    -3.0600    -0.9070 C.3   1 <1>  -0.0800 
 14 C       -5.9030    -5.4300     0.0620 C.3   1 <1>  -0.0220 
 15 C       -7.5530    -2.8720    -0.0290 C.3   1 <1>  -0.0220 
 16 C       -7.2150    -5.2370     0.7910 C.2   1 <1>  -0.2880 
 17 C       -7.9350    -4.1160     0.7490 C.2   1 <1>  -0.2880 
 18 H        1.1410     0.0380    -1.0670 H     1 <1>   0.1500 
 19 H       -3.6040     0.6900     0.8660 H     1 <1>   0.0800 
 20 H       -3.7730     0.4620    -0.8710 H     1 <1>   0.0800 
 21 H        0.7660     2.5220    -0.3080 H     1 <1>   0.1500 
 22 H       -1.3930     3.9050     0.5490 H     1 <1>   0.0800 
 23 H       -2.4410     2.8780     1.4900 H     1 <1>   0.0800 
 24 H       -2.8640     3.2950    -0.1620 H     1 <1>   0.0800 
 25 H       -2.6640    -1.5620     1.0950 H     1 <1>   0.0800 
 26 H       -2.7630    -1.8090    -0.6260 H     1 <1>   0.0800 
 27 H       -5.1230    -1.3970     1.1280 H     1 <1>   0.4500 
 28 H       -3.5830    -3.6940     0.8900 H     1 <1>   0.0800 
 29 H       -5.1450    -3.4850     1.6700 H     1 <1>   0.0800 
 30 H       -6.0600    -0.9040    -0.9000 H     1 <1>   0.0800 
 31 H       -4.7960    -1.7880    -1.7460 H     1 <1>   0.0800 
 32 H       -4.5510    -4.2950    -1.1300 H     1 <1>   0.0800 
 33 H       -6.5890    -3.3130    -1.9100 H     1 <1>   0.0800 
 34 H       -6.0880    -6.0410    -0.8050 H     1 <1>   0.0800 
 35 H       -5.2100    -5.9620     0.6930 H     1 <1>   0.0800 
 36 H       -7.4170    -2.0790     0.6840 H     1 <1>   0.0800 
 37 H       -8.3790    -2.5920    -0.6620 H     1 <1>   0.0800 
 38 H       -7.5290    -6.1110     1.3410 H     1 <1>   0.1500 
 39 H       -8.8700    -4.0130     1.2770 H     1 <1>   0.1500 
@<TRIPOS>BOND
  1   1   2  1   
  2   1   3  2   
  3   2   4  1   
  4   2   5  1   
  5   3   6  1   
  6   3  18  1   
  7   4   6  2   
  8   4   7  1   
  9   5   8  1   
 10   5  19  1   
 11   5  20  1   
 12   6  21  1   
 13   7  22  1   
 14   7  23  1   
 15   7  24  1   
 16   8   9  1   
 17   8  25  1   
 18   8  26  1   
 19   9  10  1   
 20   9  11  1   
 21   9  27  1   
 22  10  12  1   
 23  10  28  1   
 24  10  29  1   
 25  11  13  1   
 26  11  30  1   
 27  11  31  1   
 28  12  13  1   
 29  12  14  1   
 30  12  32  1   
 31  13  15  1   
 32  13  33  1   
 33  14  16  1   
 34  14  34  1   
 35  14  35  1   
 36  15  17  1   
 37  15  36  1   
 38  15  37  1   
 39  16  17  2   
 40  16  38  1   
 41  17  39  1   
@<TRIPOS>SUBSTRUCTURE
  1 ****   8 GROUP 4 **** **** 0

# MOE 2024.06 (io_trps.svl 2023.06)
