@<TRIPOS>MOLECULE
NONAME
52 53 1 0 0 
SMALL
USER_CHARGES


@<TRIPOS>ATOM
  1 O       -1.8360    -0.0630     1.3740 O.3   1 <1>  -0.8500 
  2 C       -1.3890    -1.1790     1.0560 C.2   1 <1>  -0.1500 
  3 C       -1.9780    -2.0220     0.1060 C.2   1 <1>  -0.1240 
  4 C       -0.1970    -1.6070     1.6930 C.2   1 <1>  -0.1500 
  5 C       -1.3480    -3.2380    -0.2150 C.2   1 <1>   0.6160 
  6 C       -3.2780    -1.5620    -0.5860 C.3   1 <1>   0.2020 
  7 C        0.3830    -2.7980     1.4150 C.2   1 <1>  -0.0290 
  8 O       -1.7460    -3.9930    -1.1260 O.2   1 <1>  -0.5700 
  9 N       -0.1930    -3.6530     0.4770 N.am  1 <1>  -0.4690 
 10 C       -4.4880    -2.5090    -0.3890 C.ar  1 <1>  -0.1440 
 11 C       -3.0340    -1.2220    -2.0660 C.3   1 <1>  -0.0990 
 12 C        1.6690    -3.2030     2.1170 C.3   1 <1>  -0.1020 
 13 C        0.4200    -4.9690     0.1330 C.3   1 <1>   0.0600 
 14 C       -5.4620    -2.2700     0.5850 C.ar  1 <1>   0.0820 
 15 C       -4.6620    -3.6240    -1.2020 C.ar  1 <1>  -0.1500 
 16 C       -1.9870    -0.1420    -2.2000 C.2   1 <1>   0.6590 
 17 O       -5.4290    -1.1900     1.3970 O.3   1 <1>  -0.3630 
 18 C       -6.5490    -3.1150     0.7390 C.ar  1 <1>  -0.1500 
 19 C       -5.7320    -4.4970    -1.0390 C.ar  1 <1>   0.0820 
 20 O       -0.9240    -0.3490    -2.7330 O.2   1 <1>  -0.5700 
 21 O       -2.3120     1.0410    -1.6990 O.3   1 <1>  -0.4300 
 22 C       -4.4680    -1.1920     2.4340 C.3   1 <1>   0.0400 
 23 C       -6.6950    -4.2380    -0.0640 C.ar  1 <1>   0.0820 
 24 O       -5.8620    -5.6140    -1.8130 O.3   1 <1>  -0.3630 
 25 C       -1.3130     1.9490    -1.2970 C.3   1 <1>   0.0400 
 26 O       -7.7440    -5.1050     0.0620 O.3   1 <1>  -0.3630 
 27 C       -4.6960    -6.2660    -2.2710 C.3   1 <1>   0.0400 
 28 C       -8.7430    -4.9080     1.0350 C.3   1 <1>   0.0400 
 29 H        0.2090    -0.9130     2.4040 H     1 <1>   0.1500 
 30 H       -3.5680    -0.6280    -0.1420 H     1 <1>   0.0800 
 31 H       -3.9460    -0.8710    -2.5080 H     1 <1>   0.0800 
 32 H       -2.6980    -2.0840    -2.6060 H     1 <1>   0.0800 
 33 H        2.4340    -3.4120     1.3930 H     1 <1>   0.0800 
 34 H        1.4990    -4.0690     2.7280 H     1 <1>   0.0800 
 35 H        2.0130    -2.4060     2.7510 H     1 <1>   0.0800 
 36 H       -0.3410    -5.6670    -0.1710 H     1 <1>   0.0800 
 37 H        0.9260    -5.3900     0.9800 H     1 <1>   0.0800 
 38 H        1.1150    -4.8340    -0.6750 H     1 <1>   0.0800 
 39 H       -3.9560    -3.8170    -1.9810 H     1 <1>   0.1500 
 40 H       -7.2630    -2.8640     1.4970 H     1 <1>   0.1500 
 41 H       -4.0590    -0.2000     2.5170 H     1 <1>   0.0800 
 42 H       -3.6770    -1.8840     2.2070 H     1 <1>   0.0800 
 43 H       -4.9510    -1.4740     3.3500 H     1 <1>   0.0800 
 44 H       -1.7920     2.8310    -0.9140 H     1 <1>   0.0800 
 45 H       -0.6890     2.1860    -2.1390 H     1 <1>   0.0800 
 46 H       -0.7350     1.4820    -0.5150 H     1 <1>   0.0800 
 47 H       -4.9730    -7.2500    -2.6020 H     1 <1>   0.0800 
 48 H       -3.9910    -6.3340    -1.4600 H     1 <1>   0.0800 
 49 H       -4.2810    -5.7080    -3.0900 H     1 <1>   0.0800 
 50 H       -9.4540    -5.7100     0.9470 H     1 <1>   0.0800 
 51 H       -9.2290    -3.9670     0.8500 H     1 <1>   0.0800 
 52 H       -8.2890    -4.9260     2.0090 H     1 <1>   0.0800 
@<TRIPOS>BOND
  1   1   2  1   
  2   2   3  2   
  3   2   4  1   
  4   3   5  1   
  5   3   6  1   
  6   4   7  2   
  7   4  29  1   
  8   5   8  2   
  9   5   9  am  
 10   6  10  1   
 11   6  11  1   
 12   6  30  1   
 13   7   9  1   
 14   7  12  1   
 15   9  13  1   
 16  10  14  ar  
 17  10  15  ar  
 18  11  16  1   
 19  11  31  1   
 20  11  32  1   
 21  12  33  1   
 22  12  34  1   
 23  12  35  1   
 24  13  36  1   
 25  13  37  1   
 26  13  38  1   
 27  14  17  1   
 28  14  18  ar  
 29  15  19  ar  
 30  15  39  1   
 31  16  20  2   
 32  16  21  1   
 33  17  22  1   
 34  18  23  ar  
 35  18  40  1   
 36  19  23  ar  
 37  19  24  1   
 38  21  25  1   
 39  22  41  1   
 40  22  42  1   
 41  22  43  1   
 42  23  26  1   
 43  24  27  1   
 44  25  44  1   
 45  25  45  1   
 46  25  46  1   
 47  26  28  1   
 48  27  47  1   
 49  27  48  1   
 50  27  49  1   
 51  28  50  1   
 52  28  51  1   
 53  28  52  1   
@<TRIPOS>SUBSTRUCTURE
  1 ****   6 GROUP 4 **** **** 0

# MOE 2024.06 (io_trps.svl 2023.06)
