@<TRIPOS>MOLECULE
NONAME
22 22 1 0 0 
SMALL
USER_CHARGES


@<TRIPOS>ATOM
  1 F       -0.2360    -0.4660    -1.9370 F     1 <1>  -0.3400 
  2 C       -0.6230    -1.2920    -0.9630 C.3   1 <1>   0.8230 
  3 F       -1.4610    -2.1240    -1.5910 F     1 <1>  -0.3400 
  4 C        0.5950    -2.0580    -0.3830 C.ar  1 <1>   0.1660 
  5 C       -1.4620    -0.4900     0.0610 C.3   1 <1>   0.1200 
  6 N        0.5770    -3.3980    -0.3970 N.ar  1 <1>  -0.6200 
  7 C        1.6620    -1.3200     0.1450 C.ar  1 <1>   0.0820 
  8 O       -2.1480    -1.2940     0.9890 O.3   1 <1>  -0.6800 
  9 C        1.6310    -4.0130     0.1070 C.ar  1 <1>   0.1600 
 10 O        1.5950     0.0400     0.1370 O.3   1 <1>  -0.3630 
 11 C        2.7580    -1.9920     0.6680 C.ar  1 <1>  -0.1500 
 12 C        2.7300    -3.3680     0.6420 C.ar  1 <1>  -0.1500 
 13 C        2.6700     0.8490     0.5650 C.3   1 <1>   0.0400 
 14 H       -2.1930     0.0940    -0.4670 H     1 <1>   0.0800 
 15 H       -0.8300     0.1730     0.6210 H     1 <1>   0.0800 
 16 H       -2.5960    -2.0380     0.5320 H     1 <1>   0.4000 
 17 H        1.6190    -5.0900     0.0930 H     1 <1>   0.1500 
 18 H        3.6070    -1.4870     1.0860 H     1 <1>   0.1500 
 19 H        3.5510    -3.9410     1.0330 H     1 <1>   0.1500 
 20 H        2.3900     1.8780     0.4240 H     1 <1>   0.0800 
 21 H        3.5370     0.6230    -0.0300 H     1 <1>   0.0800 
 22 H        2.8560     0.6620     1.6080 H     1 <1>   0.0800 
@<TRIPOS>BOND
  1   1   2  1   
  2   2   3  1   
  3   2   4  1   
  4   2   5  1   
  5   4   6  ar  
  6   4   7  ar  
  7   5   8  1   
  8   5  14  1   
  9   5  15  1   
 10   6   9  ar  
 11   7  10  1   
 12   7  11  ar  
 13   8  16  1   
 14   9  12  ar  
 15   9  17  1   
 16  10  13  1   
 17  11  12  ar  
 18  11  18  1   
 19  12  19  1   
 20  13  20  1   
 21  13  21  1   
 22  13  22  1   
@<TRIPOS>SUBSTRUCTURE
  1 ****   4 GROUP 4 **** **** 0

# MOE 2024.06 (io_trps.svl 2023.06)
