@<TRIPOS>MOLECULE
NONAME
43 44 1 0 0 
SMALL
USER_CHARGES


@<TRIPOS>ATOM
  1 CL      -0.5770     0.1120    -0.3780 Cl    1 <1>  -0.1770 
  2 C        0.9370    -0.7760    -0.5330 C.ar  1 <1>   0.1770 
  3 C        0.9740    -2.2040    -0.4960 C.ar  1 <1>   0.4100 
  4 C        2.0900    -0.0780    -0.7430 C.ar  1 <1>   0.2170 
  5 N        2.1100    -2.8370    -0.7430 N.ar  1 <1>  -0.6200 
  6 N       -0.1010    -3.0060    -0.2220 N.pl3 1 <1>  -0.8380 
  7 N        3.2240    -0.7990    -0.9380 N.ar  1 <1>  -0.1790 
  8 C        2.2180     1.4410    -0.7960 C.3   1 <1>  -0.0970 
  9 C        3.2000    -2.1410    -0.9490 C.ar  1 <1>   0.7710 
 10 C       -0.3500    -4.2710    -1.0270 C.3   1 <1>   0.2090 
 11 C       -1.2140    -2.6190     0.6990 C.3   1 <1>   0.2090 
 12 N        4.3080    -2.8380    -1.1730 N.pl3 1 <1>  -0.9000 
 13 C       -0.8960    -5.4750    -0.2210 C.3   1 <1>  -0.1060 
 14 C       -1.7160    -3.7900     1.5360 C.3   1 <1>  -0.1600 
 15 C       -1.4990    -6.4590    -1.2320 C.2   1 <1>   0.9060 
 16 C       -2.0770    -4.9560     0.6300 C.3   1 <1>   0.2000 
 17 C        0.2030    -6.2590     0.5800 C.3   1 <1>  -0.1600 
 18 O       -1.1900    -6.3790    -2.4270 O.co2 1 <1>  -0.9000 
 19 O       -2.2870    -7.3290    -0.8280 O.co2 1 <1>  -0.9000 
 20 O       -2.6060    -5.9650     1.4080 O.3   1 <1>  -0.6800 
 21 C        1.3830    -5.4820     1.1860 C.3   1 <1>  -0.1600 
 22 C        2.2140    -6.3770     2.1110 C.3   1 <1>  -0.2400 
 23 H        4.1220    -0.3560    -1.1020 H     1 <1>   0.4570 
 24 H        1.2850     1.9320    -0.5880 H     1 <1>   0.0800 
 25 H        2.5420     1.7550    -1.7730 H     1 <1>   0.0800 
 26 H        2.9320     1.7830    -0.0670 H     1 <1>   0.0800 
 27 H       -1.0730    -4.0190    -1.7850 H     1 <1>   0.0800 
 28 H        0.5370    -4.5840    -1.5480 H     1 <1>   0.0800 
 29 H       -0.8840    -1.8460     1.3700 H     1 <1>   0.0800 
 30 H       -2.0310    -2.2370     0.1100 H     1 <1>   0.0800 
 31 H        5.2580    -2.5150    -1.3600 H     1 <1>   0.4000 
 32 H        4.2110    -3.8610    -1.1730 H     1 <1>   0.4000 
 33 H       -2.5950    -3.4800     2.0710 H     1 <1>   0.0800 
 34 H       -0.9780    -4.0830     2.2550 H     1 <1>   0.0800 
 35 H       -2.8640    -4.6440    -0.0370 H     1 <1>   0.0800 
 36 H       -0.2740    -6.8320     1.3550 H     1 <1>   0.0800 
 37 H        0.6330    -6.9850    -0.0910 H     1 <1>   0.0800 
 38 H       -2.6820    -6.7480     0.7880 H     1 <1>   0.4000 
 39 H        2.0130    -5.1380     0.3900 H     1 <1>   0.0800 
 40 H        1.0420    -4.6290     1.7390 H     1 <1>   0.0800 
 41 H        2.5830    -7.2310     1.5710 H     1 <1>   0.0800 
 42 H        1.6110    -6.7220     2.9330 H     1 <1>   0.0800 
 43 H        3.0490    -5.8270     2.5040 H     1 <1>   0.0800 
@<TRIPOS>BOND
  1   1   2  1   
  2   2   3  ar  
  3   2   4  ar  
  4   3   5  ar  
  5   3   6  1   
  6   4   7  ar  
  7   4   8  1   
  8   5   9  ar  
  9   6  10  1   
 10   6  11  1   
 11   7   9  ar  
 12   7  23  1   
 13   8  24  1   
 14   8  25  1   
 15   8  26  1   
 16   9  12  1   
 17  10  13  1   
 18  10  27  1   
 19  10  28  1   
 20  11  14  1   
 21  11  29  1   
 22  11  30  1   
 23  12  31  1   
 24  12  32  1   
 25  13  15  1   
 26  13  16  1   
 27  13  17  1   
 28  14  16  1   
 29  14  33  1   
 30  14  34  1   
 31  15  18  ar  
 32  15  19  ar  
 33  16  20  1   
 34  16  35  1   
 35  17  21  1   
 36  17  36  1   
 37  17  37  1   
 38  20  38  1   
 39  21  22  1   
 40  21  39  1   
 41  21  40  1   
 42  22  41  1   
 43  22  42  1   
 44  22  43  1   
@<TRIPOS>SUBSTRUCTURE
  1 ****   6 GROUP 4 **** **** 0

# MOE 2024.06 (io_trps.svl 2023.06)
