@<TRIPOS>MOLECULE
NONAME
61 63 1 0 0 
SMALL
USER_CHARGES


@<TRIPOS>ATOM
  1 O       -0.0050     0.1210     0.4820 O.2   1 <1>  -0.5700 
  2 C       -1.0260     0.7560     0.3860 C.2   1 <1>   0.5690 
  3 N       -2.2010     0.1770    -0.0220 N.am  1 <1>  -0.6600 
  4 C       -0.9350     2.2350     0.7180 C.3   1 <1>  -0.0990 
  5 C       -3.5210     0.8570    -0.1950 C.3   1 <1>   0.1400 
  6 C       -2.2740    -1.2860    -0.3350 C.3   1 <1>   0.1400 
  7 C       -0.7540     3.0760    -0.5540 C.3   1 <1>  -0.0220 
  8 C       -4.6370     0.0850     0.5440 C.3   1 <1>   0.2000 
  9 C       -3.4660    -1.9540     0.3850 C.3   1 <1>   0.2000 
 10 C       -0.5100     4.5520    -0.2160 C.2   1 <1>  -0.1240 
 11 O       -4.6450    -1.2490     0.1190 O.3   1 <1>  -0.5600 
 12 C       -6.0550     0.6670     0.3370 C.3   1 <1>  -0.0800 
 13 C       -3.7080    -3.4010    -0.0630 C.3   1 <1>  -0.1600 
 14 C       -1.6190     5.4680    -0.1560 C.2   1 <1>   0.3750 
 15 C        0.7520     5.0240     0.0320 C.2   1 <1>  -0.1690 
 16 C       -6.5240     0.6500    -1.1290 C.3   1 <1>  -0.2400 
 17 C       -6.1830     2.0900     0.9020 C.3   1 <1>  -0.2400 
 18 C       -2.5490    -4.3460     0.2970 C.3   1 <1>  -0.1600 
 19 N       -1.4920     6.7250     0.1060 N.2   1 <1>  -0.5760 
 20 C       -3.0420     4.9940    -0.4000 C.3   1 <1>  -0.1790 
 21 N        0.8730     6.3800     0.3030 N.pl3 1 <1>   0.6010 
 22 C        2.0550     4.2190     0.0490 C.3   1 <1>  -0.1020 
 23 C       -2.8820    -5.7920    -0.0870 C.3   1 <1>  -0.1600 
 24 C       -0.2240     7.1840     0.3340 C.2   1 <1>   0.3120 
 25 N        1.9490     7.1200     0.5650 N.2   1 <1>  -0.7070 
 26 C       -1.7290    -6.7350     0.2680 C.3   1 <1>  -0.2400 
 27 N        0.1080     8.4070     0.6040 N.2   1 <1>  -0.5650 
 28 C        1.4280     8.2960     0.7300 C.2   1 <1>   0.3660 
 29 H       -1.7930     2.5500     1.2780 H     1 <1>   0.0800 
 30 H       -0.0800     2.3770     1.3540 H     1 <1>   0.0800 
 31 H       -3.4870     1.8610     0.1730 H     1 <1>   0.0800 
 32 H       -3.7520     0.8960    -1.2440 H     1 <1>   0.0800 
 33 H       -2.3850    -1.4140    -1.3970 H     1 <1>   0.0800 
 34 H       -1.3640    -1.7760    -0.0380 H     1 <1>   0.0800 
 35 H       -1.6060     2.9550    -1.1970 H     1 <1>   0.0800 
 36 H        0.0780     2.6870    -1.1140 H     1 <1>   0.0800 
 37 H       -4.4230     0.0880     1.5990 H     1 <1>   0.0800 
 38 H       -3.3000    -1.9360     1.4490 H     1 <1>   0.0800 
 39 H       -6.7260     0.0400     0.9020 H     1 <1>   0.0800 
 40 H       -4.6030    -3.7530     0.4170 H     1 <1>   0.0800 
 41 H       -3.8690    -3.4180    -1.1270 H     1 <1>   0.0800 
 42 H       -5.9370     1.3120    -1.7380 H     1 <1>   0.0800 
 43 H       -7.5530     0.9560    -1.1900 H     1 <1>   0.0800 
 44 H       -6.4490    -0.3460    -1.5320 H     1 <1>   0.0800 
 45 H       -5.6030     2.7920     0.3300 H     1 <1>   0.0800 
 46 H       -5.8570     2.1190     1.9270 H     1 <1>   0.0800 
 47 H       -7.2120     2.4040     0.8710 H     1 <1>   0.0800 
 48 H       -1.6540    -4.0450    -0.2190 H     1 <1>   0.0800 
 49 H       -2.3610    -4.2940     1.3560 H     1 <1>   0.0800 
 50 H       -3.2970     4.2130     0.2880 H     1 <1>   0.0800 
 51 H       -3.1500     4.6470    -1.4110 H     1 <1>   0.0800 
 52 H       -3.7330     5.8060    -0.2530 H     1 <1>   0.0800 
 53 H        2.5860     4.4070     0.9670 H     1 <1>   0.0800 
 54 H        2.6830     4.5260    -0.7680 H     1 <1>   0.0800 
 55 H        1.8990     3.1590    -0.0200 H     1 <1>   0.0800 
 56 H       -3.7710    -6.1100     0.4300 H     1 <1>   0.0800 
 57 H       -3.0740    -5.8510    -1.1450 H     1 <1>   0.0800 
 58 H       -1.5340    -6.7090     1.3260 H     1 <1>   0.0800 
 59 H       -0.8340    -6.4510    -0.2570 H     1 <1>   0.0800 
 60 H       -1.9810    -7.7440    -0.0080 H     1 <1>   0.0800 
 61 H        2.0260     9.1650     0.9620 H     1 <1>   0.1500 
@<TRIPOS>BOND
  1   1   2  2   
  2   2   3  am  
  3   2   4  1   
  4   3   5  1   
  5   3   6  1   
  6   4   7  1   
  7   4  29  1   
  8   4  30  1   
  9   5   8  1   
 10   5  31  1   
 11   5  32  1   
 12   6   9  1   
 13   6  33  1   
 14   6  34  1   
 15   7  10  1   
 16   7  35  1   
 17   7  36  1   
 18   8  11  1   
 19   8  12  1   
 20   8  37  1   
 21   9  11  1   
 22   9  13  1   
 23   9  38  1   
 24  10  14  1   
 25  10  15  2   
 26  12  16  1   
 27  12  17  1   
 28  12  39  1   
 29  13  18  1   
 30  13  40  1   
 31  13  41  1   
 32  14  19  2   
 33  14  20  1   
 34  15  21  1   
 35  15  22  1   
 36  16  42  1   
 37  16  43  1   
 38  16  44  1   
 39  17  45  1   
 40  17  46  1   
 41  17  47  1   
 42  18  23  1   
 43  18  48  1   
 44  18  49  1   
 45  19  24  1   
 46  20  50  1   
 47  20  51  1   
 48  20  52  1   
 49  21  24  1   
 50  21  25  1   
 51  22  53  1   
 52  22  54  1   
 53  22  55  1   
 54  23  26  1   
 55  23  56  1   
 56  23  57  1   
 57  24  27  2   
 58  25  28  2   
 59  26  58  1   
 60  26  59  1   
 61  26  60  1   
 62  27  28  1   
 63  28  61  1   
@<TRIPOS>SUBSTRUCTURE
  1 ****   4 GROUP 4 **** **** 0

# MOE 2024.06 (io_trps.svl 2023.06)
