@<TRIPOS>MOLECULE
NONAME
46 48 1 0 0 
SMALL
USER_CHARGES


@<TRIPOS>ATOM
  1 S       -0.2820     0.2570     0.9950 S.3   1 <1>  -0.0800 
  2 C       -1.6930     0.4250    -0.0020 C.2   1 <1>  -0.1400 
  3 C        0.1360     1.9190     0.6110 C.2   1 <1>   0.1980 
  4 C       -1.7210     1.6560    -0.5220 C.2   1 <1>   0.0460 
  5 C       -2.6870    -0.6960    -0.2020 C.3   1 <1>   0.0200 
  6 N       -0.6870     2.5080    -0.1720 N.2   1 <1>  -0.5650 
  7 C        1.4100     2.4650     1.2400 C.3   1 <1>   0.3200 
  8 C       -2.8260     2.1150    -1.4510 C.3   1 <1>   0.0210 
  9 C       -3.9600    -0.1160    -0.8520 C.3   1 <1>  -0.1600 
 10 N        1.6300     3.8570     0.7990 N.am  1 <1>  -0.7300 
 11 C       -3.6410     0.9070    -1.9660 C.3   1 <1>  -0.1600 
 12 C        2.6920     4.6170     1.1470 C.2   1 <1>   0.5690 
 13 O        3.5490     4.1930     1.8820 O.2   1 <1>  -0.5700 
 14 C        2.8070     6.0400     0.6060 C.3   1 <1>  -0.0190 
 15 C        1.5900     6.9060     0.9840 C.3   1 <1>  -0.1600 
 16 C        3.0550     6.0590    -0.9220 C.3   1 <1>  -0.1600 
 17 C        1.7880     8.3850     0.5890 C.3   1 <1>   0.2000 
 18 C        2.6730     7.3940    -1.5940 C.3   1 <1>  -0.1600 
 19 O        0.5320     8.9220     0.2540 O.3   1 <1>  -0.5600 
 20 C        2.7560     8.5650    -0.6110 C.3   1 <1>   0.2000 
 21 C       -0.2640     9.2900     1.3380 C.3   1 <1>   0.0400 
 22 O        2.4260     9.7180    -1.2920 O.3   1 <1>  -0.6800 
 23 H       -2.2480    -1.4410    -0.8410 H     1 <1>   0.0800 
 24 H       -2.9300    -1.1510     0.7420 H     1 <1>   0.0800 
 25 H        2.2490     1.8600     0.9440 H     1 <1>   0.0800 
 26 H        1.3250     2.4390     2.3120 H     1 <1>   0.0800 
 27 H       -3.4650     2.7900    -0.9100 H     1 <1>   0.0800 
 28 H       -2.3990     2.6460    -2.2830 H     1 <1>   0.0800 
 29 H       -4.5540    -0.9200    -1.2510 H     1 <1>   0.0800 
 30 H       -4.5430     0.3750    -0.0920 H     1 <1>   0.0800 
 31 H        0.8940     4.1960     0.1700 H     1 <1>   0.3700 
 32 H       -4.5550     1.2590    -2.4110 H     1 <1>   0.0800 
 33 H       -3.0720     0.4120    -2.7340 H     1 <1>   0.0800 
 34 H        3.6680     6.4770     1.0830 H     1 <1>   0.0800 
 35 H        1.4230     6.8430     2.0450 H     1 <1>   0.0800 
 36 H        0.7210     6.5170     0.4800 H     1 <1>   0.0800 
 37 H        4.0980     5.8570    -1.0960 H     1 <1>   0.0800 
 38 H        2.4970     5.2720    -1.4010 H     1 <1>   0.0800 
 39 H        2.1930     8.9400     1.4190 H     1 <1>   0.0800 
 40 H        1.6600     7.3250    -1.9550 H     1 <1>   0.0800 
 41 H        3.3190     7.5730    -2.4350 H     1 <1>   0.0800 
 42 H        3.7700     8.6650    -0.2630 H     1 <1>   0.0800 
 43 H       -1.1820     9.6980     0.9540 H     1 <1>   0.0800 
 44 H        0.2480    10.0380     1.9180 H     1 <1>   0.0800 
 45 H       -0.4790     8.4240     1.9390 H     1 <1>   0.0800 
 46 H        1.4560     9.8310    -1.1690 H     1 <1>   0.4000 
@<TRIPOS>BOND
  1   1   2  1   
  2   1   3  1   
  3   2   4  2   
  4   2   5  1   
  5   3   6  2   
  6   3   7  1   
  7   4   6  1   
  8   4   8  1   
  9   5   9  1   
 10   5  23  1   
 11   5  24  1   
 12   7  10  1   
 13   7  25  1   
 14   7  26  1   
 15   8  11  1   
 16   8  27  1   
 17   8  28  1   
 18   9  11  1   
 19   9  29  1   
 20   9  30  1   
 21  10  12  am  
 22  10  31  1   
 23  11  32  1   
 24  11  33  1   
 25  12  13  2   
 26  12  14  1   
 27  14  15  1   
 28  14  16  1   
 29  14  34  1   
 30  15  17  1   
 31  15  35  1   
 32  15  36  1   
 33  16  18  1   
 34  16  37  1   
 35  16  38  1   
 36  17  19  1   
 37  17  20  1   
 38  17  39  1   
 39  18  20  1   
 40  18  40  1   
 41  18  41  1   
 42  19  21  1   
 43  20  22  1   
 44  20  42  1   
 45  21  43  1   
 46  21  44  1   
 47  21  45  1   
 48  22  46  1   
@<TRIPOS>SUBSTRUCTURE
  1 ****  10 GROUP 4 **** **** 0

# MOE 2024.06 (io_trps.svl 2023.06)
