@<TRIPOS>MOLECULE
NONAME
57 59 1 0 0 
SMALL
USER_CHARGES


@<TRIPOS>ATOM
  1 O       -3.0300     0.7840    -1.8030 O.2   1 <1>  -0.5700 
  2 C       -2.4840     0.7720    -0.7270 C.2   1 <1>   0.5690 
  3 N       -2.1600    -0.4040    -0.1260 N.am  1 <1>  -0.7300 
  4 C       -2.1490     2.0820    -0.0080 C.3   1 <1>  -0.0190 
  5 C       -2.4010    -1.7180    -0.7390 C.3   1 <1>   0.2200 
  6 C       -2.9420     3.2910    -0.5500 C.3   1 <1>  -0.1600 
  7 C       -0.6280     2.3650    -0.0530 C.3   1 <1>  -0.1600 
  8 C       -3.7180    -2.2840    -0.2160 C.3   1 <1>  -0.1600 
  9 C       -1.2420    -2.6600    -0.4250 C.3   1 <1>  -0.1600 
 10 C       -2.7030     4.5720     0.2800 C.3   1 <1>   0.2000 
 11 C       -0.2590     3.8420     0.1980 C.3   1 <1>  -0.1600 
 12 C       -3.9670    -3.6710    -0.8000 C.3   1 <1>   0.3430 
 13 C       -1.5170    -4.0450    -1.0090 C.3   1 <1>   0.3430 
 14 O       -2.7580     5.6820    -0.5830 O.3   1 <1>  -0.5600 
 15 C       -1.3350     4.5660     1.0120 C.3   1 <1>   0.2000 
 16 N       -2.8130    -4.5700    -0.4880 N.4   1 <1>  -0.9590 
 17 C       -4.0380     6.0710    -0.9720 C.3   1 <1>   0.0400 
 18 O       -0.9200     5.8660     1.2100 O.3   1 <1>  -0.6800 
 19 C       -3.0630    -5.9590    -0.9690 C.3   1 <1>   0.4860 
 20 C       -4.2400    -6.5300    -0.2020 C.ar  1 <1>  -0.1440 
 21 C       -4.0840    -6.9710     1.1050 C.ar  1 <1>  -0.1500 
 22 C       -5.4900    -6.6080    -0.8060 C.ar  1 <1>  -0.1500 
 23 C       -5.1760    -7.4680     1.7980 C.ar  1 <1>   0.0820 
 24 C       -6.5760    -7.1050    -0.1070 C.ar  1 <1>  -0.1500 
 25 O       -5.0470    -7.8980     3.0620 O.3   1 <1>  -0.5330 
 26 C       -6.4200    -7.5320     1.1980 C.ar  1 <1>  -0.1500 
 27 H       -1.7170    -0.3900     0.7940 H     1 <1>   0.3700 
 28 H       -2.4370     1.9520     1.0200 H     1 <1>   0.0800 
 29 H       -2.4720    -1.5970    -1.8100 H     1 <1>   0.0800 
 30 H       -3.9920     3.0610    -0.5510 H     1 <1>   0.0800 
 31 H       -2.6360     3.4630    -1.5680 H     1 <1>   0.0800 
 32 H       -0.1390     1.7480     0.6800 H     1 <1>   0.0800 
 33 H       -0.2400     2.0860    -1.0190 H     1 <1>   0.0800 
 34 H       -3.7100    -2.3390     0.8580 H     1 <1>   0.0800 
 35 H       -4.5230    -1.6340    -0.5140 H     1 <1>   0.0800 
 36 H       -0.3410    -2.2700    -0.8650 H     1 <1>   0.0800 
 37 H       -1.0940    -2.7390     0.6370 H     1 <1>   0.0800 
 38 H       -3.4730     4.6790     1.0260 H     1 <1>   0.0800 
 39 H       -0.1610     4.3420    -0.7510 H     1 <1>   0.0800 
 40 H        0.6870     3.8990     0.7080 H     1 <1>   0.0800 
 41 H       -4.0940    -3.5920    -1.8690 H     1 <1>   0.0800 
 42 H       -4.8770    -4.0730    -0.3810 H     1 <1>   0.0800 
 43 H       -0.7110    -4.7110    -0.7430 H     1 <1>   0.0800 
 44 H       -1.5570    -3.9760    -2.0850 H     1 <1>   0.0800 
 45 H       -1.4280     4.1000     1.9780 H     1 <1>   0.0800 
 46 H       -2.7580    -4.6300     0.5360 H     1 <1>   0.4500 
 47 H       -3.9470     6.9410    -1.5980 H     1 <1>   0.0800 
 48 H       -4.6190     6.3130    -0.0990 H     1 <1>   0.0800 
 49 H       -4.5040     5.2770    -1.5300 H     1 <1>   0.0800 
 50 H       -1.2840     6.3790     0.4530 H     1 <1>   0.4000 
 51 H       -3.2760    -5.9580    -2.0250 H     1 <1>   0.0800 
 52 H       -2.1970    -6.5760    -0.7950 H     1 <1>   0.0800 
 53 H       -3.1260    -6.9380     1.5910 H     1 <1>   0.1500 
 54 H       -5.6370    -6.2870    -1.8250 H     1 <1>   0.1500 
 55 H       -7.5450    -7.1640    -0.5750 H     1 <1>   0.1500 
 56 H       -4.1350    -7.9020     3.4010 H     1 <1>   0.4500 
 57 H       -7.2560    -7.9210     1.7540 H     1 <1>   0.1500 
@<TRIPOS>BOND
  1   1   2  2   
  2   2   3  am  
  3   2   4  1   
  4   3   5  1   
  5   3  27  1   
  6   4   6  1   
  7   4   7  1   
  8   4  28  1   
  9   5   8  1   
 10   5   9  1   
 11   5  29  1   
 12   6  10  1   
 13   6  30  1   
 14   6  31  1   
 15   7  11  1   
 16   7  32  1   
 17   7  33  1   
 18   8  12  1   
 19   8  34  1   
 20   8  35  1   
 21   9  13  1   
 22   9  36  1   
 23   9  37  1   
 24  10  14  1   
 25  10  15  1   
 26  10  38  1   
 27  11  15  1   
 28  11  39  1   
 29  11  40  1   
 30  12  16  1   
 31  12  41  1   
 32  12  42  1   
 33  13  16  1   
 34  13  43  1   
 35  13  44  1   
 36  14  17  1   
 37  15  18  1   
 38  15  45  1   
 39  16  19  1   
 40  16  46  1   
 41  17  47  1   
 42  17  48  1   
 43  17  49  1   
 44  18  50  1   
 45  19  20  1   
 46  19  51  1   
 47  19  52  1   
 48  20  21  ar  
 49  20  22  ar  
 50  21  23  ar  
 51  21  53  1   
 52  22  24  ar  
 53  22  54  1   
 54  23  25  1   
 55  23  26  ar  
 56  24  26  ar  
 57  24  55  1   
 58  25  56  1   
 59  26  57  1   
@<TRIPOS>SUBSTRUCTURE
  1 ****   5 GROUP 4 **** **** 0

# MOE 2024.06 (io_trps.svl 2023.06)
