@<TRIPOS>MOLECULE
NONAME
42 45 1 0 0 
SMALL
USER_CHARGES


@<TRIPOS>ATOM
  1 S        0.8020     0.3660     0.7060 S.3   1 <1>  -0.0800 
  2 C       -0.7620     1.1260     0.4530 C.2   1 <1>  -0.1400 
  3 C        0.0290    -1.1480     1.1570 C.2   1 <1>  -0.1100 
  4 C       -1.7540     0.2580     0.6910 C.2   1 <1>  -0.1810 
  5 C       -0.9140     2.5800     0.0200 C.3   1 <1>   0.4600 
  6 C       -1.3120    -1.0400     1.1000 C.2   1 <1>  -0.1500 
  7 C       -3.1890     0.6990     0.5170 C.3   1 <1>   0.0210 
  8 O       -2.2870     2.9210     0.0730 O.3   1 <1>  -0.5600 
  9 C       -0.2020     3.5190     1.0010 C.3   1 <1>  -0.1600 
 10 C       -0.3940     2.8040    -1.4070 C.3   1 <1>  -0.1600 
 11 C       -3.2240     1.9640    -0.3640 C.3   1 <1>   0.1200 
 12 C       -0.3090     4.9800     0.5600 C.3   1 <1>   0.1400 
 13 C       -0.5040     4.2710    -1.8230 C.3   1 <1>   0.1400 
 14 N        0.2140     5.1140    -0.8280 N.am  1 <1>  -0.6600 
 15 C        1.2540     5.9470    -1.1890 C.2   1 <1>   0.5440 
 16 O        1.4960     6.1200    -2.3690 O.2   1 <1>  -0.5700 
 17 C        2.0520     6.6480    -0.2100 C.ar  1 <1>   0.0860 
 18 C        2.9590     5.9910     0.6190 C.ar  1 <1>   0.1900 
 19 C        1.9520     8.0300    -0.0530 C.ar  1 <1>  -0.1500 
 20 F        3.1050     4.6970     0.5120 F     1 <1>  -0.1900 
 21 C        3.7300     6.6420     1.5670 C.ar  1 <1>  -0.1500 
 22 C        2.7140     8.6970     0.8910 C.ar  1 <1>   0.0820 
 23 C        3.6050     8.0130     1.7060 C.ar  1 <1>  -0.1500 
 24 O        2.5820    10.0260     1.0100 O.3   1 <1>  -0.5330 
 25 H        0.6710    -1.9700     1.4220 H     1 <1>   0.1500 
 26 H       -2.0140    -1.8230     1.3290 H     1 <1>   0.1500 
 27 H       -3.6240     0.9100     1.4770 H     1 <1>   0.0800 
 28 H       -3.7620    -0.0790     0.0460 H     1 <1>   0.0800 
 29 H        0.8370     3.2550     1.0630 H     1 <1>   0.0800 
 30 H       -0.6290     3.3970     1.9790 H     1 <1>   0.0800 
 31 H       -0.9260     2.1810    -2.1000 H     1 <1>   0.0800 
 32 H        0.6410     2.5170    -1.4540 H     1 <1>   0.0800 
 33 H       -4.1980     2.4180    -0.3230 H     1 <1>   0.0800 
 34 H       -3.0050     1.7130    -1.3870 H     1 <1>   0.0800 
 35 H        0.2330     5.6070     1.2440 H     1 <1>   0.0800 
 36 H       -1.3410     5.2890     0.5740 H     1 <1>   0.0800 
 37 H       -1.5370     4.5710    -1.8590 H     1 <1>   0.0800 
 38 H       -0.0850     4.3980    -2.8070 H     1 <1>   0.0800 
 39 H        1.2750     8.5850    -0.6780 H     1 <1>   0.1500 
 40 H        4.4130     6.0810     2.1790 H     1 <1>   0.1500 
 41 H        4.1950     8.5360     2.4370 H     1 <1>   0.1500 
 42 H        3.1790    10.4210     1.6710 H     1 <1>   0.4500 
@<TRIPOS>BOND
  1   1   2  1   
  2   1   3  1   
  3   2   4  2   
  4   2   5  1   
  5   3   6  2   
  6   3  25  1   
  7   4   6  1   
  8   4   7  1   
  9   5   8  1   
 10   5   9  1   
 11   5  10  1   
 12   6  26  1   
 13   7  11  1   
 14   7  27  1   
 15   7  28  1   
 16   8  11  1   
 17   9  12  1   
 18   9  29  1   
 19   9  30  1   
 20  10  13  1   
 21  10  31  1   
 22  10  32  1   
 23  11  33  1   
 24  11  34  1   
 25  12  14  1   
 26  12  35  1   
 27  12  36  1   
 28  13  14  1   
 29  13  37  1   
 30  13  38  1   
 31  14  15  am  
 32  15  16  2   
 33  15  17  1   
 34  17  18  ar  
 35  17  19  ar  
 36  18  20  1   
 37  18  21  ar  
 38  19  22  ar  
 39  19  39  1   
 40  21  23  ar  
 41  21  40  1   
 42  22  23  ar  
 43  22  24  1   
 44  23  41  1   
 45  24  42  1   
@<TRIPOS>SUBSTRUCTURE
  1 ****  12 GROUP 4 **** **** 0

# MOE 2024.06 (io_trps.svl 2023.06)
