@<TRIPOS>MOLECULE
NONAME
42 44 1 0 0 
SMALL
USER_CHARGES


@<TRIPOS>ATOM
  1 O        1.4100     0.2280    -1.3010 O.3   1 <1>  -0.6800 
  2 C        1.4530     0.0320     0.0660 C.3   1 <1>   0.2800 
  3 C        2.9210     0.1740     0.5450 C.3   1 <1>  -0.0800 
  4 C        0.9480    -1.3950     0.3460 C.3   1 <1>  -0.1600 
  5 C        0.4980     1.0630     0.7090 C.3   1 <1>  -0.1600 
  6 C        3.7760    -1.1100     0.4670 C.3   1 <1>  -0.0800 
  7 C        3.7250     1.2050    -0.2370 C.3   1 <1>   0.3430 
  8 C        1.7880    -2.5090    -0.3110 C.3   1 <1>  -0.1600 
  9 C        0.8290     2.5460     0.4630 C.3   1 <1>  -0.2400 
 10 C        3.2490    -2.1090    -0.5760 C.3   1 <1>  -0.1600 
 11 C        5.1940    -0.6520     0.1090 C.3   1 <1>   0.3430 
 12 N        5.1340     0.8240    -0.0050 N.4   1 <1>  -0.9590 
 13 C        6.0680     1.4370    -0.9800 C.3   1 <1>   0.5240 
 14 C        6.2390     2.8940    -0.5700 C.2   1 <1>   0.0460 
 15 N        6.3410     3.2170     0.7380 N.2   1 <1>  -0.5650 
 16 C        6.2950     4.0020    -1.3440 C.2   1 <1>  -0.3020 
 17 C        6.4690     4.5060     0.7290 C.2   1 <1>   0.0360 
 18 N        6.4490     5.0460    -0.5080 N.pl3 1 <1>   0.0330 
 19 H        0.5020     0.0580    -1.6200 H     1 <1>   0.4000 
 20 H        2.9070     0.4830     1.5760 H     1 <1>   0.0800 
 21 H        0.9730    -1.5460     1.4120 H     1 <1>   0.0800 
 22 H       -0.0800    -1.4960     0.0470 H     1 <1>   0.0800 
 23 H       -0.5000     0.8770     0.3510 H     1 <1>   0.0800 
 24 H        0.4750     0.8970     1.7720 H     1 <1>   0.0800 
 25 H        3.7900    -1.5970     1.4270 H     1 <1>   0.0800 
 26 H        3.5280     2.2110     0.0950 H     1 <1>   0.0800 
 27 H        3.4950     1.1240    -1.2870 H     1 <1>   0.0800 
 28 H        1.7610    -3.3790     0.3230 H     1 <1>   0.0800 
 29 H        1.3380    -2.7870    -1.2490 H     1 <1>   0.0800 
 30 H        0.9310     2.7490    -0.5890 H     1 <1>   0.0800 
 31 H        1.7310     2.8320     0.9710 H     1 <1>   0.0800 
 32 H        0.0310     3.1590     0.8440 H     1 <1>   0.0800 
 33 H        3.3050    -1.6600    -1.5540 H     1 <1>   0.0800 
 34 H        3.8610    -2.9950    -0.5940 H     1 <1>   0.0800 
 35 H        5.4840    -1.0860    -0.8340 H     1 <1>   0.0800 
 36 H        5.9010    -0.9480     0.8680 H     1 <1>   0.0800 
 37 H        5.4140     1.2680     0.8880 H     1 <1>   0.4500 
 38 H        7.0270     0.9510    -0.9240 H     1 <1>   0.0800 
 39 H        5.6870     1.3620    -1.9840 H     1 <1>   0.0800 
 40 H        6.2410     4.1130    -2.4130 H     1 <1>   0.1500 
 41 H        6.5830     5.1120     1.6130 H     1 <1>   0.1500 
 42 H        6.5380     6.0400    -0.7480 H     1 <1>   0.2700 
@<TRIPOS>BOND
  1   1   2  1   
  2   1  19  1   
  3   2   3  1   
  4   2   4  1   
  5   2   5  1   
  6   3   6  1   
  7   3   7  1   
  8   3  20  1   
  9   4   8  1   
 10   4  21  1   
 11   4  22  1   
 12   5   9  1   
 13   5  23  1   
 14   5  24  1   
 15   6  10  1   
 16   6  11  1   
 17   6  25  1   
 18   7  12  1   
 19   7  26  1   
 20   7  27  1   
 21   8  10  1   
 22   8  28  1   
 23   8  29  1   
 24   9  30  1   
 25   9  31  1   
 26   9  32  1   
 27  10  33  1   
 28  10  34  1   
 29  11  12  1   
 30  11  35  1   
 31  11  36  1   
 32  12  13  1   
 33  12  37  1   
 34  13  14  1   
 35  13  38  1   
 36  13  39  1   
 37  14  15  1   
 38  14  16  2   
 39  15  17  2   
 40  16  18  1   
 41  16  40  1   
 42  17  18  1   
 43  17  41  1   
 44  18  42  1   
@<TRIPOS>SUBSTRUCTURE
  1 ****   7 GROUP 4 **** **** 0

# MOE 2024.06 (io_trps.svl 2023.06)
