@<TRIPOS>MOLECULE
NONAME
61 63 1 0 0 
SMALL
USER_CHARGES


@<TRIPOS>ATOM
  1 S       -2.6010     0.2570     1.9880 S.o2  1 <1>   1.3330 
  2 O       -3.7340    -0.6160     2.1800 O.2   1 <1>  -0.6500 
  3 O       -2.2760     1.2390     2.9930 O.2   1 <1>  -0.6500 
  4 N       -2.8460     1.0780     0.4840 N.am  1 <1>  -0.6930 
  5 C       -1.1580    -0.7300     1.6510 C.3   1 <1>  -0.1350 
  6 C       -1.9770     2.0700     0.0370 C.ar  1 <1>   0.1990 
  7 C       -3.8780     0.5220    -0.4470 C.3   1 <1>   0.2570 
  8 C       -1.8470     3.2650     0.7350 C.ar  1 <1>  -0.1500 
  9 C       -1.2200     1.8930    -1.1170 C.ar  1 <1>  -0.1500 
 10 C       -3.6500    -0.9450    -0.8650 C.2   1 <1>   0.5690 
 11 C       -0.9880     4.2610     0.3020 C.ar  1 <1>  -0.1440 
 12 C       -0.3630     2.8830    -1.5600 C.ar  1 <1>  -0.1500 
 13 O       -2.6100    -1.1730    -1.4390 O.2   1 <1>  -0.5700 
 14 N       -4.5640    -1.9580    -0.6400 N.am  1 <1>  -0.6600 
 15 C       -0.2470     4.0660    -0.8520 C.ar  1 <1>  -0.1500 
 16 C       -0.8580     5.5570     1.0810 C.3   1 <1>  -0.0970 
 17 C       -4.3300    -3.3390    -1.1950 C.3   1 <1>   0.1400 
 18 C       -5.8620    -1.8070     0.0860 C.3   1 <1>   0.1400 
 19 C       -4.3990    -4.4330    -0.1020 C.3   1 <1>   0.0000 
 20 C       -6.0000    -2.8720     1.1740 C.3   1 <1>  -0.1600 
 21 C       -5.7730    -4.2660     0.5950 C.3   1 <1>   0.2000 
 22 C       -4.4080    -5.8320    -0.7710 C.3   1 <1>   0.1200 
 23 C       -3.2160    -4.2780     0.9090 C.3   1 <1>  -0.0170 
 24 O       -5.9410    -5.1850     1.6160 O.3   1 <1>  -0.6800 
 25 O       -3.4000    -5.9610    -1.7160 O.3   1 <1>  -0.6800 
 26 C       -1.8760    -4.8450     0.4460 C.ar  1 <1>  -0.1440 
 27 C       -1.0410    -4.1200    -0.3890 C.ar  1 <1>  -0.1500 
 28 C       -1.4850    -6.1120     0.8540 C.ar  1 <1>  -0.1500 
 29 C        0.1610    -4.6540    -0.8180 C.ar  1 <1>  -0.1500 
 30 C       -0.2830    -6.6490     0.4260 C.ar  1 <1>  -0.1500 
 31 C        0.5410    -5.9200    -0.4120 C.ar  1 <1>  -0.1500 
 32 H       -1.3430    -1.3980     0.8350 H     1 <1>   0.0800 
 33 H       -0.8960    -1.3080     2.5150 H     1 <1>   0.0800 
 34 H       -0.3310    -0.0970     1.3960 H     1 <1>   0.0800 
 35 H       -4.8370     0.6600     0.0040 H     1 <1>   0.0800 
 36 H       -3.8780     1.1090    -1.3470 H     1 <1>   0.0800 
 37 H       -2.4290     3.4090     1.6270 H     1 <1>   0.1500 
 38 H       -1.2970     0.9750    -1.6700 H     1 <1>   0.1500 
 39 H        0.2160     2.7330    -2.4550 H     1 <1>   0.1500 
 40 H        0.4220     4.8330    -1.2020 H     1 <1>   0.1500 
 41 H        0.1710     5.8690     1.1160 H     1 <1>   0.0800 
 42 H       -1.2070     5.4300     2.0900 H     1 <1>   0.0800 
 43 H       -1.4400     6.3270     0.6070 H     1 <1>   0.0800 
 44 H       -5.0820    -3.5350    -1.9400 H     1 <1>   0.0800 
 45 H       -3.3810    -3.3920    -1.6990 H     1 <1>   0.0800 
 46 H       -5.9520    -0.8480     0.5570 H     1 <1>   0.0800 
 47 H       -6.6670    -1.9080    -0.6220 H     1 <1>   0.0800 
 48 H       -6.9910    -2.8120     1.5880 H     1 <1>   0.0800 
 49 H       -5.2960    -2.6640     1.9590 H     1 <1>   0.0800 
 50 H       -6.5520    -4.4640    -0.1230 H     1 <1>   0.0800 
 51 H       -5.3390    -6.0010    -1.2850 H     1 <1>   0.0800 
 52 H       -4.2840    -6.6090    -0.0350 H     1 <1>   0.0800 
 53 H       -3.0810    -3.2410     1.1590 H     1 <1>   0.0800 
 54 H       -3.4630    -4.7740     1.8290 H     1 <1>   0.0800 
 55 H       -5.4480    -4.9000     2.4100 H     1 <1>   0.4000 
 56 H       -2.5240    -5.8190    -1.2840 H     1 <1>   0.4000 
 57 H       -1.3180    -3.1360    -0.7190 H     1 <1>   0.1500 
 58 H       -2.1160    -6.6930     1.5040 H     1 <1>   0.1500 
 59 H        0.7990    -4.0820    -1.4700 H     1 <1>   0.1500 
 60 H        0.0100    -7.6340     0.7440 H     1 <1>   0.1500 
 61 H        1.4750    -6.3370    -0.7470 H     1 <1>   0.1500 
@<TRIPOS>BOND
  1   1   2  2   
  2   1   3  2   
  3   1   4  am  
  4   1   5  1   
  5   4   6  1   
  6   4   7  1   
  7   5  32  1   
  8   5  33  1   
  9   5  34  1   
 10   6   8  ar  
 11   6   9  ar  
 12   7  10  1   
 13   7  35  1   
 14   7  36  1   
 15   8  11  ar  
 16   8  37  1   
 17   9  12  ar  
 18   9  38  1   
 19  10  13  2   
 20  10  14  am  
 21  11  15  ar  
 22  11  16  1   
 23  12  15  ar  
 24  12  39  1   
 25  14  17  1   
 26  14  18  1   
 27  15  40  1   
 28  16  41  1   
 29  16  42  1   
 30  16  43  1   
 31  17  19  1   
 32  17  44  1   
 33  17  45  1   
 34  18  20  1   
 35  18  46  1   
 36  18  47  1   
 37  19  21  1   
 38  19  22  1   
 39  19  23  1   
 40  20  21  1   
 41  20  48  1   
 42  20  49  1   
 43  21  24  1   
 44  21  50  1   
 45  22  25  1   
 46  22  51  1   
 47  22  52  1   
 48  23  26  1   
 49  23  53  1   
 50  23  54  1   
 51  24  55  1   
 52  25  56  1   
 53  26  27  ar  
 54  26  28  ar  
 55  27  29  ar  
 56  27  57  1   
 57  28  30  ar  
 58  28  58  1   
 59  29  31  ar  
 60  29  59  1   
 61  30  31  ar  
 62  30  60  1   
 63  31  61  1   
@<TRIPOS>SUBSTRUCTURE
  1 ****  10 GROUP 4 **** **** 0

# MOE 2024.06 (io_trps.svl 2023.06)
