@<TRIPOS>MOLECULE
NONAME
57 58 1 0 0 
SMALL
USER_CHARGES


@<TRIPOS>ATOM
  1 O        3.1320    -1.0560     1.7670 O.co2 1 <1>  -0.9000 
  2 C        2.5430    -0.9220     0.6870 C.2   1 <1>   0.9060 
  3 O        2.2260    -1.8990    -0.0070 O.co2 1 <1>  -0.9000 
  4 C        2.2620     0.4830     0.1270 C.3   1 <1>  -0.1060 
  5 C        3.1800     0.5420    -1.1230 C.3   1 <1>   0.2000 
  6 C        2.6830     1.5970     1.1350 C.3   1 <1>  -0.1600 
  7 C        0.7270     0.6150    -0.1500 C.3   1 <1>  -0.1600 
  8 O        2.5510    -0.0250    -2.2190 O.3   1 <1>  -0.6800 
  9 C        3.7000     1.9520    -1.4330 C.3   1 <1>   0.1400 
 10 C        4.1800     1.9040     1.0580 C.3   1 <1>   0.1400 
 11 C        0.2570     1.8530    -0.9420 C.3   1 <1>  -0.1600 
 12 N        4.5220     2.4840    -0.2840 N.am  1 <1>  -0.6600 
 13 C       -1.2650     1.8460    -1.1040 C.3   1 <1>  -0.2400 
 14 C        5.4630     3.4670    -0.5410 C.2   1 <1>   0.5690 
 15 O        5.3920     4.0650    -1.5950 O.2   1 <1>  -0.5700 
 16 C        6.6110     3.8730     0.4520 C.3   1 <1>   0.3410 
 17 O        7.7010     4.4180    -0.3150 O.3   1 <1>  -0.3630 
 18 C        6.0910     4.9120     1.4720 C.3   1 <1>  -0.2400 
 19 C        7.2340     2.6680     1.1860 C.3   1 <1>  -0.2400 
 20 C        8.3610     5.5570     0.0240 C.ar  1 <1>   0.0820 
 21 C        8.0680     6.7590    -0.6210 C.ar  1 <1>  -0.1440 
 22 C        9.3420     5.5050     1.0020 C.ar  1 <1>  -0.1500 
 23 C        8.7280     7.9210    -0.2240 C.ar  1 <1>  -0.1440 
 24 C        7.0360     6.7650    -1.7480 C.3   1 <1>  -0.0970 
 25 C       10.0030     6.6570     1.3820 C.ar  1 <1>  -0.1500 
 26 C        9.6890     7.8580     0.7750 C.ar  1 <1>  -0.1500 
 27 C        8.4340     9.2760    -0.8540 C.3   1 <1>  -0.0970 
 28 H        4.0520    -0.0660    -0.9460 H     1 <1>   0.0800 
 29 H        2.4310     1.2930     2.1360 H     1 <1>   0.0800 
 30 H        2.1610     2.5160     0.9550 H     1 <1>   0.0800 
 31 H        0.4000    -0.2580    -0.6890 H     1 <1>   0.0800 
 32 H        0.2170     0.5910     0.7970 H     1 <1>   0.0800 
 33 H        2.2300    -0.9080    -1.9060 H     1 <1>   0.4000 
 34 H        2.8780     2.6180    -1.6110 H     1 <1>   0.0800 
 35 H        4.3100     1.9100    -2.3190 H     1 <1>   0.0800 
 36 H        4.7390     0.9950     1.2150 H     1 <1>   0.0800 
 37 H        4.4200     2.5930     1.8420 H     1 <1>   0.0800 
 38 H        0.5450     2.7610    -0.4470 H     1 <1>   0.0800 
 39 H        0.7050     1.8480    -1.9200 H     1 <1>   0.0800 
 40 H       -1.7450     1.8690    -0.1420 H     1 <1>   0.0800 
 41 H       -1.5790     0.9600    -1.6280 H     1 <1>   0.0800 
 42 H       -1.5790     2.7070    -1.6680 H     1 <1>   0.0800 
 43 H        5.2500     4.5280     2.0140 H     1 <1>   0.0800 
 44 H        5.7660     5.7980     0.9580 H     1 <1>   0.0800 
 45 H        6.8490     5.1700     2.1880 H     1 <1>   0.0800 
 46 H        6.5890     2.2880     1.9510 H     1 <1>   0.0800 
 47 H        8.1520     2.9440     1.6640 H     1 <1>   0.0800 
 48 H        7.4300     1.8790     0.4820 H     1 <1>   0.0800 
 49 H        9.5940     4.5720     1.4640 H     1 <1>   0.1500 
 50 H        7.1570     7.6020    -2.4080 H     1 <1>   0.0800 
 51 H        6.0440     6.7860    -1.3370 H     1 <1>   0.0800 
 52 H        7.1390     5.8770    -2.3450 H     1 <1>   0.0800 
 53 H       10.7600     6.6190     2.1450 H     1 <1>   0.1500 
 54 H       10.2070     8.7490     1.0840 H     1 <1>   0.1500 
 55 H        8.9180    10.0680    -0.3130 H     1 <1>   0.0800 
 56 H        7.3760     9.4650    -0.8460 H     1 <1>   0.0800 
 57 H        8.7880     9.2910    -1.8690 H     1 <1>   0.0800 
@<TRIPOS>BOND
  1   1   2  ar  
  2   2   3  ar  
  3   2   4  1   
  4   4   5  1   
  5   4   6  1   
  6   4   7  1   
  7   5   8  1   
  8   5   9  1   
  9   5  28  1   
 10   6  10  1   
 11   6  29  1   
 12   6  30  1   
 13   7  11  1   
 14   7  31  1   
 15   7  32  1   
 16   8  33  1   
 17   9  12  1   
 18   9  34  1   
 19   9  35  1   
 20  10  12  1   
 21  10  36  1   
 22  10  37  1   
 23  11  13  1   
 24  11  38  1   
 25  11  39  1   
 26  12  14  am  
 27  13  40  1   
 28  13  41  1   
 29  13  42  1   
 30  14  15  2   
 31  14  16  1   
 32  16  17  1   
 33  16  18  1   
 34  16  19  1   
 35  17  20  1   
 36  18  43  1   
 37  18  44  1   
 38  18  45  1   
 39  19  46  1   
 40  19  47  1   
 41  19  48  1   
 42  20  21  ar  
 43  20  22  ar  
 44  21  23  ar  
 45  21  24  1   
 46  22  25  ar  
 47  22  49  1   
 48  23  26  ar  
 49  23  27  1   
 50  24  50  1   
 51  24  51  1   
 52  24  52  1   
 53  25  26  ar  
 54  25  53  1   
 55  26  54  1   
 56  27  55  1   
 57  27  56  1   
 58  27  57  1   
@<TRIPOS>SUBSTRUCTURE
  1 ****  14 GROUP 4 **** **** 0

# MOE 2024.06 (io_trps.svl 2023.06)
