@<TRIPOS>MOLECULE
NONAME
48 51 1 0 0 
SMALL
USER_CHARGES


@<TRIPOS>ATOM
  1 O        1.2530    -0.8740    -2.6700 O.2   1 <1>  -0.5700 
  2 C        1.1130    -1.5210    -1.6430 C.2   1 <1>   0.5440 
  3 N        0.7300    -0.8180    -0.5130 N.am  1 <1>  -0.6600 
  4 C        1.3870    -2.9620    -1.6780 C.ar  1 <1>   0.3960 
  5 C        0.5490    -1.3730     0.8500 C.3   1 <1>   0.1400 
  6 C        0.5760     0.6540    -0.5010 C.3   1 <1>   0.1400 
  7 N        0.8010    -3.8130    -0.8160 N.ar  1 <1>  -0.6200 
  8 C        2.2810    -3.4260    -2.6520 C.ar  1 <1>   0.1600 
  9 C        0.1600    -0.1820     1.7200 C.3   1 <1>  -0.1600 
 10 C        0.6730     1.0420     0.9680 C.3   1 <1>  -0.1600 
 11 C        1.1540    -5.0680    -0.9820 C.ar  1 <1>   0.4100 
 12 N        2.6540    -4.6880    -2.8270 N.ar  1 <1>  -0.6200 
 13 N        0.5460    -5.9230    -0.1070 N.pl3 1 <1>  -0.8690 
 14 C        2.0680    -5.4860    -1.9600 C.ar  1 <1>   0.1600 
 15 C       -0.2400    -7.0530    -0.6140 C.3   1 <1>   0.4330 
 16 C       -1.6150    -7.0060     0.0400 C.ar  1 <1>  -0.1430 
 17 C        0.4940    -8.3460    -0.2780 C.3   1 <1>  -0.2400 
 18 C       -2.7540    -6.9590    -0.7540 C.ar  1 <1>  -0.1500 
 19 C       -1.7550    -7.0080     1.4250 C.ar  1 <1>  -0.1500 
 20 C       -4.0110    -6.9190    -0.1760 C.ar  1 <1>   0.0830 
 21 C       -3.0100    -6.9590     2.0090 C.ar  1 <1>  -0.1500 
 22 O       -5.1020    -6.8960    -0.9830 O.3   1 <1>  -0.3630 
 23 C       -4.1390    -6.9080     1.2140 C.ar  1 <1>   0.0830 
 24 C       -6.3510    -7.1740    -0.3780 C.3   1 <1>   0.1200 
 25 O       -5.3580    -6.8430     1.8060 O.3   1 <1>  -0.3630 
 26 C       -6.4500    -6.4740     0.9850 C.3   1 <1>   0.1200 
 27 H        1.4760    -1.8040     1.1850 H     1 <1>   0.0800 
 28 H       -0.2260    -2.1210     0.8590 H     1 <1>   0.0800 
 29 H       -0.3920     0.9050    -0.8990 H     1 <1>   0.0800 
 30 H        1.3420     1.1310    -1.0900 H     1 <1>   0.0800 
 31 H        2.7140    -2.7050    -3.3230 H     1 <1>   0.1500 
 32 H        0.5730    -0.2600     2.7100 H     1 <1>   0.0800 
 33 H       -0.9130    -0.1410     1.7920 H     1 <1>   0.0800 
 34 H        0.1050     1.9280     1.1860 H     1 <1>   0.0800 
 35 H        1.7060     1.2170     1.2140 H     1 <1>   0.0800 
 36 H       -0.0450    -5.3890     0.5360 H     1 <1>   0.4000 
 37 H        2.3110    -6.5300    -2.0050 H     1 <1>   0.1500 
 38 H       -0.3480    -6.9700    -1.6840 H     1 <1>   0.0800 
 39 H        0.6590    -8.4240     0.7810 H     1 <1>   0.0800 
 40 H        1.4400    -8.3820    -0.7850 H     1 <1>   0.0800 
 41 H       -0.0960    -9.1860    -0.5960 H     1 <1>   0.0800 
 42 H       -2.6830    -6.9540    -1.8270 H     1 <1>   0.1500 
 43 H       -0.8840    -7.0460     2.0570 H     1 <1>   0.1500 
 44 H       -3.1180    -6.9580     3.0790 H     1 <1>   0.1500 
 45 H       -6.4340    -8.2390    -0.2570 H     1 <1>   0.0800 
 46 H       -7.1240    -6.8310    -1.0410 H     1 <1>   0.0800 
 47 H       -7.3560    -6.7520     1.4930 H     1 <1>   0.0800 
 48 H       -6.4280    -5.4060     0.8590 H     1 <1>   0.0800 
@<TRIPOS>BOND
  1   1   2  2   
  2   2   3  am  
  3   2   4  1   
  4   3   5  1   
  5   3   6  1   
  6   4   7  ar  
  7   4   8  ar  
  8   5   9  1   
  9   5  27  1   
 10   5  28  1   
 11   6  10  1   
 12   6  29  1   
 13   6  30  1   
 14   7  11  ar  
 15   8  12  ar  
 16   8  31  1   
 17   9  10  1   
 18   9  32  1   
 19   9  33  1   
 20  10  34  1   
 21  10  35  1   
 22  11  13  1   
 23  11  14  ar  
 24  12  14  ar  
 25  13  15  1   
 26  13  36  1   
 27  14  37  1   
 28  15  16  1   
 29  15  17  1   
 30  15  38  1   
 31  16  18  ar  
 32  16  19  ar  
 33  17  39  1   
 34  17  40  1   
 35  17  41  1   
 36  18  20  ar  
 37  18  42  1   
 38  19  21  ar  
 39  19  43  1   
 40  20  22  1   
 41  20  23  ar  
 42  21  23  ar  
 43  21  44  1   
 44  22  24  1   
 45  23  25  1   
 46  24  26  1   
 47  24  45  1   
 48  24  46  1   
 49  25  26  1   
 50  26  47  1   
 51  26  48  1   
@<TRIPOS>SUBSTRUCTURE
  1 ****   7 GROUP 4 **** **** 0

# MOE 2024.06 (io_trps.svl 2023.06)
