@<TRIPOS>MOLECULE
NONAME
53 56 1 0 0 
SMALL
USER_CHARGES


@<TRIPOS>ATOM
  1 S       -0.0430     0.2790    -1.3180 S.o2  1 <1>   1.2040 
  2 O       -0.6350     1.0510    -2.3880 O.2   1 <1>  -0.6500 
  3 O        0.0740    -1.1570    -1.4400 O.2   1 <1>  -0.6500 
  4 C        1.5620     0.9880    -0.8760 C.ar  1 <1>  -0.0090 
  5 C       -1.0000     0.6030     0.1500 C.3   1 <1>  -0.1350 
  6 C        2.5040     0.2510    -0.1740 C.ar  1 <1>  -0.1500 
  7 C        1.8840     2.2980    -1.1970 C.ar  1 <1>  -0.1500 
  8 C        3.7170     0.8020     0.2020 C.ar  1 <1>  -0.1500 
  9 C        3.0960     2.8530    -0.8250 C.ar  1 <1>  -0.1500 
 10 C        4.0360     2.1190    -0.1100 C.ar  1 <1>  -0.1430 
 11 C        5.3860     2.7770     0.2720 C.3   1 <1>   0.2040 
 12 C        5.1250     4.2320     0.7520 C.2   1 <1>   0.5690 
 13 C        6.2630     2.7030    -1.0160 C.3   1 <1>  -0.1600 
 14 C        6.1180     2.0580     1.4490 C.3   1 <1>  -0.1600 
 15 O        4.4030     4.4100     1.7060 O.2   1 <1>  -0.5700 
 16 N        5.7360     5.2790     0.1070 N.am  1 <1>  -0.4940 
 17 C        7.7700     2.8020    -0.7260 C.3   1 <1>  -0.1600 
 18 C        7.1370     0.9980     0.9990 C.3   1 <1>  -0.1600 
 19 C        5.7360     6.6730     0.3570 C.2   1 <1>  -0.0880 
 20 C        8.2500     1.6240     0.1420 C.3   1 <1>  -0.1600 
 21 N        4.7310     7.4520     0.8670 N.pl3 1 <1>   0.3140 
 22 C        6.7620     7.5200     0.1080 C.2   1 <1>  -0.1810 
 23 N        5.1000     8.7560     0.9360 N.2   1 <1>  -0.7070 
 24 C        3.3630     7.0690     1.2420 C.3   1 <1>   0.0160 
 25 C        6.3120     8.7680     0.4840 C.2   1 <1>   0.1080 
 26 C        8.1700     7.4260    -0.4310 C.3   1 <1>   0.2510 
 27 C        7.2640     9.9290     0.3180 C.3   1 <1>   0.2510 
 28 S        8.7490     9.1480    -0.3920 S.3   1 <1>  -0.4600 
 29 H       -1.9980     0.2300     0.0250 H     1 <1>   0.0800 
 30 H       -1.0510     1.6570     0.3380 H     1 <1>   0.0800 
 31 H       -0.5580     0.1190     0.9990 H     1 <1>   0.0800 
 32 H        2.2900    -0.7740     0.0810 H     1 <1>   0.1500 
 33 H        1.1780     2.8950    -1.7500 H     1 <1>   0.1500 
 34 H        4.4030     0.1730     0.7390 H     1 <1>   0.1500 
 35 H        3.2930     3.8730    -1.1070 H     1 <1>   0.1500 
 36 H        5.9600     3.4470    -1.7310 H     1 <1>   0.0800 
 37 H        6.0920     1.7530    -1.4940 H     1 <1>   0.0800 
 38 H        5.4020     1.6380     2.1320 H     1 <1>   0.0800 
 39 H        6.6670     2.7910     2.0170 H     1 <1>   0.0800 
 40 H        6.3890     4.9870    -0.6200 H     1 <1>   0.3700 
 41 H        7.9870     3.7220    -0.2120 H     1 <1>   0.0800 
 42 H        8.3230     2.8090    -1.6500 H     1 <1>   0.0800 
 43 H        6.6380     0.2370     0.4250 H     1 <1>   0.0800 
 44 H        7.5730     0.5190     1.8590 H     1 <1>   0.0800 
 45 H        9.0430     1.9710     0.7830 H     1 <1>   0.0800 
 46 H        8.6650     0.8570    -0.4900 H     1 <1>   0.0800 
 47 H        3.0070     6.3100     0.5720 H     1 <1>   0.0800 
 48 H        2.7270     7.9320     1.1830 H     1 <1>   0.0800 
 49 H        3.3700     6.6950     2.2480 H     1 <1>   0.0800 
 50 H        8.2000     7.0870    -1.4510 H     1 <1>   0.0800 
 51 H        8.8130     6.8430     0.2040 H     1 <1>   0.0800 
 52 H        7.5270    10.3720     1.2610 H     1 <1>   0.0800 
 53 H        6.8940    10.6600    -0.3770 H     1 <1>   0.0800 
@<TRIPOS>BOND
  1   1   2  2   
  2   1   3  2   
  3   1   4  1   
  4   1   5  1   
  5   4   6  ar  
  6   4   7  ar  
  7   5  29  1   
  8   5  30  1   
  9   5  31  1   
 10   6   8  ar  
 11   6  32  1   
 12   7   9  ar  
 13   7  33  1   
 14   8  10  ar  
 15   8  34  1   
 16   9  10  ar  
 17   9  35  1   
 18  10  11  1   
 19  11  12  1   
 20  11  13  1   
 21  11  14  1   
 22  12  15  2   
 23  12  16  am  
 24  13  17  1   
 25  13  36  1   
 26  13  37  1   
 27  14  18  1   
 28  14  38  1   
 29  14  39  1   
 30  16  19  1   
 31  16  40  1   
 32  17  20  1   
 33  17  41  1   
 34  17  42  1   
 35  18  20  1   
 36  18  43  1   
 37  18  44  1   
 38  19  21  1   
 39  19  22  2   
 40  20  45  1   
 41  20  46  1   
 42  21  23  1   
 43  21  24  1   
 44  22  25  1   
 45  22  26  1   
 46  23  25  2   
 47  24  47  1   
 48  24  48  1   
 49  24  49  1   
 50  25  27  1   
 51  26  28  1   
 52  26  50  1   
 53  26  51  1   
 54  27  28  1   
 55  27  52  1   
 56  27  53  1   
@<TRIPOS>SUBSTRUCTURE
  1 ****  12 GROUP 4 **** **** 0

# MOE 2024.06 (io_trps.svl 2023.06)
