@<TRIPOS>MOLECULE
NONAME
53 55 1 0 0 
SMALL
USER_CHARGES


@<TRIPOS>ATOM
  1 O       -2.3710     1.2700    -1.4610 O.2   1 <1>  -0.5700 
  2 C       -1.9670     0.8500    -0.4020 C.2   1 <1>   0.5690 
  3 N       -1.8500    -0.4830    -0.1720 N.am  1 <1>  -0.7300 
  4 C       -1.5790     1.8480     0.7020 C.3   1 <1>   0.1710 
  5 C       -2.1670    -1.5480    -1.1550 C.3   1 <1>   0.2200 
  6 N       -0.2830     2.5750     0.5040 N.3   1 <1>  -0.8100 
  7 C       -3.4700    -2.2570    -0.8040 C.3   1 <1>  -0.0800 
  8 C       -1.1760    -2.6890    -0.9690 C.3   1 <1>   0.1200 
  9 C       -0.3610     3.4010    -0.7400 C.3   1 <1>   0.1100 
 10 C        0.8390     1.6160     0.4460 C.3   1 <1>   0.1100 
 11 C       -3.0280    -3.3180     0.2120 C.3   1 <1>   0.1200 
 12 C       -4.6200    -1.3550    -0.3210 C.3   1 <1>  -0.0160 
 13 O       -1.6310    -3.3670     0.1600 O.3   1 <1>  -0.5600 
 14 C        0.5720     4.6290    -0.7270 C.3   1 <1>   0.3430 
 15 C        2.1500     2.2480     0.9260 C.3   1 <1>  -0.1600 
 16 C       -5.8910    -2.1630    -0.1110 C.ar  1 <1>  -0.1440 
 17 N        1.5220     4.5510     0.4170 N.4   1 <1>  -0.9590 
 18 C        2.5640     3.5230     0.1940 C.3   1 <1>   0.3430 
 19 C       -6.7200    -2.4950    -1.1630 C.ar  1 <1>  -0.1500 
 20 C       -6.2820    -2.6070     1.1370 C.ar  1 <1>  -0.1500 
 21 C        2.0680     5.8780     0.8200 C.3   1 <1>   0.2630 
 22 C       -7.8640    -3.2390    -0.9260 C.ar  1 <1>   0.1600 
 23 C       -7.4470    -3.3450     1.2660 C.ar  1 <1>   0.1600 
 24 N       -8.2460    -3.6740     0.2640 N.ar  1 <1>  -0.6200 
 25 H       -1.5470    -0.8520     0.7340 H     1 <1>   0.3700 
 26 H       -1.5420     1.3230     1.6400 H     1 <1>   0.0800 
 27 H       -2.3730     2.5690     0.7830 H     1 <1>   0.0800 
 28 H       -2.1610    -1.1580    -2.1590 H     1 <1>   0.0800 
 29 H       -3.8040    -2.7780    -1.6840 H     1 <1>   0.0800 
 30 H       -0.1680    -2.3500    -0.8100 H     1 <1>   0.0800 
 31 H       -1.2100    -3.3690    -1.8030 H     1 <1>   0.0800 
 32 H       -0.1490     2.7960    -1.6060 H     1 <1>   0.0800 
 33 H       -1.3660     3.7690    -0.8690 H     1 <1>   0.0800 
 34 H        0.6310     0.7780     1.0930 H     1 <1>   0.0800 
 35 H        0.9500     1.2250    -0.5530 H     1 <1>   0.0800 
 36 H       -3.4210    -4.2900    -0.0340 H     1 <1>   0.0800 
 37 H       -3.3090    -3.0570     1.2170 H     1 <1>   0.0800 
 38 H       -4.8040    -0.5880    -1.0550 H     1 <1>   0.0800 
 39 H       -4.3550    -0.8640     0.5980 H     1 <1>   0.0800 
 40 H       -0.0410     5.5090    -0.6230 H     1 <1>   0.0800 
 41 H        1.1010     4.7040    -1.6620 H     1 <1>   0.0800 
 42 H        2.9330     1.5220     0.7990 H     1 <1>   0.0800 
 43 H        2.0820     2.4460     1.9820 H     1 <1>   0.0800 
 44 H        0.9220     4.1450     1.1630 H     1 <1>   0.4500 
 45 H        2.6840     3.3280    -0.8590 H     1 <1>   0.0800 
 46 H        3.5080     3.8630     0.5880 H     1 <1>   0.0800 
 47 H       -6.4880    -2.1820    -2.1650 H     1 <1>   0.1500 
 48 H       -5.6960    -2.3860     2.0100 H     1 <1>   0.1500 
 49 H        2.6700     6.2910     0.0280 H     1 <1>   0.0800 
 50 H        2.6790     5.7760     1.7030 H     1 <1>   0.0800 
 51 H        1.2630     6.5610     1.0380 H     1 <1>   0.0800 
 52 H       -8.4980    -3.4890    -1.7590 H     1 <1>   0.1500 
 53 H       -7.7370    -3.6840     2.2460 H     1 <1>   0.1500 
@<TRIPOS>BOND
  1   1   2  2   
  2   2   3  am  
  3   2   4  1   
  4   3   5  1   
  5   3  25  1   
  6   4   6  1   
  7   4  26  1   
  8   4  27  1   
  9   5   7  1   
 10   5   8  1   
 11   5  28  1   
 12   6   9  1   
 13   6  10  1   
 14   7  11  1   
 15   7  12  1   
 16   7  29  1   
 17   8  13  1   
 18   8  30  1   
 19   8  31  1   
 20   9  14  1   
 21   9  32  1   
 22   9  33  1   
 23  10  15  1   
 24  10  34  1   
 25  10  35  1   
 26  11  13  1   
 27  11  36  1   
 28  11  37  1   
 29  12  16  1   
 30  12  38  1   
 31  12  39  1   
 32  14  17  1   
 33  14  40  1   
 34  14  41  1   
 35  15  18  1   
 36  15  42  1   
 37  15  43  1   
 38  16  19  ar  
 39  16  20  ar  
 40  17  18  1   
 41  17  21  1   
 42  17  44  1   
 43  18  45  1   
 44  18  46  1   
 45  19  22  ar  
 46  19  47  1   
 47  20  23  ar  
 48  20  48  1   
 49  21  49  1   
 50  21  50  1   
 51  21  51  1   
 52  22  24  ar  
 53  22  52  1   
 54  23  24  ar  
 55  23  53  1   
@<TRIPOS>SUBSTRUCTURE
  1 ****   3 GROUP 4 **** **** 0

# MOE 2024.06 (io_trps.svl 2023.06)
