@<TRIPOS>MOLECULE
NONAME
40 41 1 0 0 
SMALL
USER_CHARGES


@<TRIPOS>ATOM
  1 O       -0.2700    -0.1230     0.2580 O.2   1 <1>  -0.5700 
  2 C       -0.2810    -1.3330     0.1500 C.2   1 <1>   0.7800 
  3 O        0.8420    -2.0450     0.2880 O.3   1 <1>  -0.4300 
  4 N       -1.4260    -2.0330    -0.1150 N.am  1 <1>  -0.6600 
  5 C        2.1380    -1.5550     0.5600 C.3   1 <1>   0.2800 
  6 C       -2.7310    -1.2960    -0.1510 C.3   1 <1>   0.4000 
  7 C       -1.4190    -3.5320    -0.1220 C.3   1 <1>   0.1400 
  8 C        2.6100    -0.6400    -0.5760 C.3   1 <1>  -0.2400 
  9 C        3.0300    -2.7960     0.6090 C.3   1 <1>  -0.2400 
 10 C        2.1680    -0.8580     1.9250 C.3   1 <1>  -0.2400 
 11 C       -3.9180    -2.2120     0.1460 C.2   1 <1>   0.0060 
 12 C       -2.9030    -0.6720    -1.5370 C.3   1 <1>  -0.2400 
 13 C       -2.6720    -4.1510    -0.7540 C.3   1 <1>   0.0960 
 14 N       -5.0400    -1.8500     0.6810 N.2   1 <1>  -0.5650 
 15 N       -3.8640    -3.5220    -0.1660 N.pl3 1 <1>   0.0480 
 16 C       -5.7600    -2.9860     0.7110 C.2   1 <1>   0.0770 
 17 C       -5.0590    -4.0270     0.2040 C.2   1 <1>  -0.3320 
 18 C       -5.4570    -5.4800     0.0370 C.3   1 <1>   0.3000 
 19 O       -6.5560    -5.7170     0.8290 O.3   1 <1>  -0.6800 
 20 H       -2.7220    -0.5130     0.5890 H     1 <1>   0.0800 
 21 H       -1.3360    -3.8750     0.8950 H     1 <1>   0.0800 
 22 H       -0.5520    -3.8840    -0.6560 H     1 <1>   0.0800 
 23 H        2.5080    -1.1360    -1.5240 H     1 <1>   0.0800 
 24 H        3.6440    -0.3840    -0.4350 H     1 <1>   0.0800 
 25 H        2.0500     0.2760    -0.5950 H     1 <1>   0.0800 
 26 H        3.0040    -3.3130    -0.3330 H     1 <1>   0.0800 
 27 H        2.7010    -3.4630     1.3860 H     1 <1>   0.0800 
 28 H        4.0480    -2.5170     0.8130 H     1 <1>   0.0800 
 29 H        1.6070     0.0580     1.9060 H     1 <1>   0.0800 
 30 H        3.1800    -0.6120     2.1890 H     1 <1>   0.0800 
 31 H        1.7650    -1.5040     2.6850 H     1 <1>   0.0800 
 32 H       -2.9070    -1.4310    -2.2960 H     1 <1>   0.0800 
 33 H       -2.1130     0.0300    -1.7300 H     1 <1>   0.0800 
 34 H       -3.8390    -0.1450    -1.5730 H     1 <1>   0.0800 
 35 H       -2.6910    -5.2090    -0.5740 H     1 <1>   0.0800 
 36 H       -2.6740    -3.9760    -1.8140 H     1 <1>   0.0800 
 37 H       -6.7660    -2.9930     1.0980 H     1 <1>   0.1500 
 38 H       -4.6700    -6.1370     0.3640 H     1 <1>   0.0800 
 39 H       -5.7190    -5.7030    -0.9840 H     1 <1>   0.0800 
 40 H       -6.4120    -5.2870     1.6930 H     1 <1>   0.4000 
@<TRIPOS>BOND
  1   1   2  2   
  2   2   3  1   
  3   2   4  am  
  4   3   5  1   
  5   4   6  1   
  6   4   7  1   
  7   5   8  1   
  8   5   9  1   
  9   5  10  1   
 10   6  11  1   
 11   6  12  1   
 12   6  20  1   
 13   7  13  1   
 14   7  21  1   
 15   7  22  1   
 16   8  23  1   
 17   8  24  1   
 18   8  25  1   
 19   9  26  1   
 20   9  27  1   
 21   9  28  1   
 22  10  29  1   
 23  10  30  1   
 24  10  31  1   
 25  11  14  2   
 26  11  15  1   
 27  12  32  1   
 28  12  33  1   
 29  12  34  1   
 30  13  15  1   
 31  13  35  1   
 32  13  36  1   
 33  14  16  1   
 34  15  17  1   
 35  16  17  2   
 36  16  37  1   
 37  17  18  1   
 38  18  19  1   
 39  18  38  1   
 40  18  39  1   
 41  19  40  1   
@<TRIPOS>SUBSTRUCTURE
  1 ****   4 GROUP 4 **** **** 0

# MOE 2024.06 (io_trps.svl 2023.06)
