@<TRIPOS>MOLECULE
NONAME
51 53 1 0 0 
SMALL
USER_CHARGES


@<TRIPOS>ATOM
  1 O       -3.6680     1.4660    -2.0810 O.2   1 <1>  -0.5700 
  2 C       -2.6410     1.4580    -1.4280 C.2   1 <1>   0.5440 
  3 N       -2.0410     0.2510    -1.2230 N.am  1 <1>  -0.7300 
  4 C       -2.0800     2.6920    -0.9000 C.ar  1 <1>   0.0860 
  5 C       -2.5810    -1.0610    -1.6340 C.3   1 <1>   0.2200 
  6 C       -1.2330     2.7590     0.2230 C.ar  1 <1>   0.0820 
  7 C       -2.3920     3.8950    -1.5360 C.ar  1 <1>  -0.1500 
  8 C       -3.4850    -1.5950    -0.5360 C.3   1 <1>  -0.0800 
  9 C       -1.4580    -2.0960    -1.6520 C.3   1 <1>   0.1200 
 10 O       -0.9280     1.6030     0.8770 O.3   1 <1>  -0.3630 
 11 C       -0.7240     3.9830     0.6560 C.ar  1 <1>  -0.1500 
 12 C       -1.9000     5.1070    -1.1000 C.ar  1 <1>   0.0820 
 13 C       -2.4700    -2.2270     0.4180 C.3   1 <1>   0.1200 
 14 C       -4.4940    -2.6200    -1.0850 C.3   1 <1>  -0.0160 
 15 O       -1.3820    -2.6340    -0.3620 O.3   1 <1>  -0.5600 
 16 C       -0.1150     1.5530     2.0300 C.3   1 <1>   0.0400 
 17 C       -1.0450     5.1650     0.0010 C.ar  1 <1>   0.0820 
 18 O       -2.2600     6.2150    -1.7950 O.3   1 <1>  -0.3630 
 19 C       -5.4140    -3.1390     0.0100 C.ar  1 <1>  -0.1440 
 20 O       -0.5540     6.3750     0.3840 O.3   1 <1>  -0.3630 
 21 C       -3.1440     7.1000    -1.1460 C.3   1 <1>   0.0400 
 22 C       -6.4460    -2.3730     0.5120 C.ar  1 <1>  -0.1500 
 23 C       -5.2680    -4.3990     0.5560 C.ar  1 <1>  -0.1500 
 24 C        0.4520     6.5090     1.3630 C.3   1 <1>   0.0400 
 25 C       -7.2580    -2.8870     1.5090 C.ar  1 <1>   0.1600 
 26 C       -6.1350    -4.8170     1.5520 C.ar  1 <1>   0.1600 
 27 N       -7.1270    -4.0910     2.0430 N.ar  1 <1>  -0.6200 
 28 H       -1.2970     0.2180    -0.5170 H     1 <1>   0.3700 
 29 H       -3.0740    -0.9720    -2.5880 H     1 <1>   0.0800 
 30 H       -3.0370     3.8850    -2.3970 H     1 <1>   0.1500 
 31 H       -4.0260    -0.7980    -0.0550 H     1 <1>   0.0800 
 32 H       -0.5090    -1.6690    -1.9230 H     1 <1>   0.0800 
 33 H       -1.6990    -2.9020    -2.3230 H     1 <1>   0.0800 
 34 H       -0.0780     4.0210     1.5070 H     1 <1>   0.1500 
 35 H       -2.8580    -3.0740     0.9550 H     1 <1>   0.0800 
 36 H       -2.1080    -1.4940     1.1180 H     1 <1>   0.0800 
 37 H       -3.9770    -3.4460    -1.5420 H     1 <1>   0.0800 
 38 H       -5.0960    -2.1530    -1.8450 H     1 <1>   0.0800 
 39 H       -0.0480     0.5270     2.3480 H     1 <1>   0.0800 
 40 H       -0.5690     2.1440     2.8060 H     1 <1>   0.0800 
 41 H        0.8650     1.9220     1.7850 H     1 <1>   0.0800 
 42 H       -3.4230     7.8680    -1.8440 H     1 <1>   0.0800 
 43 H       -2.6490     7.5400    -0.2990 H     1 <1>   0.0800 
 44 H       -4.0150     6.5540    -0.8310 H     1 <1>   0.0800 
 45 H       -6.6260    -1.3820     0.1360 H     1 <1>   0.1500 
 46 H       -4.4890    -5.0570     0.2190 H     1 <1>   0.1500 
 47 H        0.7190     7.5490     1.4240 H     1 <1>   0.0800 
 48 H        1.3080     5.9300     1.0650 H     1 <1>   0.0800 
 49 H        0.0670     6.1750     2.3090 H     1 <1>   0.0800 
 50 H       -8.0570    -2.2740     1.8880 H     1 <1>   0.1500 
 51 H       -6.0060    -5.8020     1.9660 H     1 <1>   0.1500 
@<TRIPOS>BOND
  1   1   2  2   
  2   2   3  am  
  3   2   4  1   
  4   3   5  1   
  5   3  28  1   
  6   4   6  ar  
  7   4   7  ar  
  8   5   8  1   
  9   5   9  1   
 10   5  29  1   
 11   6  10  1   
 12   6  11  ar  
 13   7  12  ar  
 14   7  30  1   
 15   8  13  1   
 16   8  14  1   
 17   8  31  1   
 18   9  15  1   
 19   9  32  1   
 20   9  33  1   
 21  10  16  1   
 22  11  17  ar  
 23  11  34  1   
 24  12  17  ar  
 25  12  18  1   
 26  13  15  1   
 27  13  35  1   
 28  13  36  1   
 29  14  19  1   
 30  14  37  1   
 31  14  38  1   
 32  16  39  1   
 33  16  40  1   
 34  16  41  1   
 35  17  20  1   
 36  18  21  1   
 37  19  22  ar  
 38  19  23  ar  
 39  20  24  1   
 40  21  42  1   
 41  21  43  1   
 42  21  44  1   
 43  22  25  ar  
 44  22  45  1   
 45  23  26  ar  
 46  23  46  1   
 47  24  47  1   
 48  24  48  1   
 49  24  49  1   
 50  25  27  ar  
 51  25  50  1   
 52  26  27  ar  
 53  26  51  1   
@<TRIPOS>SUBSTRUCTURE
  1 ****   2 GROUP 4 **** **** 0

# MOE 2024.06 (io_trps.svl 2023.06)
