@<TRIPOS>MOLECULE
NONAME
55 58 1 0 0 
SMALL
USER_CHARGES


@<TRIPOS>ATOM
  1 O       -2.0600    -1.6410     2.0850 O.2   1 <1>  -0.5700 
  2 C       -2.2020    -1.7360     0.8800 C.2   1 <1>   0.5440 
  3 N       -1.7260    -2.9000     0.3420 N.am  1 <1>  -0.7300 
  4 C       -2.8040    -0.6580     0.0940 C.ar  1 <1>   0.3960 
  5 C       -1.8070    -3.3690    -1.0590 C.3   1 <1>   0.1400 
  6 N       -2.1260    -0.1870    -0.9730 N.ar  1 <1>  -0.6200 
  7 C       -4.0480    -0.1180     0.4740 C.ar  1 <1>   0.0830 
  8 C       -2.0960    -4.8790    -1.1190 C.3   1 <1>  -0.0800 
  9 C       -2.6370     0.8500    -1.6050 C.ar  1 <1>   0.1600 
 10 O       -4.7440    -0.7110     1.4770 O.3   1 <1>  -0.3630 
 11 C       -4.5530     0.9850    -0.1990 C.ar  1 <1>  -0.1500 
 12 C       -3.3950    -5.2220    -0.3710 C.3   1 <1>   0.1400 
 13 C       -0.9160    -5.7150    -0.5910 C.3   1 <1>  -0.1600 
 14 C       -3.8230     1.4710    -1.2580 C.ar  1 <1>  -0.1500 
 15 C       -5.6890    -0.0510     2.2980 C.3   1 <1>   0.1200 
 16 N       -3.6680    -6.6920    -0.4180 N.am  1 <1>  -0.6600 
 17 C       -1.2540    -7.2110    -0.6560 C.3   1 <1>  -0.1600 
 18 C       -7.1140    -0.1620     1.7370 C.3   1 <1>   0.0960 
 19 C       -4.8780    -7.2640    -0.7400 C.2   1 <1>   0.5690 
 20 C       -2.5490    -7.5300     0.0980 C.3   1 <1>   0.1400 
 21 N       -7.4740    -1.5520     1.4120 N.pl3 1 <1>   0.3140 
 22 O       -5.0550    -8.4580    -0.6940 O.2   1 <1>  -0.5700 
 23 C       -6.0630    -6.4150    -1.1780 C.3   1 <1>  -0.0990 
 24 N       -8.2000    -2.3270     2.2230 N.2   1 <1>  -0.4180 
 25 C       -7.1970    -2.2170     0.2920 C.2   1 <1>  -0.3020 
 26 C       -6.6970    -5.6330    -0.0120 C.3   1 <1>  -0.1600 
 27 N       -8.3730    -3.4670     1.6490 N.2   1 <1>  -0.2270 
 28 C       -7.7610    -3.4200     0.4610 C.2   1 <1>   0.0460 
 29 C       -7.7200    -4.5950    -0.4950 C.3   1 <1>   0.0210 
 30 H       -1.2270    -3.5020     0.9990 H     1 <1>   0.3700 
 31 H       -0.8750    -3.1540    -1.5550 H     1 <1>   0.0800 
 32 H       -2.5870    -2.8340    -1.5740 H     1 <1>   0.0800 
 33 H       -2.2440    -5.1300    -2.1540 H     1 <1>   0.0800 
 34 H       -2.0810     1.2320    -2.4450 H     1 <1>   0.1500 
 35 H       -5.4760     1.4580     0.0690 H     1 <1>   0.1500 
 36 H       -4.1980    -4.6600    -0.8080 H     1 <1>   0.0800 
 37 H       -3.3150    -4.9290     0.6620 H     1 <1>   0.0800 
 38 H       -0.7020    -5.4510     0.4300 H     1 <1>   0.0800 
 39 H       -0.0350    -5.5200    -1.1780 H     1 <1>   0.0800 
 40 H       -4.1650     2.3220    -1.8190 H     1 <1>   0.1500 
 41 H       -5.3910     0.9750     2.4210 H     1 <1>   0.0800 
 42 H       -5.6510    -0.5290     3.2620 H     1 <1>   0.0800 
 43 H       -0.4490    -7.7820    -0.2310 H     1 <1>   0.0800 
 44 H       -1.3670    -7.5180    -1.6810 H     1 <1>   0.0800 
 45 H       -7.2250     0.4320     0.8530 H     1 <1>   0.0800 
 46 H       -7.8120     0.2020     2.4690 H     1 <1>   0.0800 
 47 H       -2.7740    -8.5780    -0.0130 H     1 <1>   0.0800 
 48 H       -2.4200    -7.3290     1.1480 H     1 <1>   0.0800 
 49 H       -6.8050    -7.0610    -1.6130 H     1 <1>   0.0800 
 50 H       -5.7300    -5.7490    -1.9520 H     1 <1>   0.0800 
 51 H       -6.6250    -1.8120    -0.5200 H     1 <1>   0.1500 
 52 H       -5.9290    -5.1260     0.5430 H     1 <1>   0.0800 
 53 H       -7.1720    -6.3160     0.6730 H     1 <1>   0.0800 
 54 H       -8.6970    -5.0390    -0.5770 H     1 <1>   0.0800 
 55 H       -7.4410    -4.2210    -1.4640 H     1 <1>   0.0800 
@<TRIPOS>BOND
  1   1   2  2   
  2   2   3  am  
  3   2   4  1   
  4   3   5  1   
  5   3  30  1   
  6   4   6  ar  
  7   4   7  ar  
  8   5   8  1   
  9   5  31  1   
 10   5  32  1   
 11   6   9  ar  
 12   7  10  1   
 13   7  11  ar  
 14   8  12  1   
 15   8  13  1   
 16   8  33  1   
 17   9  14  ar  
 18   9  34  1   
 19  10  15  1   
 20  11  14  ar  
 21  11  35  1   
 22  12  16  1   
 23  12  36  1   
 24  12  37  1   
 25  13  17  1   
 26  13  38  1   
 27  13  39  1   
 28  14  40  1   
 29  15  18  1   
 30  15  41  1   
 31  15  42  1   
 32  16  19  am  
 33  16  20  1   
 34  17  20  1   
 35  17  43  1   
 36  17  44  1   
 37  18  21  1   
 38  18  45  1   
 39  18  46  1   
 40  19  22  2   
 41  19  23  1   
 42  20  47  1   
 43  20  48  1   
 44  21  24  1   
 45  21  25  1   
 46  23  26  1   
 47  23  49  1   
 48  23  50  1   
 49  24  27  2   
 50  25  28  2   
 51  25  51  1   
 52  26  29  1   
 53  26  52  1   
 54  26  53  1   
 55  27  28  1   
 56  28  29  1   
 57  29  54  1   
 58  29  55  1   
@<TRIPOS>SUBSTRUCTURE
  1 ****  12 GROUP 4 **** **** 0

# MOE 2024.06 (io_trps.svl 2023.06)
