@<TRIPOS>MOLECULE
NONAME
52 55 1 0 0 
SMALL
USER_CHARGES


@<TRIPOS>ATOM
  1 O        0.3610    -0.7870     0.9290 O.3   1 <1>  -0.0190 
  2 N        0.0550    -2.0480     0.8740 N.2   1 <1>  -0.4100 
  3 C        1.4040    -0.6750     0.1410 C.2   1 <1>   0.2980 
  4 C        0.8960    -2.6000     0.0920 C.2   1 <1>   0.3350 
  5 N        1.7830    -1.7600    -0.4120 N.2   1 <1>  -0.5650 
  6 C        2.0550     0.6920    -0.0460 C.3   1 <1>   0.1000 
  7 C        0.9050    -4.0870    -0.2670 C.3   1 <1>   0.5240 
  8 C        2.5660     1.3190     1.2520 C.3   1 <1>  -0.1600 
  9 C        1.1150     1.7570    -0.6100 C.3   1 <1>  -0.1600 
 10 N       -0.4560    -4.7160    -0.1130 N.4   1 <1>  -0.9590 
 11 C        2.6850     2.8150     0.9520 C.3   1 <1>  -0.1600 
 12 C        1.7600     3.0950    -0.2400 C.3   1 <1>  -0.1600 
 13 C       -0.3980    -6.2030    -0.1240 C.3   1 <1>   0.3430 
 14 C       -1.4210    -4.1700    -1.1120 C.3   1 <1>   0.3430 
 15 C       -1.7790    -6.7730     0.1890 C.3   1 <1>  -0.1600 
 16 C       -2.8180    -4.6980    -0.8080 C.3   1 <1>  -0.1600 
 17 C       -2.8420    -6.2250    -0.7690 C.3   1 <1>   0.2000 
 18 O       -4.0880    -6.5830    -0.2860 O.3   1 <1>  -0.5600 
 19 C       -4.5770    -7.8290    -0.7160 C.3   1 <1>   0.2630 
 20 C       -5.8420    -8.2380     0.0320 C.ar  1 <1>   0.1670 
 21 N       -6.1580    -9.5240    -0.0600 N.ar  1 <1>  -0.6200 
 22 C       -6.5930    -7.3110     0.7440 C.ar  1 <1>  -0.1500 
 23 C       -7.2540    -9.8970     0.5830 C.ar  1 <1>   0.1600 
 24 C       -7.7320    -7.7150     1.4080 C.ar  1 <1>  -0.1500 
 25 C       -8.0620    -9.0480     1.3180 C.ar  1 <1>  -0.1500 
 26 H        2.8890     0.5880    -0.7200 H     1 <1>   0.0800 
 27 H        1.6110    -4.5780     0.3800 H     1 <1>   0.0800 
 28 H        1.2480    -4.1950    -1.2820 H     1 <1>   0.0800 
 29 H        3.5060     0.8930     1.5590 H     1 <1>   0.0800 
 30 H        1.8430     1.1750     2.0370 H     1 <1>   0.0800 
 31 H        0.1540     1.6880    -0.1300 H     1 <1>   0.0800 
 32 H        0.9840     1.6530    -1.6740 H     1 <1>   0.0800 
 33 H       -0.7980    -4.4070     0.8110 H     1 <1>   0.4500 
 34 H        3.7000     3.0570     0.6840 H     1 <1>   0.0800 
 35 H        2.4070     3.4020     1.8110 H     1 <1>   0.0800 
 36 H        1.0110     3.8270     0.0070 H     1 <1>   0.0800 
 37 H        2.3420     3.4630    -1.0680 H     1 <1>   0.0800 
 38 H        0.3060    -6.5540     0.6150 H     1 <1>   0.0800 
 39 H       -0.0770    -6.5510    -1.0930 H     1 <1>   0.0800 
 40 H       -1.1300    -4.4640    -2.1070 H     1 <1>   0.0800 
 41 H       -1.4330    -3.0910    -1.0660 H     1 <1>   0.0800 
 42 H       -2.0420    -6.5250     1.2030 H     1 <1>   0.0800 
 43 H       -1.7350    -7.8440     0.1100 H     1 <1>   0.0800 
 44 H       -3.4970    -4.3520    -1.5670 H     1 <1>   0.0800 
 45 H       -3.1460    -4.3010     0.1370 H     1 <1>   0.0800 
 46 H       -2.7140    -6.6200    -1.7660 H     1 <1>   0.0800 
 47 H       -3.8230    -8.5770    -0.5470 H     1 <1>   0.0800 
 48 H       -4.7900    -7.7700    -1.7690 H     1 <1>   0.0800 
 49 H       -6.2930    -6.2800     0.7830 H     1 <1>   0.1500 
 50 H       -7.5230   -10.9370     0.5190 H     1 <1>   0.1500 
 51 H       -8.3320    -7.0190     1.9690 H     1 <1>   0.1500 
 52 H       -8.9370    -9.4300     1.8120 H     1 <1>   0.1500 
@<TRIPOS>BOND
  1   1   2  1   
  2   1   3  1   
  3   2   4  2   
  4   3   5  2   
  5   3   6  1   
  6   4   5  1   
  7   4   7  1   
  8   6   8  1   
  9   6   9  1   
 10   6  26  1   
 11   7  10  1   
 12   7  27  1   
 13   7  28  1   
 14   8  11  1   
 15   8  29  1   
 16   8  30  1   
 17   9  12  1   
 18   9  31  1   
 19   9  32  1   
 20  10  13  1   
 21  10  14  1   
 22  10  33  1   
 23  11  12  1   
 24  11  34  1   
 25  11  35  1   
 26  12  36  1   
 27  12  37  1   
 28  13  15  1   
 29  13  38  1   
 30  13  39  1   
 31  14  16  1   
 32  14  40  1   
 33  14  41  1   
 34  15  17  1   
 35  15  42  1   
 36  15  43  1   
 37  16  17  1   
 38  16  44  1   
 39  16  45  1   
 40  17  18  1   
 41  17  46  1   
 42  18  19  1   
 43  19  20  1   
 44  19  47  1   
 45  19  48  1   
 46  20  21  ar  
 47  20  22  ar  
 48  21  23  ar  
 49  22  24  ar  
 50  22  49  1   
 51  23  25  ar  
 52  23  50  1   
 53  24  25  ar  
 54  24  51  1   
 55  25  52  1   
@<TRIPOS>SUBSTRUCTURE
  1 ****  14 GROUP 4 **** **** 0

# MOE 2024.06 (io_trps.svl 2023.06)
