@<TRIPOS>MOLECULE
NONAME
49 51 1 0 0 
SMALL
USER_CHARGES


@<TRIPOS>ATOM
  1 F       -1.6840     1.9410     1.7310 F     1 <1>  -0.1900 
  2 C       -2.4820     1.4860     0.7990 C.ar  1 <1>   0.1900 
  3 C       -2.0930     1.5100    -0.5300 C.ar  1 <1>   0.1900 
  4 C       -3.7170     0.9840     1.1660 C.ar  1 <1>  -0.1500 
  5 F       -0.9230     1.9870    -0.8700 F     1 <1>  -0.1900 
  6 C       -2.9320     1.0330    -1.5190 C.ar  1 <1>  -0.1500 
  7 C       -4.5690     0.5020     0.1790 C.ar  1 <1>  -0.1440 
  8 C       -4.1720     0.5280    -1.1550 C.ar  1 <1>  -0.1500 
  9 C       -5.9340    -0.0520     0.5580 C.3   1 <1>  -0.0160 
 10 C       -6.9880     1.0660     0.5550 C.3   1 <1>  -0.0990 
 11 C       -8.3890     0.5960     0.9210 C.2   1 <1>   0.5690 
 12 O       -8.5540    -0.5800     1.1520 O.2   1 <1>  -0.5700 
 13 N       -9.4230     1.4960     0.9730 N.am  1 <1>  -0.6600 
 14 C      -10.8150     1.0580     1.3100 C.3   1 <1>   0.1400 
 15 C       -9.3340     2.9470     0.6530 C.3   1 <1>   0.1400 
 16 C      -11.7780     1.3270     0.1260 C.3   1 <1>   0.0000 
 17 C      -10.2480     3.2640    -0.5370 C.3   1 <1>  -0.1600 
 18 C      -13.2190     0.9150     0.4740 C.3   1 <1>   0.2000 
 19 C      -11.6970     2.8160    -0.2770 C.3   1 <1>  -0.1600 
 20 C      -11.4620     0.3840    -1.0480 C.3   1 <1>  -0.1600 
 21 O      -13.5510     1.2700     1.7840 O.3   1 <1>  -0.5600 
 22 C      -13.2780    -0.6020     0.2710 C.3   1 <1>  -0.1600 
 23 C      -12.1400    -0.9450    -0.7000 C.3   1 <1>  -0.1600 
 24 C      -14.9090     1.2070     2.0840 C.3   1 <1>   0.0400 
 25 H       -4.0000     0.9730     2.2030 H     1 <1>   0.1500 
 26 H       -2.6200     1.0550    -2.5480 H     1 <1>   0.1500 
 27 H       -4.8330     0.1530    -1.9180 H     1 <1>   0.1500 
 28 H       -6.2220    -0.8220    -0.1380 H     1 <1>   0.0800 
 29 H       -5.8880    -0.5020     1.5350 H     1 <1>   0.0800 
 30 H       -7.0230     1.5040    -0.4250 H     1 <1>   0.0800 
 31 H       -6.6900     1.8220     1.2580 H     1 <1>   0.0800 
 32 H      -10.8330     0.0150     1.5730 H     1 <1>   0.0800 
 33 H      -11.1410     1.6090     2.1750 H     1 <1>   0.0800 
 34 H       -9.6540     3.5100     1.5130 H     1 <1>   0.0800 
 35 H       -8.3270     3.2410     0.4210 H     1 <1>   0.0800 
 36 H      -10.2300     4.3230    -0.7230 H     1 <1>   0.0800 
 37 H       -9.8630     2.7730    -1.4130 H     1 <1>   0.0800 
 38 H      -13.8990     1.4020    -0.2050 H     1 <1>   0.0800 
 39 H      -12.2950     3.0000    -1.1520 H     1 <1>   0.0800 
 40 H      -12.1040     3.4100     0.5250 H     1 <1>   0.0800 
 41 H      -11.9000     0.7700    -1.9520 H     1 <1>   0.0800 
 42 H      -10.4060     0.2560    -1.2090 H     1 <1>   0.0800 
 43 H      -13.1140    -1.1100     1.2070 H     1 <1>   0.0800 
 44 H      -14.2290    -0.8920    -0.1360 H     1 <1>   0.0800 
 45 H      -11.4310    -1.5930    -0.2110 H     1 <1>   0.0800 
 46 H      -12.5050    -1.4360    -1.5860 H     1 <1>   0.0800 
 47 H      -15.0390     1.5210     3.1040 H     1 <1>   0.0800 
 48 H      -15.2550     0.1950     1.9720 H     1 <1>   0.0800 
 49 H      -15.4490     1.8690     1.4300 H     1 <1>   0.0800 
@<TRIPOS>BOND
  1   1   2  1   
  2   2   3  ar  
  3   2   4  ar  
  4   3   5  1   
  5   3   6  ar  
  6   4   7  ar  
  7   4  25  1   
  8   6   8  ar  
  9   6  26  1   
 10   7   8  ar  
 11   7   9  1   
 12   8  27  1   
 13   9  10  1   
 14   9  28  1   
 15   9  29  1   
 16  10  11  1   
 17  10  30  1   
 18  10  31  1   
 19  11  12  2   
 20  11  13  am  
 21  13  14  1   
 22  13  15  1   
 23  14  16  1   
 24  14  32  1   
 25  14  33  1   
 26  15  17  1   
 27  15  34  1   
 28  15  35  1   
 29  16  18  1   
 30  16  19  1   
 31  16  20  1   
 32  17  19  1   
 33  17  36  1   
 34  17  37  1   
 35  18  21  1   
 36  18  22  1   
 37  18  38  1   
 38  19  39  1   
 39  19  40  1   
 40  20  23  1   
 41  20  41  1   
 42  20  42  1   
 43  21  24  1   
 44  22  23  1   
 45  22  43  1   
 46  22  44  1   
 47  23  45  1   
 48  23  46  1   
 49  24  47  1   
 50  24  48  1   
 51  24  49  1   
@<TRIPOS>SUBSTRUCTURE
  1 ****  11 GROUP 4 **** **** 0

# MOE 2024.06 (io_trps.svl 2023.06)
