@<TRIPOS>MOLECULE
NONAME
48 50 1 0 0 
SMALL
USER_CHARGES


@<TRIPOS>ATOM
  1 O        1.3250    -0.8720    -1.6620 O.3   1 <1>  -0.0190 
  2 N        1.0010    -2.1290    -1.6510 N.2   1 <1>  -0.4100 
  3 C        1.6880    -0.6270    -0.4270 C.2   1 <1>   0.2980 
  4 C        1.1780    -2.5520    -0.4600 C.2   1 <1>   0.3350 
  5 N        1.6340    -1.6180     0.3670 N.2   1 <1>  -0.5650 
  6 C        2.1410     0.7740    -0.0550 C.3   1 <1>   0.0200 
  7 C        0.9100    -3.9900    -0.0050 C.3   1 <1>   0.2910 
  8 C        0.9760     1.6910     0.3660 C.3   1 <1>  -0.0800 
  9 N       -0.4120    -4.1820     0.6420 N.3   1 <1>  -0.8100 
 10 C       -0.0260     1.9240    -0.7740 C.3   1 <1>  -0.2400 
 11 C        1.5140     3.0410     0.8580 C.3   1 <1>  -0.2400 
 12 C       -1.5380    -3.7340    -0.1910 C.3   1 <1>   0.1100 
 13 C       -0.6810    -5.5820     1.0180 C.3   1 <1>   0.1100 
 14 C       -2.7390    -4.4900     0.3630 C.3   1 <1>   0.2000 
 15 C       -2.1560    -5.8650     0.6790 C.3   1 <1>  -0.0800 
 16 O       -3.0920    -3.8900     1.5560 O.3   1 <1>  -0.6800 
 17 C       -2.2990    -6.8130    -0.5280 C.3   1 <1>   0.0210 
 18 C       -1.6700    -8.1700    -0.2700 C.2   1 <1>   0.1080 
 19 N       -2.0540    -8.9550     0.6880 N.2   1 <1>  -0.7070 
 20 C       -0.6320    -8.7200    -1.0140 C.2   1 <1>  -0.1500 
 21 N       -1.2650   -10.0400     0.5780 N.pl3 1 <1>   0.3000 
 22 C       -0.3930    -9.9210    -0.4460 C.2   1 <1>  -0.3320 
 23 C        0.6260   -10.9800    -0.8240 C.3   1 <1>  -0.0600 
 24 H        2.8310     0.6870     0.7650 H     1 <1>   0.0800 
 25 H        2.6710     1.2030    -0.8860 H     1 <1>   0.0800 
 26 H        1.6820    -4.2720     0.6890 H     1 <1>   0.0800 
 27 H        0.9820    -4.6330    -0.8640 H     1 <1>   0.0800 
 28 H        0.4550     1.2180     1.1840 H     1 <1>   0.0800 
 29 H        0.4640     2.3440    -1.6350 H     1 <1>   0.0800 
 30 H       -0.8000     2.6000    -0.4580 H     1 <1>   0.0800 
 31 H       -0.4970     1.0010    -1.0620 H     1 <1>   0.0800 
 32 H        2.0400     3.5520     0.0700 H     1 <1>   0.0800 
 33 H        2.1870     2.8980     1.6850 H     1 <1>   0.0800 
 34 H        0.7040     3.6660     1.1910 H     1 <1>   0.0800 
 35 H       -1.6740    -2.6670    -0.1320 H     1 <1>   0.0800 
 36 H       -1.3760    -4.0150    -1.2170 H     1 <1>   0.0800 
 37 H       -0.0240    -6.2600     0.5000 H     1 <1>   0.0800 
 38 H       -0.5200    -5.6960     2.0770 H     1 <1>   0.0800 
 39 H       -3.5960    -4.5030    -0.2880 H     1 <1>   0.0800 
 40 H       -2.6590    -6.3150     1.5180 H     1 <1>   0.0800 
 41 H       -2.2510    -3.7060     2.0290 H     1 <1>   0.4000 
 42 H       -1.8470    -6.3780    -1.4000 H     1 <1>   0.0800 
 43 H       -3.3430    -6.9660    -0.7350 H     1 <1>   0.0800 
 44 H       -0.1440    -8.2660    -1.8580 H     1 <1>   0.1500 
 45 H       -1.3500   -10.8430     1.2130 H     1 <1>   0.2700 
 46 H        1.2040   -10.6520    -1.6700 H     1 <1>   0.0800 
 47 H        0.1290   -11.8980    -1.0850 H     1 <1>   0.0800 
 48 H        1.2950   -11.1640    -0.0030 H     1 <1>   0.0800 
@<TRIPOS>BOND
  1   1   2  1   
  2   1   3  1   
  3   2   4  2   
  4   3   5  2   
  5   3   6  1   
  6   4   5  1   
  7   4   7  1   
  8   6   8  1   
  9   6  24  1   
 10   6  25  1   
 11   7   9  1   
 12   7  26  1   
 13   7  27  1   
 14   8  10  1   
 15   8  11  1   
 16   8  28  1   
 17   9  12  1   
 18   9  13  1   
 19  10  29  1   
 20  10  30  1   
 21  10  31  1   
 22  11  32  1   
 23  11  33  1   
 24  11  34  1   
 25  12  14  1   
 26  12  35  1   
 27  12  36  1   
 28  13  15  1   
 29  13  37  1   
 30  13  38  1   
 31  14  15  1   
 32  14  16  1   
 33  14  39  1   
 34  15  17  1   
 35  15  40  1   
 36  16  41  1   
 37  17  18  1   
 38  17  42  1   
 39  17  43  1   
 40  18  19  2   
 41  18  20  1   
 42  19  21  1   
 43  20  22  2   
 44  20  44  1   
 45  21  22  1   
 46  21  45  1   
 47  22  23  1   
 48  23  46  1   
 49  23  47  1   
 50  23  48  1   
@<TRIPOS>SUBSTRUCTURE
  1 ****   9 GROUP 4 **** **** 0

# MOE 2024.06 (io_trps.svl 2023.06)
