@<TRIPOS>MOLECULE
NONAME
38 39 1 0 0 
SMALL
USER_CHARGES


@<TRIPOS>ATOM
  1 S        0.3370     0.1040    -1.0980 S.o2  1 <1>   1.3330 
  2 O        0.6880    -1.0110    -1.9490 O.2   1 <1>  -0.6500 
  3 O       -0.7270     1.0000    -1.4920 O.2   1 <1>  -0.6500 
  4 N       -0.0700    -0.5170     0.4310 N.am  1 <1>  -0.8490 
  5 C        1.8270     1.0560    -0.7900 C.3   1 <1>  -0.0550 
  6 C       -0.8300    -1.7680     0.3340 C.3   1 <1>   0.1160 
  7 C       -0.8000     0.4400     1.2700 C.3   1 <1>   0.1160 
  8 C        3.0590     0.2010    -0.4200 C.3   1 <1>  -0.0800 
  9 C        4.3730     0.9650    -0.3460 C.3   1 <1>   0.2200 
 10 C        2.9900    -0.4890     0.9490 C.3   1 <1>   0.1200 
 11 N        4.1930     2.2570     0.3570 N.am  1 <1>  -0.7300 
 12 C        5.1810     0.0370     0.5480 C.3   1 <1>   0.1200 
 13 O        4.2710    -0.4080     1.5060 O.3   1 <1>  -0.5600 
 14 C        4.1240     3.4820    -0.2310 C.2   1 <1>   0.7160 
 15 O        4.1140     3.5390    -1.4440 O.2   1 <1>  -0.5700 
 16 C        4.0410     4.6760     0.5850 C.2   1 <1>  -0.0860 
 17 C        4.0740     4.7400     1.9410 C.2   1 <1>  -0.1100 
 18 C        3.9080     5.9880     0.0020 C.2   1 <1>  -0.1500 
 19 S        3.9420     6.3830     2.5250 S.3   1 <1>  -0.0800 
 20 C        3.8420     6.9960     0.8890 C.2   1 <1>  -0.1100 
 21 H        2.0620     1.6030    -1.6830 H     1 <1>   0.0800 
 22 H        1.6360     1.7740    -0.0190 H     1 <1>   0.0800 
 23 H       -1.0630    -2.1410     1.3160 H     1 <1>   0.0800 
 24 H       -0.2480    -2.5150    -0.1800 H     1 <1>   0.0800 
 25 H       -1.7450    -1.6080    -0.2130 H     1 <1>   0.0800 
 26 H       -0.9520     0.0280     2.2540 H     1 <1>   0.0800 
 27 H       -1.7590     0.6690     0.8340 H     1 <1>   0.0800 
 28 H       -0.2400     1.3540     1.3680 H     1 <1>   0.0800 
 29 H        3.1720    -0.5690    -1.1640 H     1 <1>   0.0800 
 30 H        4.8300     1.1100    -1.3110 H     1 <1>   0.0800 
 31 H        2.7100    -1.5250     0.8600 H     1 <1>   0.0800 
 32 H        2.3140     0.0120     1.6190 H     1 <1>   0.0800 
 33 H        4.1680     2.1770     1.3740 H     1 <1>   0.3700 
 34 H        6.0080     0.5290     1.0280 H     1 <1>   0.0800 
 35 H        5.5300    -0.8200    -0.0020 H     1 <1>   0.0800 
 36 H        4.1670     3.9710     2.6860 H     1 <1>   0.1500 
 37 H        3.8690     6.1030    -1.0690 H     1 <1>   0.1500 
 38 H        3.7450     8.0610     0.7630 H     1 <1>   0.1500 
@<TRIPOS>BOND
  1   1   2  2   
  2   1   3  2   
  3   1   4  am  
  4   1   5  1   
  5   4   6  1   
  6   4   7  1   
  7   5   8  1   
  8   5  21  1   
  9   5  22  1   
 10   6  23  1   
 11   6  24  1   
 12   6  25  1   
 13   7  26  1   
 14   7  27  1   
 15   7  28  1   
 16   8   9  1   
 17   8  10  1   
 18   8  29  1   
 19   9  11  1   
 20   9  12  1   
 21   9  30  1   
 22  10  13  1   
 23  10  31  1   
 24  10  32  1   
 25  11  14  am  
 26  11  33  1   
 27  12  13  1   
 28  12  34  1   
 29  12  35  1   
 30  14  15  2   
 31  14  16  1   
 32  16  17  2   
 33  16  18  1   
 34  17  19  1   
 35  17  36  1   
 36  18  20  2   
 37  18  37  1   
 38  19  20  1   
 39  20  38  1   
@<TRIPOS>SUBSTRUCTURE
  1 ****   5 GROUP 4 **** **** 0

# MOE 2024.06 (io_trps.svl 2023.06)
