@<TRIPOS>MOLECULE
NONAME
50 52 1 0 0 
SMALL
USER_CHARGES


@<TRIPOS>ATOM
  1 F        2.8890     0.4640    -1.8720 F     1 <1>  -0.1900 
  2 C        2.8410    -0.4930    -0.9830 C.ar  1 <1>   0.1900 
  3 C        2.5830    -1.7800    -1.4060 C.ar  1 <1>  -0.1500 
  4 C        3.0490    -0.1720     0.3460 C.ar  1 <1>  -0.1500 
  5 C        2.5260    -2.8130    -0.4720 C.ar  1 <1>   0.0860 
  6 C        2.9950    -1.1890     1.2810 C.ar  1 <1>  -0.1500 
  7 C        2.7420    -2.4940     0.8740 C.ar  1 <1>   0.0830 
  8 C        2.2450    -4.1680    -0.8830 C.2   1 <1>   0.5440 
  9 O        2.6810    -3.4610     1.8100 O.3   1 <1>  -0.3630 
 10 O        3.1510    -4.9740    -0.9940 O.2   1 <1>  -0.5700 
 11 N        0.9570    -4.5980    -1.1330 N.am  1 <1>  -0.6600 
 12 C        3.9160    -3.9950     2.2330 C.3   1 <1>   0.0400 
 13 C        0.7170    -5.9950    -1.5740 C.3   1 <1>   0.1400 
 14 C       -0.2190    -3.9800    -0.4630 C.3   1 <1>   0.1400 
 15 C        0.4500    -6.8520    -0.3180 C.3   1 <1>   0.4230 
 16 C       -0.5380    -4.8070     0.7910 C.3   1 <1>  -0.1600 
 17 N        0.4160    -8.3500    -0.5870 N.4   1 <1>  -0.9590 
 18 C       -0.7650    -6.3220     0.5040 C.3   1 <1>   0.0000 
 19 C       -0.2310    -9.1510     0.5020 C.3   1 <1>   0.3430 
 20 C       -0.1330    -8.7550    -1.9220 C.3   1 <1>   0.2630 
 21 C       -0.8320    -7.0820     1.8620 C.3   1 <1>  -0.1600 
 22 C       -2.0830    -6.5250    -0.2970 C.3   1 <1>   0.1200 
 23 C       -0.1090    -8.4430     1.8510 C.3   1 <1>  -0.1600 
 24 O       -3.1590    -5.9010     0.3120 O.3   1 <1>  -0.6800 
 25 H        2.4290    -1.9830    -2.4510 H     1 <1>   0.1500 
 26 H        3.2450     0.8460     0.6330 H     1 <1>   0.1500 
 27 H        3.1440    -0.9780     2.3250 H     1 <1>   0.1500 
 28 H        3.7230    -4.7530     2.9700 H     1 <1>   0.0800 
 29 H        4.5130    -3.2090     2.6600 H     1 <1>   0.0800 
 30 H        4.4190    -4.4260     1.3830 H     1 <1>   0.0800 
 31 H       -0.1170    -6.0050    -2.2520 H     1 <1>   0.0800 
 32 H        1.5810    -6.3660    -2.0970 H     1 <1>   0.0800 
 33 H       -0.0120    -2.9600    -0.1840 H     1 <1>   0.0800 
 34 H       -1.0590    -3.9700    -1.1360 H     1 <1>   0.0800 
 35 H        1.3090    -6.6820     0.3120 H     1 <1>   0.0800 
 36 H        0.2900    -4.6850     1.4690 H     1 <1>   0.0800 
 37 H       -1.3940    -4.3760     1.2800 H     1 <1>   0.0800 
 38 H        1.4120    -8.6220    -0.5840 H     1 <1>   0.4500 
 39 H       -1.2780    -9.2850     0.2820 H     1 <1>   0.0800 
 40 H        0.2230   -10.1270     0.5590 H     1 <1>   0.0800 
 41 H       -1.1650    -8.4570    -2.0130 H     1 <1>   0.0800 
 42 H       -0.0750    -9.8260    -2.0400 H     1 <1>   0.0800 
 43 H        0.4310    -8.2980    -2.7180 H     1 <1>   0.0800 
 44 H       -0.3900    -6.4930     2.6490 H     1 <1>   0.0800 
 45 H       -1.8580    -7.2360     2.1510 H     1 <1>   0.0800 
 46 H       -2.3310    -7.5660    -0.3930 H     1 <1>   0.0800 
 47 H       -2.0120    -6.1020    -1.2830 H     1 <1>   0.0800 
 48 H       -0.5270    -9.0700     2.6200 H     1 <1>   0.0800 
 49 H        0.9340    -8.3110     2.0860 H     1 <1>   0.0800 
 50 H       -3.3310    -6.2490     1.2090 H     1 <1>   0.4000 
@<TRIPOS>BOND
  1   1   2  1   
  2   2   3  ar  
  3   2   4  ar  
  4   3   5  ar  
  5   3  25  1   
  6   4   6  ar  
  7   4  26  1   
  8   5   7  ar  
  9   5   8  1   
 10   6   7  ar  
 11   6  27  1   
 12   7   9  1   
 13   8  10  2   
 14   8  11  am  
 15   9  12  1   
 16  11  13  1   
 17  11  14  1   
 18  12  28  1   
 19  12  29  1   
 20  12  30  1   
 21  13  15  1   
 22  13  31  1   
 23  13  32  1   
 24  14  16  1   
 25  14  33  1   
 26  14  34  1   
 27  15  17  1   
 28  15  18  1   
 29  15  35  1   
 30  16  18  1   
 31  16  36  1   
 32  16  37  1   
 33  17  19  1   
 34  17  20  1   
 35  17  38  1   
 36  18  21  1   
 37  18  22  1   
 38  19  23  1   
 39  19  39  1   
 40  19  40  1   
 41  20  41  1   
 42  20  42  1   
 43  20  43  1   
 44  21  23  1   
 45  21  44  1   
 46  21  45  1   
 47  22  24  1   
 48  22  46  1   
 49  22  47  1   
 50  23  48  1   
 51  23  49  1   
 52  24  50  1   
@<TRIPOS>SUBSTRUCTURE
  1 ****  11 GROUP 4 **** **** 0

# MOE 2024.06 (io_trps.svl 2023.06)
