@<TRIPOS>MOLECULE
NONAME
45 46 1 0 0 
SMALL
USER_CHARGES


@<TRIPOS>ATOM
  1 S       -1.8120    -3.1050    -1.4170 S.3   1 <1>  -0.4600 
  2 C       -2.7690    -3.4410     0.0840 C.3   1 <1>   0.0700 
  3 C       -1.4850    -4.7710    -2.0530 C.3   1 <1>  -0.0100 
  4 C       -3.7080    -2.2570     0.3250 C.3   1 <1>  -0.0990 
  5 C       -4.7600    -2.5730     1.3740 C.2   1 <1>   0.5690 
  6 O       -4.5620    -3.4980     2.1280 O.2   1 <1>  -0.5700 
  7 N       -5.9180    -1.8450     1.4390 N.am  1 <1>  -0.6600 
  8 C       -7.0710    -2.3820     2.2120 C.3   1 <1>   0.1400 
  9 C       -6.2090    -0.5990     0.6770 C.3   1 <1>   0.1400 
 10 C       -7.8140    -3.4560     1.4000 C.3   1 <1>   0.1400 
 11 C       -7.0760    -0.8590    -0.5650 C.3   1 <1>  -0.1600 
 12 N       -8.0280    -3.0870    -0.0420 N.am  1 <1>  -0.6600 
 13 C       -8.3640    -1.6620    -0.3180 C.3   1 <1>   0.1400 
 14 C       -7.7240    -3.9320    -1.0930 C.2   1 <1>   0.5440 
 15 O       -7.9840    -3.5800    -2.2280 O.2   1 <1>  -0.5700 
 16 C       -7.0580    -5.2000    -0.9030 C.ar  1 <1>   0.0860 
 17 C       -7.6850    -6.3540    -0.4360 C.ar  1 <1>  -0.1440 
 18 C       -5.7020    -5.2830    -1.2080 C.ar  1 <1>   0.1600 
 19 C       -6.8980    -7.4770    -0.2840 C.ar  1 <1>  -0.1500 
 20 C       -9.1730    -6.3950    -0.1170 C.3   1 <1>  -0.0970 
 21 N       -4.9330    -6.3520    -1.0700 N.ar  1 <1>  -0.6200 
 22 C       -5.5520    -7.4250    -0.6050 C.ar  1 <1>   0.1600 
 23 H       -2.0790    -3.5800     0.8970 H     1 <1>   0.0800 
 24 H       -3.3200    -4.3500    -0.0830 H     1 <1>   0.0800 
 25 H       -0.9260    -4.6700    -2.9660 H     1 <1>   0.0800 
 26 H       -2.4320    -5.2500    -2.2330 H     1 <1>   0.0800 
 27 H       -0.9190    -5.3050    -1.3110 H     1 <1>   0.0800 
 28 H       -4.2020    -2.0250    -0.5990 H     1 <1>   0.0800 
 29 H       -3.1370    -1.4050     0.6410 H     1 <1>   0.0800 
 30 H       -7.7460    -1.5870     2.4720 H     1 <1>   0.0800 
 31 H       -6.7220    -2.8160     3.1340 H     1 <1>   0.0800 
 32 H       -5.2900    -0.1270     0.3790 H     1 <1>   0.0800 
 33 H       -6.7190     0.0900     1.3290 H     1 <1>   0.0800 
 34 H       -8.7690    -3.6420     1.8580 H     1 <1>   0.0800 
 35 H       -7.2430    -4.3650     1.4700 H     1 <1>   0.0800 
 36 H       -6.4900    -1.3530    -1.3180 H     1 <1>   0.0800 
 37 H       -7.3540     0.0960    -0.9720 H     1 <1>   0.0800 
 38 H       -8.9840    -1.6110    -1.1970 H     1 <1>   0.0800 
 39 H       -8.9270    -1.2440     0.4970 H     1 <1>   0.0800 
 40 H       -5.2310    -4.3950    -1.5940 H     1 <1>   0.1500 
 41 H       -7.3170    -8.3970     0.0800 H     1 <1>   0.1500 
 42 H       -9.3610    -5.9370     0.8360 H     1 <1>   0.0800 
 43 H       -9.5270    -7.4100    -0.0870 H     1 <1>   0.0800 
 44 H       -9.7310    -5.8680    -0.8720 H     1 <1>   0.0800 
 45 H       -4.9550    -8.3120    -0.4750 H     1 <1>   0.1500 
@<TRIPOS>BOND
  1   1   2  1   
  2   1   3  1   
  3   2   4  1   
  4   2  23  1   
  5   2  24  1   
  6   3  25  1   
  7   3  26  1   
  8   3  27  1   
  9   4   5  1   
 10   4  28  1   
 11   4  29  1   
 12   5   6  2   
 13   5   7  am  
 14   7   8  1   
 15   7   9  1   
 16   8  10  1   
 17   8  30  1   
 18   8  31  1   
 19   9  11  1   
 20   9  32  1   
 21   9  33  1   
 22  10  12  1   
 23  10  34  1   
 24  10  35  1   
 25  11  13  1   
 26  11  36  1   
 27  11  37  1   
 28  12  13  1   
 29  12  14  am  
 30  13  38  1   
 31  13  39  1   
 32  14  15  2   
 33  14  16  1   
 34  16  17  ar  
 35  16  18  ar  
 36  17  19  ar  
 37  17  20  1   
 38  18  21  ar  
 39  18  40  1   
 40  19  22  ar  
 41  19  41  1   
 42  20  42  1   
 43  20  43  1   
 44  20  44  1   
 45  21  22  ar  
 46  22  45  1   
@<TRIPOS>SUBSTRUCTURE
  1 ****  18 GROUP 4 **** **** 0

# MOE 2024.06 (io_trps.svl 2023.06)
