@<TRIPOS>MOLECULE
NONAME
42 44 1 0 0 
SMALL
USER_CHARGES


@<TRIPOS>ATOM
  1 S        0.2030    -0.1370     0.8200 S.3   1 <1>  -0.3320 
  2 C       -0.6500     1.1790    -0.0370 C.ar  1 <1>   0.4120 
  3 C       -0.9840    -0.6250     2.1640 C.3   1 <1>   0.1310 
  4 N       -0.7830     1.0060    -1.3390 N.ar  1 <1>  -0.6200 
  5 C       -1.1220     2.2570     0.6940 C.ar  1 <1>  -0.1500 
  6 C       -1.4160    -2.0780     2.0160 C.2   1 <1>   0.5690 
  7 C       -1.4290     1.9830    -1.9570 C.ar  1 <1>   0.1600 
  8 C       -1.7990     3.2590     0.0320 C.ar  1 <1>  -0.1500 
  9 O       -1.1470    -2.8360     2.9180 O.2   1 <1>  -0.5700 
 10 N       -2.1200    -2.5090     0.9220 N.am  1 <1>  -0.6600 
 11 C       -1.9500     3.1060    -1.3320 C.ar  1 <1>  -0.1500 
 12 C       -2.4670    -1.7200    -0.2900 C.3   1 <1>   0.1400 
 13 C       -2.4900    -3.9320     0.7260 C.3   1 <1>   0.1400 
 14 C       -3.4640    -2.5980    -1.0410 C.3   1 <1>   0.2000 
 15 C       -2.9940    -4.0210    -0.7210 C.3   1 <1>  -0.0800 
 16 O       -4.7210    -2.3900    -0.4940 O.3   1 <1>  -0.6800 
 17 C       -4.0480    -5.1200    -0.9500 C.3   1 <1>   0.0200 
 18 C       -3.4970    -6.5230    -0.7570 C.2   1 <1>  -0.0400 
 19 O       -4.3280    -7.5310    -0.7880 O.3   1 <1>  -0.0190 
 20 C       -2.2660    -7.0170    -0.5490 C.2   1 <1>  -0.1500 
 21 N       -3.7210    -8.6690    -0.6090 N.2   1 <1>  -0.4100 
 22 C       -2.4770    -8.3900    -0.4610 C.2   1 <1>   0.1080 
 23 C       -1.3960    -9.4210    -0.2240 C.3   1 <1>  -0.0590 
 24 H       -0.4740    -0.4820     3.0980 H     1 <1>   0.0800 
 25 H       -1.8380     0.0220     2.1090 H     1 <1>   0.0800 
 26 H       -0.9530     2.3120     1.7530 H     1 <1>   0.1500 
 27 H       -1.5530     1.8850    -3.0230 H     1 <1>   0.1500 
 28 H       -2.1860     4.1200     0.5490 H     1 <1>   0.1500 
 29 H       -2.4640     3.8530    -1.9100 H     1 <1>   0.1500 
 30 H       -2.8840    -0.7570    -0.0500 H     1 <1>   0.0800 
 31 H       -1.5830    -1.5920    -0.8900 H     1 <1>   0.0800 
 32 H       -1.6390    -4.5690     0.8940 H     1 <1>   0.0800 
 33 H       -3.2680    -4.1910     1.4240 H     1 <1>   0.0800 
 34 H       -3.5060    -2.3830    -2.0960 H     1 <1>   0.0800 
 35 H       -2.1450    -4.2270    -1.3500 H     1 <1>   0.0800 
 36 H       -4.6510    -2.4410     0.4810 H     1 <1>   0.4000 
 37 H       -4.4330    -5.0410    -1.9510 H     1 <1>   0.0800 
 38 H       -4.8740    -4.9840    -0.2740 H     1 <1>   0.0800 
 39 H       -1.3180    -6.5200    -0.4650 H     1 <1>   0.1500 
 40 H       -0.6750    -9.3830    -1.0200 H     1 <1>   0.0800 
 41 H       -1.8290   -10.4050    -0.1930 H     1 <1>   0.0800 
 42 H       -0.9050    -9.2260     0.7110 H     1 <1>   0.0800 
@<TRIPOS>BOND
  1   1   2  1   
  2   1   3  1   
  3   2   4  ar  
  4   2   5  ar  
  5   3   6  1   
  6   3  24  1   
  7   3  25  1   
  8   4   7  ar  
  9   5   8  ar  
 10   5  26  1   
 11   6   9  2   
 12   6  10  am  
 13   7  11  ar  
 14   7  27  1   
 15   8  11  ar  
 16   8  28  1   
 17  10  12  1   
 18  10  13  1   
 19  11  29  1   
 20  12  14  1   
 21  12  30  1   
 22  12  31  1   
 23  13  15  1   
 24  13  32  1   
 25  13  33  1   
 26  14  15  1   
 27  14  16  1   
 28  14  34  1   
 29  15  17  1   
 30  15  35  1   
 31  16  36  1   
 32  17  18  1   
 33  17  37  1   
 34  17  38  1   
 35  18  19  1   
 36  18  20  2   
 37  19  21  1   
 38  20  22  1   
 39  20  39  1   
 40  21  22  2   
 41  22  23  1   
 42  23  40  1   
 43  23  41  1   
 44  23  42  1   
@<TRIPOS>SUBSTRUCTURE
  1 ****  10 GROUP 4 **** **** 0

# MOE 2024.06 (io_trps.svl 2023.06)
