@<TRIPOS>MOLECULE
NONAME
59 61 1 0 0 
SMALL
USER_CHARGES


@<TRIPOS>ATOM
  1 F       -0.8910    -0.7810    -0.4770 F     1 <1>  -0.1900 
  2 C       -2.0640    -0.2180    -0.3340 C.ar  1 <1>   0.1900 
  3 C       -2.5900     0.6550    -1.2940 C.ar  1 <1>   0.0820 
  4 C       -2.7580    -0.5290     0.8190 C.ar  1 <1>  -0.1500 
  5 O       -2.0050     1.0380    -2.4650 O.3   1 <1>  -0.3630 
  6 C       -3.8400     1.2010    -1.0480 C.ar  1 <1>  -0.1500 
  7 C       -4.0030     0.0350     1.0320 C.ar  1 <1>  -0.1500 
  8 C       -0.7480     0.5600    -2.8900 C.3   1 <1>   0.0400 
  9 C       -4.5720     0.9060     0.1030 C.ar  1 <1>   0.0530 
 10 C       -5.8650     1.5070     0.3160 C.2   1 <1>   0.0870 
 11 O       -6.0140     2.7870     0.0910 O.3   1 <1>  -0.0190 
 12 C       -7.0750     1.0300     0.7240 C.2   1 <1>  -0.0860 
 13 N       -7.2240     3.2110     0.3300 N.2   1 <1>  -0.4100 
 14 C       -7.8830     2.1770     0.7160 C.2   1 <1>   0.3720 
 15 C       -7.4970    -0.2970     1.0610 C.2   1 <1>   0.7160 
 16 N       -9.2370     2.2370     1.0890 N.pl3 1 <1>  -0.8210 
 17 O       -6.7210    -1.2340     1.0830 O.2   1 <1>  -0.5700 
 18 N       -8.8030    -0.5490     1.3530 N.am  1 <1>  -0.7300 
 19 C      -10.0830     2.9820     0.1130 C.3   1 <1>   0.1290 
 20 C       -9.4120     2.7830     2.4640 C.3   1 <1>   0.1290 
 21 C       -9.3720    -1.8200     1.8470 C.3   1 <1>   0.1400 
 22 C       -9.4620    -2.8520     0.7080 C.3   1 <1>  -0.0800 
 23 C      -10.3110    -2.3560    -0.4760 C.3   1 <1>  -0.1600 
 24 C      -10.0240    -4.1850     1.2240 C.3   1 <1>  -0.1600 
 25 C      -10.4170    -3.4200    -1.5670 C.3   1 <1>   0.3430 
 26 C      -10.1360    -5.2150     0.1000 C.3   1 <1>   0.3430 
 27 N      -10.9920    -4.6750    -1.0000 N.4   1 <1>  -0.9590 
 28 C      -11.2130    -5.6710    -2.0790 C.3   1 <1>   0.3430 
 29 C      -12.1680    -6.7550    -1.5920 C.3   1 <1>  -0.2400 
 30 H       -2.3290    -1.2020     1.5390 H     1 <1>   0.1500 
 31 H       -4.2550     1.8750    -1.7760 H     1 <1>   0.1500 
 32 H       -4.5420    -0.2040     1.9320 H     1 <1>   0.1500 
 33 H       -0.5280     1.0020    -3.8440 H     1 <1>   0.0800 
 34 H       -0.7950    -0.5100    -2.9860 H     1 <1>   0.0800 
 35 H       -0.0020     0.8510    -2.1720 H     1 <1>   0.0800 
 36 H       -9.4050     0.2900     1.3560 H     1 <1>   0.3700 
 37 H       -9.8810     2.6350    -0.8860 H     1 <1>   0.0800 
 38 H       -9.8670     4.0360     0.1600 H     1 <1>   0.0800 
 39 H      -11.1250     2.8250     0.3310 H     1 <1>   0.0800 
 40 H       -8.8060     2.2280     3.1600 H     1 <1>   0.0800 
 41 H      -10.4430     2.7070     2.7640 H     1 <1>   0.0800 
 42 H       -9.1100     3.8180     2.4920 H     1 <1>   0.0800 
 43 H      -10.3460    -1.6310     2.2630 H     1 <1>   0.0800 
 44 H       -8.7370    -2.2000     2.6310 H     1 <1>   0.0800 
 45 H       -8.4600    -3.0350     0.3570 H     1 <1>   0.0800 
 46 H       -9.8560    -1.4800    -0.9050 H     1 <1>   0.0800 
 47 H      -11.2960    -2.0770    -0.1430 H     1 <1>   0.0800 
 48 H      -10.9910    -4.0390     1.6730 H     1 <1>   0.0800 
 49 H       -9.3690    -4.5770     1.9840 H     1 <1>   0.0800 
 50 H       -9.4360    -3.6160    -1.9700 H     1 <1>   0.0800 
 51 H      -11.0430    -3.0520    -2.3650 H     1 <1>   0.0800 
 52 H      -10.5620    -6.1240     0.4920 H     1 <1>   0.0800 
 53 H       -9.1520    -5.4390    -0.2810 H     1 <1>   0.0800 
 54 H      -11.9070    -4.4390    -0.5960 H     1 <1>   0.4500 
 55 H      -10.2740    -6.1090    -2.3820 H     1 <1>   0.0800 
 56 H      -11.6500    -5.1850    -2.9370 H     1 <1>   0.0800 
 57 H      -11.7370    -7.3350    -0.7970 H     1 <1>   0.0800 
 58 H      -12.3780    -7.4270    -2.4060 H     1 <1>   0.0800 
 59 H      -13.1000    -6.3280    -1.2690 H     1 <1>   0.0800 
@<TRIPOS>BOND
  1   1   2  1   
  2   2   3  ar  
  3   2   4  ar  
  4   3   5  1   
  5   3   6  ar  
  6   4   7  ar  
  7   4  30  1   
  8   5   8  1   
  9   6   9  ar  
 10   6  31  1   
 11   7   9  ar  
 12   7  32  1   
 13   8  33  1   
 14   8  34  1   
 15   8  35  1   
 16   9  10  1   
 17  10  11  1   
 18  10  12  2   
 19  11  13  1   
 20  12  14  1   
 21  12  15  1   
 22  13  14  2   
 23  14  16  1   
 24  15  17  2   
 25  15  18  am  
 26  16  19  1   
 27  16  20  1   
 28  18  21  1   
 29  18  36  1   
 30  19  37  1   
 31  19  38  1   
 32  19  39  1   
 33  20  40  1   
 34  20  41  1   
 35  20  42  1   
 36  21  22  1   
 37  21  43  1   
 38  21  44  1   
 39  22  23  1   
 40  22  24  1   
 41  22  45  1   
 42  23  25  1   
 43  23  46  1   
 44  23  47  1   
 45  24  26  1   
 46  24  48  1   
 47  24  49  1   
 48  25  27  1   
 49  25  50  1   
 50  25  51  1   
 51  26  27  1   
 52  26  52  1   
 53  26  53  1   
 54  27  28  1   
 55  27  54  1   
 56  28  29  1   
 57  28  55  1   
 58  28  56  1   
 59  29  57  1   
 60  29  58  1   
 61  29  59  1   
@<TRIPOS>SUBSTRUCTURE
  1 ****  15 GROUP 4 **** **** 0

# MOE 2024.06 (io_trps.svl 2023.06)
