@<TRIPOS>MOLECULE
NONAME
44 46 1 0 0 
SMALL
USER_CHARGES


@<TRIPOS>ATOM
  1 S        0.3850     0.7150     0.3560 S.3   1 <1>  -0.0800 
  2 C       -0.5500    -0.5460    -0.4320 C.2   1 <1>  -0.1120 
  3 C       -1.0310     1.8100     0.3340 C.2   1 <1>  -0.0450 
  4 N       -0.3370    -1.7970    -0.8510 N.pl3 1 <1>   0.3140 
  5 C       -1.8140    -0.1660    -0.6830 C.2   1 <1>   0.0000 
  6 C       -0.9020     3.1330     0.8840 C.2   1 <1>   0.7150 
  7 C       -2.0820     1.1700    -0.2480 C.2   1 <1>  -0.1500 
  8 N       -1.4770    -2.2750    -1.3990 N.2   1 <1>  -0.7070 
  9 C        0.8940    -2.5920    -0.7700 C.3   1 <1>   0.0160 
 10 C       -2.3640    -1.3020    -1.3000 C.2   1 <1>   0.1080 
 11 O       -1.8330     3.9140     0.8350 O.2   1 <1>  -0.5700 
 12 N        0.2680     3.5470     1.4420 N.am  1 <1>  -0.7300 
 13 C       -3.8400    -1.3070    -1.7670 C.3   1 <1>   1.2010 
 14 C        0.5350     4.8850     1.9880 C.3   1 <1>   0.3200 
 15 F       -4.2160    -2.4310    -2.3710 F     1 <1>  -0.3400 
 16 F       -4.6850    -1.1310    -0.7550 F     1 <1>  -0.3400 
 17 F       -4.0950    -0.3240    -2.6270 F     1 <1>  -0.3400 
 18 C        1.7150     5.4620     1.2400 C.2   1 <1>  -0.3320 
 19 N        1.7010     5.8580    -0.0530 N.pl3 1 <1>   0.0480 
 20 C        2.9650     5.6950     1.6980 C.2   1 <1>   0.0770 
 21 C        2.9580     6.2990    -0.2840 C.2   1 <1>   0.0360 
 22 C        0.5950     5.8190    -1.0390 C.3   1 <1>   0.0960 
 23 N        3.7460     6.2190     0.7380 N.2   1 <1>  -0.5650 
 24 C       -0.4140     6.9650    -0.8390 C.3   1 <1>  -0.0800 
 25 C       -1.5930     6.7930    -1.8040 C.3   1 <1>  -0.2400 
 26 C        0.2280     8.3450    -1.0460 C.3   1 <1>  -0.2400 
 27 H       -3.0560     1.6100    -0.3840 H     1 <1>   0.1500 
 28 H        1.6830    -1.9970    -0.3500 H     1 <1>   0.0800 
 29 H        1.1660    -2.9140    -1.7580 H     1 <1>   0.0800 
 30 H        0.7130    -3.4500    -0.1500 H     1 <1>   0.0800 
 31 H        1.0860     2.9410     1.3810 H     1 <1>   0.3700 
 32 H        0.7710     4.7960     3.0350 H     1 <1>   0.0800 
 33 H       -0.3270     5.5230     1.8920 H     1 <1>   0.0800 
 34 H        3.3540     5.5110     2.6860 H     1 <1>   0.1500 
 35 H        3.2580     6.6820    -1.2430 H     1 <1>   0.1500 
 36 H        0.0930     4.8740    -0.9520 H     1 <1>   0.0800 
 37 H        1.0150     5.8760    -2.0270 H     1 <1>   0.0800 
 38 H       -0.8050     6.9120     0.1630 H     1 <1>   0.0800 
 39 H       -1.2620     6.8380    -2.8260 H     1 <1>   0.0800 
 40 H       -2.3210     7.5690    -1.6440 H     1 <1>   0.0800 
 41 H       -2.0750     5.8450    -1.6360 H     1 <1>   0.0800 
 42 H        0.6480     8.4270    -2.0330 H     1 <1>   0.0800 
 43 H        1.0080     8.5140    -0.3240 H     1 <1>   0.0800 
 44 H       -0.5080     9.1200    -0.9230 H     1 <1>   0.0800 
@<TRIPOS>BOND
  1   1   2  1   
  2   1   3  1   
  3   2   4  1   
  4   2   5  2   
  5   3   6  1   
  6   3   7  2   
  7   4   8  1   
  8   4   9  1   
  9   5   7  1   
 10   5  10  1   
 11   6  11  2   
 12   6  12  am  
 13   7  27  1   
 14   8  10  2   
 15   9  28  1   
 16   9  29  1   
 17   9  30  1   
 18  10  13  1   
 19  12  14  1   
 20  12  31  1   
 21  13  15  1   
 22  13  16  1   
 23  13  17  1   
 24  14  18  1   
 25  14  32  1   
 26  14  33  1   
 27  18  19  1   
 28  18  20  2   
 29  19  21  1   
 30  19  22  1   
 31  20  23  1   
 32  20  34  1   
 33  21  23  2   
 34  21  35  1   
 35  22  24  1   
 36  22  36  1   
 37  22  37  1   
 38  24  25  1   
 39  24  26  1   
 40  24  38  1   
 41  25  39  1   
 42  25  40  1   
 43  25  41  1   
 44  26  42  1   
 45  26  43  1   
 46  26  44  1   
@<TRIPOS>SUBSTRUCTURE
  1 ****   3 GROUP 4 **** **** 0

# MOE 2024.06 (io_trps.svl 2023.06)
