@<TRIPOS>MOLECULE
NONAME
51 53 1 0 0 
SMALL
USER_CHARGES


@<TRIPOS>ATOM
  1 F        0.2890     0.7480    -0.7690 F     1 <1>  -0.1900 
  2 C        0.9700    -0.1860    -0.1530 C.ar  1 <1>   0.1900 
  3 C        1.8240     0.1480     0.8840 C.ar  1 <1>   0.1900 
  4 C        0.8110    -1.5000    -0.5530 C.ar  1 <1>  -0.1440 
  5 F        1.9590     1.3960     1.2530 F     1 <1>  -0.1900 
  6 C        2.5430    -0.8280     1.5480 C.ar  1 <1>  -0.1500 
  7 C        1.5250    -2.4910     0.1140 C.ar  1 <1>   0.0830 
  8 C       -0.1200    -1.8440    -1.6960 C.3   1 <1>   0.4860 
  9 C        2.3900    -2.1510     1.1590 C.ar  1 <1>  -0.1500 
 10 O        1.3230    -3.7690    -0.2980 O.3   1 <1>  -0.3630 
 11 N       -1.5180    -1.8420    -1.2000 N.4   1 <1>  -0.9590 
 12 C        2.1040    -4.8350     0.2050 C.3   1 <1>   0.0400 
 13 C       -1.8020    -2.9150    -0.2160 C.3   1 <1>   0.3430 
 14 C       -2.5330    -1.8000    -2.2840 C.3   1 <1>   0.3430 
 15 C       -3.1110    -2.6100     0.5180 C.3   1 <1>  -0.1600 
 16 C       -3.9550    -1.8240    -1.7080 C.3   1 <1>  -0.1600 
 17 C       -4.0170    -1.5760    -0.1860 C.3   1 <1>   0.2800 
 18 O       -3.4080    -0.3150     0.0260 O.3   1 <1>  -0.5600 
 19 C       -5.4620    -1.6440     0.3980 C.3   1 <1>   0.2000 
 20 C       -4.1330     0.7010     0.6650 C.3   1 <1>   0.1200 
 21 O       -6.1010    -2.8300     0.0220 O.3   1 <1>  -0.6800 
 22 C       -6.3380    -0.3890     0.0960 C.3   1 <1>   0.2800 
 23 C       -5.4740     0.8740    -0.0470 C.3   1 <1>  -0.1600 
 24 O       -7.1450    -0.2080     1.2000 O.3   1 <1>  -0.6800 
 25 C       -7.3050    -0.5170    -1.0900 C.3   1 <1>  -0.2400 
 26 H        3.2060    -0.5540     2.3510 H     1 <1>   0.1500 
 27 H        0.1300    -2.8120    -2.1010 H     1 <1>   0.0800 
 28 H       -0.0060    -1.1080    -2.4750 H     1 <1>   0.0800 
 29 H        2.9530    -2.9010     1.6850 H     1 <1>   0.1500 
 30 H       -1.6700    -0.9580    -0.6750 H     1 <1>   0.4500 
 31 H        1.8140    -5.7360    -0.3050 H     1 <1>   0.0800 
 32 H        1.9210    -4.9410     1.2600 H     1 <1>   0.0800 
 33 H        3.1440    -4.6300     0.0150 H     1 <1>   0.0800 
 34 H       -1.8830    -3.8600    -0.7300 H     1 <1>   0.0800 
 35 H       -1.0020    -2.9920     0.5020 H     1 <1>   0.0800 
 36 H       -2.4030    -0.8930    -2.8520 H     1 <1>   0.0800 
 37 H       -2.4020    -2.6380    -2.9500 H     1 <1>   0.0800 
 38 H       -2.8940    -2.2710     1.5150 H     1 <1>   0.0800 
 39 H       -3.6390    -3.5410     0.6200 H     1 <1>   0.0800 
 40 H       -4.3860    -2.7850    -1.9260 H     1 <1>   0.0800 
 41 H       -4.5480    -1.0970    -2.2280 H     1 <1>   0.0800 
 42 H       -5.3490    -1.7020     1.4680 H     1 <1>   0.0800 
 43 H       -4.2650     0.4410     1.7020 H     1 <1>   0.0800 
 44 H       -3.5520     1.6060     0.6050 H     1 <1>   0.0800 
 45 H       -6.9860    -2.8520     0.4440 H     1 <1>   0.4000 
 46 H       -5.2670     1.0700    -1.0840 H     1 <1>   0.0800 
 47 H       -5.9890     1.7340     0.3430 H     1 <1>   0.0800 
 48 H       -7.7920     0.5020     1.0260 H     1 <1>   0.4000 
 49 H       -6.7700    -0.7430    -1.9920 H     1 <1>   0.0800 
 50 H       -7.8400     0.4020    -1.2450 H     1 <1>   0.0800 
 51 H       -8.0160    -1.3070    -0.9230 H     1 <1>   0.0800 
@<TRIPOS>BOND
  1   1   2  1   
  2   2   3  ar  
  3   2   4  ar  
  4   3   5  1   
  5   3   6  ar  
  6   4   7  ar  
  7   4   8  1   
  8   6   9  ar  
  9   6  26  1   
 10   7   9  ar  
 11   7  10  1   
 12   8  11  1   
 13   8  27  1   
 14   8  28  1   
 15   9  29  1   
 16  10  12  1   
 17  11  13  1   
 18  11  14  1   
 19  11  30  1   
 20  12  31  1   
 21  12  32  1   
 22  12  33  1   
 23  13  15  1   
 24  13  34  1   
 25  13  35  1   
 26  14  16  1   
 27  14  36  1   
 28  14  37  1   
 29  15  17  1   
 30  15  38  1   
 31  15  39  1   
 32  16  17  1   
 33  16  40  1   
 34  16  41  1   
 35  17  18  1   
 36  17  19  1   
 37  18  20  1   
 38  19  21  1   
 39  19  22  1   
 40  19  42  1   
 41  20  23  1   
 42  20  43  1   
 43  20  44  1   
 44  21  45  1   
 45  22  23  1   
 46  22  24  1   
 47  22  25  1   
 48  23  46  1   
 49  23  47  1   
 50  24  48  1   
 51  25  49  1   
 52  25  50  1   
 53  25  51  1   
@<TRIPOS>SUBSTRUCTURE
  1 ****  11 GROUP 4 **** **** 0

# MOE 2024.06 (io_trps.svl 2023.06)
