@<TRIPOS>MOLECULE
NONAME
59 62 1 0 0 
SMALL
USER_CHARGES


@<TRIPOS>ATOM
  1 O        1.2260    -0.1310     1.7760 O.2   1 <1>  -0.5740 
  2 C        2.3100     0.0370     1.2720 C.2   1 <1>   0.6870 
  3 N        2.8270     1.3040     1.0290 N.am  1 <1>  -0.4410 
  4 N        3.0460    -1.0610     0.9300 N.am  1 <1>  -0.4940 
  5 C        4.0760     1.3860     0.4310 C.2   1 <1>   0.4210 
  6 C        2.0550     2.5290     1.3910 C.3   1 <1>   0.0530 
  7 C        4.2780    -0.9980     0.3460 C.2   1 <1>   0.7000 
  8 N        4.7700     2.5080     0.0910 N.pl3 1 <1>  -0.7030 
  9 C        4.8140     0.3070     0.0850 C.2   1 <1>   0.2710 
 10 O        4.8600    -2.0290     0.0740 O.2   1 <1>  -0.5740 
 11 C        5.9220     2.1310    -0.4590 C.cat 1 <1>   1.0690 
 12 N        6.0040     0.8000    -0.4880 N.pl3 1 <1>  -0.7670 
 13 N        6.8620     2.9600    -0.9240 N.pl3 1 <1>  -0.7170 
 14 C        7.0670    -0.1200    -0.9920 C.3   1 <1>   0.2680 
 15 C        6.8530     4.4460    -0.9760 C.3   1 <1>   0.1610 
 16 C        8.2260     4.9950    -0.5490 C.3   1 <1>  -0.1660 
 17 C        8.3610     6.5310    -0.6990 C.3   1 <1>   0.4180 
 18 N        9.6920     7.0070    -0.2020 N.4   1 <1>  -0.9610 
 19 C        7.2480     7.2630     0.0750 C.3   1 <1>  -0.1660 
 20 C        9.8540     8.4890    -0.3370 C.3   1 <1>   0.3380 
 21 C       10.8780     6.3410    -0.8180 C.3   1 <1>   0.4820 
 22 C        7.3810     8.7870     0.0120 C.3   1 <1>  -0.1660 
 23 C        8.7770     9.2120     0.4640 C.3   1 <1>  -0.1660 
 24 C       12.1200     6.7340    -0.0460 C.ar  1 <1>  -0.1500 
 25 C       13.0600     7.5770    -0.6230 C.ar  1 <1>  -0.1560 
 26 C       12.3260     6.2610     1.2430 C.ar  1 <1>  -0.1560 
 27 C       14.1860     7.9520     0.0870 C.ar  1 <1>  -0.1560 
 28 C       13.4530     6.6390     1.9510 C.ar  1 <1>  -0.1560 
 29 C       14.3820     7.4850     1.3740 C.ar  1 <1>  -0.1560 
 30 H        2.6400    -1.9750     1.1230 H     1 <1>   0.3650 
 31 H        1.1750     2.2750     1.9580 H     1 <1>   0.0730 
 32 H        1.7440     3.0420     0.4970 H     1 <1>   0.0730 
 33 H        2.6620     3.1840     1.9900 H     1 <1>   0.0730 
 34 H        4.4510     3.4620     0.2200 H     1 <1>   0.4450 
 35 H        7.6610     2.5170    -1.3760 H     1 <1>   0.4450 
 36 H        6.6680    -0.7460    -1.7730 H     1 <1>   0.0730 
 37 H        7.4110    -0.7550    -0.1920 H     1 <1>   0.0730 
 38 H        7.9050     0.4290    -1.3820 H     1 <1>   0.0730 
 39 H        6.0830     4.8240    -0.3260 H     1 <1>   0.0730 
 40 H        6.6320     4.7600    -1.9840 H     1 <1>   0.0730 
 41 H        8.9620     4.5200    -1.1700 H     1 <1>   0.0730 
 42 H        8.4020     4.7260     0.4780 H     1 <1>   0.0730 
 43 H        8.2720     6.7890    -1.7430 H     1 <1>   0.0730 
 44 H        9.7480     6.8220     0.8050 H     1 <1>   0.4450 
 45 H        7.2560     6.9490     1.1050 H     1 <1>   0.0730 
 46 H        6.2860     7.0150    -0.3340 H     1 <1>   0.0730 
 47 H        9.7820     8.7720    -1.3750 H     1 <1>   0.0730 
 48 H       10.8210     8.7940     0.0300 H     1 <1>   0.0730 
 49 H       10.9760     6.6330    -1.8500 H     1 <1>   0.0730 
 50 H       10.7790     5.2710    -0.7700 H     1 <1>   0.0730 
 51 H        6.6390     9.2480     0.6430 H     1 <1>   0.0730 
 52 H        7.2100     9.1260    -0.9970 H     1 <1>   0.0730 
 53 H        8.8900    10.2740     0.3250 H     1 <1>   0.0730 
 54 H        8.9100     9.0090     1.5130 H     1 <1>   0.0730 
 55 H       12.9320     7.9500    -1.6250 H     1 <1>   0.1440 
 56 H       11.6240     5.5960     1.7130 H     1 <1>   0.1440 
 57 H       14.9160     8.6070    -0.3600 H     1 <1>   0.1440 
 58 H       13.6140     6.2730     2.9510 H     1 <1>   0.1440 
 59 H       15.2600     7.7780     1.9250 H     1 <1>   0.1440 
@<TRIPOS>BOND
  1   1   2  2   
  2   2   3  am  
  3   2   4  am  
  4   3   5  1   
  5   3   6  1   
  6   4   7  am  
  7   4  30  1   
  8   5   8  1   
  9   5   9  2   
 10   6  31  1   
 11   6  32  1   
 12   6  33  1   
 13   7   9  1   
 14   7  10  2   
 15   8  11  ar  
 16   8  34  1   
 17   9  12  1   
 18  11  12  ar  
 19  11  13  ar  
 20  12  14  1   
 21  13  15  1   
 22  13  35  1   
 23  14  36  1   
 24  14  37  1   
 25  14  38  1   
 26  15  16  1   
 27  15  39  1   
 28  15  40  1   
 29  16  17  1   
 30  16  41  1   
 31  16  42  1   
 32  17  18  1   
 33  17  19  1   
 34  17  43  1   
 35  18  20  1   
 36  18  21  1   
 37  18  44  1   
 38  19  22  1   
 39  19  45  1   
 40  19  46  1   
 41  20  23  1   
 42  20  47  1   
 43  20  48  1   
 44  21  24  1   
 45  21  49  1   
 46  21  50  1   
 47  22  23  1   
 48  22  51  1   
 49  22  52  1   
 50  23  53  1   
 51  23  54  1   
 52  24  25  ar  
 53  24  26  ar  
 54  25  27  ar  
 55  25  55  1   
 56  26  28  ar  
 57  26  56  1   
 58  27  29  ar  
 59  27  57  1   
 60  28  29  ar  
 61  28  58  1   
 62  29  59  1   
@<TRIPOS>SUBSTRUCTURE
  1 ****  15 GROUP 4 **** **** 0

# MOE 2024.06 (io_trps.svl 2023.06)
