@<TRIPOS>MOLECULE
NONAME
49 50 1 0 0 
SMALL
USER_CHARGES


@<TRIPOS>ATOM
  1 CL      -0.7680    -0.6330    -0.9450 Cl    1 <1>  -0.1770 
  2 C        0.8500    -1.2720    -0.8000 C.ar  1 <1>   0.1770 
  3 C        1.1660    -2.2270     0.1600 C.ar  1 <1>  -0.0090 
  4 C        1.7930    -0.7800    -1.6830 C.ar  1 <1>  -0.1500 
  5 S       -0.0870    -2.8810     1.2900 S.o2  1 <1>   1.4470 
  6 C        2.4880    -2.6690     0.2250 C.ar  1 <1>  -0.1500 
  7 C        3.0830    -1.2550    -1.5900 C.ar  1 <1>   0.1900 
  8 O       -0.6920    -1.7770     2.0000 O.2   1 <1>  -0.6500 
  9 O        0.4890    -3.9530     2.0710 O.2   1 <1>  -0.6500 
 10 N       -1.2620    -3.5860     0.2900 N.am  1 <1>  -0.8490 
 11 C        3.4600    -2.1960    -0.6450 C.ar  1 <1>  -0.1430 
 12 F        3.9720    -0.7930    -2.4280 F     1 <1>  -0.1900 
 13 C       -2.5720    -3.4870     0.9470 C.3   1 <1>   0.3770 
 14 C       -0.9740    -4.9870    -0.1080 C.3   1 <1>   0.1960 
 15 C        4.8940    -2.6980    -0.5560 C.3   1 <1>  -0.0960 
 16 C       -3.6920    -4.0950     0.1160 C.2   1 <1>  -0.1810 
 17 C        0.2890    -5.1270    -0.9640 C.3   1 <1>   0.1200 
 18 C       -4.2040    -3.5710    -1.0670 C.2   1 <1>   0.1080 
 19 C       -4.4020    -5.2290     0.3230 C.2   1 <1>  -0.3320 
 20 O        0.3580    -6.4310    -1.4450 O.3   1 <1>  -0.5600 
 21 N       -5.1510    -4.3030    -1.5580 N.2   1 <1>  -0.7070 
 22 C       -3.7350    -2.3050    -1.7460 C.3   1 <1>  -0.0590 
 23 N       -5.2760    -5.3280    -0.7030 N.pl3 1 <1>   0.3140 
 24 C       -4.2980    -6.2500     1.4470 C.3   1 <1>  -0.0600 
 25 C        1.4430    -6.6680    -2.2820 C.3   1 <1>   0.0400 
 26 C       -6.2620    -6.3900    -0.9380 C.3   1 <1>   0.0160 
 27 H        1.5290    -0.0450    -2.4210 H     1 <1>   0.1500 
 28 H        2.7570    -3.3980     0.9730 H     1 <1>   0.1500 
 29 H       -2.8200    -2.4510     1.1110 H     1 <1>   0.0800 
 30 H       -2.5320    -3.9690     1.9090 H     1 <1>   0.0800 
 31 H       -1.7820    -5.3650    -0.7110 H     1 <1>   0.0800 
 32 H       -0.8870    -5.6120     0.7650 H     1 <1>   0.0800 
 33 H        5.0050    -3.4260     0.2280 H     1 <1>   0.0800 
 34 H        5.5580    -1.8760    -0.3540 H     1 <1>   0.0800 
 35 H        5.1840    -3.1510    -1.4870 H     1 <1>   0.0800 
 36 H        1.1710    -4.9500    -0.3760 H     1 <1>   0.0800 
 37 H        0.2420    -4.4550    -1.8040 H     1 <1>   0.0800 
 38 H       -3.6940    -1.4990    -1.0390 H     1 <1>   0.0800 
 39 H       -4.4140    -2.0420    -2.5360 H     1 <1>   0.0800 
 40 H       -2.7590    -2.4650    -2.1640 H     1 <1>   0.0800 
 41 H       -3.5190    -5.9860     2.1370 H     1 <1>   0.0800 
 42 H       -4.0750    -7.2210     1.0430 H     1 <1>   0.0800 
 43 H       -5.2270    -6.3010     1.9860 H     1 <1>   0.0800 
 44 H        1.4070    -7.6980    -2.5930 H     1 <1>   0.0800 
 45 H        2.3560    -6.4850    -1.7420 H     1 <1>   0.0800 
 46 H        1.3750    -6.0270    -3.1440 H     1 <1>   0.0800 
 47 H       -6.9300    -6.4420    -0.1000 H     1 <1>   0.0800 
 48 H       -5.7490    -7.3240    -1.0640 H     1 <1>   0.0800 
 49 H       -6.8180    -6.1610    -1.8280 H     1 <1>   0.0800 
@<TRIPOS>BOND
  1   1   2  1   
  2   2   3  ar  
  3   2   4  ar  
  4   3   5  1   
  5   3   6  ar  
  6   4   7  ar  
  7   4  27  1   
  8   5   8  2   
  9   5   9  2   
 10   5  10  am  
 11   6  11  ar  
 12   6  28  1   
 13   7  11  ar  
 14   7  12  1   
 15  10  13  1   
 16  10  14  1   
 17  11  15  1   
 18  13  16  1   
 19  13  29  1   
 20  13  30  1   
 21  14  17  1   
 22  14  31  1   
 23  14  32  1   
 24  15  33  1   
 25  15  34  1   
 26  15  35  1   
 27  16  18  1   
 28  16  19  2   
 29  17  20  1   
 30  17  36  1   
 31  17  37  1   
 32  18  21  2   
 33  18  22  1   
 34  19  23  1   
 35  19  24  1   
 36  20  25  1   
 37  21  23  1   
 38  22  38  1   
 39  22  39  1   
 40  22  40  1   
 41  23  26  1   
 42  24  41  1   
 43  24  42  1   
 44  24  43  1   
 45  25  44  1   
 46  25  45  1   
 47  25  46  1   
 48  26  47  1   
 49  26  48  1   
 50  26  49  1   
@<TRIPOS>SUBSTRUCTURE
  1 ****  10 GROUP 4 **** **** 0

# MOE 2024.06 (io_trps.svl 2023.06)
