@<TRIPOS>MOLECULE
NONAME
50 51 1 0 0 
SMALL
USER_CHARGES


@<TRIPOS>ATOM
  1 O        0.9240     2.6020    -1.7480 O.2   1 <1>  -0.5700 
  2 C        0.3360     3.6030    -1.4110 C.2   1 <1>   0.5690 
  3 N       -0.6440     3.6250    -0.4500 N.am  1 <1>  -0.6600 
  4 C        0.7040     4.9070    -2.1110 C.3   1 <1>   0.1810 
  5 C       -1.3500     4.9090    -0.1110 C.3   1 <1>   0.3640 
  6 C       -1.0380     2.4590     0.3880 C.3   1 <1>   0.2200 
  7 O        0.5670     6.0090    -1.2540 O.3   1 <1>  -0.5600 
  8 C       -2.8250     4.7850    -0.5040 C.ar  1 <1>  -0.1440 
  9 C       -0.7470     6.1950    -0.7490 C.3   1 <1>   0.2610 
 10 C        0.1360     2.0190     1.2620 C.3   1 <1>  -0.2400 
 11 C       -1.5760     1.3120    -0.4680 C.3   1 <1>  -0.2400 
 12 C       -3.8140     5.1830     0.3850 C.ar  1 <1>  -0.1500 
 13 C       -3.2010     4.2880    -1.7460 C.ar  1 <1>  -0.1500 
 14 C       -0.7670     7.3410     0.2730 C.2   1 <1>   0.5690 
 15 C       -5.1510     5.0820     0.0430 C.ar  1 <1>  -0.1500 
 16 C       -4.5380     4.1850    -2.0890 C.ar  1 <1>  -0.1500 
 17 O       -1.7660     7.5550     0.9190 O.2   1 <1>  -0.5700 
 18 N        0.3510     8.0930     0.4450 N.am  1 <1>  -0.7300 
 19 C       -5.5150     4.5820    -1.1940 C.ar  1 <1>  -0.1500 
 20 C        0.5570     9.1870     1.4180 C.3   1 <1>   0.1400 
 21 C        1.8610     8.9590     2.1890 C.3   1 <1>   0.1200 
 22 O        2.9030     8.7470     1.2830 O.3   1 <1>  -0.5600 
 23 C        4.1170     8.4370     1.8780 C.3   1 <1>   0.1200 
 24 C        5.1260     8.2080     0.7600 C.3   1 <1>  -0.2400 
 25 H        0.0770     5.0540    -2.9710 H     1 <1>   0.0800 
 26 H        1.7300     4.8640    -2.4260 H     1 <1>   0.0800 
 27 H       -1.2950     5.0220     0.9580 H     1 <1>   0.0800 
 28 H       -1.8360     2.7630     1.0470 H     1 <1>   0.0800 
 29 H       -1.3610     6.4970    -1.5770 H     1 <1>   0.0800 
 30 H        0.9380     1.6340     0.6590 H     1 <1>   0.0800 
 31 H       -0.1810     1.2430     1.9340 H     1 <1>   0.0800 
 32 H        0.4950     2.8480     1.8440 H     1 <1>   0.0800 
 33 H       -0.8080     0.8990    -1.0950 H     1 <1>   0.0800 
 34 H       -2.3900     1.6540    -1.0800 H     1 <1>   0.0800 
 35 H       -1.9430     0.5280     0.1690 H     1 <1>   0.0800 
 36 H       -3.5500     5.5830     1.3490 H     1 <1>   0.1500 
 37 H       -2.4550     3.9680    -2.4530 H     1 <1>   0.1500 
 38 H       -5.9080     5.3950     0.7410 H     1 <1>   0.1500 
 39 H       -4.8190     3.7960    -3.0520 H     1 <1>   0.1500 
 40 H        1.2030     7.8250    -0.0650 H     1 <1>   0.3700 
 41 H       -6.5540     4.5040    -1.4590 H     1 <1>   0.1500 
 42 H        0.6130    10.1240     0.8920 H     1 <1>   0.0800 
 43 H       -0.2720     9.2340     2.1040 H     1 <1>   0.0800 
 44 H        1.7630     8.0910     2.8180 H     1 <1>   0.0800 
 45 H        2.0940     9.8190     2.7930 H     1 <1>   0.0800 
 46 H        4.4200     9.2600     2.5030 H     1 <1>   0.0800 
 47 H        3.9990     7.5440     2.4690 H     1 <1>   0.0800 
 48 H        5.2260     9.0980     0.1660 H     1 <1>   0.0800 
 49 H        4.8060     7.3930     0.1360 H     1 <1>   0.0800 
 50 H        6.0850     7.9640     1.1790 H     1 <1>   0.0800 
@<TRIPOS>BOND
  1   1   2  2   
  2   2   3  am  
  3   2   4  1   
  4   3   5  1   
  5   3   6  1   
  6   4   7  1   
  7   4  25  1   
  8   4  26  1   
  9   5   8  1   
 10   5   9  1   
 11   5  27  1   
 12   6  10  1   
 13   6  11  1   
 14   6  28  1   
 15   7   9  1   
 16   8  12  ar  
 17   8  13  ar  
 18   9  14  1   
 19   9  29  1   
 20  10  30  1   
 21  10  31  1   
 22  10  32  1   
 23  11  33  1   
 24  11  34  1   
 25  11  35  1   
 26  12  15  ar  
 27  12  36  1   
 28  13  16  ar  
 29  13  37  1   
 30  14  17  2   
 31  14  18  am  
 32  15  19  ar  
 33  15  38  1   
 34  16  19  ar  
 35  16  39  1   
 36  18  20  1   
 37  18  40  1   
 38  19  41  1   
 39  20  21  1   
 40  20  42  1   
 41  20  43  1   
 42  21  22  1   
 43  21  44  1   
 44  21  45  1   
 45  22  23  1   
 46  23  24  1   
 47  23  46  1   
 48  23  47  1   
 49  24  48  1   
 50  24  49  1   
 51  24  50  1   
@<TRIPOS>SUBSTRUCTURE
  1 ****   5 GROUP 4 **** **** 0

# MOE 2024.06 (io_trps.svl 2023.06)
