@<TRIPOS>MOLECULE
NONAME
40 42 1 0 0 
SMALL
USER_CHARGES


@<TRIPOS>ATOM
  1 CL      -2.3820    -1.7510    -1.5100 Cl    1 <1>  -0.1770 
  2 C       -2.6810    -0.2530    -0.6610 C.ar  1 <1>   0.1770 
  3 C       -3.3100    -0.2740     0.5800 C.ar  1 <1>   0.0860 
  4 C       -2.2840     0.9260    -1.2690 C.ar  1 <1>  -0.1500 
  5 C       -3.5310     0.9650     1.1720 C.ar  1 <1>   0.1900 
  6 C       -3.7050    -1.5060     1.2080 C.2   1 <1>   0.5440 
  7 C       -2.5160     2.1410    -0.6420 C.ar  1 <1>  -0.1500 
  8 F       -4.1380     1.0220     2.3250 F     1 <1>  -0.1900 
  9 C       -3.1470     2.1610     0.5910 C.ar  1 <1>  -0.1500 
 10 O       -2.9840    -2.0170     2.0420 O.2   1 <1>  -0.5700 
 11 N       -4.8800    -2.1320     0.8690 N.am  1 <1>  -0.6600 
 12 C       -5.8310    -1.6780    -0.1780 C.3   1 <1>   0.1400 
 13 C       -5.2200    -3.5050     1.3200 C.3   1 <1>   0.1400 
 14 C       -6.9350    -2.7380    -0.1870 C.3   1 <1>   0.2000 
 15 C       -6.2420    -4.0150     0.2950 C.3   1 <1>  -0.0800 
 16 O       -7.8900    -2.3790     0.7500 O.3   1 <1>  -0.6800 
 17 C       -5.5500    -4.7390    -0.8760 C.3   1 <1>   0.0210 
 18 C       -4.8510    -6.0020    -0.4150 C.2   1 <1>   0.1080 
 19 N       -5.4930    -7.0700    -0.0590 N.2   1 <1>  -0.7070 
 20 C       -3.4720    -6.1570    -0.3160 C.2   1 <1>  -0.1500 
 21 N       -4.5290    -7.9470     0.2800 N.pl3 1 <1>   0.3000 
 22 C       -3.2960    -7.4170     0.1340 C.2   1 <1>  -0.3320 
 23 C       -2.0060    -8.1540     0.4410 C.3   1 <1>  -0.0600 
 24 H       -1.7970     0.8930    -2.2280 H     1 <1>   0.1500 
 25 H       -2.2080     3.0620    -1.1090 H     1 <1>   0.1500 
 26 H       -3.3410     3.0910     1.0970 H     1 <1>   0.1500 
 27 H       -6.2230    -0.6990     0.0380 H     1 <1>   0.0800 
 28 H       -5.3300    -1.6670    -1.1300 H     1 <1>   0.0800 
 29 H       -4.3400    -4.1240     1.3760 H     1 <1>   0.0800 
 30 H       -5.6650    -3.4510     2.2980 H     1 <1>   0.0800 
 31 H       -7.4210    -2.8400    -1.1430 H     1 <1>   0.0800 
 32 H       -6.9410    -4.6960     0.7490 H     1 <1>   0.0800 
 33 H       -7.4490    -2.2180     1.6080 H     1 <1>   0.4000 
 34 H       -4.8300    -4.0950    -1.3480 H     1 <1>   0.0800 
 35 H       -6.2840    -5.0150    -1.6110 H     1 <1>   0.0800 
 36 H       -2.7320    -5.4120    -0.5490 H     1 <1>   0.1500 
 37 H       -4.7450    -8.8960     0.6070 H     1 <1>   0.2700 
 38 H       -1.1620    -7.5150     0.2470 H     1 <1>   0.0800 
 39 H       -1.9220    -9.0300    -0.1770 H     1 <1>   0.0800 
 40 H       -1.9820    -8.4480     1.4750 H     1 <1>   0.0800 
@<TRIPOS>BOND
  1   1   2  1   
  2   2   3  ar  
  3   2   4  ar  
  4   3   5  ar  
  5   3   6  1   
  6   4   7  ar  
  7   4  24  1   
  8   5   8  1   
  9   5   9  ar  
 10   6  10  2   
 11   6  11  am  
 12   7   9  ar  
 13   7  25  1   
 14   9  26  1   
 15  11  12  1   
 16  11  13  1   
 17  12  14  1   
 18  12  27  1   
 19  12  28  1   
 20  13  15  1   
 21  13  29  1   
 22  13  30  1   
 23  14  15  1   
 24  14  16  1   
 25  14  31  1   
 26  15  17  1   
 27  15  32  1   
 28  16  33  1   
 29  17  18  1   
 30  17  34  1   
 31  17  35  1   
 32  18  19  2   
 33  18  20  1   
 34  19  21  1   
 35  20  22  2   
 36  20  36  1   
 37  21  22  1   
 38  21  37  1   
 39  22  23  1   
 40  23  38  1   
 41  23  39  1   
 42  23  40  1   
@<TRIPOS>SUBSTRUCTURE
  1 ****  11 GROUP 4 **** **** 0

# MOE 2024.06 (io_trps.svl 2023.06)
