@<TRIPOS>MOLECULE
NONAME
53 56 1 0 0 
SMALL
USER_CHARGES


@<TRIPOS>ATOM
  1 O       -0.4930    -0.6250     0.5310 O.3   1 <1>  -0.5600 
  2 C       -1.5930    -1.4890     0.5060 C.3   1 <1>   0.1200 
  3 C        0.7170    -1.2530     0.8280 C.3   1 <1>   0.1200 
  4 C       -1.4020    -2.5750    -0.5660 C.3   1 <1>   0.2090 
  5 C        1.0430    -2.3230    -0.2330 C.3   1 <1>   0.2090 
  6 N       -0.0900    -3.3040    -0.3830 N.pl3 1 <1>  -0.8380 
  7 C       -0.0270    -4.6640    -0.3460 C.ar  1 <1>   0.7710 
  8 N       -1.1480    -5.3670    -0.3420 N.ar  1 <1>  -0.6200 
  9 N        1.1770    -5.2640    -0.3230 N.ar  1 <1>  -0.1790 
 10 C       -1.0720    -6.6840    -0.3010 C.ar  1 <1>   0.4100 
 11 C        1.3100    -6.6100    -0.2870 C.ar  1 <1>   0.2180 
 12 N       -2.2370    -7.3790    -0.2850 N.pl3 1 <1>  -0.8380 
 13 C        0.1720    -7.3430    -0.2760 C.ar  1 <1>  -0.1500 
 14 C        2.7030    -7.2160    -0.2670 C.3   1 <1>  -0.0970 
 15 C       -3.5820    -6.7330    -0.3260 C.3   1 <1>   0.2090 
 16 C       -2.3920    -8.8550    -0.1580 C.3   1 <1>   0.2090 
 17 C       -4.5870    -7.8850    -0.3780 C.3   1 <1>   0.2000 
 18 C       -3.8550    -9.0850     0.2140 C.3   1 <1>  -0.0800 
 19 O       -5.7320    -7.6120     0.3570 O.3   1 <1>  -0.6800 
 20 C       -4.4130   -10.4330    -0.2750 C.3   1 <1>   0.0210 
 21 C       -3.5740   -11.6200     0.1700 C.2   1 <1>   0.1080 
 22 N       -2.8710   -11.6470     1.2610 N.2   1 <1>  -0.7070 
 23 C       -3.4750   -12.8100    -0.5430 C.2   1 <1>  -0.1500 
 24 N       -2.3110   -12.8720     1.2780 N.pl3 1 <1>   0.3000 
 25 C       -2.6570   -13.5930     0.1920 C.2   1 <1>  -0.3320 
 26 C       -2.1850   -15.0100    -0.0780 C.3   1 <1>  -0.0600 
 27 H       -1.7120    -1.9310     1.4800 H     1 <1>   0.0800 
 28 H       -2.4670    -0.9000     0.2860 H     1 <1>   0.0800 
 29 H        1.4800    -0.4950     0.8410 H     1 <1>   0.0800 
 30 H        0.6470    -1.6900     1.8090 H     1 <1>   0.0800 
 31 H       -1.4140    -2.1070    -1.5350 H     1 <1>   0.0800 
 32 H       -2.2460    -3.2420    -0.5240 H     1 <1>   0.0800 
 33 H        1.9560    -2.8110     0.0530 H     1 <1>   0.0800 
 34 H        1.2100    -1.8270    -1.1750 H     1 <1>   0.0800 
 35 H        1.9770    -4.6490    -0.3590 H     1 <1>   0.4570 
 36 H        0.1960    -8.4150    -0.2520 H     1 <1>   0.1500 
 37 H        2.6450    -8.2900    -0.2400 H     1 <1>   0.0800 
 38 H        3.2440    -6.8880     0.6040 H     1 <1>   0.0800 
 39 H        3.2510    -6.9330    -1.1490 H     1 <1>   0.0800 
 40 H       -3.7190    -6.1460     0.5650 H     1 <1>   0.0800 
 41 H       -3.6730    -6.1090    -1.1970 H     1 <1>   0.0800 
 42 H       -2.1660    -9.3190    -1.1030 H     1 <1>   0.0800 
 43 H       -1.7450    -9.2540     0.6050 H     1 <1>   0.0800 
 44 H       -4.8750    -8.0630    -1.4000 H     1 <1>   0.0800 
 45 H       -3.9120    -9.0510     1.2880 H     1 <1>   0.0800 
 46 H       -5.5180    -7.5590     1.3090 H     1 <1>   0.4000 
 47 H       -4.4670   -10.4340    -1.3480 H     1 <1>   0.0800 
 48 H       -5.4110   -10.5590     0.1060 H     1 <1>   0.0800 
 49 H       -3.9600   -13.0330    -1.4770 H     1 <1>   0.1500 
 50 H       -1.7030   -13.1870     2.0440 H     1 <1>   0.2700 
 51 H       -2.6000   -15.3680    -1.0030 H     1 <1>   0.0800 
 52 H       -2.5010   -15.6640     0.7140 H     1 <1>   0.0800 
 53 H       -1.1120   -15.0380    -0.1510 H     1 <1>   0.0800 
@<TRIPOS>BOND
  1   1   2  1   
  2   1   3  1   
  3   2   4  1   
  4   2  27  1   
  5   2  28  1   
  6   3   5  1   
  7   3  29  1   
  8   3  30  1   
  9   4   6  1   
 10   4  31  1   
 11   4  32  1   
 12   5   6  1   
 13   5  33  1   
 14   5  34  1   
 15   6   7  1   
 16   7   8  ar  
 17   7   9  ar  
 18   8  10  ar  
 19   9  11  ar  
 20   9  35  1   
 21  10  12  1   
 22  10  13  ar  
 23  11  13  ar  
 24  11  14  1   
 25  12  15  1   
 26  12  16  1   
 27  13  36  1   
 28  14  37  1   
 29  14  38  1   
 30  14  39  1   
 31  15  17  1   
 32  15  40  1   
 33  15  41  1   
 34  16  18  1   
 35  16  42  1   
 36  16  43  1   
 37  17  18  1   
 38  17  19  1   
 39  17  44  1   
 40  18  20  1   
 41  18  45  1   
 42  19  46  1   
 43  20  21  1   
 44  20  47  1   
 45  20  48  1   
 46  21  22  2   
 47  21  23  1   
 48  22  24  1   
 49  23  25  2   
 50  23  49  1   
 51  24  25  1   
 52  24  50  1   
 53  25  26  1   
 54  26  51  1   
 55  26  52  1   
 56  26  53  1   
@<TRIPOS>SUBSTRUCTURE
  1 ****  12 GROUP 4 **** **** 0

# MOE 2024.06 (io_trps.svl 2023.06)
