@<TRIPOS>MOLECULE
NONAME
41 43 1 0 0 
SMALL
USER_CHARGES


@<TRIPOS>ATOM
  1 O       -1.0810    -1.1500     1.3260 O.2   1 <1>  -0.5700 
  2 C       -0.7720    -1.8660     0.3930 C.2   1 <1>   0.5440 
  3 N        0.5130    -1.8050    -0.0760 N.am  1 <1>  -0.7300 
  4 C       -1.7460    -2.7440    -0.2130 C.ar  1 <1>   0.0860 
  5 C        1.5830    -0.9610     0.4900 C.3   1 <1>   0.1400 
  6 C       -3.1110    -2.4930    -0.0720 C.ar  1 <1>   0.1600 
  7 C       -1.3940    -3.8690    -0.9580 C.ar  1 <1>  -0.1500 
  8 C        2.9030    -1.7130     0.3840 C.3   1 <1>  -0.2400 
  9 N       -4.0950    -3.2140    -0.5860 N.ar  1 <1>  -0.6200 
 10 C       -2.4030    -4.6300    -1.4980 C.ar  1 <1>  -0.1500 
 11 C       -3.7310    -4.2700    -1.2860 C.ar  1 <1>   0.4100 
 12 N       -4.7630    -4.9910    -1.7870 N.pl3 1 <1>  -0.8690 
 13 C       -4.8990    -6.4390    -1.4670 C.3   1 <1>   0.3900 
 14 C       -6.2940    -6.8070    -0.9550 C.2   1 <1>   0.3350 
 15 N       -7.3160    -6.0420    -0.9420 N.2   1 <1>  -0.4100 
 16 N       -6.5420    -8.0180    -0.4680 N.2   1 <1>  -0.5650 
 17 O       -8.2980    -6.7210    -0.4350 O.3   1 <1>  -0.0190 
 18 C       -7.7760    -7.8930    -0.1730 C.2   1 <1>   0.3170 
 19 C       -8.6780    -8.9500     0.4470 C.3   1 <1>   0.1610 
 20 C       -8.1730   -10.4180     0.3670 C.3   1 <1>   0.0000 
 21 C       -9.8570    -9.3920    -0.4600 C.3   1 <1>   0.0000 
 22 C       -9.6460   -10.8230     0.0990 C.3   1 <1>   0.0000 
 23 H        0.7520    -2.2810    -0.9450 H     1 <1>   0.3700 
 24 H        1.3680    -0.7360     1.5220 H     1 <1>   0.0800 
 25 H        1.6340    -0.0350    -0.0580 H     1 <1>   0.0800 
 26 H       -3.4010    -1.6320     0.5070 H     1 <1>   0.1500 
 27 H       -0.3640    -4.1400    -1.1030 H     1 <1>   0.1500 
 28 H        2.8490    -2.6360     0.9350 H     1 <1>   0.0800 
 29 H        3.6920    -1.1150     0.8040 H     1 <1>   0.0800 
 30 H        3.1420    -1.9180    -0.6440 H     1 <1>   0.0800 
 31 H       -2.1860    -5.4990    -2.0880 H     1 <1>   0.1500 
 32 H       -5.6550    -4.5150    -1.6050 H     1 <1>   0.4000 
 33 H       -4.1810    -6.7120    -0.7130 H     1 <1>   0.0800 
 34 H       -4.6960    -7.0130    -2.3520 H     1 <1>   0.0800 
 35 H       -9.0100    -8.6900     1.4380 H     1 <1>   0.0000 
 36 H       -7.7800   -10.7950     1.2950 H     1 <1>   0.0000 
 37 H       -7.5380   -10.6120    -0.4810 H     1 <1>   0.0000 
 38 H       -9.6320    -9.3220    -1.5110 H     1 <1>   0.0000 
 39 H      -10.8020    -8.9540    -0.1910 H     1 <1>   0.0000 
 40 H      -10.2000   -11.0020     1.0050 H     1 <1>   0.0000 
 41 H       -9.7570   -11.5990    -0.6370 H     1 <1>   0.0000 
@<TRIPOS>BOND
  1   1   2  2   
  2   2   3  am  
  3   2   4  1   
  4   3   5  1   
  5   3  23  1   
  6   4   6  ar  
  7   4   7  ar  
  8   5   8  1   
  9   5  24  1   
 10   5  25  1   
 11   6   9  ar  
 12   6  26  1   
 13   7  10  ar  
 14   7  27  1   
 15   8  28  1   
 16   8  29  1   
 17   8  30  1   
 18   9  11  ar  
 19  10  11  ar  
 20  10  31  1   
 21  11  12  1   
 22  12  13  1   
 23  12  32  1   
 24  13  14  1   
 25  13  33  1   
 26  13  34  1   
 27  14  15  2   
 28  14  16  1   
 29  15  17  1   
 30  16  18  2   
 31  17  18  1   
 32  18  19  1   
 33  19  20  1   
 34  19  21  1   
 35  19  35  1   
 36  20  22  1   
 37  20  36  1   
 38  20  37  1   
 39  21  22  1   
 40  21  38  1   
 41  21  39  1   
 42  22  40  1   
 43  22  41  1   
@<TRIPOS>SUBSTRUCTURE
  1 ****  11 GROUP 4 **** **** 0

# MOE 2024.06 (io_trps.svl 2023.06)
