@<TRIPOS>MOLECULE
NONAME
51 54 1 0 0 
SMALL
USER_CHARGES


@<TRIPOS>ATOM
  1 F       -0.3240     1.2960    -0.0400 F     1 <1>  -0.1900 
  2 C       -1.6270     1.2110    -0.1260 C.ar  1 <1>   0.1900 
  3 C       -2.4670     2.2580     0.2710 C.ar  1 <1>   0.0830 
  4 C       -2.1340     0.0300    -0.6330 C.ar  1 <1>  -0.1500 
  5 O       -2.0910     3.4640     0.7840 O.3   1 <1>  -0.3630 
  6 C       -3.8330     2.0700     0.1370 C.ar  1 <1>  -0.1500 
  7 C       -3.5030    -0.1230    -0.7530 C.ar  1 <1>  -0.1500 
  8 C       -0.7460     3.8080     1.0330 C.3   1 <1>   0.0400 
  9 C       -4.3830     0.8900    -0.3690 C.ar  1 <1>   0.0530 
 10 C       -5.8110     0.7470    -0.4990 C.2   1 <1>   0.0870 
 11 O       -6.5230     1.7710    -0.8960 O.3   1 <1>  -0.0190 
 12 C       -6.6790    -0.2850    -0.3030 C.2   1 <1>  -0.0860 
 13 N       -7.7970     1.5060    -0.9900 N.2   1 <1>  -0.4100 
 14 C       -7.9220     0.2740    -0.6380 C.2   1 <1>   0.3720 
 15 C       -6.4570    -1.6260     0.1500 C.2   1 <1>   0.7160 
 16 N       -9.1630    -0.3880    -0.5920 N.pl3 1 <1>  -0.8210 
 17 O       -5.4290    -1.9550     0.7100 O.2   1 <1>  -0.5700 
 18 N       -7.4170    -2.5630    -0.0320 N.am  1 <1>  -0.7300 
 19 C      -10.1640     0.0850    -1.5900 C.3   1 <1>   0.1290 
 20 C       -9.7500    -0.4490     0.7790 C.3   1 <1>   0.1290 
 21 C       -7.6030    -3.7500     0.8260 C.3   1 <1>   0.3210 
 22 C       -9.0730    -3.8540     1.2060 C.2   1 <1>   0.1080 
 23 N       -9.5200    -3.8540     2.4320 N.2   1 <1>  -0.7070 
 24 C      -10.1180    -3.9430     0.2920 C.2   1 <1>  -0.1810 
 25 N      -10.8640    -3.9580     2.3190 N.pl3 1 <1>   0.3000 
 26 C      -11.2240    -4.0030     1.0240 C.2   1 <1>  -0.3320 
 27 C      -10.4070    -3.9910    -1.1830 C.3   1 <1>   0.0210 
 28 C      -12.4890    -4.1070     0.2210 C.3   1 <1>   0.0200 
 29 C      -11.9570    -3.9490    -1.2250 C.3   1 <1>  -0.1600 
 30 H       -1.4640    -0.7580    -0.9280 H     1 <1>   0.1500 
 31 H       -4.4900     2.8670     0.4370 H     1 <1>   0.1500 
 32 H       -3.8960    -1.0430    -1.1500 H     1 <1>   0.1500 
 33 H       -0.7270     4.7950     1.4580 H     1 <1>   0.0800 
 34 H       -0.2040     3.8020     0.1040 H     1 <1>   0.0800 
 35 H       -0.3270     3.1030     1.7290 H     1 <1>   0.0800 
 36 H       -8.3090    -2.1720    -0.3680 H     1 <1>   0.3700 
 37 H       -9.7090     0.1410    -2.5640 H     1 <1>   0.0800 
 38 H      -10.5240     1.0640    -1.3200 H     1 <1>   0.0800 
 39 H      -10.9920    -0.5990    -1.6330 H     1 <1>   0.0800 
 40 H       -9.0190    -0.8020     1.4860 H     1 <1>   0.0800 
 41 H      -10.5860    -1.1270     0.7920 H     1 <1>   0.0800 
 42 H      -10.0810     0.5290     1.0830 H     1 <1>   0.0800 
 43 H       -7.0070    -3.6650     1.7180 H     1 <1>   0.0800 
 44 H       -7.3040    -4.6330     0.2900 H     1 <1>   0.0800 
 45 H      -11.4890    -3.9980     3.1330 H     1 <1>   0.2700 
 46 H      -10.0310    -4.9080    -1.6000 H     1 <1>   0.0800 
 47 H       -9.9740    -3.1480    -1.6910 H     1 <1>   0.0800 
 48 H      -13.1830    -3.3250     0.4730 H     1 <1>   0.0800 
 49 H      -12.9450    -5.0720     0.3640 H     1 <1>   0.0800 
 50 H      -12.3420    -4.7250    -1.8620 H     1 <1>   0.0800 
 51 H      -12.2710    -2.9970    -1.6130 H     1 <1>   0.0800 
@<TRIPOS>BOND
  1   1   2  1   
  2   2   3  ar  
  3   2   4  ar  
  4   3   5  1   
  5   3   6  ar  
  6   4   7  ar  
  7   4  30  1   
  8   5   8  1   
  9   6   9  ar  
 10   6  31  1   
 11   7   9  ar  
 12   7  32  1   
 13   8  33  1   
 14   8  34  1   
 15   8  35  1   
 16   9  10  1   
 17  10  11  1   
 18  10  12  2   
 19  11  13  1   
 20  12  14  1   
 21  12  15  1   
 22  13  14  2   
 23  14  16  1   
 24  15  17  2   
 25  15  18  am  
 26  16  19  1   
 27  16  20  1   
 28  18  21  1   
 29  18  36  1   
 30  19  37  1   
 31  19  38  1   
 32  19  39  1   
 33  20  40  1   
 34  20  41  1   
 35  20  42  1   
 36  21  22  1   
 37  21  43  1   
 38  21  44  1   
 39  22  23  2   
 40  22  24  1   
 41  23  25  1   
 42  24  26  2   
 43  24  27  1   
 44  25  26  1   
 45  25  45  1   
 46  26  28  1   
 47  27  29  1   
 48  27  46  1   
 49  27  47  1   
 50  28  29  1   
 51  28  48  1   
 52  28  49  1   
 53  29  50  1   
 54  29  51  1   
@<TRIPOS>SUBSTRUCTURE
  1 ****  12 GROUP 4 **** **** 0

# MOE 2024.06 (io_trps.svl 2023.06)
