@<TRIPOS>MOLECULE
NONAME
40 41 1 0 0 
SMALL
USER_CHARGES


@<TRIPOS>ATOM
  1 S        0.3820     0.3950    -1.2980 S.o2  1 <1>   1.3330 
  2 O        0.6250    -0.8820    -1.9300 O.2   1 <1>  -0.6500 
  3 O       -0.5260     1.3370    -1.9140 O.2   1 <1>  -0.6500 
  4 N       -0.2020     0.0940     0.2700 N.am  1 <1>  -0.8490 
  5 C        1.9660     1.1920    -1.0230 C.3   1 <1>  -0.0550 
  6 C       -0.8020     1.2740     0.9020 C.3   1 <1>   0.1160 
  7 C       -1.1550    -1.0190     0.2970 C.3   1 <1>   0.1160 
  8 C        3.0520     0.2640    -0.4350 C.3   1 <1>  -0.0800 
  9 C        4.4370     0.8840    -0.3370 C.3   1 <1>   0.2200 
 10 C        2.7950    -0.2170     0.9980 C.3   1 <1>   0.1200 
 11 N        4.3570     2.2740     0.1730 N.am  1 <1>  -0.7300 
 12 C        5.0630     0.0010     0.7330 C.3   1 <1>   0.1200 
 13 O        4.0360    -0.2530     1.6430 O.3   1 <1>  -0.5600 
 14 C        4.4240     3.4190    -0.5740 C.2   1 <1>   0.5440 
 15 O        4.5500     3.2890    -1.7780 O.2   1 <1>  -0.5700 
 16 C        4.2930     4.7240     0.0690 C.ar  1 <1>   0.3960 
 17 N        3.5660     4.7960     1.2120 N.ar  1 <1>  -0.6200 
 18 C        4.8980     5.8760    -0.4620 C.ar  1 <1>   0.1900 
 19 C        3.4440     5.9900     1.7750 C.ar  1 <1>   0.1600 
 20 F        5.6350     5.8100    -1.5360 F     1 <1>  -0.1900 
 21 C        4.7730     7.1190     0.1190 C.ar  1 <1>  -0.1500 
 22 C        4.0170     7.1450     1.2660 C.ar  1 <1>   0.1900 
 23 F        3.8410     8.2770     1.8860 F     1 <1>  -0.1900 
 24 H        2.3240     1.5600    -1.9660 H     1 <1>   0.0800 
 25 H        1.8270     2.0410    -0.3840 H     1 <1>   0.0800 
 26 H       -1.0760     1.0490     1.9190 H     1 <1>   0.0800 
 27 H       -1.6820     1.5860     0.3630 H     1 <1>   0.0800 
 28 H       -0.0990     2.0890     0.9140 H     1 <1>   0.0800 
 29 H       -1.4960    -1.1950     1.3030 H     1 <1>   0.0800 
 30 H       -0.6810    -1.9190    -0.0580 H     1 <1>   0.0800 
 31 H       -2.0010    -0.8030    -0.3340 H     1 <1>   0.0800 
 32 H        3.1270    -0.6090    -1.0610 H     1 <1>   0.0800 
 33 H        4.9800     0.8490    -1.2670 H     1 <1>   0.0800 
 34 H        2.3580    -1.2010     1.0190 H     1 <1>   0.0800 
 35 H        2.1700     0.4690     1.5430 H     1 <1>   0.0800 
 36 H        4.1400     2.3510     1.1730 H     1 <1>   0.3700 
 37 H        5.8880     0.4740     1.2370 H     1 <1>   0.0800 
 38 H        5.3760    -0.9400     0.3170 H     1 <1>   0.0800 
 39 H        2.8650     6.0640     2.6800 H     1 <1>   0.1500 
 40 H        5.2330     8.0000    -0.2910 H     1 <1>   0.1500 
@<TRIPOS>BOND
  1   1   2  2   
  2   1   3  2   
  3   1   4  am  
  4   1   5  1   
  5   4   6  1   
  6   4   7  1   
  7   5   8  1   
  8   5  24  1   
  9   5  25  1   
 10   6  26  1   
 11   6  27  1   
 12   6  28  1   
 13   7  29  1   
 14   7  30  1   
 15   7  31  1   
 16   8   9  1   
 17   8  10  1   
 18   8  32  1   
 19   9  11  1   
 20   9  12  1   
 21   9  33  1   
 22  10  13  1   
 23  10  34  1   
 24  10  35  1   
 25  11  14  am  
 26  11  36  1   
 27  12  13  1   
 28  12  37  1   
 29  12  38  1   
 30  14  15  2   
 31  14  16  1   
 32  16  17  ar  
 33  16  18  ar  
 34  17  19  ar  
 35  18  20  1   
 36  18  21  ar  
 37  19  22  ar  
 38  19  39  1   
 39  21  22  ar  
 40  21  40  1   
 41  22  23  1   
@<TRIPOS>SUBSTRUCTURE
  1 ****  11 GROUP 4 **** **** 0

# MOE 2024.06 (io_trps.svl 2023.06)
