@<TRIPOS>MOLECULE
NONAME
34 36 1 0 0 
SMALL
USER_CHARGES


@<TRIPOS>ATOM
  1 S        0.1780    -0.6950     0.2910 S.3   1 <1>  -0.4600 
  2 C       -1.2460     0.4420     0.2440 C.3   1 <1>   0.2510 
  3 C       -0.7150    -2.2710     0.1230 C.3   1 <1>   0.2510 
  4 C       -2.4230    -0.4880     0.0690 C.2   1 <1>   0.1080 
  5 C       -2.1570    -1.8400     0.0080 C.2   1 <1>  -0.1810 
  6 N       -3.6840    -0.2140    -0.0370 N.2   1 <1>  -0.7070 
  7 C       -3.3590    -2.4420    -0.1430 C.2   1 <1>  -0.0880 
  8 N       -4.2780    -1.4280    -0.1660 N.pl3 1 <1>   0.3140 
  9 N       -3.5810    -3.8340    -0.2720 N.am  1 <1>  -0.4940 
 10 C       -5.7260    -1.5070    -0.3950 C.3   1 <1>   0.0160 
 11 C       -4.5980    -4.6580     0.1580 C.2   1 <1>   0.5440 
 12 O       -5.5650    -4.1790     0.7260 O.2   1 <1>  -0.5700 
 13 C       -4.4800    -6.0970    -0.0730 C.ar  1 <1>   0.3960 
 14 N       -3.3650    -6.5610    -0.6730 N.ar  1 <1>  -0.6200 
 15 C       -5.5020    -6.9560     0.3220 C.ar  1 <1>  -0.1500 
 16 C       -3.2890    -7.8650    -0.8690 C.ar  1 <1>   0.1600 
 17 C       -5.4080    -8.3130     0.1110 C.ar  1 <1>   0.0830 
 18 C       -4.2610    -8.7760    -0.5060 C.ar  1 <1>  -0.1500 
 19 O       -6.4330    -9.0930     0.5150 O.3   1 <1>  -0.3630 
 20 C       -6.4140   -10.4920     0.3400 C.3   1 <1>   0.0400 
 21 H       -1.1280     1.1050    -0.5930 H     1 <1>   0.0800 
 22 H       -1.2900     0.9760     1.1750 H     1 <1>   0.0800 
 23 H       -0.5320    -2.8560     1.0060 H     1 <1>   0.0800 
 24 H       -0.3600    -2.7640    -0.7640 H     1 <1>   0.0800 
 25 H       -2.8060    -4.3740    -0.6680 H     1 <1>   0.3700 
 26 H       -6.0710    -0.5740    -0.7990 H     1 <1>   0.0800 
 27 H       -6.2170    -1.6980     0.5400 H     1 <1>   0.0800 
 28 H       -5.9360    -2.3000    -1.0870 H     1 <1>   0.0800 
 29 H       -6.3800    -6.5620     0.8000 H     1 <1>   0.1500 
 30 H       -2.3970    -8.2340    -1.3490 H     1 <1>   0.1500 
 31 H       -4.1090    -9.8190    -0.7080 H     1 <1>   0.1500 
 32 H       -7.3300   -10.8910     0.7390 H     1 <1>   0.0800 
 33 H       -5.5750   -10.9000     0.8750 H     1 <1>   0.0800 
 34 H       -6.3480   -10.7120    -0.7110 H     1 <1>   0.0800 
@<TRIPOS>BOND
  1   1   2  1   
  2   1   3  1   
  3   2   4  1   
  4   2  21  1   
  5   2  22  1   
  6   3   5  1   
  7   3  23  1   
  8   3  24  1   
  9   4   5  1   
 10   4   6  2   
 11   5   7  2   
 12   6   8  1   
 13   7   8  1   
 14   7   9  1   
 15   8  10  1   
 16   9  11  am  
 17   9  25  1   
 18  10  26  1   
 19  10  27  1   
 20  10  28  1   
 21  11  12  2   
 22  11  13  1   
 23  13  14  ar  
 24  13  15  ar  
 25  14  16  ar  
 26  15  17  ar  
 27  15  29  1   
 28  16  18  ar  
 29  16  30  1   
 30  17  18  ar  
 31  17  19  1   
 32  18  31  1   
 33  19  20  1   
 34  20  32  1   
 35  20  33  1   
 36  20  34  1   
@<TRIPOS>SUBSTRUCTURE
  1 ****   9 GROUP 4 **** **** 0

# MOE 2024.06 (io_trps.svl 2023.06)
