@<TRIPOS>MOLECULE
NONAME
7 6 1 0 0 
SMALL
USER_CHARGES


@<TRIPOS>ATOM
  1 F       -0.1690    -0.6650    -1.0740 F     1 <1>  -0.3400 
  2 C        0.0580    -1.4420    -0.0060 C.3   1 <1>   0.9140 
  3 F        1.2500    -1.0450     0.4600 F     1 <1>  -0.3400 
  4 F       -0.8180    -1.0190     0.9160 F     1 <1>  -0.3400 
  5 C       -0.0300    -2.9920    -0.3240 C.2   1 <1>   0.9060 
  6 O        0.9670    -3.6190    -0.7450 O.co2 1 <1>  -0.9000 
  7 O       -1.1000    -3.6210    -0.1710 O.co2 1 <1>  -0.9000 
@<TRIPOS>BOND
  1   1   2  1   
  2   2   3  1   
  3   2   4  1   
  4   2   5  1   
  5   5   6  ar  
  6   5   7  ar  
@<TRIPOS>SUBSTRUCTURE
  1 ****   2 GROUP 4 **** **** 0

# MOE 2024.06 (io_trps.svl 2023.06)
