@<TRIPOS>MOLECULE
NONAME
46 49 1 0 0 
SMALL
USER_CHARGES


@<TRIPOS>ATOM
  1 O       -0.4340     0.3470     0.3410 O.2   1 <1>  -0.5700 
  2 C       -1.4920     0.9450     0.4330 C.2   1 <1>   0.7150 
  3 N       -2.6570     0.2050     0.4220 N.am  1 <1>  -0.6600 
  4 C       -1.5190     2.3890     0.5530 C.2   1 <1>   0.0550 
  5 C       -3.9840     0.7390     0.0220 C.3   1 <1>   0.1400 
  6 C       -2.6470    -1.2780     0.3300 C.3   1 <1>   0.1400 
  7 O       -0.6100     3.1360    -0.0910 O.3   1 <1>  -0.2800 
  8 C       -2.3540     3.2080     1.2450 C.2   1 <1>  -0.1500 
  9 C       -4.7140    -0.4530    -0.5930 C.3   1 <1>   0.2000 
 10 C       -4.0990    -1.6810     0.0720 C.3   1 <1>  -0.0800 
 11 C       -0.8530     4.4190     0.1740 C.ar  1 <1>   0.1400 
 12 C       -1.9450     4.5310     1.0130 C.ar  1 <1>   0.0000 
 13 O       -6.0760    -0.4010    -0.3450 O.3   1 <1>  -0.6800 
 14 C       -4.2430    -2.9610    -0.7650 C.3   1 <1>   0.0210 
 15 C       -0.1560     5.5320    -0.2880 C.ar  1 <1>  -0.1430 
 16 C       -2.3750     5.7950     1.4170 C.ar  1 <1>  -0.1500 
 17 C       -3.5460    -4.1280    -0.0940 C.2   1 <1>   0.1080 
 18 C       -0.5910     6.7780     0.1190 C.ar  1 <1>  -0.1500 
 19 C        1.0410     5.3550    -1.2060 C.3   1 <1>  -0.0970 
 20 C       -1.6950     6.9080     0.9670 C.ar  1 <1>  -0.1500 
 21 N       -3.8920    -4.5760     1.0730 N.2   1 <1>  -0.7070 
 22 C       -2.4740    -4.8320    -0.6320 C.2   1 <1>  -0.1500 
 23 N       -3.0420    -5.5930     1.3120 N.pl3 1 <1>   0.3000 
 24 C       -2.1720    -5.7660     0.2950 C.2   1 <1>  -0.3320 
 25 C       -1.0900    -6.8290     0.2700 C.3   1 <1>  -0.0600 
 26 H       -4.5020     1.0890     0.8970 H     1 <1>   0.0800 
 27 H       -3.8800     1.5340    -0.6960 H     1 <1>   0.0800 
 28 H       -2.0130    -1.5760    -0.4880 H     1 <1>   0.0800 
 29 H       -2.2750    -1.7150     1.2420 H     1 <1>   0.0800 
 30 H       -3.1810     2.9360     1.8740 H     1 <1>   0.1500 
 31 H       -4.5620    -0.4610    -1.6590 H     1 <1>   0.0800 
 32 H       -4.5570    -1.8380     1.0330 H     1 <1>   0.0800 
 33 H       -6.2580    -0.6030     0.5940 H     1 <1>   0.4000 
 34 H       -3.8290    -2.8120    -1.7450 H     1 <1>   0.0800 
 35 H       -5.2860    -3.2020    -0.8750 H     1 <1>   0.0800 
 36 H       -3.2240     5.8860     2.0710 H     1 <1>   0.1500 
 37 H       -0.0830     7.6670    -0.2130 H     1 <1>   0.1500 
 38 H        1.4680     6.3050    -1.4720 H     1 <1>   0.0800 
 39 H        0.7380     4.8470    -2.1040 H     1 <1>   0.0800 
 40 H        1.7920     4.7630    -0.7130 H     1 <1>   0.0800 
 41 H       -2.0110     7.8920     1.2680 H     1 <1>   0.1500 
 42 H       -2.0060    -4.6500    -1.5820 H     1 <1>   0.1500 
 43 H       -3.0830    -6.1470     2.1750 H     1 <1>   0.2700 
 44 H       -0.5280    -6.7640    -0.6450 H     1 <1>   0.0800 
 45 H       -1.5280    -7.8090     0.3330 H     1 <1>   0.0800 
 46 H       -0.4140    -6.6920     1.0960 H     1 <1>   0.0800 
@<TRIPOS>BOND
  1   1   2  2   
  2   2   3  am  
  3   2   4  1   
  4   3   5  1   
  5   3   6  1   
  6   4   7  1   
  7   4   8  2   
  8   5   9  1   
  9   5  26  1   
 10   5  27  1   
 11   6  10  1   
 12   6  28  1   
 13   6  29  1   
 14   7  11  1   
 15   8  12  1   
 16   8  30  1   
 17   9  10  1   
 18   9  13  1   
 19   9  31  1   
 20  10  14  1   
 21  10  32  1   
 22  11  12  ar  
 23  11  15  ar  
 24  12  16  ar  
 25  13  33  1   
 26  14  17  1   
 27  14  34  1   
 28  14  35  1   
 29  15  18  ar  
 30  15  19  1   
 31  16  20  ar  
 32  16  36  1   
 33  17  21  2   
 34  17  22  1   
 35  18  20  ar  
 36  18  37  1   
 37  19  38  1   
 38  19  39  1   
 39  19  40  1   
 40  20  41  1   
 41  21  23  1   
 42  22  24  2   
 43  22  42  1   
 44  23  24  1   
 45  23  43  1   
 46  24  25  1   
 47  25  44  1   
 48  25  45  1   
 49  25  46  1   
@<TRIPOS>SUBSTRUCTURE
  1 ****   3 GROUP 4 **** **** 0

# MOE 2024.06 (io_trps.svl 2023.06)
