@<TRIPOS>MOLECULE
NONAME
38 39 1 0 0 
SMALL
USER_CHARGES


@<TRIPOS>ATOM
  1 CL       1.0300     2.2620     0.4500 Cl    1 <1>  -0.1770 
  2 C        1.7370     0.7510    -0.0760 C.ar  1 <1>   0.1770 
  3 C        2.8870     0.7730    -0.8650 C.ar  1 <1>   0.0860 
  4 C        1.1290    -0.4340     0.3290 C.ar  1 <1>  -0.1440 
  5 C        3.3990    -0.4730    -1.2180 C.ar  1 <1>   0.1900 
  6 C        3.5150     1.9960    -1.3030 C.2   1 <1>   0.5440 
  7 C        1.6810    -1.6470    -0.0560 C.ar  1 <1>  -0.1500 
  8 C       -0.1290    -0.4210     1.1870 C.3   1 <1>  -0.0970 
  9 F        4.4760    -0.5380    -1.9530 F     1 <1>  -0.1900 
 10 C        2.8250    -1.6690    -0.8330 C.ar  1 <1>  -0.1500 
 11 O        2.9140     2.7930    -1.9940 O.2   1 <1>  -0.5700 
 12 N        4.8060     2.2740    -0.9660 N.am  1 <1>  -0.7300 
 13 C        5.6230     3.3710    -1.5280 C.3   1 <1>   0.3200 
 14 C        6.1520     4.2430    -0.4030 C.2   1 <1>   0.0060 
 15 N        7.3620     4.1510     0.0550 N.2   1 <1>  -0.5650 
 16 N        5.4060     5.1940     0.2160 N.pl3 1 <1>   0.0480 
 17 C        7.4150     5.0890     1.0160 C.2   1 <1>   0.0770 
 18 C        6.2360     5.7350     1.1270 C.2   1 <1>  -0.3020 
 19 C        4.0000     5.5940    -0.0260 C.3   1 <1>   0.0960 
 20 C        3.1100     5.2030     1.1590 C.3   1 <1>  -0.1600 
 21 C        1.6630     5.6500     0.9300 C.3   1 <1>  -0.2400 
 22 H        1.2270    -2.5770     0.2460 H     1 <1>   0.1500 
 23 H       -0.9170     0.1060     0.6770 H     1 <1>   0.0800 
 24 H        0.0670     0.0720     2.1230 H     1 <1>   0.0800 
 25 H       -0.4700    -1.4190     1.3940 H     1 <1>   0.0800 
 26 H        3.2660    -2.6010    -1.1400 H     1 <1>   0.1500 
 27 H        5.3250     1.6690    -0.3270 H     1 <1>   0.3700 
 28 H        5.0510     3.9620    -2.2210 H     1 <1>   0.0800 
 29 H        6.4550     2.9470    -2.0620 H     1 <1>   0.0800 
 30 H        8.3140     5.2540     1.5870 H     1 <1>   0.1500 
 31 H        5.9490     6.5300     1.7900 H     1 <1>   0.1500 
 32 H        3.6380     5.1190    -0.9200 H     1 <1>   0.0800 
 33 H        3.9710     6.6580    -0.1730 H     1 <1>   0.0800 
 34 H        3.4810     5.6600     2.0610 H     1 <1>   0.0800 
 35 H        3.1370     4.1340     1.2820 H     1 <1>   0.0800 
 36 H        1.6050     6.7200     0.8410 H     1 <1>   0.0800 
 37 H        1.0470     5.3400     1.7570 H     1 <1>   0.0800 
 38 H        1.2710     5.2050     0.0310 H     1 <1>   0.0800 
@<TRIPOS>BOND
  1   1   2  1   
  2   2   3  ar  
  3   2   4  ar  
  4   3   5  ar  
  5   3   6  1   
  6   4   7  ar  
  7   4   8  1   
  8   5   9  1   
  9   5  10  ar  
 10   6  11  2   
 11   6  12  am  
 12   7  10  ar  
 13   7  22  1   
 14   8  23  1   
 15   8  24  1   
 16   8  25  1   
 17  10  26  1   
 18  12  13  1   
 19  12  27  1   
 20  13  14  1   
 21  13  28  1   
 22  13  29  1   
 23  14  15  2   
 24  14  16  1   
 25  15  17  1   
 26  16  18  1   
 27  16  19  1   
 28  17  18  2   
 29  17  30  1   
 30  18  31  1   
 31  19  20  1   
 32  19  32  1   
 33  19  33  1   
 34  20  21  1   
 35  20  34  1   
 36  20  35  1   
 37  21  36  1   
 38  21  37  1   
 39  21  38  1   
@<TRIPOS>SUBSTRUCTURE
  1 ****   6 GROUP 4 **** **** 0

# MOE 2024.06 (io_trps.svl 2023.06)
