@<TRIPOS>MOLECULE
NONAME
50 53 1 0 0 
SMALL
USER_CHARGES


@<TRIPOS>ATOM
  1 F        0.2430    -0.3920    -0.9660 F     1 <1>  -0.3400 
  2 C        0.2960    -1.3120    -0.0150 C.3   1 <1>   1.1640 
  3 F        0.4830    -0.6720     1.1290 F     1 <1>  -0.3400 
  4 F        1.3970    -2.0200    -0.2360 F     1 <1>  -0.3400 
  5 C       -0.9720    -2.1890     0.0140 C.ar  1 <1>  -0.1440 
  6 C       -0.9400    -3.5590    -0.1460 C.ar  1 <1>  -0.1500 
  7 C       -2.2150    -1.5820     0.2260 C.ar  1 <1>  -0.1500 
  8 C       -2.1110    -4.3320    -0.1140 C.ar  1 <1>   0.3610 
  9 C       -3.3680    -2.3240     0.2410 C.ar  1 <1>  -0.1500 
 10 N       -2.0430    -5.7060    -0.1750 N.ar  1 <1>  -0.1790 
 11 C       -3.3680    -3.7130     0.0210 C.ar  1 <1>   0.0000 
 12 C       -3.1370    -6.4830    -0.1120 C.ar  1 <1>   0.2180 
 13 C       -4.5530    -4.5190    -0.0150 C.ar  1 <1>   0.1000 
 14 C       -4.3770    -5.9050    -0.0320 C.ar  1 <1>  -0.1500 
 15 C       -2.9590    -7.9920    -0.1510 C.3   1 <1>  -0.0970 
 16 N       -5.8040    -3.9950    -0.0770 N.pl3 1 <1>  -0.8380 
 17 C       -6.9660    -4.4980     0.7600 C.3   1 <1>   0.2090 
 18 C       -6.1830    -2.9520    -1.0800 C.3   1 <1>   0.2090 
 19 C       -8.4020    -3.9420     0.2900 C.3   1 <1>   0.0000 
 20 C       -7.0490    -1.8720    -0.4240 C.3   1 <1>  -0.1600 
 21 C       -9.8470    -3.4020    -0.1060 C.3   1 <1>   0.2000 
 22 C       -7.9400    -2.4560     0.6850 C.3   1 <1>  -0.1600 
 23 C       -8.8050    -5.4150    -0.1800 C.3   1 <1>  -0.1600 
 24 O      -10.6560    -3.4290     1.0210 O.3   1 <1>  -0.6800 
 25 C      -10.5330    -4.2160    -1.1830 C.3   1 <1>  -0.1600 
 26 C      -10.1810    -5.6080    -0.8000 C.3   1 <1>  -0.1600 
 27 H        0.0030    -4.0570    -0.2930 H     1 <1>   0.1500 
 28 H       -2.2660    -0.5150     0.3850 H     1 <1>   0.1500 
 29 H       -4.3030    -1.8320     0.4390 H     1 <1>   0.1500 
 30 H       -1.1190    -6.1350    -0.2510 H     1 <1>   0.4570 
 31 H       -5.2450    -6.5360    -0.0210 H     1 <1>   0.1500 
 32 H       -3.9120    -8.4890    -0.0950 H     1 <1>   0.0800 
 33 H       -2.3630    -8.3220     0.6810 H     1 <1>   0.0800 
 34 H       -2.4820    -8.2920    -1.0670 H     1 <1>   0.0800 
 35 H       -6.8650    -5.5650     0.8140 H     1 <1>   0.0800 
 36 H       -6.7780    -4.2370     1.7880 H     1 <1>   0.0800 
 37 H       -5.3170    -2.5170    -1.5460 H     1 <1>   0.0800 
 38 H       -6.7560    -3.4320    -1.8560 H     1 <1>   0.0800 
 39 H       -6.4280    -1.0970    -0.0150 H     1 <1>   0.0800 
 40 H       -7.6610    -1.4210    -1.1860 H     1 <1>   0.0800 
 41 H       -9.8780    -2.3970    -0.4980 H     1 <1>   0.0800 
 42 H       -8.7040    -1.7280     0.9160 H     1 <1>   0.0800 
 43 H       -7.3830    -2.4010     1.6060 H     1 <1>   0.0800 
 44 H       -8.1050    -5.7520    -0.9310 H     1 <1>   0.0800 
 45 H       -8.7840    -6.1100     0.6460 H     1 <1>   0.0800 
 46 H      -10.7530    -4.3510     1.3210 H     1 <1>   0.4000 
 47 H      -11.5950    -4.0410    -1.2250 H     1 <1>   0.0800 
 48 H      -10.0950    -3.9800    -2.1370 H     1 <1>   0.0800 
 49 H      -10.8800    -5.9800    -0.0700 H     1 <1>   0.0800 
 50 H      -10.1660    -6.2710    -1.6500 H     1 <1>   0.0800 
@<TRIPOS>BOND
  1   1   2  1   
  2   2   3  1   
  3   2   4  1   
  4   2   5  1   
  5   5   6  ar  
  6   5   7  ar  
  7   6   8  ar  
  8   6  27  1   
  9   7   9  ar  
 10   7  28  1   
 11   8  10  ar  
 12   8  11  ar  
 13   9  11  ar  
 14   9  29  1   
 15  10  12  ar  
 16  10  30  1   
 17  11  13  ar  
 18  12  14  ar  
 19  12  15  1   
 20  13  14  ar  
 21  13  16  1   
 22  14  31  1   
 23  15  32  1   
 24  15  33  1   
 25  15  34  1   
 26  16  17  1   
 27  16  18  1   
 28  17  19  1   
 29  17  35  1   
 30  17  36  1   
 31  18  20  1   
 32  18  37  1   
 33  18  38  1   
 34  19  21  1   
 35  19  22  1   
 36  19  23  1   
 37  20  22  1   
 38  20  39  1   
 39  20  40  1   
 40  21  24  1   
 41  21  25  1   
 42  21  41  1   
 43  22  42  1   
 44  22  43  1   
 45  23  26  1   
 46  23  44  1   
 47  23  45  1   
 48  24  46  1   
 49  25  26  1   
 50  25  47  1   
 51  25  48  1   
 52  26  49  1   
 53  26  50  1   
@<TRIPOS>SUBSTRUCTURE
  1 ****  13 GROUP 4 **** **** 0

# MOE 2024.06 (io_trps.svl 2023.06)
