@<TRIPOS>MOLECULE
NONAME
44 45 1 0 0 
SMALL
USER_CHARGES


@<TRIPOS>ATOM
  1 O        1.2460    -1.3510    -1.7640 O.2   1 <1>  -0.5700 
  2 C        1.4380    -1.2890    -0.5760 C.2   1 <1>   0.5690 
  3 N        0.4460    -1.4620     0.3360 N.am  1 <1>  -0.7300 
  4 C        2.8440    -1.0010    -0.0900 C.3   1 <1>  -0.0990 
  5 C       -0.9710    -1.7540     0.0020 C.3   1 <1>   0.0600 
  6 C        3.3110     0.4060    -0.5080 C.3   1 <1>  -0.0800 
  7 C        4.7600     0.7070    -0.1360 C.3   1 <1>   0.2090 
  8 C        2.5140     1.5310     0.1470 C.3   1 <1>  -0.1600 
  9 N        4.8160     2.1850     0.0480 N.pl3 1 <1>  -0.8380 
 10 C        3.4330     2.7410     0.0720 C.3   1 <1>   0.2090 
 11 C        5.9000     2.9980     0.1080 C.ar  1 <1>   0.7710 
 12 N        5.7210     4.3030     0.2120 N.ar  1 <1>  -0.6200 
 13 N        7.1240     2.4510     0.0610 N.ar  1 <1>  -0.1790 
 14 C        6.7840     5.0850     0.2460 C.ar  1 <1>   0.4100 
 15 C        8.2420     3.2120     0.1320 C.ar  1 <1>   0.2110 
 16 N        6.5440     6.4200     0.2980 N.pl3 1 <1>  -0.8380 
 17 C        8.1000     4.5560     0.2330 C.ar  1 <1>  -0.1430 
 18 C        5.4480     6.9780     1.1420 C.3   1 <1>   0.1290 
 19 C        7.0550     7.3690    -0.7290 C.3   1 <1>   0.1290 
 20 C        9.3310     5.4520     0.3680 C.3   1 <1>  -0.0970 
 21 H        0.6620    -1.4150     1.3330 H     1 <1>   0.3700 
 22 H        3.4920    -1.7380    -0.5280 H     1 <1>   0.0800 
 23 H        2.8900    -1.1100     0.9770 H     1 <1>   0.0800 
 24 H       -1.1060    -1.7920    -1.0660 H     1 <1>   0.0800 
 25 H       -1.6070    -0.9850     0.4030 H     1 <1>   0.0800 
 26 H       -1.2550    -2.7040     0.4200 H     1 <1>   0.0800 
 27 H        3.2200     0.4990    -1.5790 H     1 <1>   0.0800 
 28 H        5.4220     0.3750    -0.9180 H     1 <1>   0.0800 
 29 H        5.0090     0.2240     0.7950 H     1 <1>   0.0800 
 30 H        2.3180     1.3080     1.1810 H     1 <1>   0.0800 
 31 H        1.5790     1.7130    -0.3540 H     1 <1>   0.0800 
 32 H        3.2870     3.3960     0.9160 H     1 <1>   0.0800 
 33 H        3.2530     3.2900    -0.8380 H     1 <1>   0.0800 
 34 H        7.1480     1.4430    -0.0140 H     1 <1>   0.4570 
 35 H        9.2040     2.7260     0.1140 H     1 <1>   0.1500 
 36 H        5.1780     6.2780     1.9140 H     1 <1>   0.0800 
 37 H        4.5820     7.1730     0.5330 H     1 <1>   0.0800 
 38 H        5.7710     7.8930     1.6060 H     1 <1>   0.0800 
 39 H        7.5750     6.8380    -1.5070 H     1 <1>   0.0800 
 40 H        7.7240     8.0770    -0.2720 H     1 <1>   0.0800 
 41 H        6.2340     7.9010    -1.1780 H     1 <1>   0.0800 
 42 H        9.1710     6.1820     1.1430 H     1 <1>   0.0800 
 43 H        9.5240     5.9680    -0.5550 H     1 <1>   0.0800 
 44 H       10.2050     4.8810     0.6250 H     1 <1>   0.0800 
@<TRIPOS>BOND
  1   1   2  2   
  2   2   3  am  
  3   2   4  1   
  4   3   5  1   
  5   3  21  1   
  6   4   6  1   
  7   4  22  1   
  8   4  23  1   
  9   5  24  1   
 10   5  25  1   
 11   5  26  1   
 12   6   7  1   
 13   6   8  1   
 14   6  27  1   
 15   7   9  1   
 16   7  28  1   
 17   7  29  1   
 18   8  10  1   
 19   8  30  1   
 20   8  31  1   
 21   9  10  1   
 22   9  11  1   
 23  10  32  1   
 24  10  33  1   
 25  11  12  ar  
 26  11  13  ar  
 27  12  14  ar  
 28  13  15  ar  
 29  13  34  1   
 30  14  16  1   
 31  14  17  ar  
 32  15  17  ar  
 33  15  35  1   
 34  16  18  1   
 35  16  19  1   
 36  17  20  1   
 37  18  36  1   
 38  18  37  1   
 39  18  38  1   
 40  19  39  1   
 41  19  40  1   
 42  19  41  1   
 43  20  42  1   
 44  20  43  1   
 45  20  44  1   
@<TRIPOS>SUBSTRUCTURE
  1 ****   9 GROUP 4 **** **** 0

# MOE 2024.06 (io_trps.svl 2023.06)
