@<TRIPOS>MOLECULE
NONAME
47 49 1 0 0 
SMALL
USER_CHARGES


@<TRIPOS>ATOM
  1 O       -0.9700     0.4850     2.0380 O.2   1 <1>  -0.5700 
  2 C       -1.5750     1.0370     1.1380 C.2   1 <1>   0.5440 
  3 N       -2.4070     0.2750     0.3520 N.am  1 <1>  -0.6600 
  4 C       -1.4280     2.4600     0.9340 C.ar  1 <1>   0.0860 
  5 C       -3.3550     0.7970    -0.6640 C.3   1 <1>   0.1400 
  6 C       -2.5750    -1.1890     0.5150 C.3   1 <1>   0.1400 
  7 C       -0.9550     3.0270    -0.2620 C.ar  1 <1>   0.0830 
  8 C       -1.7940     3.3340     1.9580 C.ar  1 <1>  -0.1500 
  9 C       -4.4310    -0.2830    -0.7550 C.3   1 <1>   0.2000 
 10 C       -3.6560    -1.5820    -0.4990 C.3   1 <1>  -0.0800 
 11 O       -0.5190     2.2860    -1.3060 O.3   1 <1>  -0.3630 
 12 C       -0.9150     4.4020    -0.4300 C.ar  1 <1>  -0.1500 
 13 C       -1.7380     4.7040     1.7950 C.ar  1 <1>  -0.1500 
 14 O       -5.3360    -0.0760     0.2750 O.3   1 <1>  -0.6800 
 15 C       -4.5100    -2.7870    -0.0630 C.3   1 <1>  -0.0170 
 16 C        0.5160     1.3460    -1.0950 C.3   1 <1>   0.0400 
 17 C       -1.3070     5.2500     0.5970 C.ar  1 <1>   0.0830 
 18 C       -3.6530    -4.0360     0.0730 C.ar  1 <1>  -0.1430 
 19 O       -1.2930     6.6000     0.5080 O.3   1 <1>  -0.3620 
 20 C       -3.1420    -4.4460     1.2880 C.ar  1 <1>  -0.1500 
 21 C       -3.3390    -4.8230    -1.0170 C.ar  1 <1>  -0.1500 
 22 C       -0.8630     7.2600    -0.6610 C.3   1 <1>   0.0400 
 23 C       -2.3600    -5.5870     1.3510 C.ar  1 <1>   0.1600 
 24 C       -2.5480    -5.9470    -0.8450 C.ar  1 <1>   0.1600 
 25 N       -2.0490    -6.3470     0.3130 N.ar  1 <1>  -0.6200 
 26 H       -3.7680     1.7520    -0.3840 H     1 <1>   0.0800 
 27 H       -2.8430     0.8880    -1.6060 H     1 <1>   0.0800 
 28 H       -1.6480    -1.7030     0.3260 H     1 <1>   0.0800 
 29 H       -2.8950    -1.3920     1.5230 H     1 <1>   0.0800 
 30 H       -2.1320     2.9220     2.8930 H     1 <1>   0.1500 
 31 H       -4.9640    -0.2760    -1.6900 H     1 <1>   0.0800 
 32 H       -3.1520    -1.8410    -1.4140 H     1 <1>   0.0800 
 33 H       -0.5670     4.7840    -1.3700 H     1 <1>   0.1500 
 34 H       -2.0280     5.3630     2.5930 H     1 <1>   0.1500 
 35 H       -4.8340     0.0800     1.1010 H     1 <1>   0.4000 
 36 H       -5.2810    -2.9600    -0.7930 H     1 <1>   0.0800 
 37 H       -4.9970    -2.5830     0.8750 H     1 <1>   0.0800 
 38 H        1.0400     1.2100    -2.0230 H     1 <1>   0.0800 
 39 H        0.0890     0.4110    -0.7820 H     1 <1>   0.0800 
 40 H        1.1910     1.7210    -0.3450 H     1 <1>   0.0800 
 41 H       -3.3420    -3.8900     2.1860 H     1 <1>   0.1500 
 42 H       -3.7010    -4.5730    -1.9970 H     1 <1>   0.1500 
 43 H       -0.9400     8.3190    -0.4940 H     1 <1>   0.0800 
 44 H       -1.4990     6.9710    -1.4790 H     1 <1>   0.0800 
 45 H        0.1610     6.9940    -0.8560 H     1 <1>   0.0800 
 46 H       -1.9680    -5.8910     2.3070 H     1 <1>   0.1500 
 47 H       -2.3140    -6.5490    -1.7060 H     1 <1>   0.1500 
@<TRIPOS>BOND
  1   1   2  2   
  2   2   3  am  
  3   2   4  1   
  4   3   5  1   
  5   3   6  1   
  6   4   7  ar  
  7   4   8  ar  
  8   5   9  1   
  9   5  26  1   
 10   5  27  1   
 11   6  10  1   
 12   6  28  1   
 13   6  29  1   
 14   7  11  1   
 15   7  12  ar  
 16   8  13  ar  
 17   8  30  1   
 18   9  10  1   
 19   9  14  1   
 20   9  31  1   
 21  10  15  1   
 22  10  32  1   
 23  11  16  1   
 24  12  17  ar  
 25  12  33  1   
 26  13  17  ar  
 27  13  34  1   
 28  14  35  1   
 29  15  18  1   
 30  15  36  1   
 31  15  37  1   
 32  16  38  1   
 33  16  39  1   
 34  16  40  1   
 35  17  19  1   
 36  18  20  ar  
 37  18  21  ar  
 38  19  22  1   
 39  20  23  ar  
 40  20  41  1   
 41  21  24  ar  
 42  21  42  1   
 43  22  43  1   
 44  22  44  1   
 45  22  45  1   
 46  23  25  ar  
 47  23  46  1   
 48  24  25  ar  
 49  24  47  1   
@<TRIPOS>SUBSTRUCTURE
  1 ****   3 GROUP 4 **** **** 0

# MOE 2024.06 (io_trps.svl 2023.06)
