@<TRIPOS>MOLECULE
NONAME
50 52 1 0 0 
SMALL
USER_CHARGES


@<TRIPOS>ATOM
  1 O       -1.4790     1.3560    -2.0790 O.2   1 <1>  -0.5700 
  2 C       -1.7110     1.6200    -0.9190 C.2   1 <1>   0.6900 
  3 N       -0.7260     2.1320    -0.1070 N.am  1 <1>  -0.4200 
  4 N       -2.9730     1.4770    -0.4160 N.am  1 <1>  -0.5390 
  5 C       -1.0640     2.7060     1.1000 C.2   1 <1>   0.6160 
  6 C        0.7010     2.0260    -0.5260 C.3   1 <1>   0.1400 
  7 C       -3.3220     1.8970     0.8520 C.2   1 <1>  -0.0290 
  8 O       -0.2520     3.4340     1.6450 O.2   1 <1>  -0.5700 
  9 C       -2.3820     2.5100     1.6060 C.2   1 <1>  -0.1360 
 10 C        1.1270     3.1980    -1.4240 C.3   1 <1>   0.3430 
 11 C       -4.7480     1.6400     1.2950 C.3   1 <1>  -0.1020 
 12 N        0.7910     4.5330    -0.8250 N.4   1 <1>  -0.9590 
 13 C       -0.4540     5.0790    -1.4500 C.3   1 <1>   0.4860 
 14 C        1.9700     5.4680    -0.9200 C.3   1 <1>   0.3430 
 15 C       -0.8470     6.3960    -0.8090 C.ar  1 <1>  -0.1430 
 16 C        2.1280     6.4320     0.2720 C.3   1 <1>   0.2000 
 17 C       -1.3620     6.4720     0.4720 C.ar  1 <1>  -0.1500 
 18 C       -0.7010     7.5950    -1.4820 C.ar  1 <1>  -0.1500 
 19 O        3.3890     6.9980     0.1880 O.3   1 <1>  -0.5600 
 20 C        2.1110     5.7820     1.6520 C.3   1 <1>  -0.1600 
 21 C       -1.6750     7.7090     1.0100 C.ar  1 <1>   0.1600 
 22 C       -1.0470     8.7780    -0.8520 C.ar  1 <1>   0.1600 
 23 C        3.7550     7.5240     1.4240 C.3   1 <1>   0.1200 
 24 C        3.0310     6.6790     2.4680 C.3   1 <1>  -0.1600 
 25 N       -1.5210     8.8590     0.3790 N.ar  1 <1>  -0.6200 
 26 H       -3.6480     1.0310    -1.0440 H     1 <1>   0.3700 
 27 H        0.8470     1.1020    -1.0600 H     1 <1>   0.0800 
 28 H        1.3340     1.9900     0.3450 H     1 <1>   0.0800 
 29 H       -2.5770     2.8770     2.5960 H     1 <1>   0.1500 
 30 H        0.6520     3.0910    -2.3860 H     1 <1>   0.0800 
 31 H        2.1910     3.1260    -1.5820 H     1 <1>   0.0800 
 32 H       -5.4380     2.1350     0.6350 H     1 <1>   0.0800 
 33 H       -4.9090     2.0050     2.2940 H     1 <1>   0.0800 
 34 H       -4.9540     0.5840     1.2830 H     1 <1>   0.0800 
 35 H        0.5860     4.3840     0.1840 H     1 <1>   0.4500 
 36 H       -1.2630     4.3760    -1.3310 H     1 <1>   0.0800 
 37 H       -0.2970     5.2280    -2.5050 H     1 <1>   0.0800 
 38 H        1.9110     6.0440    -1.8280 H     1 <1>   0.0800 
 39 H        2.8740     4.8840    -0.9580 H     1 <1>   0.0800 
 40 H        1.4200     7.2410     0.2260 H     1 <1>   0.0800 
 41 H       -1.5260     5.5950     1.0700 H     1 <1>   0.1500 
 42 H       -0.3220     7.6340    -2.4880 H     1 <1>   0.1500 
 43 H        2.5170     4.7870     1.6070 H     1 <1>   0.0800 
 44 H        1.1190     5.7460     2.0670 H     1 <1>   0.0800 
 45 H       -2.0730     7.7570     2.0110 H     1 <1>   0.1500 
 46 H       -0.9280     9.7070    -1.3860 H     1 <1>   0.1500 
 47 H        3.4340     8.5520     1.4620 H     1 <1>   0.0800 
 48 H        4.8260     7.4690     1.5210 H     1 <1>   0.0800 
 49 H        3.7300     6.1030     3.0490 H     1 <1>   0.0800 
 50 H        2.4720     7.3180     3.1290 H     1 <1>   0.0800 
@<TRIPOS>BOND
  1   1   2  2   
  2   2   3  am  
  3   2   4  am  
  4   3   5  am  
  5   3   6  1   
  6   4   7  1   
  7   4  26  1   
  8   5   8  2   
  9   5   9  1   
 10   6  10  1   
 11   6  27  1   
 12   6  28  1   
 13   7   9  2   
 14   7  11  1   
 15   9  29  1   
 16  10  12  1   
 17  10  30  1   
 18  10  31  1   
 19  11  32  1   
 20  11  33  1   
 21  11  34  1   
 22  12  13  1   
 23  12  14  1   
 24  12  35  1   
 25  13  15  1   
 26  13  36  1   
 27  13  37  1   
 28  14  16  1   
 29  14  38  1   
 30  14  39  1   
 31  15  17  ar  
 32  15  18  ar  
 33  16  19  1   
 34  16  20  1   
 35  16  40  1   
 36  17  21  ar  
 37  17  41  1   
 38  18  22  ar  
 39  18  42  1   
 40  19  23  1   
 41  20  24  1   
 42  20  43  1   
 43  20  44  1   
 44  21  25  ar  
 45  21  45  1   
 46  22  25  ar  
 47  22  46  1   
 48  23  24  1   
 49  23  47  1   
 50  23  48  1   
 51  24  49  1   
 52  24  50  1   
@<TRIPOS>SUBSTRUCTURE
  1 ****  12 GROUP 4 **** **** 0

# MOE 2024.06 (io_trps.svl 2023.06)
