@<TRIPOS>MOLECULE
NONAME
48 50 1 0 0 
SMALL
USER_CHARGES


@<TRIPOS>ATOM
  1 O       -1.4530     0.2050     0.7380 O.2   1 <1>  -0.5700 
  2 C       -2.2900     1.0890     0.8070 C.2   1 <1>   0.5440 
  3 N       -3.5960     0.7190     1.0380 N.am  1 <1>  -0.6600 
  4 C       -1.9080     2.4780     0.6200 C.ar  1 <1>   0.0860 
  5 C       -3.9120    -0.6530     1.5270 C.3   1 <1>   0.1400 
  6 C       -4.7360     1.3620     0.3230 C.3   1 <1>   0.1400 
  7 C       -0.9600     2.8410    -0.3330 C.ar  1 <1>  -0.1500 
  8 C       -2.4700     3.4980     1.3890 C.ar  1 <1>  -0.1500 
  9 C       -4.2190    -1.5370     0.2990 C.3   1 <1>   0.4230 
 10 C       -5.1430     0.4770    -0.8690 C.3   1 <1>  -0.1600 
 11 C       -0.5930     4.1600    -0.5320 C.ar  1 <1>   0.0830 
 12 C       -2.1120     4.8220     1.2030 C.ar  1 <1>  -0.1500 
 13 N       -4.4090    -2.9980     0.5950 N.4   1 <1>  -0.9590 
 14 C       -5.4570    -0.9910    -0.4520 C.3   1 <1>  -0.1060 
 15 O        0.3320     4.3980    -1.4940 O.3   1 <1>  -0.3620 
 16 C       -1.1750     5.1580     0.2430 C.ar  1 <1>  -0.1500 
 17 C       -4.6190    -3.8410    -0.6190 C.3   1 <1>   0.3430 
 18 C       -3.4290    -3.5900     1.5430 C.3   1 <1>   0.2630 
 19 C       -6.6560    -1.0510     0.5130 C.2   1 <1>   0.9060 
 20 C       -5.7660    -1.8430    -1.7190 C.3   1 <1>  -0.1600 
 21 C        0.8180     5.6980    -1.7420 C.3   1 <1>   0.0400 
 22 C       -4.7850    -3.0120    -1.9020 C.3   1 <1>  -0.1600 
 23 O       -6.7810    -2.0550     1.2320 O.co2 1 <1>  -0.9000 
 24 O       -7.4490    -0.1130     0.5720 O.co2 1 <1>  -0.9000 
 25 H       -3.0660    -1.0340     2.0680 H     1 <1>   0.0800 
 26 H       -4.7530    -0.6090     2.1980 H     1 <1>   0.0800 
 27 H       -5.5640     1.4810     1.0030 H     1 <1>   0.0800 
 28 H       -4.4640     2.3390    -0.0370 H     1 <1>   0.0800 
 29 H       -0.4970     2.0770    -0.9320 H     1 <1>   0.1500 
 30 H       -3.1960     3.2450     2.1420 H     1 <1>   0.1500 
 31 H       -3.3660    -1.4450    -0.3510 H     1 <1>   0.0800 
 32 H       -6.0140     0.9120    -1.3310 H     1 <1>   0.0800 
 33 H       -4.3500     0.4960    -1.5950 H     1 <1>   0.0800 
 34 H       -2.5630     5.5900     1.8080 H     1 <1>   0.1500 
 35 H       -5.3560    -2.9640     1.0620 H     1 <1>   0.4500 
 36 H       -0.9130     6.1920     0.1150 H     1 <1>   0.1500 
 37 H       -3.7880    -4.5150    -0.7470 H     1 <1>   0.0800 
 38 H       -5.5080    -4.4330    -0.4720 H     1 <1>   0.0800 
 39 H       -2.4320    -3.5210     1.1380 H     1 <1>   0.0800 
 40 H       -3.6660    -4.6250     1.7230 H     1 <1>   0.0800 
 41 H       -3.4600    -3.0670     2.4850 H     1 <1>   0.0800 
 42 H       -6.7650    -2.2430    -1.6370 H     1 <1>   0.0800 
 43 H       -5.7560    -1.2310    -2.6040 H     1 <1>   0.0800 
 44 H        1.5520     5.6350    -2.5250 H     1 <1>   0.0800 
 45 H        1.2740     6.0780    -0.8450 H     1 <1>   0.0800 
 46 H        0.0010     6.3220    -2.0560 H     1 <1>   0.0800 
 47 H       -3.8240    -2.6360    -2.2060 H     1 <1>   0.0800 
 48 H       -5.1370    -3.6540    -2.6900 H     1 <1>   0.0800 
@<TRIPOS>BOND
  1   1   2  2   
  2   2   3  am  
  3   2   4  1   
  4   3   5  1   
  5   3   6  1   
  6   4   7  ar  
  7   4   8  ar  
  8   5   9  1   
  9   5  25  1   
 10   5  26  1   
 11   6  10  1   
 12   6  27  1   
 13   6  28  1   
 14   7  11  ar  
 15   7  29  1   
 16   8  12  ar  
 17   8  30  1   
 18   9  13  1   
 19   9  14  1   
 20   9  31  1   
 21  10  14  1   
 22  10  32  1   
 23  10  33  1   
 24  11  15  1   
 25  11  16  ar  
 26  12  16  ar  
 27  12  34  1   
 28  13  17  1   
 29  13  18  1   
 30  13  35  1   
 31  14  19  1   
 32  14  20  1   
 33  15  21  1   
 34  16  36  1   
 35  17  22  1   
 36  17  37  1   
 37  17  38  1   
 38  18  39  1   
 39  18  40  1   
 40  18  41  1   
 41  19  23  ar  
 42  19  24  ar  
 43  20  22  1   
 44  20  42  1   
 45  20  43  1   
 46  21  44  1   
 47  21  45  1   
 48  21  46  1   
 49  22  47  1   
 50  22  48  1   
@<TRIPOS>SUBSTRUCTURE
  1 ****   3 GROUP 4 **** **** 0

# MOE 2024.06 (io_trps.svl 2023.06)
