@<TRIPOS>MOLECULE
NONAME
40 41 1 0 0 
SMALL
USER_CHARGES


@<TRIPOS>ATOM
  1 S       -0.2610    -0.2630     1.2150 S.3   1 <1>   0.1810 
  2 N        0.4610     1.1760     0.6930 N.2   1 <1>  -0.2210 
  3 C        1.1320    -1.2110     0.8260 C.2   1 <1>  -0.1400 
  4 N        1.6250     0.9590     0.2690 N.2   1 <1>  -0.2270 
  5 C        2.0420    -0.3600     0.3240 C.2   1 <1>   0.0460 
  6 C        1.0160    -2.6930     1.1340 C.3   1 <1>   0.2900 
  7 C        3.4630    -0.5980    -0.1970 C.3   1 <1>   0.1010 
  8 N       -0.0900    -3.3140     0.3890 N.3   1 <1>  -0.8100 
  9 C        3.7750    -2.0440    -0.5970 C.3   1 <1>  -0.2400 
 10 C        4.4940    -0.1130     0.8300 C.3   1 <1>  -0.2400 
 11 C       -0.3620    -4.6850     0.8800 C.3   1 <1>   0.2900 
 12 C        0.0750    -3.2270    -1.0700 C.3   1 <1>   0.0300 
 13 C       -1.6500    -5.2940     0.3270 C.2   1 <1>   0.0060 
 14 N       -2.8160    -5.0770     0.8540 N.2   1 <1>  -0.5650 
 15 N       -1.6890    -6.1410    -0.7350 N.pl3 1 <1>   0.0480 
 16 C       -3.6580    -5.8000     0.0950 C.2   1 <1>   0.0770 
 17 C       -2.9900    -6.4560    -0.8750 C.2   1 <1>  -0.3020 
 18 C       -0.5890    -6.6740    -1.5670 C.3   1 <1>   0.0960 
 19 C       -0.0670    -7.9920    -0.9890 C.3   1 <1>  -0.2400 
 20 H        0.8270    -2.7940     2.1900 H     1 <1>   0.0800 
 21 H        1.9290    -3.2100     0.9150 H     1 <1>   0.0800 
 22 H        3.5720     0.0020    -1.0860 H     1 <1>   0.0800 
 23 H        3.8790    -2.6690     0.2690 H     1 <1>   0.0800 
 24 H        4.7020    -2.0770    -1.1410 H     1 <1>   0.0800 
 25 H        2.9990    -2.4290    -1.2340 H     1 <1>   0.0800 
 26 H        4.4020    -0.6700     1.7460 H     1 <1>   0.0800 
 27 H        4.3340     0.9280     1.0490 H     1 <1>   0.0800 
 28 H        5.4920    -0.2300     0.4480 H     1 <1>   0.0800 
 29 H       -0.4720    -4.6490     1.9500 H     1 <1>   0.0800 
 30 H        0.4720    -5.3260     0.6600 H     1 <1>   0.0800 
 31 H        0.1900    -2.2000    -1.3710 H     1 <1>   0.0800 
 32 H       -0.8040    -3.6080    -1.5610 H     1 <1>   0.0800 
 33 H        0.9370    -3.7850    -1.3890 H     1 <1>   0.0800 
 34 H       -4.7160    -5.8090     0.2940 H     1 <1>   0.1500 
 35 H       -3.3630    -7.1160    -1.6360 H     1 <1>   0.1500 
 36 H        0.2040    -5.9520    -1.6130 H     1 <1>   0.0800 
 37 H       -0.9600    -6.8320    -2.5640 H     1 <1>   0.0800 
 38 H        0.3120    -7.8440     0.0070 H     1 <1>   0.0800 
 39 H        0.7270    -8.3730    -1.6050 H     1 <1>   0.0800 
 40 H       -0.8560    -8.7240    -0.9610 H     1 <1>   0.0800 
@<TRIPOS>BOND
  1   1   2  1   
  2   1   3  1   
  3   2   4  2   
  4   3   5  2   
  5   3   6  1   
  6   4   5  1   
  7   5   7  1   
  8   6   8  1   
  9   6  20  1   
 10   6  21  1   
 11   7   9  1   
 12   7  10  1   
 13   7  22  1   
 14   8  11  1   
 15   8  12  1   
 16   9  23  1   
 17   9  24  1   
 18   9  25  1   
 19  10  26  1   
 20  10  27  1   
 21  10  28  1   
 22  11  13  1   
 23  11  29  1   
 24  11  30  1   
 25  12  31  1   
 26  12  32  1   
 27  12  33  1   
 28  13  14  2   
 29  13  15  1   
 30  14  16  1   
 31  15  17  1   
 32  15  18  1   
 33  16  17  2   
 34  16  34  1   
 35  17  35  1   
 36  18  19  1   
 37  18  36  1   
 38  18  37  1   
 39  19  38  1   
 40  19  39  1   
 41  19  40  1   
@<TRIPOS>SUBSTRUCTURE
  1 ****   8 GROUP 4 **** **** 0

# MOE 2024.06 (io_trps.svl 2023.06)
