@<TRIPOS>MOLECULE
NONAME
53 57 1 0 0 
SMALL
USER_CHARGES


@<TRIPOS>ATOM
  1 CL       0.3570    -2.5450    -1.3710 Cl    1 <1>  -0.1770 
  2 C       -1.2000    -1.8230    -1.0290 C.ar  1 <1>   0.1770 
  3 C       -2.3790    -2.5320    -1.2710 C.ar  1 <1>  -0.1440 
  4 C       -1.2070    -0.5360    -0.5110 C.ar  1 <1>  -0.1500 
  5 C       -3.6020    -1.9310    -0.9830 C.ar  1 <1>  -0.1500 
  6 C       -2.3740    -3.9430    -1.8420 C.3   1 <1>   0.2840 
  7 C       -2.4360     0.0290    -0.2390 C.ar  1 <1>   0.0820 
  8 C       -3.5980    -0.6490    -0.4680 C.ar  1 <1>   0.0820 
  9 N       -2.7800    -4.9130    -0.7890 N.am  1 <1>  -0.6600 
 10 O       -2.6990     1.2420     0.2570 O.3   1 <1>  -0.3630 
 11 O       -4.6460     0.1080    -0.1240 O.3   1 <1>  -0.3630 
 12 C       -3.9900    -5.5380    -0.8340 C.2   1 <1>   0.5690 
 13 C       -1.8020    -5.1260     0.3240 C.3   1 <1>   0.1400 
 14 C       -4.1190     1.3470     0.3470 C.3   1 <1>   0.4000 
 15 O       -4.7880    -5.3330    -1.7170 O.2   1 <1>  -0.5700 
 16 C       -4.3650    -6.5390     0.2330 C.3   1 <1>  -0.0990 
 17 C       -1.2550    -6.5710     0.4320 C.3   1 <1>   0.2800 
 18 C       -3.4100    -7.7300     0.2360 C.3   1 <1>   0.1200 
 19 O       -2.2380    -7.4430     0.9430 O.3   1 <1>  -0.5600 
 20 C       -0.6900    -7.0880    -0.9100 C.3   1 <1>  -0.1600 
 21 C       -0.1340    -6.5840     1.4860 C.3   1 <1>  -0.1600 
 22 C       -0.0170    -8.4530    -0.7680 C.3   1 <1>   0.2090 
 23 C        0.5280    -7.9570     1.6010 C.3   1 <1>   0.2090 
 24 N        1.0470    -8.3440     0.2630 N.pl3 1 <1>  -0.8380 
 25 C        2.3930    -8.4520    -0.0250 C.ar  1 <1>   0.7200 
 26 N        2.7250    -9.0370    -1.1760 N.ar  1 <1>  -0.6200 
 27 N        3.2490    -7.9560     0.8680 N.ar  1 <1>  -0.6200 
 28 C        4.0050    -9.1330    -1.4360 C.ar  1 <1>   0.1600 
 29 C        4.5230    -8.0640     0.5820 C.ar  1 <1>   0.1600 
 30 C        4.9620    -8.6540    -0.5770 C.ar  1 <1>  -0.1500 
 31 H       -0.2960     0.0020    -0.3290 H     1 <1>   0.1500 
 32 H       -4.5340    -2.4440    -1.1520 H     1 <1>   0.1500 
 33 H       -1.4060    -4.2160    -2.2210 H     1 <1>   0.0800 
 34 H       -3.0590    -3.9840    -2.6720 H     1 <1>   0.0800 
 35 H       -2.2600    -4.8500     1.2570 H     1 <1>   0.0800 
 36 H       -0.9670    -4.4660     0.1790 H     1 <1>   0.0800 
 37 H       -4.4630     2.1480    -0.2830 H     1 <1>   0.0800 
 38 H       -4.4070     1.4950     1.3730 H     1 <1>   0.0800 
 39 H       -5.3540    -6.8990     0.0150 H     1 <1>   0.0800 
 40 H       -4.3940    -6.0720     1.1990 H     1 <1>   0.0800 
 41 H       -3.1750    -8.0570    -0.7610 H     1 <1>   0.0800 
 42 H       -3.8780    -8.5510     0.7500 H     1 <1>   0.0800 
 43 H        0.0520    -6.3950    -1.2650 H     1 <1>   0.0800 
 44 H       -1.4510    -7.1330    -1.6640 H     1 <1>   0.0800 
 45 H       -0.5310    -6.3000     2.4430 H     1 <1>   0.0800 
 46 H        0.6280    -5.8730     1.2230 H     1 <1>   0.0800 
 47 H        0.3810    -8.7570    -1.7200 H     1 <1>   0.0800 
 48 H       -0.7350    -9.1920    -0.4570 H     1 <1>   0.0800 
 49 H       -0.1930    -8.6890     1.9230 H     1 <1>   0.0800 
 50 H        1.3120    -7.9280     2.3370 H     1 <1>   0.0800 
 51 H        4.2980    -9.6050    -2.3590 H     1 <1>   0.1500 
 52 H        5.2330    -7.6720     1.2890 H     1 <1>   0.1500 
 53 H        6.0090    -8.7380    -0.8010 H     1 <1>   0.1500 
@<TRIPOS>BOND
  1   1   2  1   
  2   2   3  ar  
  3   2   4  ar  
  4   3   5  ar  
  5   3   6  1   
  6   4   7  ar  
  7   4  31  1   
  8   5   8  ar  
  9   5  32  1   
 10   6   9  1   
 11   6  33  1   
 12   6  34  1   
 13   7   8  ar  
 14   7  10  1   
 15   8  11  1   
 16   9  12  am  
 17   9  13  1   
 18  10  14  1   
 19  11  14  1   
 20  12  15  2   
 21  12  16  1   
 22  13  17  1   
 23  13  35  1   
 24  13  36  1   
 25  14  37  1   
 26  14  38  1   
 27  16  18  1   
 28  16  39  1   
 29  16  40  1   
 30  17  19  1   
 31  17  20  1   
 32  17  21  1   
 33  18  19  1   
 34  18  41  1   
 35  18  42  1   
 36  20  22  1   
 37  20  43  1   
 38  20  44  1   
 39  21  23  1   
 40  21  45  1   
 41  21  46  1   
 42  22  24  1   
 43  22  47  1   
 44  22  48  1   
 45  23  24  1   
 46  23  49  1   
 47  23  50  1   
 48  24  25  1   
 49  25  26  ar  
 50  25  27  ar  
 51  26  28  ar  
 52  27  29  ar  
 53  28  30  ar  
 54  28  51  1   
 55  29  30  ar  
 56  29  52  1   
 57  30  53  1   
@<TRIPOS>SUBSTRUCTURE
  1 ****  13 GROUP 4 **** **** 0

# MOE 2024.06 (io_trps.svl 2023.06)
