@<TRIPOS>MOLECULE
NONAME
57 61 1 0 0 
SMALL
USER_CHARGES


@<TRIPOS>ATOM
  1 S        0.3520     0.9850    -0.2870 S.3   1 <1>  -0.0800 
  2 C       -0.8500     0.9280    -1.5540 C.2   1 <1>   0.2280 
  3 C       -0.1990    -0.5690     0.2640 C.2   1 <1>  -0.1100 
  4 N       -1.5850    -0.1150    -1.5380 N.2   1 <1>  -0.5650 
  5 C       -1.2120    -0.9790    -0.5170 C.2   1 <1>   0.0460 
  6 C       -1.9480    -2.3050    -0.3720 C.3   1 <1>   0.0210 
  7 C       -3.4560    -2.2440     0.0070 C.3   1 <1>   0.0610 
  8 C       -3.8000    -3.6110     0.6020 C.2   1 <1>   0.5690 
  9 C       -3.7730    -1.1320     1.0410 C.3   1 <1>   0.4230 
 10 C       -4.3590    -1.7860    -1.1830 C.3   1 <1>  -0.1600 
 11 O       -3.4760    -3.8240     1.7450 O.2   1 <1>  -0.5700 
 12 N       -4.4580    -4.5390    -0.1290 N.am  1 <1>  -0.7300 
 13 N       -3.9290     0.0340     0.1520 N.4   1 <1>  -0.9590 
 14 C       -5.2080    -1.2520     1.6010 C.3   1 <1>  -0.1600 
 15 C       -5.0180    -0.5030    -0.6640 C.3   1 <1>   0.4230 
 16 C       -5.2870    -5.6070     0.4720 C.3   1 <1>   0.2840 
 17 C       -4.1470     1.3670     0.7820 C.3   1 <1>   0.5230 
 18 C       -6.0710    -0.8720     0.3890 C.3   1 <1>  -0.1600 
 19 C       -6.7430    -5.1440     0.4860 C.ar  1 <1>   0.1670 
 20 C       -4.1550     2.4670    -0.2640 C.2   1 <1>  -0.0400 
 21 N       -7.2050    -4.5590    -0.6180 N.ar  1 <1>  -0.6200 
 22 C       -7.5030    -5.3410     1.6300 C.ar  1 <1>  -0.1500 
 23 O       -4.4070     3.6880     0.1600 O.3   1 <1>  -0.2800 
 24 C       -3.9470     2.4720    -1.6020 C.2   1 <1>  -0.1500 
 25 C       -8.4760    -4.1860    -0.5800 C.ar  1 <1>   0.1600 
 26 C       -8.8200    -4.9340     1.6560 C.ar  1 <1>  -0.1500 
 27 C       -4.3690     4.4960    -0.8790 C.2   1 <1>  -0.0400 
 28 C       -4.0880     3.8050    -2.0030 C.2   1 <1>  -0.1500 
 29 C       -9.3110    -4.3450     0.5120 C.ar  1 <1>  -0.1500 
 30 C       -4.6270     5.9710    -0.6640 C.3   1 <1>  -0.0600 
 31 H       -0.8790     1.7650    -2.2320 H     1 <1>   0.1500 
 32 H        0.3060    -1.0090     1.1070 H     1 <1>   0.1500 
 33 H       -1.8350    -2.8610    -1.2870 H     1 <1>   0.0800 
 34 H       -1.4250    -2.8660     0.3850 H     1 <1>   0.0800 
 35 H       -3.0120    -1.0210     1.7980 H     1 <1>   0.0800 
 36 H       -5.1170    -2.4930    -1.4680 H     1 <1>   0.0800 
 37 H       -3.7790    -1.5630    -2.0610 H     1 <1>   0.0800 
 38 H       -4.8090    -4.3060    -1.0610 H     1 <1>   0.3700 
 39 H       -3.0870     0.1090    -0.4490 H     1 <1>   0.4500 
 40 H       -5.4540    -2.2290     1.9790 H     1 <1>   0.0800 
 41 H       -5.3500    -0.5560     2.4090 H     1 <1>   0.0800 
 42 H       -5.3710     0.1600    -1.4390 H     1 <1>   0.0800 
 43 H       -5.2030    -6.4990    -0.1240 H     1 <1>   0.0800 
 44 H       -4.9480    -5.8290     1.4690 H     1 <1>   0.0800 
 45 H       -5.0820     1.3830     1.3140 H     1 <1>   0.0800 
 46 H       -3.3560     1.5700     1.4850 H     1 <1>   0.0800 
 47 H       -6.7060    -0.0310     0.6070 H     1 <1>   0.0800 
 48 H       -6.6900    -1.6910     0.0620 H     1 <1>   0.0800 
 49 H       -7.0740    -5.8120     2.4970 H     1 <1>   0.1500 
 50 H       -3.7160     1.6620    -2.2720 H     1 <1>   0.1500 
 51 H       -8.8780    -3.7300    -1.4690 H     1 <1>   0.1500 
 52 H       -9.4370    -5.0760     2.5270 H     1 <1>   0.1500 
 53 H       -3.9880     4.1750    -3.0100 H     1 <1>   0.1500 
 54 H      -10.3330    -4.0140     0.4650 H     1 <1>   0.1500 
 55 H       -4.5630     6.5000    -1.5980 H     1 <1>   0.0800 
 56 H       -3.8990     6.3730     0.0160 H     1 <1>   0.0800 
 57 H       -5.6080     6.1130    -0.2500 H     1 <1>   0.0800 
@<TRIPOS>BOND
  1   1   2  1   
  2   1   3  1   
  3   2   4  2   
  4   2  31  1   
  5   3   5  2   
  6   3  32  1   
  7   4   5  1   
  8   5   6  1   
  9   6   7  1   
 10   6  33  1   
 11   6  34  1   
 12   7   8  1   
 13   7   9  1   
 14   7  10  1   
 15   8  11  2   
 16   8  12  am  
 17   9  13  1   
 18   9  14  1   
 19   9  35  1   
 20  10  15  1   
 21  10  36  1   
 22  10  37  1   
 23  12  16  1   
 24  12  38  1   
 25  13  15  1   
 26  13  17  1   
 27  13  39  1   
 28  14  18  1   
 29  14  40  1   
 30  14  41  1   
 31  15  18  1   
 32  15  42  1   
 33  16  19  1   
 34  16  43  1   
 35  16  44  1   
 36  17  20  1   
 37  17  45  1   
 38  17  46  1   
 39  18  47  1   
 40  18  48  1   
 41  19  21  ar  
 42  19  22  ar  
 43  20  23  1   
 44  20  24  2   
 45  21  25  ar  
 46  22  26  ar  
 47  22  49  1   
 48  23  27  1   
 49  24  28  1   
 50  24  50  1   
 51  25  29  ar  
 52  25  51  1   
 53  26  29  ar  
 54  26  52  1   
 55  27  28  2   
 56  27  30  1   
 57  28  53  1   
 58  29  54  1   
 59  30  55  1   
 60  30  56  1   
 61  30  57  1   
@<TRIPOS>SUBSTRUCTURE
  1 ****  15 GROUP 4 **** **** 0

# MOE 2024.06 (io_trps.svl 2023.06)
