@<TRIPOS>MOLECULE
NONAME
58 59 1 0 0 
SMALL
USER_CHARGES


@<TRIPOS>ATOM
  1 O        0.5360     0.0450    -0.7670 O.2   1 <1>  -0.5700 
  2 C        1.2850    -0.6840    -0.1470 C.2   1 <1>   0.5440 
  3 N        2.5310    -0.2300     0.1830 N.am  1 <1>  -0.7300 
  4 C        0.8660    -2.0210     0.2270 C.ar  1 <1>   0.0860 
  5 C        3.0690     1.0990    -0.1340 C.3   1 <1>   0.2200 
  6 C       -0.0230    -2.7530    -0.5360 C.ar  1 <1>  -0.1500 
  7 C        1.3180    -2.6660     1.3720 C.ar  1 <1>  -0.1500 
  8 C        4.1910     0.9270    -1.1510 C.3   1 <1>  -0.2400 
  9 C        3.5820     1.7240     1.1590 C.3   1 <1>  -0.2400 
 10 C       -0.4080    -4.0340    -0.1660 C.ar  1 <1>   0.4100 
 11 C        0.8840    -3.9430     1.6650 C.ar  1 <1>   0.1600 
 12 N        0.0400    -4.6390     0.9280 N.ar  1 <1>  -0.6200 
 13 N       -1.3100    -4.7230    -0.9530 N.pl3 1 <1>  -0.8380 
 14 C       -2.7290    -4.2570    -0.9200 C.3   1 <1>   0.2090 
 15 C       -1.2070    -6.2140    -1.0440 C.3   1 <1>   0.2090 
 16 C       -3.5760    -5.0630     0.0940 C.3   1 <1>   0.2000 
 17 C       -2.1400    -6.9170    -0.0310 C.3   1 <1>   0.2000 
 18 O       -3.4470    -6.4360    -0.1660 O.3   1 <1>  -0.5600 
 19 C       -5.0820    -4.7060     0.0590 C.3   1 <1>  -0.0800 
 20 C       -2.2070    -8.4380    -0.2240 C.3   1 <1>  -0.1600 
 21 C       -5.3380    -3.2180     0.3550 C.3   1 <1>  -0.2400 
 22 C       -5.8840    -5.5510     1.0650 C.3   1 <1>  -0.2400 
 23 C       -0.8650    -9.1390     0.0440 C.3   1 <1>  -0.1600 
 24 C       -1.0080   -10.6610    -0.0680 C.3   1 <1>  -0.1600 
 25 C        0.3280   -11.3610     0.1950 C.3   1 <1>  -0.2400 
 26 H        3.2090    -0.8770     0.5810 H     1 <1>   0.3700 
 27 H        2.2940     1.7220    -0.5520 H     1 <1>   0.0800 
 28 H       -0.4270    -2.3330    -1.4380 H     1 <1>   0.1500 
 29 H        2.0000    -2.1700     2.0380 H     1 <1>   0.1500 
 30 H        4.9790     0.3130    -0.7570 H     1 <1>   0.0800 
 31 H        4.5990     1.8880    -1.4080 H     1 <1>   0.0800 
 32 H        3.8020     0.4780    -2.0480 H     1 <1>   0.0800 
 33 H        4.3610     1.1240     1.5940 H     1 <1>   0.0800 
 34 H        2.7740     1.8260     1.8600 H     1 <1>   0.0800 
 35 H        3.9770     2.7030     0.9570 H     1 <1>   0.0800 
 36 H        1.2490    -4.4210     2.5590 H     1 <1>   0.1500 
 37 H       -2.7540    -3.2140    -0.6580 H     1 <1>   0.0800 
 38 H       -3.1570    -4.3610    -1.9020 H     1 <1>   0.0800 
 39 H       -1.4690    -6.5220    -2.0400 H     1 <1>   0.0800 
 40 H       -0.1890    -6.5130    -0.8670 H     1 <1>   0.0800 
 41 H       -3.1970    -4.8780     1.0850 H     1 <1>   0.0800 
 42 H       -1.8060    -6.7010     0.9700 H     1 <1>   0.0800 
 43 H       -5.4510    -4.9190    -0.9300 H     1 <1>   0.0800 
 44 H       -2.9420    -8.8270     0.4600 H     1 <1>   0.0800 
 45 H       -2.5340    -8.6530    -1.2260 H     1 <1>   0.0800 
 46 H       -4.9190    -2.9450     1.3080 H     1 <1>   0.0800 
 47 H       -6.3950    -3.0210     0.3800 H     1 <1>   0.0800 
 48 H       -4.9090    -2.5920    -0.4060 H     1 <1>   0.0800 
 49 H       -5.5270    -5.3870     2.0660 H     1 <1>   0.0800 
 50 H       -5.7870    -6.5980     0.8360 H     1 <1>   0.0800 
 51 H       -6.9280    -5.2980     1.0230 H     1 <1>   0.0800 
 52 H       -0.1270    -8.8040    -0.6640 H     1 <1>   0.0800 
 53 H       -0.5210    -8.8850     1.0330 H     1 <1>   0.0800 
 54 H       -1.7370   -11.0090     0.6440 H     1 <1>   0.0800 
 55 H       -1.3560   -10.9200    -1.0540 H     1 <1>   0.0800 
 56 H        0.6830   -11.1320     1.1850 H     1 <1>   0.0800 
 57 H        1.0660   -11.0450    -0.5200 H     1 <1>   0.0800 
 58 H        0.2070   -12.4270     0.1130 H     1 <1>   0.0800 
@<TRIPOS>BOND
  1   1   2  2   
  2   2   3  am  
  3   2   4  1   
  4   3   5  1   
  5   3  26  1   
  6   4   6  ar  
  7   4   7  ar  
  8   5   8  1   
  9   5   9  1   
 10   5  27  1   
 11   6  10  ar  
 12   6  28  1   
 13   7  11  ar  
 14   7  29  1   
 15   8  30  1   
 16   8  31  1   
 17   8  32  1   
 18   9  33  1   
 19   9  34  1   
 20   9  35  1   
 21  10  12  ar  
 22  10  13  1   
 23  11  12  ar  
 24  11  36  1   
 25  13  14  1   
 26  13  15  1   
 27  14  16  1   
 28  14  37  1   
 29  14  38  1   
 30  15  17  1   
 31  15  39  1   
 32  15  40  1   
 33  16  18  1   
 34  16  19  1   
 35  16  41  1   
 36  17  18  1   
 37  17  20  1   
 38  17  42  1   
 39  19  21  1   
 40  19  22  1   
 41  19  43  1   
 42  20  23  1   
 43  20  44  1   
 44  20  45  1   
 45  21  46  1   
 46  21  47  1   
 47  21  48  1   
 48  22  49  1   
 49  22  50  1   
 50  22  51  1   
 51  23  24  1   
 52  23  52  1   
 53  23  53  1   
 54  24  25  1   
 55  24  54  1   
 56  24  55  1   
 57  25  56  1   
 58  25  57  1   
 59  25  58  1   
@<TRIPOS>SUBSTRUCTURE
  1 ****  10 GROUP 4 **** **** 0

# MOE 2024.06 (io_trps.svl 2023.06)
