@<TRIPOS>MOLECULE
NONAME
59 60 1 0 0 
SMALL
USER_CHARGES


@<TRIPOS>ATOM
  1 O        0.5210     0.2950    -0.6240 O.2   1 <1>  -0.5700 
  2 C        1.2520    -0.4640    -0.0370 C.2   1 <1>   0.5690 
  3 N        0.8770    -1.7120     0.3280 N.am  1 <1>  -0.7300 
  4 C        2.6470     0.0090     0.3050 C.3   1 <1>  -0.0990 
  5 C       -0.4470    -2.3040     0.0650 C.3   1 <1>   0.2200 
  6 C        2.9240     1.3120    -0.4500 C.3   1 <1>   0.3430 
  7 C       -1.1160    -2.6380     1.4020 C.3   1 <1>  -0.1600 
  8 C       -0.2670    -3.5600    -0.7950 C.3   1 <1>  -0.1600 
  9 N        4.2290     1.9500    -0.0590 N.4   1 <1>  -0.9590 
 10 C       -2.4580    -3.3540     1.1870 C.3   1 <1>  -0.1600 
 11 C       -1.6070    -4.2770    -1.0150 C.3   1 <1>  -0.1600 
 12 C        4.2450     3.3680    -0.5840 C.3   1 <1>   0.3430 
 13 C        5.3860     1.1260    -0.5560 C.3   1 <1>   0.2630 
 14 C       -2.2850    -4.6100     0.3210 C.3   1 <1>  -0.1600 
 15 C        5.4300     4.2430    -0.0790 C.3   1 <1>   0.3430 
 16 N        5.4290     5.6650    -0.5920 N.4   1 <1>  -0.9590 
 17 C        6.7280     6.3430    -0.2460 C.3   1 <1>   0.4230 
 18 C        4.2220     6.4570    -0.1500 C.3   1 <1>   0.2630 
 19 C        6.8950     6.5900     1.2630 C.3   1 <1>  -0.1600 
 20 C        6.8310     7.7180    -0.9120 C.3   1 <1>  -0.1600 
 21 C        7.0510     8.1030     1.4610 C.3   1 <1>  -0.1600 
 22 C        6.5470     8.7530     0.1770 C.3   1 <1>  -0.1600 
 23 H        1.5070    -2.3290     0.8410 H     1 <1>   0.3700 
 24 H        3.3430    -0.7560     0.0190 H     1 <1>   0.0800 
 25 H        2.6920     0.1700     1.3650 H     1 <1>   0.0800 
 26 H       -1.0650    -1.6000    -0.4690 H     1 <1>   0.0800 
 27 H        2.1140     1.9930    -0.2360 H     1 <1>   0.0800 
 28 H        2.9040     1.1170    -1.5120 H     1 <1>   0.0800 
 29 H       -1.2860    -1.7290     1.9520 H     1 <1>   0.0800 
 30 H       -0.4720    -3.2750     1.9820 H     1 <1>   0.0800 
 31 H        0.4140    -4.2370    -0.3110 H     1 <1>   0.0800 
 32 H        0.1450    -3.2820    -1.7490 H     1 <1>   0.0800 
 33 H        4.2450     1.9570     0.9740 H     1 <1>   0.4500 
 34 H       -3.1460    -2.6810     0.7040 H     1 <1>   0.0800 
 35 H       -2.8790    -3.6270     2.1390 H     1 <1>   0.0800 
 36 H       -1.4450    -5.1840    -1.5730 H     1 <1>   0.0800 
 37 H       -2.2580    -3.6460    -1.5960 H     1 <1>   0.0800 
 38 H        3.3260     3.8490    -0.2920 H     1 <1>   0.0800 
 39 H        4.2720     3.3370    -1.6620 H     1 <1>   0.0800 
 40 H        5.3620     1.0520    -1.6320 H     1 <1>   0.0800 
 41 H        5.3400     0.1280    -0.1490 H     1 <1>   0.0800 
 42 H        6.3250     1.5630    -0.2590 H     1 <1>   0.0800 
 43 H       -3.2480    -5.0540     0.1360 H     1 <1>   0.0800 
 44 H       -1.6880    -5.3310     0.8540 H     1 <1>   0.0800 
 45 H        6.3510     3.7720    -0.3790 H     1 <1>   0.0800 
 46 H        5.4060     4.2650     0.9990 H     1 <1>   0.0800 
 47 H        5.4200     5.6580    -1.6240 H     1 <1>   0.4500 
 48 H        7.5480     5.7370    -0.5980 H     1 <1>   0.0800 
 49 H        4.2050     6.5620     0.9220 H     1 <1>   0.0800 
 50 H        3.3100     5.9770    -0.4650 H     1 <1>   0.0800 
 51 H        4.2430     7.4430    -0.5850 H     1 <1>   0.0800 
 52 H        7.7850     6.0990     1.6170 H     1 <1>   0.0800 
 53 H        6.0630     6.2350     1.8410 H     1 <1>   0.0800 
 54 H        6.1940     7.8390    -1.7700 H     1 <1>   0.0800 
 55 H        7.8510     7.8530    -1.2330 H     1 <1>   0.0800 
 56 H        8.0950     8.3410     1.5880 H     1 <1>   0.0800 
 57 H        6.5160     8.4600     2.3260 H     1 <1>   0.0800 
 58 H        5.4920     8.9480     0.2560 H     1 <1>   0.0800 
 59 H        7.0500     9.6860    -0.0180 H     1 <1>   0.0800 
@<TRIPOS>BOND
  1   1   2  2   
  2   2   3  am  
  3   2   4  1   
  4   3   5  1   
  5   3  23  1   
  6   4   6  1   
  7   4  24  1   
  8   4  25  1   
  9   5   7  1   
 10   5   8  1   
 11   5  26  1   
 12   6   9  1   
 13   6  27  1   
 14   6  28  1   
 15   7  10  1   
 16   7  29  1   
 17   7  30  1   
 18   8  11  1   
 19   8  31  1   
 20   8  32  1   
 21   9  12  1   
 22   9  13  1   
 23   9  33  1   
 24  10  14  1   
 25  10  34  1   
 26  10  35  1   
 27  11  14  1   
 28  11  36  1   
 29  11  37  1   
 30  12  15  1   
 31  12  38  1   
 32  12  39  1   
 33  13  40  1   
 34  13  41  1   
 35  13  42  1   
 36  14  43  1   
 37  14  44  1   
 38  15  16  1   
 39  15  45  1   
 40  15  46  1   
 41  16  17  1   
 42  16  18  1   
 43  16  47  1   
 44  17  19  1   
 45  17  20  1   
 46  17  48  1   
 47  18  49  1   
 48  18  50  1   
 49  18  51  1   
 50  19  21  1   
 51  19  52  1   
 52  19  53  1   
 53  20  22  1   
 54  20  54  1   
 55  20  55  1   
 56  21  22  1   
 57  21  56  1   
 58  21  57  1   
 59  22  58  1   
 60  22  59  1   
@<TRIPOS>SUBSTRUCTURE
  1 ****   6 GROUP 4 **** **** 0

# MOE 2024.06 (io_trps.svl 2023.06)
