@<TRIPOS>MOLECULE
NONAME
45 47 1 0 0 
SMALL
USER_CHARGES


@<TRIPOS>ATOM
  1 CL      -1.0840     0.3210    -2.0110 Cl    1 <1>  -0.1770 
  2 C       -0.9380     1.9310    -1.3510 C.ar  1 <1>   0.1770 
  3 C       -2.0720     2.6120    -0.9630 C.ar  1 <1>  -0.1500 
  4 C        0.3150     2.4980    -1.2340 C.ar  1 <1>  -0.1500 
  5 C       -1.9690     3.8960    -0.4370 C.ar  1 <1>   0.1170 
  6 C        0.4280     3.7760    -0.7150 C.ar  1 <1>  -0.1500 
  7 N       -3.1080     4.6210    -0.0530 N.am  1 <1>  -0.5470 
  8 C       -0.7020     4.4770    -0.3180 C.ar  1 <1>  -0.1430 
  9 C       -4.3270     4.2120     0.4040 C.2   1 <1>   0.6900 
 10 C       -0.5290     5.8790     0.2550 C.3   1 <1>  -0.0960 
 11 O       -4.5290     3.0420     0.6720 O.2   1 <1>  -0.5700 
 12 N       -5.3160     5.1480     0.5880 N.am  1 <1>  -0.6600 
 13 C       -6.5750     4.8010     1.3170 C.3   1 <1>   0.1400 
 14 C       -5.3410     6.4930    -0.0510 C.3   1 <1>   0.1400 
 15 C       -7.8120     4.8590     0.3870 C.3   1 <1>   0.0000 
 16 C       -6.5380     6.5900    -1.0010 C.3   1 <1>  -0.1600 
 17 C       -9.0670     4.5360     1.2260 C.3   1 <1>   0.2000 
 18 C       -7.8610     6.2480    -0.2960 C.3   1 <1>  -0.1600 
 19 C       -7.7790     3.7020    -0.6320 C.3   1 <1>  -0.1600 
 20 O      -10.2120     4.9200     0.5520 O.3   1 <1>  -0.6800 
 21 C       -9.0980     3.0120     1.3290 C.3   1 <1>  -0.1600 
 22 C       -8.3800     2.4830     0.0790 C.3   1 <1>  -0.1600 
 23 H       -3.0300     2.1400    -1.0720 H     1 <1>   0.1500 
 24 H        1.1840     1.9460    -1.5440 H     1 <1>   0.1500 
 25 H        1.4060     4.2170    -0.6230 H     1 <1>   0.1500 
 26 H       -2.9730     5.6190     0.0370 H     1 <1>   0.3700 
 27 H        0.5120     6.1290     0.3540 H     1 <1>   0.0800 
 28 H       -0.9800     5.9370     1.2300 H     1 <1>   0.0800 
 29 H       -0.9890     6.6020    -0.3930 H     1 <1>   0.0800 
 30 H       -6.4890     3.8250     1.7600 H     1 <1>   0.0800 
 31 H       -6.7020     5.5050     2.1210 H     1 <1>   0.0800 
 32 H       -5.4250     7.2420     0.7170 H     1 <1>   0.0800 
 33 H       -4.4400     6.6780    -0.6070 H     1 <1>   0.0800 
 34 H       -6.5940     7.5880    -1.3990 H     1 <1>   0.0800 
 35 H       -6.3820     5.9200    -1.8290 H     1 <1>   0.0800 
 36 H       -9.0700     5.0200     2.1880 H     1 <1>   0.0800 
 37 H       -8.6610     6.2880    -1.0140 H     1 <1>   0.0800 
 38 H       -8.0640     6.9960     0.4510 H     1 <1>   0.0800 
 39 H       -8.3940     3.9480    -1.4800 H     1 <1>   0.0800 
 40 H       -6.7850     3.4950    -0.9900 H     1 <1>   0.0800 
 41 H      -10.2440     4.4460    -0.3000 H     1 <1>   0.4000 
 42 H       -8.5430     2.7110     2.2000 H     1 <1>   0.0800 
 43 H      -10.1010     2.6310     1.4210 H     1 <1>   0.0800 
 44 H       -7.5960     1.8020     0.3680 H     1 <1>   0.0800 
 45 H       -9.0640     1.9650    -0.5720 H     1 <1>   0.0800 
@<TRIPOS>BOND
  1   1   2  1   
  2   2   3  ar  
  3   2   4  ar  
  4   3   5  ar  
  5   3  23  1   
  6   4   6  ar  
  7   4  24  1   
  8   5   7  1   
  9   5   8  ar  
 10   6   8  ar  
 11   6  25  1   
 12   7   9  am  
 13   7  26  1   
 14   8  10  1   
 15   9  11  2   
 16   9  12  am  
 17  10  27  1   
 18  10  28  1   
 19  10  29  1   
 20  12  13  1   
 21  12  14  1   
 22  13  15  1   
 23  13  30  1   
 24  13  31  1   
 25  14  16  1   
 26  14  32  1   
 27  14  33  1   
 28  15  17  1   
 29  15  18  1   
 30  15  19  1   
 31  16  18  1   
 32  16  34  1   
 33  16  35  1   
 34  17  20  1   
 35  17  21  1   
 36  17  36  1   
 37  18  37  1   
 38  18  38  1   
 39  19  22  1   
 40  19  39  1   
 41  19  40  1   
 42  20  41  1   
 43  21  22  1   
 44  21  42  1   
 45  21  43  1   
 46  22  44  1   
 47  22  45  1   
@<TRIPOS>SUBSTRUCTURE
  1 ****   9 GROUP 4 **** **** 0

# MOE 2024.06 (io_trps.svl 2023.06)
