@<TRIPOS>MOLECULE
NONAME
59 62 1 0 0 
SMALL
USER_CHARGES


@<TRIPOS>ATOM
  1 O       -1.3710     0.3370     2.0730 O.2   1 <1>  -0.5700 
  2 C       -1.8990     0.8150     1.0870 C.2   1 <1>   0.7150 
  3 N       -2.4960    -0.0160     0.1710 N.am  1 <1>  -0.6600 
  4 C       -1.8450     2.2390     0.8740 C.2   1 <1>  -0.2370 
  5 C       -2.4240    -1.5040     0.3390 C.3   1 <1>   0.3640 
  6 C       -3.0900     0.4830    -1.1070 C.3   1 <1>   0.1400 
  7 N       -0.6640     2.9510     0.9190 N.pl3 1 <1>   0.0480 
  8 C       -2.8540     3.1210     0.6080 C.2   1 <1>  -0.1500 
  9 C       -1.1090    -2.0820    -0.2150 C.ar  1 <1>  -0.1440 
 10 C       -3.6630    -2.2230    -0.2840 C.3   1 <1>   0.2000 
 11 C       -3.4250    -0.6590    -2.0770 C.3   1 <1>   0.1200 
 12 C       -0.9390     4.2730     0.6610 C.ar  1 <1>  -0.1520 
 13 C        0.6680     2.3940     1.2310 C.3   1 <1>   0.0160 
 14 C       -2.3070     4.4040     0.4610 C.ar  1 <1>   0.0000 
 15 C       -0.7850    -3.3920     0.1190 C.ar  1 <1>  -0.1500 
 16 C       -0.2240    -1.3680    -1.0190 C.ar  1 <1>  -0.1500 
 17 O       -4.2160    -1.6060    -1.4300 O.3   1 <1>  -0.5600 
 18 C       -4.8030    -2.3430     0.7350 C.3   1 <1>   0.1200 
 19 C       -0.1070     5.3950     0.5840 C.ar  1 <1>  -0.1500 
 20 C       -2.8570     5.6600     0.1780 C.ar  1 <1>  -0.1500 
 21 C        0.3720    -3.9900    -0.3500 C.ar  1 <1>   0.0830 
 22 C        0.9460    -1.9490    -1.4770 C.ar  1 <1>  -0.1500 
 23 O       -4.4670    -3.2580     1.7290 O.3   1 <1>  -0.6800 
 24 C       -0.6590     6.6230     0.3040 C.ar  1 <1>  -0.1500 
 25 C       -2.0380     6.7620     0.0980 C.ar  1 <1>  -0.1430 
 26 O        0.5800    -5.2880    -0.0150 O.3   1 <1>  -0.3630 
 27 C        1.2620    -3.2520    -1.1370 C.ar  1 <1>   0.0830 
 28 C       -2.6010     8.1380    -0.2070 C.3   1 <1>  -0.0970 
 29 C        0.6040    -6.2160    -1.0770 C.3   1 <1>   0.0400 
 30 O        2.4410    -3.7480    -1.5860 O.3   1 <1>  -0.3630 
 31 C        3.4080    -4.0420    -0.6020 C.3   1 <1>   0.0400 
 32 H       -2.4230    -1.7260     1.3940 H     1 <1>   0.0800 
 33 H       -3.9970     1.0170    -0.8870 H     1 <1>   0.0800 
 34 H       -2.4060     1.1650    -1.5820 H     1 <1>   0.0800 
 35 H       -3.9050     2.9090     0.5270 H     1 <1>   0.1500 
 36 H       -3.3830    -3.2150    -0.5870 H     1 <1>   0.0800 
 37 H       -2.5370    -1.1400    -2.4490 H     1 <1>   0.0800 
 38 H       -3.9840    -0.2810    -2.9150 H     1 <1>   0.0800 
 39 H        0.7520     2.2640     2.2950 H     1 <1>   0.0800 
 40 H        1.4360     3.0610     0.8870 H     1 <1>   0.0800 
 41 H        0.7840     1.4420     0.7480 H     1 <1>   0.0800 
 42 H       -1.4340    -3.9710     0.7510 H     1 <1>   0.1500 
 43 H       -0.4250    -0.3500    -1.2950 H     1 <1>   0.1500 
 44 H       -5.7050    -2.6850     0.2580 H     1 <1>   0.0800 
 45 H       -4.9800    -1.3910     1.2050 H     1 <1>   0.0800 
 46 H        0.9510     5.2970     0.7450 H     1 <1>   0.1500 
 47 H       -3.9180     5.7350     0.0280 H     1 <1>   0.1500 
 48 H        1.6260    -1.3910    -2.0940 H     1 <1>   0.1500 
 49 H       -4.5850    -4.1760     1.4120 H     1 <1>   0.4000 
 50 H       -0.0290     7.4930     0.2420 H     1 <1>   0.1500 
 51 H       -2.3810     8.8110     0.6020 H     1 <1>   0.0800 
 52 H       -3.6670     8.0960    -0.3370 H     1 <1>   0.0800 
 53 H       -2.1600     8.5210    -1.1090 H     1 <1>   0.0800 
 54 H        0.6390    -7.2050    -0.6580 H     1 <1>   0.0800 
 55 H        1.4760    -6.0460    -1.6820 H     1 <1>   0.0800 
 56 H       -0.2880    -6.0950    -1.6650 H     1 <1>   0.0800 
 57 H        4.3170    -4.3290    -1.0990 H     1 <1>   0.0800 
 58 H        3.0570    -4.8480     0.0150 H     1 <1>   0.0800 
 59 H        3.5750    -3.1620    -0.0060 H     1 <1>   0.0800 
@<TRIPOS>BOND
  1   1   2  2   
  2   2   3  am  
  3   2   4  1   
  4   3   5  1   
  5   3   6  1   
  6   4   7  1   
  7   4   8  2   
  8   5   9  1   
  9   5  10  1   
 10   5  32  1   
 11   6  11  1   
 12   6  33  1   
 13   6  34  1   
 14   7  12  1   
 15   7  13  1   
 16   8  14  1   
 17   8  35  1   
 18   9  15  ar  
 19   9  16  ar  
 20  10  17  1   
 21  10  18  1   
 22  10  36  1   
 23  11  17  1   
 24  11  37  1   
 25  11  38  1   
 26  12  14  ar  
 27  12  19  ar  
 28  13  39  1   
 29  13  40  1   
 30  13  41  1   
 31  14  20  ar  
 32  15  21  ar  
 33  15  42  1   
 34  16  22  ar  
 35  16  43  1   
 36  18  23  1   
 37  18  44  1   
 38  18  45  1   
 39  19  24  ar  
 40  19  46  1   
 41  20  25  ar  
 42  20  47  1   
 43  21  26  1   
 44  21  27  ar  
 45  22  27  ar  
 46  22  48  1   
 47  23  49  1   
 48  24  25  ar  
 49  24  50  1   
 50  25  28  1   
 51  26  29  1   
 52  27  30  1   
 53  28  51  1   
 54  28  52  1   
 55  28  53  1   
 56  29  54  1   
 57  29  55  1   
 58  29  56  1   
 59  30  31  1   
 60  31  57  1   
 61  31  58  1   
 62  31  59  1   
@<TRIPOS>SUBSTRUCTURE
  1 ****   3 GROUP 4 **** **** 0

# MOE 2024.06 (io_trps.svl 2023.06)
