@<TRIPOS>MOLECULE
NONAME
21 22 1 0 0 
SMALL
USER_CHARGES


@<TRIPOS>ATOM
  1 O       -0.3260    -0.1370     0.3380 O.2   1 <1>  -0.5700 
  2 C       -1.5090    -0.0370     0.0800 C.2   1 <1>   0.8060 
  3 O       -2.0510     1.1880     0.0390 O.3   1 <1>  -0.4300 
  4 C       -2.3980    -1.1520    -0.1920 C.2   1 <1>   0.1410 
  5 C       -1.2850     2.3520     0.2870 C.3   1 <1>   0.0400 
  6 N       -2.0460    -2.4760    -0.2020 N.2   1 <1>  -0.5650 
  7 C       -3.7170    -1.0950    -0.4820 C.2   1 <1>  -0.0100 
  8 C       -3.1360    -3.0880    -0.4830 C.2   1 <1>   0.3930 
  9 O       -4.1670    -2.2990    -0.6610 O.3   1 <1>  -0.2800 
 10 C       -3.3350    -4.5880    -0.6250 C.3   1 <1>  -0.0150 
 11 C       -3.8970    -5.3900     0.5100 C.3   1 <1>  -0.2000 
 12 C       -2.4640    -5.5670     0.1030 C.3   1 <1>  -0.2000 
 13 H       -1.9270     3.2100     0.2000 H     1 <1>   0.0800 
 14 H       -0.4900     2.4080    -0.4380 H     1 <1>   0.0800 
 15 H       -0.8750     2.2950     1.2810 H     1 <1>   0.0800 
 16 H       -4.3810    -0.2530    -0.5740 H     1 <1>   0.1500 
 17 H       -3.6460    -4.8530    -1.6190 H     1 <1>   0.1000 
 18 H       -4.6040    -6.1710     0.2870 H     1 <1>   0.1000 
 19 H       -4.1100    -4.8900     1.4390 H     1 <1>   0.1000 
 20 H       -1.6880    -5.1810     0.7420 H     1 <1>   0.1000 
 21 H       -2.1700    -6.4680    -0.4060 H     1 <1>   0.1000 
@<TRIPOS>BOND
  1   1   2  2   
  2   2   3  1   
  3   2   4  1   
  4   3   5  1   
  5   4   6  1   
  6   4   7  2   
  7   5  13  1   
  8   5  14  1   
  9   5  15  1   
 10   6   8  2   
 11   7   9  1   
 12   7  16  1   
 13   8   9  1   
 14   8  10  1   
 15  10  11  1   
 16  10  12  1   
 17  10  17  1   
 18  11  12  1   
 19  11  18  1   
 20  11  19  1   
 21  12  20  1   
 22  12  21  1   
@<TRIPOS>SUBSTRUCTURE
  1 ****   4 GROUP 4 **** **** 0

# MOE 2024.06 (io_trps.svl 2023.06)
