@<TRIPOS>MOLECULE
NONAME
53 55 1 0 0 
SMALL
USER_CHARGES


@<TRIPOS>ATOM
  1 O       -2.9570    -1.9870    -0.5620 O.2   1 <1>  -0.5700 
  2 C       -2.0840    -2.2210     0.2390 C.2   1 <1>   0.5690 
  3 N       -1.3530    -3.3660     0.3060 N.am  1 <1>  -0.6600 
  4 C       -1.7040    -1.2570     1.3280 C.3   1 <1>  -0.0990 
  5 C       -0.3710    -3.3080     1.4120 C.3   1 <1>   0.1400 
  6 C       -1.1690    -4.4580    -0.7110 C.3   1 <1>   0.1400 
  7 C       -0.7930    -2.0890     2.2400 C.3   1 <1>  -0.1600 
  8 C       -2.2750    -4.6200    -1.7820 C.3   1 <1>   0.3430 
  9 N       -3.6650    -4.5160    -1.2430 N.4   1 <1>  -0.9590 
 10 C       -3.9820    -5.4500    -0.1100 C.3   1 <1>   0.3430 
 11 C       -4.6870    -4.5560    -2.3230 C.3   1 <1>   0.3430 
 12 C       -5.1770    -4.9820     0.7500 C.3   1 <1>   0.1400 
 13 C       -5.6990    -3.4240    -2.1470 C.3   1 <1>  -0.1600 
 14 N       -6.3740    -4.6130    -0.0730 N.am  1 <1>  -0.6600 
 15 C       -6.2730    -3.2810    -0.7340 C.3   1 <1>   0.1400 
 16 C       -7.5010    -5.3780    -0.2370 C.2   1 <1>   0.5690 
 17 O       -8.3700    -5.0560    -1.0090 O.2   1 <1>  -0.5700 
 18 C       -7.6740    -6.6730     0.5340 C.3   1 <1>  -0.0990 
 19 C       -8.9160    -7.4630     0.0900 C.3   1 <1>   0.0960 
 20 N       -9.0370    -8.7170     0.8580 N.pl3 1 <1>   0.3140 
 21 N       -8.0770    -9.6160     0.8970 N.2   1 <1>  -0.4180 
 22 C      -10.0280    -9.1600     1.6180 C.2   1 <1>   0.0060 
 23 N       -8.4950   -10.5610     1.6590 N.2   1 <1>   0.0000 
 24 N       -9.7110   -10.2910     2.1190 N.2   1 <1>  -0.3380 
 25 C      -11.3440    -8.4480     1.8690 C.3   1 <1>  -0.0600 
 26 H       -2.5730    -0.8970     1.8470 H     1 <1>   0.0800 
 27 H       -1.1690    -0.4320     0.8940 H     1 <1>   0.0800 
 28 H        0.6190    -3.1650     1.0100 H     1 <1>   0.0800 
 29 H       -0.3960    -4.2080     2.0030 H     1 <1>   0.0800 
 30 H       -1.0700    -5.3930    -0.1880 H     1 <1>   0.0800 
 31 H       -0.2350    -4.2900    -1.2200 H     1 <1>   0.0800 
 32 H       -1.3460    -2.4240     3.1000 H     1 <1>   0.0800 
 33 H        0.0610    -1.5280     2.5800 H     1 <1>   0.0800 
 34 H       -2.1450    -5.5660    -2.2810 H     1 <1>   0.0800 
 35 H       -2.1330    -3.8440    -2.5170 H     1 <1>   0.0800 
 36 H       -3.6930    -3.5470    -0.8620 H     1 <1>   0.4500 
 37 H       -3.1270    -5.5330     0.5390 H     1 <1>   0.0800 
 38 H       -4.1920    -6.4310    -0.5010 H     1 <1>   0.0800 
 39 H       -5.2040    -5.5020    -2.2990 H     1 <1>   0.0800 
 40 H       -4.2170    -4.4550    -3.2880 H     1 <1>   0.0800 
 41 H       -4.8740    -4.1290     1.3320 H     1 <1>   0.0800 
 42 H       -5.4250    -5.7580     1.4520 H     1 <1>   0.0800 
 43 H       -6.5160    -3.6030    -2.8240 H     1 <1>   0.0800 
 44 H       -5.2540    -2.4900    -2.4410 H     1 <1>   0.0800 
 45 H       -7.2470    -2.8200    -0.7860 H     1 <1>   0.0800 
 46 H       -5.6450    -2.6310    -0.1480 H     1 <1>   0.0800 
 47 H       -7.7590    -6.4380     1.5790 H     1 <1>   0.0800 
 48 H       -6.8030    -7.2820     0.3770 H     1 <1>   0.0800 
 49 H       -8.8410    -7.7130    -0.9530 H     1 <1>   0.0800 
 50 H       -9.8010    -6.8700     0.2340 H     1 <1>   0.0800 
 51 H      -11.1700    -7.4950     2.3350 H     1 <1>   0.0800 
 52 H      -11.9590    -9.0400     2.5230 H     1 <1>   0.0800 
 53 H      -11.8710    -8.3030     0.9430 H     1 <1>   0.0800 
@<TRIPOS>BOND
  1   1   2  2   
  2   2   3  am  
  3   2   4  1   
  4   3   5  1   
  5   3   6  1   
  6   4   7  1   
  7   4  26  1   
  8   4  27  1   
  9   5   7  1   
 10   5  28  1   
 11   5  29  1   
 12   6   8  1   
 13   6  30  1   
 14   6  31  1   
 15   7  32  1   
 16   7  33  1   
 17   8   9  1   
 18   8  34  1   
 19   8  35  1   
 20   9  10  1   
 21   9  11  1   
 22   9  36  1   
 23  10  12  1   
 24  10  37  1   
 25  10  38  1   
 26  11  13  1   
 27  11  39  1   
 28  11  40  1   
 29  12  14  1   
 30  12  41  1   
 31  12  42  1   
 32  13  15  1   
 33  13  43  1   
 34  13  44  1   
 35  14  15  1   
 36  14  16  am  
 37  15  45  1   
 38  15  46  1   
 39  16  17  2   
 40  16  18  1   
 41  18  19  1   
 42  18  47  1   
 43  18  48  1   
 44  19  20  1   
 45  19  49  1   
 46  19  50  1   
 47  20  21  1   
 48  20  22  1   
 49  21  23  2   
 50  22  24  2   
 51  22  25  1   
 52  23  24  1   
 53  25  51  1   
 54  25  52  1   
 55  25  53  1   
@<TRIPOS>SUBSTRUCTURE
  1 ****  12 GROUP 4 **** **** 0

# MOE 2024.06 (io_trps.svl 2023.06)
