@<TRIPOS>MOLECULE
NONAME
55 58 1 0 0 
SMALL
USER_CHARGES


@<TRIPOS>ATOM
  1 O       -0.0610     1.1090     1.4230 O.2   1 <1>  -0.5700 
  2 C       -0.1180     2.2140     0.9340 C.2   1 <1>   0.5690 
  3 N       -1.2680     2.9630     0.9780 N.am  1 <1>  -0.6600 
  4 C        1.1270     2.7690     0.2560 C.3   1 <1>  -0.0990 
  5 C       -1.4430     4.3270     0.4160 C.3   1 <1>   0.1400 
  6 C       -2.5090     2.4470     1.6150 C.3   1 <1>   0.1400 
  7 C        2.3210     1.8030     0.2640 C.3   1 <1>   0.0210 
  8 C       -2.5440     4.2960    -0.6470 C.3   1 <1>  -0.1600 
  9 C       -3.6250     2.3930     0.5700 C.3   1 <1>  -0.1600 
 10 C        3.5500     2.3800    -0.4230 C.2   1 <1>  -0.1810 
 11 C       -3.8900     3.7560    -0.1040 C.3   1 <1>   0.2800 
 12 C        4.7650     1.6670    -0.5450 C.ar  1 <1>   0.0000 
 13 C        3.7290     3.5890    -1.0110 C.2   1 <1>  -0.3020 
 14 O       -4.3000     4.6250     0.9310 O.3   1 <1>  -0.5600 
 15 C       -4.9930     3.6090    -1.2160 C.3   1 <1>   0.2000 
 16 C        5.6490     2.5020    -1.2210 C.ar  1 <1>  -0.1520 
 17 C        5.1890     0.3960    -0.1440 C.ar  1 <1>  -0.1500 
 18 N        5.0010     3.6760    -1.5000 N.pl3 1 <1>   0.0330 
 19 C       -5.1340     5.6890     0.6010 C.3   1 <1>   0.1200 
 20 O       -4.7630     4.4930    -2.2870 O.3   1 <1>  -0.6800 
 21 C       -6.4270     3.8460    -0.6610 C.3   1 <1>   0.2800 
 22 C        6.9530     2.0890    -1.5050 C.ar  1 <1>  -0.1500 
 23 C        6.4740    -0.0110    -0.4240 C.ar  1 <1>  -0.1500 
 24 C       -6.5000     5.1750     0.1180 C.3   1 <1>  -0.1600 
 25 O       -6.7410     2.8260     0.2170 O.3   1 <1>  -0.6800 
 26 C       -7.5150     3.7710    -1.7390 C.3   1 <1>  -0.2400 
 27 C        7.3560     0.8360    -1.1050 C.ar  1 <1>  -0.1500 
 28 H        0.8820     3.0010    -0.7630 H     1 <1>   0.0800 
 29 H        1.4140     3.6720     0.7610 H     1 <1>   0.0800 
 30 H       -1.7250     4.9970     1.2110 H     1 <1>   0.0800 
 31 H       -0.5330     4.6950    -0.0190 H     1 <1>   0.0800 
 32 H       -2.3500     1.4630     2.0240 H     1 <1>   0.0800 
 33 H       -2.7920     3.1010     2.4220 H     1 <1>   0.0800 
 34 H        2.0430     0.8900    -0.2340 H     1 <1>   0.0800 
 35 H        2.5760     1.5600     1.2810 H     1 <1>   0.0800 
 36 H       -2.2170     3.6720    -1.4600 H     1 <1>   0.0800 
 37 H       -2.6700     5.2880    -1.0370 H     1 <1>   0.0800 
 38 H       -4.5170     2.0380     1.0490 H     1 <1>   0.0800 
 39 H       -3.3520     1.6690    -0.1750 H     1 <1>   0.0800 
 40 H        3.0320     4.4010    -1.1150 H     1 <1>   0.1500 
 41 H       -4.9410     2.6230    -1.6430 H     1 <1>   0.0800 
 42 H        4.5020    -0.2450     0.3780 H     1 <1>   0.1500 
 43 H        5.4150     4.4740    -1.9930 H     1 <1>   0.2700 
 44 H       -5.2530     6.2960     1.4810 H     1 <1>   0.0800 
 45 H       -4.6450     6.2780    -0.1550 H     1 <1>   0.0800 
 46 H       -4.8010     5.4120    -1.9680 H     1 <1>   0.4000 
 47 H        7.6240     2.7460    -2.0290 H     1 <1>   0.1500 
 48 H        6.8120    -0.9860    -0.1210 H     1 <1>   0.1500 
 49 H       -6.9130     5.9400    -0.5130 H     1 <1>   0.0800 
 50 H       -7.1610     5.0810     0.9610 H     1 <1>   0.0800 
 51 H       -7.6240     2.9810     0.5980 H     1 <1>   0.4000 
 52 H       -7.3730     4.5440    -2.4720 H     1 <1>   0.0800 
 53 H       -8.4930     3.8940    -1.3100 H     1 <1>   0.0800 
 54 H       -7.4650     2.8240    -2.2470 H     1 <1>   0.0800 
 55 H        8.3550     0.4940    -1.3120 H     1 <1>   0.1500 
@<TRIPOS>BOND
  1   1   2  2   
  2   2   3  am  
  3   2   4  1   
  4   3   5  1   
  5   3   6  1   
  6   4   7  1   
  7   4  28  1   
  8   4  29  1   
  9   5   8  1   
 10   5  30  1   
 11   5  31  1   
 12   6   9  1   
 13   6  32  1   
 14   6  33  1   
 15   7  10  1   
 16   7  34  1   
 17   7  35  1   
 18   8  11  1   
 19   8  36  1   
 20   8  37  1   
 21   9  11  1   
 22   9  38  1   
 23   9  39  1   
 24  10  12  1   
 25  10  13  2   
 26  11  14  1   
 27  11  15  1   
 28  12  16  ar  
 29  12  17  ar  
 30  13  18  1   
 31  13  40  1   
 32  14  19  1   
 33  15  20  1   
 34  15  21  1   
 35  15  41  1   
 36  16  18  1   
 37  16  22  ar  
 38  17  23  ar  
 39  17  42  1   
 40  18  43  1   
 41  19  24  1   
 42  19  44  1   
 43  19  45  1   
 44  20  46  1   
 45  21  24  1   
 46  21  25  1   
 47  21  26  1   
 48  22  27  ar  
 49  22  47  1   
 50  23  27  ar  
 51  23  48  1   
 52  24  49  1   
 53  24  50  1   
 54  25  51  1   
 55  26  52  1   
 56  26  53  1   
 57  26  54  1   
 58  27  55  1   
@<TRIPOS>SUBSTRUCTURE
  1 ****   2 GROUP 4 **** **** 0

# MOE 2024.06 (io_trps.svl 2023.06)
