@<TRIPOS>MOLECULE
NONAME
52 54 1 0 0 
SMALL
USER_CHARGES


@<TRIPOS>ATOM
  1 F       -4.0610    -0.8050     0.9980 F     1 <1>  -0.3400 
  2 C       -2.8890    -0.5730     0.4090 C.3   1 <1>   0.8800 
  3 F       -3.1440     0.3160    -0.5370 F     1 <1>  -0.3400 
  4 O       -2.4760    -1.7620    -0.2240 O.3   1 <1>  -0.3630 
  5 C       -2.1540    -2.8690     0.4890 C.ar  1 <1>   0.0830 
  6 C       -1.9450    -4.0280    -0.2370 C.ar  1 <1>  -0.1500 
  7 C       -2.0530    -2.9010     1.8780 C.ar  1 <1>  -0.1500 
  8 C       -1.7060    -5.2490     0.3850 C.ar  1 <1>   0.0860 
  9 C       -1.7700    -4.0960     2.5140 C.ar  1 <1>  -0.1500 
 10 C       -1.5530    -6.4770    -0.3720 C.2   1 <1>   0.5440 
 11 C       -1.6010    -5.2530     1.7750 C.ar  1 <1>  -0.1500 
 12 O       -0.4740    -6.6990    -0.8860 O.2   1 <1>  -0.5700 
 13 N       -2.5660    -7.4130    -0.5160 N.am  1 <1>  -0.6600 
 14 C       -4.0270    -7.1260    -0.6610 C.3   1 <1>   0.2200 
 15 C       -2.2060    -8.8140    -0.8860 C.3   1 <1>   0.0600 
 16 C       -4.3240    -6.1320    -1.7840 C.3   1 <1>  -0.1600 
 17 C       -4.6950    -6.6000     0.6110 C.3   1 <1>  -0.1600 
 18 C       -5.5500    -5.3250    -1.3370 C.3   1 <1>  -0.0800 
 19 C       -5.7450    -5.5740     0.1600 C.3   1 <1>  -0.0800 
 20 C       -5.4100    -3.8030    -1.5070 C.3   1 <1>  -0.1600 
 21 C       -5.6230    -4.1970     0.8270 C.3   1 <1>  -0.1600 
 22 C       -6.0110    -3.1750    -0.2450 C.3   1 <1>   0.4230 
 23 N       -7.4990    -3.0570    -0.3680 N.4   1 <1>  -0.9590 
 24 C       -7.9020    -2.1210    -1.4670 C.3   1 <1>   0.2630 
 25 C       -8.1430    -2.5900     0.9020 C.3   1 <1>   0.2630 
 26 H       -2.1730    -0.1840     1.1110 H     1 <1>   0.0800 
 27 H       -1.9680    -3.9860    -1.3110 H     1 <1>   0.1500 
 28 H       -2.1860    -2.0240     2.4840 H     1 <1>   0.1500 
 29 H       -1.6800    -4.1300     3.5870 H     1 <1>   0.1500 
 30 H       -1.3830    -6.1830     2.2730 H     1 <1>   0.1500 
 31 H       -4.5350    -8.0410    -0.9180 H     1 <1>   0.0800 
 32 H       -2.8260    -9.5090    -0.3460 H     1 <1>   0.0800 
 33 H       -1.1780    -9.0190    -0.6400 H     1 <1>   0.0800 
 34 H       -2.3420    -8.9560    -1.9430 H     1 <1>   0.0800 
 35 H       -3.4800    -5.4990    -1.9650 H     1 <1>   0.0800 
 36 H       -4.5340    -6.6640    -2.6960 H     1 <1>   0.0800 
 37 H       -5.1700    -7.4140     1.1290 H     1 <1>   0.0800 
 38 H       -3.9860    -6.1610     1.2790 H     1 <1>   0.0800 
 39 H       -6.4210    -5.6790    -1.8640 H     1 <1>   0.0800 
 40 H       -6.7330    -5.9730     0.3240 H     1 <1>   0.0800 
 41 H       -5.8330    -3.4590    -2.4310 H     1 <1>   0.0800 
 42 H       -4.3710    -3.5320    -1.5200 H     1 <1>   0.0800 
 43 H       -4.5930    -4.0160     1.0740 H     1 <1>   0.0800 
 44 H       -6.1780    -4.1340     1.7430 H     1 <1>   0.0800 
 45 H       -5.5760    -2.2100    -0.0440 H     1 <1>   0.0800 
 46 H       -7.8470    -4.0000    -0.5900 H     1 <1>   0.4500 
 47 H       -7.4650    -1.1480    -1.3080 H     1 <1>   0.0800 
 48 H       -8.9740    -2.0160    -1.4940 H     1 <1>   0.0800 
 49 H       -7.5780    -2.4920    -2.4250 H     1 <1>   0.0800 
 50 H       -7.7130    -1.6520     1.2150 H     1 <1>   0.0800 
 51 H       -8.0050    -3.3130     1.6880 H     1 <1>   0.0800 
 52 H       -9.2020    -2.4520     0.7550 H     1 <1>   0.0800 
@<TRIPOS>BOND
  1   1   2  1   
  2   2   3  1   
  3   2   4  1   
  4   2  26  1   
  5   4   5  1   
  6   5   6  ar  
  7   5   7  ar  
  8   6   8  ar  
  9   6  27  1   
 10   7   9  ar  
 11   7  28  1   
 12   8  10  1   
 13   8  11  ar  
 14   9  11  ar  
 15   9  29  1   
 16  10  12  2   
 17  10  13  am  
 18  11  30  1   
 19  13  14  1   
 20  13  15  1   
 21  14  16  1   
 22  14  17  1   
 23  14  31  1   
 24  15  32  1   
 25  15  33  1   
 26  15  34  1   
 27  16  18  1   
 28  16  35  1   
 29  16  36  1   
 30  17  19  1   
 31  17  37  1   
 32  17  38  1   
 33  18  19  1   
 34  18  20  1   
 35  18  39  1   
 36  19  21  1   
 37  19  40  1   
 38  20  22  1   
 39  20  41  1   
 40  20  42  1   
 41  21  22  1   
 42  21  43  1   
 43  21  44  1   
 44  22  23  1   
 45  22  45  1   
 46  23  24  1   
 47  23  25  1   
 48  23  46  1   
 49  24  47  1   
 50  24  48  1   
 51  24  49  1   
 52  25  50  1   
 53  25  51  1   
 54  25  52  1   
@<TRIPOS>SUBSTRUCTURE
  1 ****   6 GROUP 4 **** **** 0

# MOE 2024.06 (io_trps.svl 2023.06)
