@<TRIPOS>MOLECULE
NONAME
41 43 1 0 0 
SMALL
USER_CHARGES


@<TRIPOS>ATOM
  1 F        0.6210     2.0330     0.3580 F     1 <1>  -0.1900 
  2 C        1.9250     2.2130     0.3780 C.ar  1 <1>   0.1900 
  3 C        2.8160     1.1980     0.0390 C.ar  1 <1>   0.4100 
  4 C        2.4220     3.4310     0.7440 C.ar  1 <1>   0.1600 
  5 N        4.1100     1.4170     0.0800 N.ar  1 <1>  -0.6200 
  6 N        2.4880    -0.0780    -0.3530 N.pl3 1 <1>  -0.8690 
  7 N        3.7220     3.6640     0.7830 N.ar  1 <1>  -0.6200 
  8 C        4.4990     2.6260     0.4660 C.ar  1 <1>   0.7200 
  9 C        1.2530    -0.4390    -1.0910 C.3   1 <1>   0.1290 
 10 N        5.8570     2.8560     0.5240 N.pl3 1 <1>  -0.8380 
 11 C        6.4500     3.7140     1.6010 C.3   1 <1>   0.2090 
 12 C        6.8410     2.0670    -0.2770 C.3   1 <1>   0.2090 
 13 C        7.3590     4.8680     1.0840 C.3   1 <1>   0.4230 
 14 C        7.7120     2.9990    -1.1430 C.3   1 <1>  -0.0800 
 15 N        7.0710     5.3750    -0.3220 N.4   1 <1>  -0.9590 
 16 C        8.8570     4.5330     1.2590 C.3   1 <1>   0.1200 
 17 C        9.1590     3.1390    -0.6450 C.3   1 <1>   0.1200 
 18 C        7.0140     4.3400    -1.4180 C.3   1 <1>   0.3430 
 19 C        5.7770     6.1250    -0.3250 C.3   1 <1>   0.2630 
 20 O        9.2050     3.2890     0.7360 O.3   1 <1>  -0.5600 
 21 H        1.7450     4.2250     1.0070 H     1 <1>   0.1500 
 22 H        3.3100    -0.6520    -0.5630 H     1 <1>   0.4000 
 23 H        0.9680     0.3590    -1.7550 H     1 <1>   0.0800 
 24 H        0.4530    -0.6210    -0.3930 H     1 <1>   0.0800 
 25 H        1.4210    -1.3310    -1.6700 H     1 <1>   0.0800 
 26 H        5.6690     4.1470     2.1990 H     1 <1>   0.0800 
 27 H        7.0150     3.0850     2.2670 H     1 <1>   0.0800 
 28 H        7.4490     1.4680     0.3810 H     1 <1>   0.0800 
 29 H        6.3220     1.3870    -0.9320 H     1 <1>   0.0800 
 30 H        7.1880     5.6940     1.7540 H     1 <1>   0.0800 
 31 H        7.7890     2.5150    -2.1000 H     1 <1>   0.0800 
 32 H        7.8230     6.0300    -0.5620 H     1 <1>   0.4500 
 33 H        9.0800     4.4880     2.3110 H     1 <1>   0.0800 
 34 H        9.4860     5.2870     0.8210 H     1 <1>   0.0800 
 35 H        9.6760     3.9590    -1.1140 H     1 <1>   0.0800 
 36 H        9.6980     2.2330    -0.8670 H     1 <1>   0.0800 
 37 H        5.9800     4.1150    -1.6280 H     1 <1>   0.0800 
 38 H        7.4300     4.7670    -2.3150 H     1 <1>   0.0800 
 39 H        4.9630     5.4570    -0.0990 H     1 <1>   0.0800 
 40 H        5.5990     6.5630    -1.2930 H     1 <1>   0.0800 
 41 H        5.7920     6.9110     0.4120 H     1 <1>   0.0800 
@<TRIPOS>BOND
  1   1   2  1   
  2   2   3  ar  
  3   2   4  ar  
  4   3   5  ar  
  5   3   6  1   
  6   4   7  ar  
  7   4  21  1   
  8   5   8  ar  
  9   6   9  1   
 10   6  22  1   
 11   7   8  ar  
 12   8  10  1   
 13   9  23  1   
 14   9  24  1   
 15   9  25  1   
 16  10  11  1   
 17  10  12  1   
 18  11  13  1   
 19  11  26  1   
 20  11  27  1   
 21  12  14  1   
 22  12  28  1   
 23  12  29  1   
 24  13  15  1   
 25  13  16  1   
 26  13  30  1   
 27  14  17  1   
 28  14  18  1   
 29  14  31  1   
 30  15  18  1   
 31  15  19  1   
 32  15  32  1   
 33  16  20  1   
 34  16  33  1   
 35  16  34  1   
 36  17  20  1   
 37  17  35  1   
 38  17  36  1   
 39  18  37  1   
 40  18  38  1   
 41  19  39  1   
 42  19  40  1   
 43  19  41  1   
@<TRIPOS>SUBSTRUCTURE
  1 ****  10 GROUP 4 **** **** 0

# MOE 2024.06 (io_trps.svl 2023.06)
