@<TRIPOS>MOLECULE
NONAME
43 44 1 0 0 
SMALL
USER_CHARGES


@<TRIPOS>ATOM
  1 S        1.0170     1.2430     0.4980 S.o2  1 <1>   1.4470 
  2 O        2.0310     2.1810     0.9110 O.2   1 <1>  -0.6500 
  3 O        0.0940     1.5240    -0.5730 O.2   1 <1>  -0.6500 
  4 N        0.0640     1.0040     1.8430 N.am  1 <1>  -0.9780 
  5 C        1.7620    -0.3940     0.2610 C.ar  1 <1>  -0.0090 
  6 C        1.1620    -1.3530    -0.5420 C.ar  1 <1>  -0.1500 
  7 C        2.9460    -0.7390     0.9030 C.ar  1 <1>  -0.1500 
  8 C        1.6980    -2.6280    -0.7170 C.ar  1 <1>   0.0860 
  9 C        3.5110    -1.9900     0.7420 C.ar  1 <1>  -0.1500 
 10 C        2.9000    -2.9370    -0.0720 C.ar  1 <1>   0.0830 
 11 C        1.0230    -3.5930    -1.5540 C.2   1 <1>   0.5440 
 12 O        3.4310    -4.1660    -0.2820 O.3   1 <1>  -0.3630 
 13 O        0.9730    -3.4030    -2.7540 O.2   1 <1>  -0.5700 
 14 N        0.4020    -4.7060    -1.0270 N.am  1 <1>  -0.6600 
 15 C        4.6610    -4.5750     0.2780 C.3   1 <1>   0.0400 
 16 C       -0.0790    -4.8090     0.3850 C.3   1 <1>   0.1400 
 17 C        0.0930    -5.8900    -1.8720 C.3   1 <1>   0.1400 
 18 C        0.4720    -6.0690     1.0740 C.3   1 <1>   0.2000 
 19 C        0.6840    -7.1480    -1.2270 C.3   1 <1>  -0.1600 
 20 O        1.8320    -5.9040     1.2600 O.3   1 <1>  -0.6800 
 21 C        0.2110    -7.3360     0.2330 C.3   1 <1>  -0.0800 
 22 C        0.8550    -8.5700     0.8880 C.3   1 <1>   0.1200 
 23 O        0.4600    -9.7190     0.2180 O.3   1 <1>  -0.6800 
 24 H        0.6650     0.6900     2.5970 H     1 <1>   0.4200 
 25 H       -0.6260     0.2990     1.6100 H     1 <1>   0.4200 
 26 H        0.2500    -1.1130    -1.0650 H     1 <1>   0.1500 
 27 H        3.4390    -0.0130     1.5310 H     1 <1>   0.1500 
 28 H        4.4310    -2.2060     1.2530 H     1 <1>   0.1500 
 29 H        4.8660    -5.5750    -0.0600 H     1 <1>   0.0800 
 30 H        4.5780    -4.5640     1.3510 H     1 <1>   0.0800 
 31 H        5.4380    -3.9100    -0.0580 H     1 <1>   0.0800 
 32 H        0.1980    -3.9400     0.9550 H     1 <1>   0.0800 
 33 H       -1.1530    -4.8620     0.3720 H     1 <1>   0.0800 
 34 H       -0.9750    -5.9870    -1.9690 H     1 <1>   0.0800 
 35 H        0.5080    -5.7680    -2.8590 H     1 <1>   0.0800 
 36 H        0.0300    -6.1770     2.0500 H     1 <1>   0.0800 
 37 H        0.3990    -8.0020    -1.8150 H     1 <1>   0.0800 
 38 H        1.7570    -7.0830    -1.2610 H     1 <1>   0.0800 
 39 H        2.2160    -5.5180     0.4380 H     1 <1>   0.4000 
 40 H       -0.8540    -7.4870     0.2230 H     1 <1>   0.0800 
 41 H        0.5580    -8.6620     1.9190 H     1 <1>   0.0800 
 42 H        1.9300    -8.5110     0.8390 H     1 <1>   0.0800 
 43 H       -0.5030    -9.8530     0.2980 H     1 <1>   0.4000 
@<TRIPOS>BOND
  1   1   2  2   
  2   1   3  2   
  3   1   4  am  
  4   1   5  1   
  5   4  24  1   
  6   4  25  1   
  7   5   6  ar  
  8   5   7  ar  
  9   6   8  ar  
 10   6  26  1   
 11   7   9  ar  
 12   7  27  1   
 13   8  10  ar  
 14   8  11  1   
 15   9  10  ar  
 16   9  28  1   
 17  10  12  1   
 18  11  13  2   
 19  11  14  am  
 20  12  15  1   
 21  14  16  1   
 22  14  17  1   
 23  15  29  1   
 24  15  30  1   
 25  15  31  1   
 26  16  18  1   
 27  16  32  1   
 28  16  33  1   
 29  17  19  1   
 30  17  34  1   
 31  17  35  1   
 32  18  20  1   
 33  18  21  1   
 34  18  36  1   
 35  19  21  1   
 36  19  37  1   
 37  19  38  1   
 38  20  39  1   
 39  21  22  1   
 40  21  40  1   
 41  22  23  1   
 42  22  41  1   
 43  22  42  1   
 44  23  43  1   
@<TRIPOS>SUBSTRUCTURE
  1 ****   8 GROUP 4 **** **** 0

# MOE 2024.06 (io_trps.svl 2023.06)
