@<TRIPOS>MOLECULE
NONAME
46 48 1 0 0 
SMALL
USER_CHARGES


@<TRIPOS>ATOM
  1 O        0.2500    -0.2620    -0.6380 O.3   1 <1>  -0.5600 
  2 C        1.4850    -0.8810    -0.9080 C.3   1 <1>   0.2000 
  3 C        0.2060     1.1150    -0.8660 C.3   1 <1>   0.1200 
  4 C        2.6380    -0.2120    -0.1090 C.3   1 <1>   0.5660 
  5 C        1.3770    -2.3710    -0.5440 C.3   1 <1>   0.1200 
  6 C        1.2240     1.8290     0.0390 C.3   1 <1>   0.3430 
  7 N        2.6070     1.2840    -0.1510 N.4   1 <1>  -0.9590 
  8 C        4.0000    -0.6530    -0.6290 C.ar  1 <1>  -0.1440 
  9 O        1.4130    -2.5330     0.8390 O.3   1 <1>  -0.6800 
 10 C        3.5640     1.8710     0.8150 C.3   1 <1>   0.5240 
 11 C        4.8490    -1.3550     0.2140 C.ar  1 <1>  -0.1500 
 12 C        4.4160    -0.3600    -1.9230 C.ar  1 <1>  -0.1500 
 13 C        3.7770     3.3070     0.4040 C.2   1 <1>  -0.1810 
 14 C        6.1020    -1.7460    -0.2230 C.ar  1 <1>  -0.1500 
 15 C        5.6690    -0.7530    -2.3580 C.ar  1 <1>  -0.1500 
 16 C        4.6640     3.7580    -0.5680 C.2   1 <1>   0.1080 
 17 C        3.1730     4.4270     0.8630 C.2   1 <1>  -0.3020 
 18 C        6.5130    -1.4430    -1.5080 C.ar  1 <1>  -0.1500 
 19 N        4.5970     5.0390    -0.7200 N.2   1 <1>  -0.7070 
 20 C        5.6270     2.9250    -1.3890 C.3   1 <1>  -0.0590 
 21 N        3.6880     5.4620     0.1710 N.pl3 1 <1>   0.3140 
 22 C        3.3700     6.8870     0.3170 C.3   1 <1>   0.0160 
 23 H        1.6600    -0.7970    -1.9660 H     1 <1>   0.0800 
 24 H        0.4030     1.3060    -1.9070 H     1 <1>   0.0800 
 25 H       -0.7910     1.4510    -0.6380 H     1 <1>   0.0800 
 26 H        2.5410    -0.5300     0.9160 H     1 <1>   0.0800 
 27 H        2.2010    -2.9250    -0.9620 H     1 <1>   0.0800 
 28 H        0.4520    -2.7780    -0.9190 H     1 <1>   0.0800 
 29 H        0.9150     1.6970     1.0630 H     1 <1>   0.0800 
 30 H        1.2140     2.8860    -0.1770 H     1 <1>   0.0800 
 31 H        2.9440     1.5690    -1.0740 H     1 <1>   0.4500 
 32 H        1.1020    -3.4300     1.0890 H     1 <1>   0.4000 
 33 H        3.1710     1.8220     1.8170 H     1 <1>   0.0800 
 34 H        4.5080     1.3500     0.7860 H     1 <1>   0.0800 
 35 H        4.5460    -1.6120     1.2170 H     1 <1>   0.1500 
 36 H        3.7820     0.1700    -2.6130 H     1 <1>   0.1500 
 37 H        6.7590    -2.2920     0.4340 H     1 <1>   0.1500 
 38 H        5.9930    -0.5280    -3.3610 H     1 <1>   0.1500 
 39 H        2.4270     4.5600     1.6260 H     1 <1>   0.1500 
 40 H        7.4890    -1.7500    -1.8470 H     1 <1>   0.1500 
 41 H        5.8910     2.0170    -0.8820 H     1 <1>   0.0800 
 42 H        6.5270     3.4900    -1.5580 H     1 <1>   0.0800 
 43 H        5.1910     2.6950    -2.3430 H     1 <1>   0.0800 
 44 H        2.5890     7.0150     1.0420 H     1 <1>   0.0800 
 45 H        3.0530     7.2730    -0.6340 H     1 <1>   0.0800 
 46 H        4.2530     7.4090     0.6360 H     1 <1>   0.0800 
@<TRIPOS>BOND
  1   1   2  1   
  2   1   3  1   
  3   2   4  1   
  4   2   5  1   
  5   2  23  1   
  6   3   6  1   
  7   3  24  1   
  8   3  25  1   
  9   4   7  1   
 10   4   8  1   
 11   4  26  1   
 12   5   9  1   
 13   5  27  1   
 14   5  28  1   
 15   6   7  1   
 16   6  29  1   
 17   6  30  1   
 18   7  10  1   
 19   7  31  1   
 20   8  11  ar  
 21   8  12  ar  
 22   9  32  1   
 23  10  13  1   
 24  10  33  1   
 25  10  34  1   
 26  11  14  ar  
 27  11  35  1   
 28  12  15  ar  
 29  12  36  1   
 30  13  16  1   
 31  13  17  2   
 32  14  18  ar  
 33  14  37  1   
 34  15  18  ar  
 35  15  38  1   
 36  16  19  2   
 37  16  20  1   
 38  17  21  1   
 39  17  39  1   
 40  18  40  1   
 41  19  21  1   
 42  20  41  1   
 43  20  42  1   
 44  20  43  1   
 45  21  22  1   
 46  22  44  1   
 47  22  45  1   
 48  22  46  1   
@<TRIPOS>SUBSTRUCTURE
  1 ****   7 GROUP 4 **** **** 0

# MOE 2024.06 (io_trps.svl 2023.06)
