@<TRIPOS>MOLECULE
NONAME
44 47 1 0 0 
SMALL
USER_CHARGES


@<TRIPOS>ATOM
  1 O        1.9400     1.7130     1.1640 O.3   1 <1>  -0.0190 
  2 N        2.6580     0.6450     0.9910 N.2   1 <1>  -0.4100 
  3 C        0.8900     1.7310     0.3860 C.2   1 <1>  -0.0400 
  4 C        2.0460    -0.0530     0.1020 C.2   1 <1>   0.1080 
  5 C        0.8940     0.5980    -0.3310 C.2   1 <1>  -0.1500 
  6 C       -0.0570     2.9180     0.4170 C.3   1 <1>   0.0200 
  7 C        2.5220    -1.3980    -0.4010 C.3   1 <1>  -0.0590 
  8 C        0.6230     4.1820    -0.1480 C.3   1 <1>  -0.0800 
  9 C       -0.2230     5.4580    -0.1340 C.3   1 <1>   0.2000 
 10 C        1.9090     4.5760     0.5850 C.3   1 <1>   0.2090 
 11 O       -0.8610     5.5780     1.0920 O.3   1 <1>  -0.6800 
 12 C        0.8130     6.5780    -0.2610 C.3   1 <1>   0.2090 
 13 N        2.0440     6.0490     0.4100 N.pl3 1 <1>  -0.8380 
 14 C        3.1630     6.8150     0.5980 C.ar  1 <1>   0.7710 
 15 N        4.2430     6.2280     1.1980 N.ar  1 <1>  -0.1790 
 16 N        3.1670     8.0640     0.2130 N.ar  1 <1>  -0.5670 
 17 C        5.3930     6.8700     1.4340 C.ar  1 <1>   0.4610 
 18 C        4.3160     8.7500     0.4350 C.ar  1 <1>   0.1050 
 19 N        6.4210     6.2370     2.0250 N.pl3 1 <1>  -0.9000 
 20 C        5.4310     8.2080     1.0270 C.ar  1 <1>   0.0000 
 21 N        4.6180    10.0410     0.1460 N.pl3 1 <1>   0.3140 
 22 C        6.3550     9.2640     1.0460 C.2   1 <1>   0.1390 
 23 N        5.8820    10.3460     0.5280 N.2   1 <1>  -0.7070 
 24 C        3.7560    11.0460    -0.4940 C.3   1 <1>   0.0160 
 25 H        0.1990     0.2440    -1.0710 H     1 <1>   0.1500 
 26 H       -0.9300     2.6920    -0.1690 H     1 <1>   0.0800 
 27 H       -0.3780     3.0720     1.4330 H     1 <1>   0.0800 
 28 H        2.6290    -1.3750    -1.4700 H     1 <1>   0.0800 
 29 H        1.8120    -2.1580    -0.1320 H     1 <1>   0.0800 
 30 H        3.4730    -1.6410     0.0390 H     1 <1>   0.0800 
 31 H        0.8900     3.9810    -1.1710 H     1 <1>   0.0800 
 32 H       -0.9700     5.4840    -0.9100 H     1 <1>   0.0800 
 33 H        2.7510     4.0460     0.1680 H     1 <1>   0.0800 
 34 H        1.8160     4.3480     1.6350 H     1 <1>   0.0800 
 35 H       -0.2150     5.8060     1.7880 H     1 <1>   0.4000 
 36 H        0.4650     7.4920     0.1930 H     1 <1>   0.0800 
 37 H        1.0270     6.7590    -1.3010 H     1 <1>   0.0800 
 38 H        4.1240     5.2650     1.4680 H     1 <1>   0.4570 
 39 H        6.4470     5.2590     2.3390 H     1 <1>   0.4000 
 40 H        7.3140     6.7100     2.2170 H     1 <1>   0.4000 
 41 H        7.3530     9.1900     1.4460 H     1 <1>   0.1500 
 42 H        2.7880    10.6250    -0.6930 H     1 <1>   0.0800 
 43 H        4.2110    11.3610    -1.4150 H     1 <1>   0.0800 
 44 H        3.6570    11.8900     0.1630 H     1 <1>   0.0800 
@<TRIPOS>BOND
  1   1   2  1   
  2   1   3  1   
  3   2   4  2   
  4   3   5  2   
  5   3   6  1   
  6   4   5  1   
  7   4   7  1   
  8   5  25  1   
  9   6   8  1   
 10   6  26  1   
 11   6  27  1   
 12   7  28  1   
 13   7  29  1   
 14   7  30  1   
 15   8   9  1   
 16   8  10  1   
 17   8  31  1   
 18   9  11  1   
 19   9  12  1   
 20   9  32  1   
 21  10  13  1   
 22  10  33  1   
 23  10  34  1   
 24  11  35  1   
 25  12  13  1   
 26  12  36  1   
 27  12  37  1   
 28  13  14  1   
 29  14  15  ar  
 30  14  16  ar  
 31  15  17  ar  
 32  15  38  1   
 33  16  18  ar  
 34  17  19  1   
 35  17  20  ar  
 36  18  20  ar  
 37  18  21  1   
 38  19  39  1   
 39  19  40  1   
 40  20  22  1   
 41  21  23  1   
 42  21  24  1   
 43  22  23  2   
 44  22  41  1   
 45  24  42  1   
 46  24  43  1   
 47  24  44  1   
@<TRIPOS>SUBSTRUCTURE
  1 ****  13 GROUP 4 **** **** 0

# MOE 2024.06 (io_trps.svl 2023.06)
