@<TRIPOS>MOLECULE
NONAME
47 49 1 0 0 
SMALL
USER_CHARGES


@<TRIPOS>ATOM
  1 O       -3.7520     1.4000    -1.8050 O.2   1 <1>  -0.5700 
  2 C       -2.7760     1.3290    -1.0810 C.2   1 <1>   0.5440 
  3 N       -2.2050     0.1020    -0.9230 N.am  1 <1>  -0.7300 
  4 C       -2.2460     2.5120    -0.4180 C.ar  1 <1>   0.0860 
  5 C       -2.7460    -1.1710    -1.4440 C.3   1 <1>   0.2200 
  6 C       -1.4630     2.4760     0.7530 C.ar  1 <1>   0.0820 
  7 C       -2.5200     3.7670    -0.9650 C.ar  1 <1>  -0.1500 
  8 C       -3.7420    -1.7330    -0.4450 C.3   1 <1>  -0.0800 
  9 C       -1.6530    -2.2380    -1.4380 C.3   1 <1>   0.1200 
 10 O       -1.1900     1.2710     1.3260 O.3   1 <1>  -0.3630 
 11 C       -0.9870     3.6600     1.3150 C.ar  1 <1>  -0.1500 
 12 C       -2.0500     4.9390    -0.4070 C.ar  1 <1>   0.0820 
 13 C       -2.8180    -2.4480     0.5420 C.3   1 <1>   0.1200 
 14 C       -4.7390    -2.6930    -1.1200 C.3   1 <1>  -0.0160 
 15 O       -1.6940    -2.8540    -0.1820 O.3   1 <1>  -0.5600 
 16 C       -0.4440     1.1330     2.5160 C.3   1 <1>   0.0400 
 17 C       -1.2740     4.8830     0.7440 C.ar  1 <1>  -0.1500 
 18 O       -2.3850     6.0950    -1.0370 O.3   1 <1>  -0.3630 
 19 C       -5.7540    -3.2320    -0.1240 C.ar  1 <1>  -0.1440 
 20 C       -1.9750     7.3480    -0.5360 C.3   1 <1>   0.0400 
 21 C       -5.6960    -4.5240     0.3580 C.ar  1 <1>  -0.1500 
 22 C       -6.7900    -2.4520     0.3480 C.ar  1 <1>  -0.1500 
 23 C       -6.6480    -4.9600     1.2650 C.ar  1 <1>   0.1600 
 24 C       -7.6900    -2.9850     1.2550 C.ar  1 <1>   0.1600 
 25 N       -7.6440    -4.2210     1.7270 N.ar  1 <1>  -0.6200 
 26 H       -1.5130     0.0090    -0.1710 H     1 <1>   0.3700 
 27 H       -3.1650    -1.0160    -2.4240 H     1 <1>   0.0800 
 28 H       -3.1190     3.8320    -1.8560 H     1 <1>   0.1500 
 29 H       -4.2940    -0.9460     0.0410 H     1 <1>   0.0800 
 30 H       -0.6740    -1.8250    -1.6070 H     1 <1>   0.0800 
 31 H       -1.8600    -2.9930    -2.1750 H     1 <1>   0.0800 
 32 H       -0.3860     3.6540     2.2040 H     1 <1>   0.1500 
 33 H       -3.2710    -3.3060     1.0060 H     1 <1>   0.0800 
 34 H       -2.4830    -1.7650     1.3030 H     1 <1>   0.0800 
 35 H       -4.2150    -3.5110    -1.5810 H     1 <1>   0.0800 
 36 H       -5.2670    -2.1660    -1.8960 H     1 <1>   0.0800 
 37 H       -0.3860     0.0860     2.7560 H     1 <1>   0.0800 
 38 H       -0.9470     1.6600     3.3080 H     1 <1>   0.0800 
 39 H        0.5460     1.5250     2.3580 H     1 <1>   0.0800 
 40 H       -0.8910     5.7750     1.2030 H     1 <1>   0.1500 
 41 H       -2.3620     8.1100    -1.1870 H     1 <1>   0.0800 
 42 H       -0.9000     7.3860    -0.5280 H     1 <1>   0.0800 
 43 H       -2.3750     7.4760     0.4550 H     1 <1>   0.0800 
 44 H       -4.9200    -5.1960     0.0390 H     1 <1>   0.1500 
 45 H       -6.9030    -1.4350     0.0180 H     1 <1>   0.1500 
 46 H       -6.5860    -5.9700     1.6310 H     1 <1>   0.1500 
 47 H       -8.4910    -2.3600     1.6120 H     1 <1>   0.1500 
@<TRIPOS>BOND
  1   1   2  2   
  2   2   3  am  
  3   2   4  1   
  4   3   5  1   
  5   3  26  1   
  6   4   6  ar  
  7   4   7  ar  
  8   5   8  1   
  9   5   9  1   
 10   5  27  1   
 11   6  10  1   
 12   6  11  ar  
 13   7  12  ar  
 14   7  28  1   
 15   8  13  1   
 16   8  14  1   
 17   8  29  1   
 18   9  15  1   
 19   9  30  1   
 20   9  31  1   
 21  10  16  1   
 22  11  17  ar  
 23  11  32  1   
 24  12  17  ar  
 25  12  18  1   
 26  13  15  1   
 27  13  33  1   
 28  13  34  1   
 29  14  19  1   
 30  14  35  1   
 31  14  36  1   
 32  16  37  1   
 33  16  38  1   
 34  16  39  1   
 35  17  40  1   
 36  18  20  1   
 37  19  21  ar  
 38  19  22  ar  
 39  20  41  1   
 40  20  42  1   
 41  20  43  1   
 42  21  23  ar  
 43  21  44  1   
 44  22  24  ar  
 45  22  45  1   
 46  23  25  ar  
 47  23  46  1   
 48  24  25  ar  
 49  24  47  1   
@<TRIPOS>SUBSTRUCTURE
  1 ****   3 GROUP 4 **** **** 0

# MOE 2024.06 (io_trps.svl 2023.06)
