@<TRIPOS>MOLECULE
NONAME
53 57 1 0 0 
SMALL
USER_CHARGES


@<TRIPOS>ATOM
  1 CL       0.0530    -1.0280     1.2210 Cl    1 <1>  -0.1770 
  2 C       -1.5090    -1.5530     0.6430 C.ar  1 <1>   0.1770 
  3 C       -1.8050    -2.8940     0.6090 C.ar  1 <1>  -0.1500 
  4 C       -2.4260    -0.5820     0.2270 C.ar  1 <1>  -0.1500 
  5 C       -3.0660    -3.2880     0.1430 C.ar  1 <1>  -0.1520 
  6 C       -3.6620    -0.9670    -0.2350 C.ar  1 <1>  -0.1500 
  7 N       -3.6390    -4.5300    -0.0010 N.pl3 1 <1>   0.0480 
  8 C       -3.9850    -2.3310    -0.2780 C.ar  1 <1>   0.0000 
  9 C       -4.9150    -4.3720    -0.5060 C.2   1 <1>  -0.2370 
 10 C       -2.9830    -5.8140     0.3260 C.3   1 <1>   0.0160 
 11 C       -5.1270    -3.0340    -0.6870 C.2   1 <1>  -0.1500 
 12 C       -5.8120    -5.4700    -0.7820 C.2   1 <1>   0.7150 
 13 O       -5.3830    -6.5270    -1.2080 O.2   1 <1>  -0.5700 
 14 N       -7.1610    -5.3570    -0.5530 N.am  1 <1>  -0.6600 
 15 C       -8.1320    -6.4310    -0.8970 C.3   1 <1>   0.1400 
 16 C       -7.7940    -4.3580     0.3380 C.3   1 <1>   0.1400 
 17 C       -9.3900    -6.1070    -0.0910 C.3   1 <1>   0.2800 
 18 C       -8.9940    -5.0830     0.9680 C.3   1 <1>  -0.0800 
 19 O      -10.3320    -5.3900    -0.8050 O.3   1 <1>  -0.5600 
 20 C      -10.2450    -7.2350     0.4890 C.3   1 <1>  -0.1600 
 21 C      -10.3290    -4.3290     1.1780 C.3   1 <1>  -0.0800 
 22 C      -11.2320    -5.0920     0.1960 C.3   1 <1>   0.2000 
 23 C      -11.5670    -6.4960     0.7190 C.3   1 <1>  -0.1600 
 24 C      -10.2960    -2.8350     0.8380 C.3   1 <1>   0.1960 
 25 N      -11.5810    -2.2260     1.1530 N.am  1 <1>  -0.9140 
 26 S      -11.7170    -0.6270     0.6770 S.o2  1 <1>   1.3330 
 27 O      -12.6220    -0.0420     1.6320 O.2   1 <1>  -0.6500 
 28 O      -10.3810    -0.1030     0.5180 O.2   1 <1>  -0.6500 
 29 C      -12.5190    -0.7530    -0.9060 C.3   1 <1>  -0.1350 
 30 H       -1.0810    -3.6170     0.9330 H     1 <1>   0.1500 
 31 H       -2.1450     0.4540     0.2740 H     1 <1>   0.1500 
 32 H       -4.3890    -0.2460    -0.5640 H     1 <1>   0.1500 
 33 H       -3.6720    -6.4420     0.8590 H     1 <1>   0.0800 
 34 H       -2.1160    -5.6440     0.9370 H     1 <1>   0.0800 
 35 H       -2.6920    -6.3010    -0.5870 H     1 <1>   0.0800 
 36 H       -6.0060    -2.5600    -1.0850 H     1 <1>   0.1500 
 37 H       -8.3410    -6.4390    -1.9520 H     1 <1>   0.0800 
 38 H       -7.7310    -7.3820    -0.5960 H     1 <1>   0.0800 
 39 H       -7.1070    -4.0140     1.0920 H     1 <1>   0.0800 
 40 H       -8.1000    -3.5300    -0.2750 H     1 <1>   0.0800 
 41 H       -8.6730    -5.5780     1.8670 H     1 <1>   0.0800 
 42 H      -10.3630    -8.0210    -0.2360 H     1 <1>   0.0800 
 43 H       -9.8240    -7.6360     1.3940 H     1 <1>   0.0800 
 44 H      -10.6740    -4.4540     2.1890 H     1 <1>   0.0800 
 45 H      -12.0760    -4.5390    -0.1830 H     1 <1>   0.0800 
 46 H      -11.8640    -6.4790     1.7530 H     1 <1>   0.0800 
 47 H      -12.3560    -6.9280     0.1280 H     1 <1>   0.0800 
 48 H      -10.0910    -2.7080    -0.2130 H     1 <1>   0.0800 
 49 H       -9.5190    -2.3450     1.4030 H     1 <1>   0.0800 
 50 H      -11.6820    -2.1780     2.1660 H     1 <1>   0.4200 
 51 H      -13.4630    -1.2510    -0.8020 H     1 <1>   0.0800 
 52 H      -11.9080    -1.3090    -1.5890 H     1 <1>   0.0800 
 53 H      -12.6890     0.2250    -1.3110 H     1 <1>   0.0800 
@<TRIPOS>BOND
  1   1   2  1   
  2   2   3  ar  
  3   2   4  ar  
  4   3   5  ar  
  5   3  30  1   
  6   4   6  ar  
  7   4  31  1   
  8   5   7  1   
  9   5   8  ar  
 10   6   8  ar  
 11   6  32  1   
 12   7   9  1   
 13   7  10  1   
 14   8  11  1   
 15   9  11  2   
 16   9  12  1   
 17  10  33  1   
 18  10  34  1   
 19  10  35  1   
 20  11  36  1   
 21  12  13  2   
 22  12  14  am  
 23  14  15  1   
 24  14  16  1   
 25  15  17  1   
 26  15  37  1   
 27  15  38  1   
 28  16  18  1   
 29  16  39  1   
 30  16  40  1   
 31  17  18  1   
 32  17  19  1   
 33  17  20  1   
 34  18  21  1   
 35  18  41  1   
 36  19  22  1   
 37  20  23  1   
 38  20  42  1   
 39  20  43  1   
 40  21  22  1   
 41  21  24  1   
 42  21  44  1   
 43  22  23  1   
 44  22  45  1   
 45  23  46  1   
 46  23  47  1   
 47  24  25  1   
 48  24  48  1   
 49  24  49  1   
 50  25  26  am  
 51  25  50  1   
 52  26  27  2   
 53  26  28  2   
 54  26  29  1   
 55  29  51  1   
 56  29  52  1   
 57  29  53  1   
@<TRIPOS>SUBSTRUCTURE
  1 ****  16 GROUP 4 **** **** 0

# MOE 2024.06 (io_trps.svl 2023.06)
