@<TRIPOS>MOLECULE
NONAME
53 54 1 0 0 
SMALL
USER_CHARGES


@<TRIPOS>ATOM
  1 O        0.1620     0.1320     0.3730 O.2   1 <1>  -0.5700 
  2 C        1.0950     0.6910    -0.1690 C.2   1 <1>   0.7800 
  3 O        1.1010     2.0020    -0.3930 O.3   1 <1>  -0.4300 
  4 N        2.2040     0.0400    -0.5910 N.am  1 <1>  -0.7300 
  5 C        0.0860     2.9260    -0.0610 C.3   1 <1>   0.2800 
  6 C        2.5360    -1.3920    -0.4760 C.3   1 <1>   0.2200 
  7 C        0.6080     4.2820    -0.5400 C.3   1 <1>  -0.2400 
  8 C       -0.1150     2.9710     1.4590 C.3   1 <1>  -0.2400 
  9 C       -1.2060     2.5890    -0.8130 C.3   1 <1>  -0.2400 
 10 C        1.5220    -2.2460    -1.2480 C.3   1 <1>  -0.1600 
 11 C        2.6280    -1.8050     0.9990 C.3   1 <1>  -0.1600 
 12 C        1.7980    -3.7480    -1.0820 C.3   1 <1>  -0.1600 
 13 C        2.9040    -3.3090     1.1450 C.3   1 <1>  -0.1600 
 14 C        1.8390    -4.1440     0.4100 C.3   1 <1>  -0.0800 
 15 C        2.1250    -5.6410     0.6230 C.3   1 <1>   0.3430 
 16 N        1.1260    -6.5120    -0.0610 N.4   1 <1>  -0.9590 
 17 C       -0.2490    -6.3990     0.5510 C.3   1 <1>   0.3430 
 18 C        1.5810    -7.9470    -0.0630 C.3   1 <1>   0.3430 
 19 C       -1.2590    -7.3500    -0.1270 C.3   1 <1>   0.1100 
 20 C        0.5490    -8.8750    -0.7390 C.3   1 <1>   0.1100 
 21 N       -0.7770    -8.7400    -0.1170 N.3   1 <1>  -0.9000 
 22 H        2.9130     0.6310    -1.0200 H     1 <1>   0.3700 
 23 H        3.5050    -1.5410    -0.9230 H     1 <1>   0.0800 
 24 H        1.5290     4.5240    -0.0400 H     1 <1>   0.0800 
 25 H       -0.1070     5.0550    -0.3260 H     1 <1>   0.0800 
 26 H        0.7790     4.2610    -1.6010 H     1 <1>   0.0800 
 27 H        0.8230     3.1390     1.9560 H     1 <1>   0.0800 
 28 H       -0.5480     2.0570     1.8200 H     1 <1>   0.0800 
 29 H       -0.7850     3.7700     1.7160 H     1 <1>   0.0800 
 30 H       -1.0140     2.4970    -1.8660 H     1 <1>   0.0800 
 31 H       -1.9300     3.3690    -0.6660 H     1 <1>   0.0800 
 32 H       -1.6390     1.6750    -0.4510 H     1 <1>   0.0800 
 33 H        1.5610    -1.9850    -2.2910 H     1 <1>   0.0800 
 34 H        0.5280    -2.0400    -0.8900 H     1 <1>   0.0800 
 35 H        1.7040    -1.5740     1.5000 H     1 <1>   0.0800 
 36 H        3.4150    -1.2470     1.4760 H     1 <1>   0.0800 
 37 H        2.7380    -3.9860    -1.5500 H     1 <1>   0.0800 
 38 H        1.0220    -4.2850    -1.5980 H     1 <1>   0.0800 
 39 H        2.9080    -3.5560     2.1940 H     1 <1>   0.0800 
 40 H        3.8820    -3.5260     0.7500 H     1 <1>   0.0800 
 41 H        0.8890    -3.9050     0.8590 H     1 <1>   0.0800 
 42 H        2.1310    -5.8560     1.6800 H     1 <1>   0.0800 
 43 H        3.1090    -5.8560     0.2380 H     1 <1>   0.0800 
 44 H        1.0520    -6.2090    -1.0390 H     1 <1>   0.4500 
 45 H       -0.6100    -5.3880     0.4670 H     1 <1>   0.0800 
 46 H       -0.2010    -6.6490     1.5980 H     1 <1>   0.0800 
 47 H        1.7210    -8.2830     0.9520 H     1 <1>   0.0800 
 48 H        2.5240    -8.0340    -0.5760 H     1 <1>   0.0800 
 49 H       -1.4370    -7.0300    -1.1400 H     1 <1>   0.0800 
 50 H       -2.1960    -7.3020     0.4030 H     1 <1>   0.0800 
 51 H        0.8780    -9.8970    -0.6410 H     1 <1>   0.0800 
 52 H        0.4870    -8.6490    -1.7900 H     1 <1>   0.0800 
 53 H       -1.4560    -9.3520    -0.6000 H     1 <1>   0.3600 
@<TRIPOS>BOND
  1   1   2  2   
  2   2   3  1   
  3   2   4  am  
  4   3   5  1   
  5   4   6  1   
  6   4  22  1   
  7   5   7  1   
  8   5   8  1   
  9   5   9  1   
 10   6  10  1   
 11   6  11  1   
 12   6  23  1   
 13   7  24  1   
 14   7  25  1   
 15   7  26  1   
 16   8  27  1   
 17   8  28  1   
 18   8  29  1   
 19   9  30  1   
 20   9  31  1   
 21   9  32  1   
 22  10  12  1   
 23  10  33  1   
 24  10  34  1   
 25  11  13  1   
 26  11  35  1   
 27  11  36  1   
 28  12  14  1   
 29  12  37  1   
 30  12  38  1   
 31  13  14  1   
 32  13  39  1   
 33  13  40  1   
 34  14  15  1   
 35  14  41  1   
 36  15  16  1   
 37  15  42  1   
 38  15  43  1   
 39  16  17  1   
 40  16  18  1   
 41  16  44  1   
 42  17  19  1   
 43  17  45  1   
 44  17  46  1   
 45  18  20  1   
 46  18  47  1   
 47  18  48  1   
 48  19  21  1   
 49  19  49  1   
 50  19  50  1   
 51  20  21  1   
 52  20  51  1   
 53  20  52  1   
 54  21  53  1   
@<TRIPOS>SUBSTRUCTURE
  1 ****  10 GROUP 4 **** **** 0

# MOE 2024.06 (io_trps.svl 2023.06)
