@<TRIPOS>MOLECULE
NONAME
48 49 1 0 0 
SMALL
USER_CHARGES


@<TRIPOS>ATOM
  1 S        0.6610     0.6680    -1.6620 S.o2  1 <1>   1.3330 
  2 O        0.9200    -0.6680    -2.1520 O.2   1 <1>  -0.6500 
  3 O       -0.0410     1.6130    -2.5000 O.2   1 <1>  -0.6500 
  4 N       -0.2250     0.5270    -0.2180 N.am  1 <1>  -0.8490 
  5 C        2.2220     1.3790    -1.1360 C.3   1 <1>  -0.0550 
  6 C       -0.8770     1.7770     0.1860 C.3   1 <1>   0.1160 
  7 C       -1.2190    -0.5490    -0.2840 C.3   1 <1>   0.1160 
  8 C        3.1020     0.4250    -0.2990 C.3   1 <1>  -0.0800 
  9 C        4.4940     0.9490     0.0150 C.3   1 <1>   0.2200 
 10 C        2.5540     0.0720     1.0900 C.3   1 <1>   0.1200 
 11 N        4.4420     2.3710     0.4340 N.am  1 <1>  -0.7300 
 12 C        4.8400     0.0970     1.2280 C.3   1 <1>   0.1200 
 13 O        3.6530     0.0130     1.9550 O.3   1 <1>  -0.5600 
 14 C        4.7490     3.4410    -0.3550 C.2   1 <1>   0.5440 
 15 O        5.0100     3.2250    -1.5210 O.2   1 <1>  -0.5700 
 16 C        4.7530     4.7940     0.1810 C.ar  1 <1>   0.0860 
 17 C        5.4360     5.8180    -0.4740 C.ar  1 <1>  -0.1500 
 18 C        4.0800     5.1300     1.3590 C.ar  1 <1>  -0.1500 
 19 C        5.4640     7.1120     0.0150 C.ar  1 <1>   0.0820 
 20 C        4.0990     6.4190     1.8600 C.ar  1 <1>  -0.1500 
 21 O        6.1630     8.0220    -0.7060 O.3   1 <1>  -0.3620 
 22 C        4.7900     7.4140     1.1940 C.ar  1 <1>  -0.1500 
 23 C        6.2460     9.3710    -0.3120 C.3   1 <1>   0.1200 
 24 C        7.0920    10.1130    -1.3410 C.3   1 <1>  -0.2400 
 25 H        2.7770     1.6550    -2.0130 H     1 <1>   0.0800 
 26 H        2.0330     2.2800    -0.5870 H     1 <1>   0.0800 
 27 H       -1.3450     1.6560     1.1480 H     1 <1>   0.0800 
 28 H       -1.6270     2.0610    -0.5350 H     1 <1>   0.0800 
 29 H       -0.1520     2.5690     0.2580 H     1 <1>   0.0800 
 30 H       -1.7560    -0.6200     0.6460 H     1 <1>   0.0800 
 31 H       -0.7300    -1.4930    -0.4620 H     1 <1>   0.0800 
 32 H       -1.9160    -0.3660    -1.0850 H     1 <1>   0.0800 
 33 H        3.2150    -0.4950    -0.8460 H     1 <1>   0.0800 
 34 H        5.1880     0.8130    -0.7980 H     1 <1>   0.0800 
 35 H        2.0520    -0.8800     1.0910 H     1 <1>   0.0800 
 36 H        1.8900     0.8330     1.4630 H     1 <1>   0.0800 
 37 H        4.2400     2.4950     1.4280 H     1 <1>   0.3700 
 38 H        5.6140     0.5300     1.8380 H     1 <1>   0.0800 
 39 H        5.1190    -0.8990     0.9300 H     1 <1>   0.0800 
 40 H        5.9610     5.6020    -1.3880 H     1 <1>   0.1500 
 41 H        3.5280     4.3790     1.8940 H     1 <1>   0.1500 
 42 H        3.5750     6.6510     2.7720 H     1 <1>   0.1500 
 43 H        4.7910     8.4070     1.6020 H     1 <1>   0.1500 
 44 H        5.2490     9.7770    -0.2750 H     1 <1>   0.0800 
 45 H        6.7050     9.4150     0.6610 H     1 <1>   0.0800 
 46 H        6.6330    10.0470    -2.3120 H     1 <1>   0.0800 
 47 H        8.0790     9.6880    -1.3820 H     1 <1>   0.0800 
 48 H        7.1740    11.1490    -1.0690 H     1 <1>   0.0800 
@<TRIPOS>BOND
  1   1   2  2   
  2   1   3  2   
  3   1   4  am  
  4   1   5  1   
  5   4   6  1   
  6   4   7  1   
  7   5   8  1   
  8   5  25  1   
  9   5  26  1   
 10   6  27  1   
 11   6  28  1   
 12   6  29  1   
 13   7  30  1   
 14   7  31  1   
 15   7  32  1   
 16   8   9  1   
 17   8  10  1   
 18   8  33  1   
 19   9  11  1   
 20   9  12  1   
 21   9  34  1   
 22  10  13  1   
 23  10  35  1   
 24  10  36  1   
 25  11  14  am  
 26  11  37  1   
 27  12  13  1   
 28  12  38  1   
 29  12  39  1   
 30  14  15  2   
 31  14  16  1   
 32  16  17  ar  
 33  16  18  ar  
 34  17  19  ar  
 35  17  40  1   
 36  18  20  ar  
 37  18  41  1   
 38  19  21  1   
 39  19  22  ar  
 40  20  22  ar  
 41  20  42  1   
 42  21  23  1   
 43  22  43  1   
 44  23  24  1   
 45  23  44  1   
 46  23  45  1   
 47  24  46  1   
 48  24  47  1   
 49  24  48  1   
@<TRIPOS>SUBSTRUCTURE
  1 ****  14 GROUP 4 **** **** 0

# MOE 2024.06 (io_trps.svl 2023.06)
