@<TRIPOS>MOLECULE
NONAME
51 53 1 0 0 
SMALL
USER_CHARGES


@<TRIPOS>ATOM
  1 O        2.6490    -0.6290    -1.9050 O.2   1 <1>  -0.5700 
  2 C        2.0380    -1.0460    -0.9390 C.2   1 <1>   0.5440 
  3 N        1.6830    -0.1820     0.0670 N.am  1 <1>  -0.4940 
  4 C        1.7050    -2.4520    -0.8420 C.ar  1 <1>   0.0860 
  5 C        1.8810     1.2110     0.2240 C.2   1 <1>  -0.0880 
  6 C        0.5230    -2.9190    -0.2470 C.ar  1 <1>   0.0830 
  7 C        2.5880    -3.4050    -1.3550 C.ar  1 <1>  -0.1500 
  8 N        3.0170     1.9370    -0.0150 N.pl3 1 <1>   0.3140 
  9 C        0.9510     2.0870     0.6770 C.2   1 <1>  -0.1810 
 10 O       -0.3800    -2.0290     0.2330 O.3   1 <1>  -0.3620 
 11 C        0.2570    -4.2860    -0.1400 C.ar  1 <1>   0.0830 
 12 C        2.3410    -4.7590    -1.2430 C.ar  1 <1>  -0.1500 
 13 N        2.8070     3.2540     0.2620 N.2   1 <1>  -0.7070 
 14 C        4.3610     1.4240    -0.4410 C.3   1 <1>   0.1760 
 15 C        1.5810     3.3230     0.6690 C.2   1 <1>   0.1390 
 16 C       -0.4820     1.8360     1.1070 C.3   1 <1>  -0.0590 
 17 C       -1.4370    -1.6810    -0.6340 C.3   1 <1>   0.0400 
 18 O       -0.9190    -4.6800     0.4290 O.3   1 <1>  -0.3630 
 19 C        1.1930    -5.2090    -0.6150 C.ar  1 <1>   0.0830 
 20 C        4.9070     0.3180     0.4790 C.3   1 <1>  -0.1600 
 21 C        5.4720     2.4820    -0.4580 C.3   1 <1>  -0.1600 
 22 C       -1.7950    -5.4500    -0.3680 C.3   1 <1>   0.0400 
 23 O        1.0460    -6.5460    -0.4880 O.3   1 <1>  -0.3630 
 24 C        6.4260     0.5230     0.5750 C.3   1 <1>  -0.1600 
 25 C        6.7610     1.6720    -0.3750 C.3   1 <1>  -0.1600 
 26 C        1.1170    -7.0700     0.8210 C.3   1 <1>   0.0400 
 27 H        0.9860    -0.5880     0.6990 H     1 <1>   0.3700 
 28 H        3.4880    -3.0710    -1.8440 H     1 <1>   0.1500 
 29 H        3.0400    -5.4760    -1.6360 H     1 <1>   0.1500 
 30 H        4.2720     1.0420    -1.4400 H     1 <1>   0.0800 
 31 H        1.1140     4.2470     0.9680 H     1 <1>   0.1500 
 32 H       -0.6950     0.7830     1.1300 H     1 <1>   0.0800 
 33 H       -1.1560     2.3110     0.4170 H     1 <1>   0.0800 
 34 H       -0.6450     2.2400     2.0890 H     1 <1>   0.0800 
 35 H       -2.0790    -0.9870    -0.1230 H     1 <1>   0.0800 
 36 H       -1.9880    -2.5680    -0.8890 H     1 <1>   0.0800 
 37 H       -1.0290    -1.2230    -1.5180 H     1 <1>   0.0800 
 38 H        4.6850    -0.6480     0.0640 H     1 <1>   0.0800 
 39 H        4.4710     0.3950     1.4600 H     1 <1>   0.0800 
 40 H        5.4020     3.1100     0.4140 H     1 <1>   0.0800 
 41 H        5.4300     3.0880    -1.3450 H     1 <1>   0.0800 
 42 H       -2.7600    -5.4550     0.1050 H     1 <1>   0.0800 
 43 H       -1.4230    -6.4550    -0.4400 H     1 <1>   0.0800 
 44 H       -1.8650    -5.0060    -1.3450 H     1 <1>   0.0800 
 45 H        6.9670    -0.3710     0.3120 H     1 <1>   0.0800 
 46 H        6.6840     0.8030     1.5820 H     1 <1>   0.0800 
 47 H        7.5880     2.2630    -0.0200 H     1 <1>   0.0800 
 48 H        6.9990     1.2780    -1.3480 H     1 <1>   0.0800 
 49 H        1.0320    -8.1400     0.7600 H     1 <1>   0.0800 
 50 H        0.3120    -6.6710     1.4100 H     1 <1>   0.0800 
 51 H        2.0650    -6.7990     1.2520 H     1 <1>   0.0800 
@<TRIPOS>BOND
  1   1   2  2   
  2   2   3  am  
  3   2   4  1   
  4   3   5  1   
  5   3  27  1   
  6   4   6  ar  
  7   4   7  ar  
  8   5   8  1   
  9   5   9  2   
 10   6  10  1   
 11   6  11  ar  
 12   7  12  ar  
 13   7  28  1   
 14   8  13  1   
 15   8  14  1   
 16   9  15  1   
 17   9  16  1   
 18  10  17  1   
 19  11  18  1   
 20  11  19  ar  
 21  12  19  ar  
 22  12  29  1   
 23  13  15  2   
 24  14  20  1   
 25  14  21  1   
 26  14  30  1   
 27  15  31  1   
 28  16  32  1   
 29  16  33  1   
 30  16  34  1   
 31  17  35  1   
 32  17  36  1   
 33  17  37  1   
 34  18  22  1   
 35  19  23  1   
 36  20  24  1   
 37  20  38  1   
 38  20  39  1   
 39  21  25  1   
 40  21  40  1   
 41  21  41  1   
 42  22  42  1   
 43  22  43  1   
 44  22  44  1   
 45  23  26  1   
 46  24  25  1   
 47  24  45  1   
 48  24  46  1   
 49  25  47  1   
 50  25  48  1   
 51  26  49  1   
 52  26  50  1   
 53  26  51  1   
@<TRIPOS>SUBSTRUCTURE
  1 ****   2 GROUP 4 **** **** 0

# MOE 2024.06 (io_trps.svl 2023.06)
