@<TRIPOS>MOLECULE
NONAME
50 53 1 0 0 
SMALL
USER_CHARGES


@<TRIPOS>ATOM
  1 O       -2.9300    -0.0470    -1.1130 O.co2 1 <1>  -0.9000 
  2 C       -3.0360    -0.0330     0.1160 C.2   1 <1>   0.9060 
  3 O       -3.4690    -1.0230     0.7190 O.co2 1 <1>  -0.9000 
  4 C       -2.9340     1.2870     0.8570 C.3   1 <1>   0.0140 
  5 O       -4.1520     1.5830     1.5460 O.3   1 <1>  -0.3630 
  6 C       -5.0310     2.4590     1.0200 C.ar  1 <1>   0.0830 
  7 C       -5.8630     2.1580    -0.0590 C.ar  1 <1>  -0.1440 
  8 C       -5.1260     3.6920     1.6410 C.ar  1 <1>  -0.1500 
  9 C       -6.7780     3.1120    -0.4760 C.ar  1 <1>  -0.1500 
 10 C       -5.8200     0.8430    -0.8280 C.3   1 <1>   0.4870 
 11 C       -6.0380     4.6310     1.2030 C.ar  1 <1>  -0.1500 
 12 C       -6.8980     4.3590     0.1390 C.ar  1 <1>   0.0000 
 13 N       -6.0210    -0.3490     0.0390 N.4   1 <1>  -0.9590 
 14 C       -7.8780     5.3260    -0.3220 C.ar  1 <1>   0.3100 
 15 C       -5.9880    -1.6060    -0.7590 C.3   1 <1>   0.3430 
 16 C       -7.1000    -0.2010     1.0510 C.3   1 <1>   0.3430 
 17 N       -8.1000     5.4170    -1.6350 N.ar  1 <1>  -0.6200 
 18 C       -8.5730     6.1270     0.5950 C.ar  1 <1>   0.1600 
 19 C       -7.4120    -2.0660    -1.0480 C.3   1 <1>  -0.1600 
 20 C       -7.6210    -1.5660     1.4880 C.3   1 <1>  -0.1600 
 21 C       -9.0010     6.3320    -1.9480 C.ar  1 <1>   0.1600 
 22 N       -9.4780     7.0400     0.2870 N.ar  1 <1>  -0.6200 
 23 C       -8.1340    -2.3650     0.2790 C.3   1 <1>   0.2580 
 24 C       -9.6680     7.1190    -1.0190 C.ar  1 <1>   0.1600 
 25 O       -8.0180    -3.7450     0.5810 O.3   1 <1>  -0.5160 
 26 C       -9.6580    -2.5560     0.1900 C.3   1 <1>   0.0000 
 27 C       -9.3070    -4.0390     0.0500 C.3   1 <1>   0.2580 
 28 H       -2.7130     2.0800     0.1670 H     1 <1>   0.0800 
 29 H       -2.1520     1.2110     1.5870 H     1 <1>   0.0800 
 30 H       -4.4760     3.9080     2.4710 H     1 <1>   0.1500 
 31 H       -7.4250     2.9030    -1.3110 H     1 <1>   0.1500 
 32 H       -4.8860     0.7690    -1.3540 H     1 <1>   0.0800 
 33 H       -6.5960     0.8610    -1.5740 H     1 <1>   0.0800 
 34 H       -6.0730     5.5880     1.6950 H     1 <1>   0.1500 
 35 H       -5.1150    -0.4350     0.5700 H     1 <1>   0.4500 
 36 H       -5.4780    -2.3680    -0.1880 H     1 <1>   0.0800 
 37 H       -5.4270    -1.4560    -1.6680 H     1 <1>   0.0800 
 38 H       -7.9130     0.3640     0.6260 H     1 <1>   0.0800 
 39 H       -6.7190     0.3420     1.9010 H     1 <1>   0.0800 
 40 H       -8.3670     5.9940     1.6410 H     1 <1>   0.1500 
 41 H       -7.3860    -2.9400    -1.6730 H     1 <1>   0.0800 
 42 H       -7.9240    -1.2890    -1.5840 H     1 <1>   0.0800 
 43 H       -8.3990    -1.4320     2.2160 H     1 <1>   0.0800 
 44 H       -6.8130    -2.0980     1.9610 H     1 <1>   0.0800 
 45 H       -9.2250     6.4670    -2.9910 H     1 <1>   0.1500 
 46 H      -10.3860     7.8400    -1.3690 H     1 <1>   0.1500 
 47 H      -10.1170    -2.1310    -0.6850 H     1 <1>   0.0000 
 48 H      -10.1920    -2.3390     1.0990 H     1 <1>   0.0000 
 49 H       -9.8430    -4.6980     0.7100 H     1 <1>   0.0000 
 50 H       -9.2180    -4.3880    -0.9640 H     1 <1>   0.0000 
@<TRIPOS>BOND
  1   1   2  ar  
  2   2   3  ar  
  3   2   4  1   
  4   4   5  1   
  5   4  28  1   
  6   4  29  1   
  7   5   6  1   
  8   6   7  ar  
  9   6   8  ar  
 10   7   9  ar  
 11   7  10  1   
 12   8  11  ar  
 13   8  30  1   
 14   9  12  ar  
 15   9  31  1   
 16  10  13  1   
 17  10  32  1   
 18  10  33  1   
 19  11  12  ar  
 20  11  34  1   
 21  12  14  1   
 22  13  15  1   
 23  13  16  1   
 24  13  35  1   
 25  14  17  ar  
 26  14  18  ar  
 27  15  19  1   
 28  15  36  1   
 29  15  37  1   
 30  16  20  1   
 31  16  38  1   
 32  16  39  1   
 33  17  21  ar  
 34  18  22  ar  
 35  18  40  1   
 36  19  23  1   
 37  19  41  1   
 38  19  42  1   
 39  20  23  1   
 40  20  43  1   
 41  20  44  1   
 42  21  24  ar  
 43  21  45  1   
 44  22  24  ar  
 45  23  25  1   
 46  23  26  1   
 47  24  46  1   
 48  25  27  1   
 49  26  27  1   
 50  26  47  1   
 51  26  48  1   
 52  27  49  1   
 53  27  50  1   
@<TRIPOS>SUBSTRUCTURE
  1 ****   7 GROUP 4 **** **** 0

# MOE 2024.06 (io_trps.svl 2023.06)
