@<TRIPOS>MOLECULE
NONAME
56 58 1 0 0 
SMALL
USER_CHARGES


@<TRIPOS>ATOM
  1 O       -1.7570     0.0840     1.9190 O.2   1 <1>  -0.5700 
  2 C       -1.9250     0.6150     0.8380 C.2   1 <1>   0.5440 
  3 N       -2.4190    -0.1220    -0.2130 N.am  1 <1>  -0.6600 
  4 C       -1.6200     2.0230     0.6750 C.ar  1 <1>   0.0860 
  5 C       -2.4930    -1.6190    -0.1090 C.3   1 <1>   0.3640 
  6 C       -3.0100     0.5500    -1.4110 C.3   1 <1>   0.1400 
  7 C       -0.4880     2.4770    -0.0150 C.ar  1 <1>  -0.1440 
  8 C       -2.4970     2.9660     1.2070 C.ar  1 <1>  -0.1500 
  9 C       -1.1190    -2.2170    -0.4340 C.ar  1 <1>  -0.1440 
 10 C       -3.5880    -2.2920    -0.9920 C.3   1 <1>   0.2000 
 11 C       -3.6740    -0.4210    -2.3950 C.3   1 <1>   0.1200 
 12 C       -0.2830     3.8430    -0.1990 C.ar  1 <1>   0.0830 
 13 C        0.5330     1.4760    -0.5640 C.3   1 <1>  -0.0970 
 14 C       -2.2870     4.3200     1.0400 C.ar  1 <1>  -0.1500 
 15 C       -0.5680    -3.1520     0.4310 C.ar  1 <1>  -0.1500 
 16 C       -0.4080    -1.8560    -1.5730 C.ar  1 <1>  -0.1500 
 17 O       -4.3940    -1.3820    -1.6950 O.3   1 <1>  -0.5600 
 18 C       -4.5310    -3.1760    -0.1650 C.3   1 <1>   0.1200 
 19 O        0.8100     4.2320    -0.9090 O.3   1 <1>  -0.3630 
 20 C       -1.1860     4.7600     0.3330 C.ar  1 <1>  -0.1500 
 21 C        0.6640    -3.7270     0.1680 C.ar  1 <1>   0.0830 
 22 C        0.8310    -2.4130    -1.8370 C.ar  1 <1>  -0.1500 
 23 O       -3.8300    -4.2170     0.4380 O.3   1 <1>  -0.6800 
 24 C        1.1630     5.5900    -1.0570 C.3   1 <1>   0.0400 
 25 O        1.1170    -4.6620     1.0390 O.3   1 <1>  -0.3630 
 26 C        1.3830    -3.3360    -0.9660 C.ar  1 <1>   0.0830 
 27 C        1.2200    -5.9790     0.5460 C.3   1 <1>   0.0400 
 28 O        2.6160    -3.8140    -1.2600 O.3   1 <1>  -0.3630 
 29 C        3.6480    -3.4660    -0.3630 C.3   1 <1>   0.0400 
 30 H       -2.7150    -1.8650     0.9150 H     1 <1>   0.0800 
 31 H       -3.7540     1.2510    -1.0760 H     1 <1>   0.0800 
 32 H       -2.2460     1.1070    -1.9250 H     1 <1>   0.0800 
 33 H       -3.3540     2.6200     1.7590 H     1 <1>   0.1500 
 34 H       -3.1140    -2.9140    -1.7310 H     1 <1>   0.0800 
 35 H       -2.9450    -0.9110    -3.0170 H     1 <1>   0.0800 
 36 H       -4.3600     0.1110    -3.0300 H     1 <1>   0.0800 
 37 H        0.5230     0.5540    -0.0110 H     1 <1>   0.0800 
 38 H        1.5290     1.8730    -0.4940 H     1 <1>   0.0800 
 39 H        0.3200     1.2650    -1.5950 H     1 <1>   0.0800 
 40 H       -2.9790     5.0290     1.4590 H     1 <1>   0.1500 
 41 H       -1.0950    -3.4480     1.3210 H     1 <1>   0.1500 
 42 H       -0.8090    -1.1330    -2.2570 H     1 <1>   0.1500 
 43 H       -5.2930    -3.6040    -0.7920 H     1 <1>   0.0800 
 44 H       -4.9920    -2.5950     0.6160 H     1 <1>   0.0800 
 45 H       -1.0490     5.8180     0.2100 H     1 <1>   0.1500 
 46 H        1.3820    -2.1270    -2.7150 H     1 <1>   0.1500 
 47 H       -3.4940    -4.8480    -0.2300 H     1 <1>   0.4000 
 48 H        2.0820     5.6370    -1.6130 H     1 <1>   0.0800 
 49 H        1.3040     6.0230    -0.0820 H     1 <1>   0.0800 
 50 H        0.3830     6.0970    -1.5970 H     1 <1>   0.0800 
 51 H        1.4980    -6.6220     1.3610 H     1 <1>   0.0800 
 52 H        1.9710    -6.0150    -0.2220 H     1 <1>   0.0800 
 53 H        0.2650    -6.2760     0.1500 H     1 <1>   0.0800 
 54 H        4.5800    -3.8090    -0.7720 H     1 <1>   0.0800 
 55 H        3.4690    -3.9370     0.5870 H     1 <1>   0.0800 
 56 H        3.6640    -2.3960    -0.2510 H     1 <1>   0.0800 
@<TRIPOS>BOND
  1   1   2  2   
  2   2   3  am  
  3   2   4  1   
  4   3   5  1   
  5   3   6  1   
  6   4   7  ar  
  7   4   8  ar  
  8   5   9  1   
  9   5  10  1   
 10   5  30  1   
 11   6  11  1   
 12   6  31  1   
 13   6  32  1   
 14   7  12  ar  
 15   7  13  1   
 16   8  14  ar  
 17   8  33  1   
 18   9  15  ar  
 19   9  16  ar  
 20  10  17  1   
 21  10  18  1   
 22  10  34  1   
 23  11  17  1   
 24  11  35  1   
 25  11  36  1   
 26  12  19  1   
 27  12  20  ar  
 28  13  37  1   
 29  13  38  1   
 30  13  39  1   
 31  14  20  ar  
 32  14  40  1   
 33  15  21  ar  
 34  15  41  1   
 35  16  22  ar  
 36  16  42  1   
 37  18  23  1   
 38  18  43  1   
 39  18  44  1   
 40  19  24  1   
 41  20  45  1   
 42  21  25  1   
 43  21  26  ar  
 44  22  26  ar  
 45  22  46  1   
 46  23  47  1   
 47  24  48  1   
 48  24  49  1   
 49  24  50  1   
 50  25  27  1   
 51  26  28  1   
 52  27  51  1   
 53  27  52  1   
 54  27  53  1   
 55  28  29  1   
 56  29  54  1   
 57  29  55  1   
 58  29  56  1   
@<TRIPOS>SUBSTRUCTURE
  1 ****   3 GROUP 4 **** **** 0

# MOE 2024.06 (io_trps.svl 2023.06)
