@<TRIPOS>MOLECULE
NONAME
59 62 1 0 0 
SMALL
USER_CHARGES


@<TRIPOS>ATOM
  1 O       -1.3840     0.5590    -0.2130 O.2   1 <1>  -0.5700 
  2 C       -2.2520     1.2340    -0.7350 C.2   1 <1>   0.5440 
  3 N       -3.2740     0.6010    -1.4090 N.am  1 <1>  -0.6600 
  4 C       -2.1750     2.6780    -0.6120 C.ar  1 <1>   0.0860 
  5 C       -3.1170    -0.8070    -1.8720 C.3   1 <1>   0.3200 
  6 C       -4.6080     1.2280    -1.6680 C.3   1 <1>   0.1400 
  7 C       -2.0230     3.2810     0.6340 C.ar  1 <1>  -0.1500 
  8 C       -2.2240     3.5140    -1.7270 C.ar  1 <1>  -0.1500 
  9 C       -3.5250    -1.7590    -0.7680 C.2   1 <1>  -0.3320 
 10 C       -5.7140     0.5760    -0.8280 C.3   1 <1>   0.1200 
 11 C       -1.9220     4.6530     0.7670 C.ar  1 <1>  -0.1500 
 12 C       -2.1220     4.8880    -1.6050 C.ar  1 <1>  -0.1500 
 13 N       -2.9160    -1.7580     0.4280 N.pl3 1 <1>   0.0330 
 14 C       -4.4690    -2.7250    -0.7110 C.2   1 <1>   0.0770 
 15 O       -6.8730     1.3300    -0.9440 O.3   1 <1>  -0.6800 
 16 C       -1.9600     5.4680    -0.3550 C.ar  1 <1>  -0.1430 
 17 C       -3.5320    -2.7200     1.1450 C.2   1 <1>   0.0060 
 18 N       -4.4720    -3.3240     0.4950 N.2   1 <1>  -0.5650 
 19 C       -1.8100     6.9730    -0.2200 C.3   1 <1>   0.4860 
 20 C       -3.1470    -3.0470     2.5710 C.3   1 <1>  -0.0600 
 21 N       -0.4010     7.2770     0.1400 N.4   1 <1>  -0.9590 
 22 C       -0.2070     8.7130     0.4750 C.3   1 <1>   0.4860 
 23 C        0.5770     6.8540    -0.9070 C.3   1 <1>   0.3430 
 24 C        1.2290     8.9590     0.9030 C.ar  1 <1>  -0.1430 
 25 C        1.9960     6.8760    -0.3330 C.3   1 <1>  -0.0170 
 26 C        2.2620     8.1100     0.5160 C.ar  1 <1>  -0.1430 
 27 C        1.5130    10.0660     1.6900 C.ar  1 <1>  -0.1500 
 28 C        3.5600     8.3780     0.9200 C.ar  1 <1>  -0.1500 
 29 C        2.8110    10.3270     2.0900 C.ar  1 <1>  -0.1500 
 30 C        3.8350     9.4840     1.7040 C.ar  1 <1>  -0.1500 
 31 H       -2.0880    -0.9880    -2.1360 H     1 <1>   0.0800 
 32 H       -3.7190    -0.9760    -2.7490 H     1 <1>   0.0800 
 33 H       -4.8510     1.1290    -2.7120 H     1 <1>   0.0800 
 34 H       -4.5760     2.2740    -1.4270 H     1 <1>   0.0800 
 35 H       -1.9800     2.6510     1.5080 H     1 <1>   0.1500 
 36 H       -2.3390     3.0700    -2.7020 H     1 <1>   0.1500 
 37 H       -5.4400     0.5260     0.2120 H     1 <1>   0.0800 
 38 H       -5.9330    -0.4120    -1.1920 H     1 <1>   0.0800 
 39 H       -1.8110     5.0700     1.7550 H     1 <1>   0.1500 
 40 H       -2.1670     5.4940    -2.4950 H     1 <1>   0.1500 
 41 H       -2.1500    -1.1260     0.7000 H     1 <1>   0.2700 
 42 H       -5.1590    -3.0270    -1.4810 H     1 <1>   0.1500 
 43 H       -6.8570     2.0920    -0.3330 H     1 <1>   0.4000 
 44 H       -2.4760     7.3270     0.5510 H     1 <1>   0.0800 
 45 H       -2.0720     7.4540    -1.1480 H     1 <1>   0.0800 
 46 H       -3.2730    -2.1800     3.1940 H     1 <1>   0.0800 
 47 H       -2.1240    -3.3700     2.6110 H     1 <1>   0.0800 
 48 H       -3.7750    -3.8360     2.9450 H     1 <1>   0.0800 
 49 H       -0.1670     6.7460     0.9880 H     1 <1>   0.4500 
 50 H       -0.8680     8.9970     1.2780 H     1 <1>   0.0800 
 51 H       -0.4280     9.3270    -0.3830 H     1 <1>   0.0800 
 52 H        0.5220     7.5270    -1.7470 H     1 <1>   0.0800 
 53 H        0.3560     5.8570    -1.2530 H     1 <1>   0.0800 
 54 H        2.7000     6.8330    -1.1450 H     1 <1>   0.0800 
 55 H        2.1460     5.9970     0.2690 H     1 <1>   0.0800 
 56 H        0.7330    10.7410     2.0020 H     1 <1>   0.1500 
 57 H        4.3700     7.7290     0.6300 H     1 <1>   0.1500 
 58 H        3.0270    11.1880     2.7010 H     1 <1>   0.1500 
 59 H        4.8460     9.6880     2.0150 H     1 <1>   0.1500 
@<TRIPOS>BOND
  1   1   2  2   
  2   2   3  am  
  3   2   4  1   
  4   3   5  1   
  5   3   6  1   
  6   4   7  ar  
  7   4   8  ar  
  8   5   9  1   
  9   5  31  1   
 10   5  32  1   
 11   6  10  1   
 12   6  33  1   
 13   6  34  1   
 14   7  11  ar  
 15   7  35  1   
 16   8  12  ar  
 17   8  36  1   
 18   9  13  1   
 19   9  14  2   
 20  10  15  1   
 21  10  37  1   
 22  10  38  1   
 23  11  16  ar  
 24  11  39  1   
 25  12  16  ar  
 26  12  40  1   
 27  13  17  1   
 28  13  41  1   
 29  14  18  1   
 30  14  42  1   
 31  15  43  1   
 32  16  19  1   
 33  17  18  2   
 34  17  20  1   
 35  19  21  1   
 36  19  44  1   
 37  19  45  1   
 38  20  46  1   
 39  20  47  1   
 40  20  48  1   
 41  21  22  1   
 42  21  23  1   
 43  21  49  1   
 44  22  24  1   
 45  22  50  1   
 46  22  51  1   
 47  23  25  1   
 48  23  52  1   
 49  23  53  1   
 50  24  26  ar  
 51  24  27  ar  
 52  25  26  1   
 53  25  54  1   
 54  25  55  1   
 55  26  28  ar  
 56  27  29  ar  
 57  27  56  1   
 58  28  30  ar  
 59  28  57  1   
 60  29  30  ar  
 61  29  58  1   
 62  30  59  1   
@<TRIPOS>SUBSTRUCTURE
  1 ****   7 GROUP 4 **** **** 0

# MOE 2024.06 (io_trps.svl 2023.06)
