@<TRIPOS>MOLECULE
NONAME
47 49 1 0 0 
SMALL
USER_CHARGES


@<TRIPOS>ATOM
  1 O       -0.4790    -0.1530    -0.0740 O.3   1 <1>  -0.2800 
  2 C       -0.8050     1.0520     0.2720 C.2   1 <1>   0.2980 
  3 C       -1.4360    -0.8860     0.4000 C.2   1 <1>   0.2980 
  4 N       -1.9040     1.0830     0.9250 N.2   1 <1>  -0.3380 
  5 C        0.1050     2.2170    -0.1180 C.3   1 <1>   0.1000 
  6 N       -2.3160    -0.1830     1.0110 N.2   1 <1>  -0.3380 
  7 C       -1.3730    -2.3990     0.1750 C.3   1 <1>   0.2900 
  8 C        1.4330     2.1470     0.6500 C.3   1 <1>  -0.2400 
  9 C       -0.5610     3.5820     0.1150 C.3   1 <1>  -0.2400 
 10 N       -2.6580    -3.1330     0.3090 N.3   1 <1>  -0.8100 
 11 C       -2.4430    -4.5850     0.2800 C.3   1 <1>   0.1100 
 12 C       -3.6490    -2.6960    -0.6890 C.3   1 <1>   0.1100 
 13 C       -3.7550    -5.3180     0.5710 C.3   1 <1>  -0.1600 
 14 C       -4.9920    -3.3760    -0.4210 C.3   1 <1>  -0.1600 
 15 C       -4.8380    -4.8950    -0.4250 C.3   1 <1>   0.2000 
 16 O       -6.0620    -5.4400    -0.0510 O.3   1 <1>  -0.5600 
 17 C       -6.2900    -6.7570    -0.4770 C.3   1 <1>   0.2630 
 18 C       -7.6620    -7.2770    -0.0500 C.ar  1 <1>   0.1670 
 19 N       -7.9720    -8.4870    -0.5030 N.ar  1 <1>  -0.6200 
 20 C       -8.5050    -6.5220     0.7560 C.ar  1 <1>  -0.1500 
 21 C       -9.1570    -8.9530    -0.1410 C.ar  1 <1>   0.1600 
 22 C       -9.7350    -7.0210     1.1240 C.ar  1 <1>  -0.1500 
 23 C      -10.0620    -8.2750     0.6560 C.ar  1 <1>  -0.1500 
 24 H        0.3140     2.1230    -1.1690 H     1 <1>   0.0800 
 25 H       -0.6740    -2.7930     0.8910 H     1 <1>   0.0800 
 26 H       -0.9710    -2.5770    -0.8060 H     1 <1>   0.0800 
 27 H        1.2530     2.2210     1.7080 H     1 <1>   0.0800 
 28 H        2.0830     2.9490     0.3510 H     1 <1>   0.0800 
 29 H        1.9280     1.2130     0.4510 H     1 <1>   0.0800 
 30 H       -0.7810     3.7180     1.1600 H     1 <1>   0.0800 
 31 H       -1.4830     3.6400    -0.4360 H     1 <1>   0.0800 
 32 H        0.0850     4.3780    -0.2110 H     1 <1>   0.0800 
 33 H       -1.7210    -4.8570     1.0320 H     1 <1>   0.0800 
 34 H       -2.0630    -4.8810    -0.6840 H     1 <1>   0.0800 
 35 H       -3.3050    -2.9360    -1.6810 H     1 <1>   0.0800 
 36 H       -3.7920    -1.6300    -0.6280 H     1 <1>   0.0800 
 37 H       -4.0700    -5.0760     1.5710 H     1 <1>   0.0800 
 38 H       -3.5810    -6.3750     0.5100 H     1 <1>   0.0800 
 39 H       -5.6980    -3.0830    -1.1750 H     1 <1>   0.0800 
 40 H       -5.3570    -3.0490     0.5370 H     1 <1>   0.0800 
 41 H       -4.5900    -5.2240    -1.4210 H     1 <1>   0.0800 
 42 H       -5.5320    -7.3940    -0.0590 H     1 <1>   0.0800 
 43 H       -6.2260    -6.7830    -1.5500 H     1 <1>   0.0800 
 44 H       -8.2030    -5.5470     1.0970 H     1 <1>   0.1500 
 45 H       -9.4230    -9.9320    -0.5020 H     1 <1>   0.1500 
 46 H      -10.4060    -6.4560     1.7480 H     1 <1>   0.1500 
 47 H      -11.0060    -8.7230     0.9050 H     1 <1>   0.1500 
@<TRIPOS>BOND
  1   1   2  1   
  2   1   3  1   
  3   2   4  2   
  4   2   5  1   
  5   3   6  2   
  6   3   7  1   
  7   4   6  1   
  8   5   8  1   
  9   5   9  1   
 10   5  24  1   
 11   7  10  1   
 12   7  25  1   
 13   7  26  1   
 14   8  27  1   
 15   8  28  1   
 16   8  29  1   
 17   9  30  1   
 18   9  31  1   
 19   9  32  1   
 20  10  11  1   
 21  10  12  1   
 22  11  13  1   
 23  11  33  1   
 24  11  34  1   
 25  12  14  1   
 26  12  35  1   
 27  12  36  1   
 28  13  15  1   
 29  13  37  1   
 30  13  38  1   
 31  14  15  1   
 32  14  39  1   
 33  14  40  1   
 34  15  16  1   
 35  15  41  1   
 36  16  17  1   
 37  17  18  1   
 38  17  42  1   
 39  17  43  1   
 40  18  19  ar  
 41  18  20  ar  
 42  19  21  ar  
 43  20  22  ar  
 44  20  44  1   
 45  21  23  ar  
 46  21  45  1   
 47  22  23  ar  
 48  22  46  1   
 49  23  47  1   
@<TRIPOS>SUBSTRUCTURE
  1 ****  14 GROUP 4 **** **** 0

# MOE 2024.06 (io_trps.svl 2023.06)
