@<TRIPOS>MOLECULE
NONAME
53 56 1 0 0 
SMALL
USER_CHARGES


@<TRIPOS>ATOM
  1 O       -0.2860     1.0170    -0.3480 O.2   1 <1>  -0.5700 
  2 C       -1.3860     1.5030    -0.2220 C.2   1 <1>   0.5690 
  3 N       -2.5200     0.8280    -0.6090 N.am  1 <1>  -0.6600 
  4 C       -1.4830     2.9000     0.3900 C.3   1 <1>  -0.0990 
  5 C       -3.9040     1.3360    -0.3570 C.3   1 <1>   0.2200 
  6 C       -2.3850    -0.4880    -1.3100 C.3   1 <1>   0.0600 
  7 C       -0.1400     3.6500     0.4890 C.3   1 <1>  -0.1600 
  8 C       -4.8980     0.2910     0.1490 C.3   1 <1>  -0.1600 
  9 C       -4.5560     1.8990    -1.6140 C.3   1 <1>  -0.1600 
 10 C       -0.3150     5.0460     1.1060 C.3   1 <1>   0.0200 
 11 C       -6.2710     0.9040    -0.1510 C.3   1 <1>  -0.0800 
 12 C       -6.0580     1.9130    -1.2960 C.3   1 <1>  -0.0800 
 13 C        0.9950     5.8090     1.1550 C.2   1 <1>   0.2980 
 14 C       -6.8560     1.7010     1.0240 C.3   1 <1>  -0.1600 
 15 C       -6.5590     3.2700    -0.7800 C.3   1 <1>  -0.1600 
 16 O        1.9530     5.3740     1.9320 O.3   1 <1>  -0.0190 
 17 N        1.2590     6.8630     0.5020 N.2   1 <1>  -0.5650 
 18 C       -7.4790     2.9290     0.3820 C.3   1 <1>   0.2000 
 19 N        2.9130     6.2250     1.7560 N.2   1 <1>  -0.4100 
 20 C        2.5080     7.1050     0.9100 C.2   1 <1>   0.4620 
 21 O       -7.5110     3.9710     1.2820 O.3   1 <1>  -0.6800 
 22 C        3.2810     8.2360     0.4340 C.ar  1 <1>   0.0540 
 23 C        4.5800     8.4850     0.8610 C.ar  1 <1>  -0.1500 
 24 C        2.7900     9.1570    -0.4820 C.ar  1 <1>  -0.1500 
 25 C        5.2800     9.5750     0.3810 C.ar  1 <1>   0.1600 
 26 C        3.5710    10.2160    -0.9020 C.ar  1 <1>   0.1600 
 27 N        4.8070    10.4490    -0.4920 N.ar  1 <1>  -0.6200 
 28 H       -2.1530     3.4850    -0.2120 H     1 <1>   0.0800 
 29 H       -1.9010     2.7990     1.3740 H     1 <1>   0.0800 
 30 H       -3.8820     2.1170     0.3820 H     1 <1>   0.0800 
 31 H       -3.1170    -0.5790    -2.0920 H     1 <1>   0.0800 
 32 H       -2.5150    -1.2880    -0.6040 H     1 <1>   0.0800 
 33 H       -1.4090    -0.5820    -1.7550 H     1 <1>   0.0800 
 34 H        0.5470     3.0760     1.0890 H     1 <1>   0.0800 
 35 H        0.2870     3.7450    -0.4950 H     1 <1>   0.0800 
 36 H       -4.8180    -0.6220    -0.4110 H     1 <1>   0.0800 
 37 H       -4.7590     0.0780     1.1940 H     1 <1>   0.0800 
 38 H       -4.1770     2.8740    -1.8620 H     1 <1>   0.0800 
 39 H       -4.3860     1.2380    -2.4440 H     1 <1>   0.0800 
 40 H       -0.7000     4.9610     2.1060 H     1 <1>   0.0800 
 41 H       -1.0180     5.6130     0.5220 H     1 <1>   0.0800 
 42 H       -6.9710     0.1430    -0.4540 H     1 <1>   0.0800 
 43 H       -6.6300     1.6190    -2.1600 H     1 <1>   0.0800 
 44 H       -6.0720     1.9990     1.6990 H     1 <1>   0.0800 
 45 H       -7.5910     1.1260     1.5590 H     1 <1>   0.0800 
 46 H       -7.0880     3.8080    -1.5460 H     1 <1>   0.0800 
 47 H       -5.7340     3.8640    -0.4280 H     1 <1>   0.0800 
 48 H       -8.4800     2.7260     0.0400 H     1 <1>   0.0800 
 49 H       -6.6130     4.1610     1.6080 H     1 <1>   0.4000 
 50 H        5.0460     7.8260     1.5700 H     1 <1>   0.1500 
 51 H        1.7940     9.0470    -0.8710 H     1 <1>   0.1500 
 52 H        6.2850     9.7400     0.7330 H     1 <1>   0.1500 
 53 H        3.1590    10.9120    -1.6130 H     1 <1>   0.1500 
@<TRIPOS>BOND
  1   1   2  2   
  2   2   3  am  
  3   2   4  1   
  4   3   5  1   
  5   3   6  1   
  6   4   7  1   
  7   4  28  1   
  8   4  29  1   
  9   5   8  1   
 10   5   9  1   
 11   5  30  1   
 12   6  31  1   
 13   6  32  1   
 14   6  33  1   
 15   7  10  1   
 16   7  34  1   
 17   7  35  1   
 18   8  11  1   
 19   8  36  1   
 20   8  37  1   
 21   9  12  1   
 22   9  38  1   
 23   9  39  1   
 24  10  13  1   
 25  10  40  1   
 26  10  41  1   
 27  11  12  1   
 28  11  14  1   
 29  11  42  1   
 30  12  15  1   
 31  12  43  1   
 32  13  16  1   
 33  13  17  2   
 34  14  18  1   
 35  14  44  1   
 36  14  45  1   
 37  15  18  1   
 38  15  46  1   
 39  15  47  1   
 40  16  19  1   
 41  17  20  1   
 42  18  21  1   
 43  18  48  1   
 44  19  20  2   
 45  20  22  1   
 46  21  49  1   
 47  22  23  ar  
 48  22  24  ar  
 49  23  25  ar  
 50  23  50  1   
 51  24  26  ar  
 52  24  51  1   
 53  25  27  ar  
 54  25  52  1   
 55  26  27  ar  
 56  26  53  1   
@<TRIPOS>SUBSTRUCTURE
  1 ****   7 GROUP 4 **** **** 0

# MOE 2024.06 (io_trps.svl 2023.06)
