@<TRIPOS>MOLECULE
NONAME
55 57 1 0 0 
SMALL
USER_CHARGES


@<TRIPOS>ATOM
  1 O       -2.1800    -0.2140     2.2710 O.2   1 <1>  -0.5700 
  2 C       -2.1380     0.4020     1.2230 C.2   1 <1>   0.5440 
  3 N       -2.4320    -0.2450     0.0450 N.am  1 <1>  -0.6600 
  4 C       -1.7940     1.8110     1.2300 C.ar  1 <1>   0.0860 
  5 C       -2.6280    -1.7310    -0.0120 C.3   1 <1>   0.3640 
  6 C       -2.7000     0.5100    -1.2140 C.3   1 <1>   0.1400 
  7 C       -0.5240     2.2830     0.8690 C.ar  1 <1>  -0.1440 
  8 C       -2.7630     2.7440     1.5960 C.ar  1 <1>  -0.1500 
  9 C       -1.3000    -2.4030    -0.4100 C.ar  1 <1>  -0.1440 
 10 C       -3.8400    -2.0790    -0.9240 C.3   1 <1>   0.2000 
 11 C       -2.9050    -0.4160    -2.4220 C.3   1 <1>   0.1200 
 12 C       -0.2650     3.6450     0.8670 C.ar  1 <1>  -0.1500 
 13 C        0.6030     1.3260     0.4880 C.3   1 <1>  -0.0170 
 14 C       -2.4990     4.1000     1.5910 C.ar  1 <1>  -0.1500 
 15 C       -0.2350    -2.3180     0.4790 C.ar  1 <1>  -0.1500 
 16 C       -1.1070    -3.1010    -1.6000 C.ar  1 <1>  -0.1500 
 17 O       -3.8630    -1.4130    -2.1750 O.3   1 <1>  -0.5600 
 18 C       -5.1740    -1.7700    -0.2280 C.3   1 <1>   0.1200 
 19 C       -1.2460     4.5530     1.2230 C.ar  1 <1>  -0.1500 
 20 C        1.3150     0.8050     1.7390 C.3   1 <1>  -0.2400 
 21 C        0.9930    -2.8890     0.1930 C.ar  1 <1>   0.0830 
 22 C        0.1190    -3.6710    -1.8990 C.ar  1 <1>  -0.1500 
 23 O       -5.4230    -2.6980     0.7790 O.3   1 <1>  -0.6800 
 24 O        1.9700    -2.7770     1.1240 O.3   1 <1>  -0.3630 
 25 C        1.1810    -3.5560    -1.0200 C.ar  1 <1>   0.0830 
 26 C        2.2860    -3.9600     1.8210 C.3   1 <1>   0.0400 
 27 O        2.3620    -4.1090    -1.3920 O.3   1 <1>  -0.3630 
 28 C        3.4630    -3.2360    -1.5220 C.3   1 <1>   0.0400 
 29 H       -2.8660    -2.0930     0.9730 H     1 <1>   0.0800 
 30 H       -3.5820     1.1110    -1.0820 H     1 <1>   0.0800 
 31 H       -1.8760     1.1700    -1.4200 H     1 <1>   0.0800 
 32 H       -3.7350     2.3900     1.8920 H     1 <1>   0.1500 
 33 H       -3.8260    -3.1310    -1.1400 H     1 <1>   0.0800 
 34 H       -1.9760    -0.8860    -2.6890 H     1 <1>   0.0800 
 35 H       -3.2420     0.1540    -3.2690 H     1 <1>   0.0800 
 36 H        0.7100     4.0100     0.5940 H     1 <1>   0.1500 
 37 H        0.2240     0.4950    -0.0800 H     1 <1>   0.0800 
 38 H        1.3180     1.8320    -0.1370 H     1 <1>   0.0800 
 39 H       -3.2640     4.8020     1.8770 H     1 <1>   0.1500 
 40 H       -0.3530    -1.8060     1.4170 H     1 <1>   0.1500 
 41 H       -1.9000    -3.2110    -2.3180 H     1 <1>   0.1500 
 42 H       -5.9870    -1.8190    -0.9320 H     1 <1>   0.0800 
 43 H       -5.1460    -0.7930     0.2230 H     1 <1>   0.0800 
 44 H       -1.0330     5.6080     1.2180 H     1 <1>   0.1500 
 45 H        0.6200     0.2880     2.3770 H     1 <1>   0.0800 
 46 H        1.7450     1.6210     2.2910 H     1 <1>   0.0800 
 47 H        2.0960     0.1200     1.4610 H     1 <1>   0.0800 
 48 H        0.2600    -4.2040    -2.8220 H     1 <1>   0.1500 
 49 H       -5.6670    -3.5660     0.4030 H     1 <1>   0.4000 
 50 H        3.0370    -3.7300     2.5530 H     1 <1>   0.0800 
 51 H        2.6580    -4.6910     1.1260 H     1 <1>   0.0800 
 52 H        1.3960    -4.3240     2.3050 H     1 <1>   0.0800 
 53 H        4.2560    -3.7670    -2.0150 H     1 <1>   0.0800 
 54 H        3.7860    -2.9210    -0.5460 H     1 <1>   0.0800 
 55 H        3.1660    -2.3860    -2.1100 H     1 <1>   0.0800 
@<TRIPOS>BOND
  1   1   2  2   
  2   2   3  am  
  3   2   4  1   
  4   3   5  1   
  5   3   6  1   
  6   4   7  ar  
  7   4   8  ar  
  8   5   9  1   
  9   5  10  1   
 10   5  29  1   
 11   6  11  1   
 12   6  30  1   
 13   6  31  1   
 14   7  12  ar  
 15   7  13  1   
 16   8  14  ar  
 17   8  32  1   
 18   9  15  ar  
 19   9  16  ar  
 20  10  17  1   
 21  10  18  1   
 22  10  33  1   
 23  11  17  1   
 24  11  34  1   
 25  11  35  1   
 26  12  19  ar  
 27  12  36  1   
 28  13  20  1   
 29  13  37  1   
 30  13  38  1   
 31  14  19  ar  
 32  14  39  1   
 33  15  21  ar  
 34  15  40  1   
 35  16  22  ar  
 36  16  41  1   
 37  18  23  1   
 38  18  42  1   
 39  18  43  1   
 40  19  44  1   
 41  20  45  1   
 42  20  46  1   
 43  20  47  1   
 44  21  24  1   
 45  21  25  ar  
 46  22  25  ar  
 47  22  48  1   
 48  23  49  1   
 49  24  26  1   
 50  25  27  1   
 51  26  50  1   
 52  26  51  1   
 53  26  52  1   
 54  27  28  1   
 55  28  53  1   
 56  28  54  1   
 57  28  55  1   
@<TRIPOS>SUBSTRUCTURE
  1 ****   3 GROUP 4 **** **** 0

# MOE 2024.06 (io_trps.svl 2023.06)
