@<TRIPOS>MOLECULE
NONAME
45 46 1 0 0 
SMALL
USER_CHARGES


@<TRIPOS>ATOM
  1 S        1.0190     0.2230     0.1280 S.o2  1 <1>   1.3330 
  2 O        1.9200     0.1470     1.2560 O.2   1 <1>  -0.6500 
  3 O        1.5240     0.0140    -1.2100 O.2   1 <1>  -0.6500 
  4 N       -0.2520    -0.8740     0.3820 N.am  1 <1>  -0.8490 
  5 C        0.1940     1.8110     0.1960 C.3   1 <1>  -0.0550 
  6 C       -0.9940    -1.2010    -0.8410 C.3   1 <1>   0.1160 
  7 C        0.2000    -2.1060     1.0350 C.3   1 <1>   0.1160 
  8 C        1.1630     3.0020     0.1120 C.3   1 <1>  -0.0800 
  9 C        0.4480     4.3430     0.2480 C.3   1 <1>   0.2000 
 10 C        1.9090     3.1200    -1.2200 C.3   1 <1>   0.1400 
 11 O        0.2290     4.6320     1.5840 O.3   1 <1>  -0.6800 
 12 C        1.3740     5.3620    -0.4110 C.3   1 <1>   0.1400 
 13 N        2.1760     4.5700    -1.3780 N.am  1 <1>  -0.6600 
 14 C        3.1410     5.0520    -2.2220 C.2   1 <1>   0.5690 
 15 O        3.7740     4.3130    -2.9380 O.2   1 <1>  -0.5700 
 16 C        3.4500     6.5420    -2.2900 C.3   1 <1>   0.0440 
 17 C        4.0100     7.0970    -0.9820 C.ar  1 <1>  -0.1440 
 18 C        5.0480     6.4380    -0.3350 C.ar  1 <1>  -0.1500 
 19 C        3.4850     8.2590    -0.4260 C.ar  1 <1>  -0.1500 
 20 C        5.5270     6.9500     0.8550 C.ar  1 <1>   0.1900 
 21 C        3.9770     8.7620     0.7700 C.ar  1 <1>  -0.1500 
 22 F        6.5010     6.3230     1.4670 F     1 <1>  -0.1900 
 23 C        5.0050     8.1050     1.4210 C.ar  1 <1>   0.0820 
 24 O        5.4790     8.5910     2.5840 O.3   1 <1>  -0.5330 
 25 H       -0.5230     1.8760    -0.5980 H     1 <1>   0.0800 
 26 H       -0.3400     1.8760     1.1250 H     1 <1>   0.0800 
 27 H       -1.8380    -1.8250    -0.6050 H     1 <1>   0.0800 
 28 H       -0.3580    -1.7200    -1.5400 H     1 <1>   0.0800 
 29 H       -1.3570    -0.3010    -1.3070 H     1 <1>   0.0800 
 30 H       -0.6320    -2.7710     1.1950 H     1 <1>   0.0800 
 31 H        0.6350    -1.8780     1.9930 H     1 <1>   0.0800 
 32 H        0.9400    -2.6020     0.4280 H     1 <1>   0.0800 
 33 H        1.9070     2.9130     0.8860 H     1 <1>   0.0800 
 34 H       -0.5020     4.3350    -0.2580 H     1 <1>   0.0800 
 35 H        1.2990     2.7860    -2.0420 H     1 <1>   0.0800 
 36 H        2.8290     2.5570    -1.2120 H     1 <1>   0.0800 
 37 H        1.0700     4.6120     2.0830 H     1 <1>   0.4000 
 38 H        2.0290     5.8040     0.3190 H     1 <1>   0.0800 
 39 H        0.8080     6.1230    -0.9190 H     1 <1>   0.0800 
 40 H        4.1700     6.7080    -3.0700 H     1 <1>   0.0800 
 41 H        2.5510     7.0600    -2.5660 H     1 <1>   0.0800 
 42 H        5.4800     5.5390    -0.7410 H     1 <1>   0.1500 
 43 H        2.6870     8.7860    -0.9210 H     1 <1>   0.1500 
 44 H        3.5690     9.6610     1.1990 H     1 <1>   0.1500 
 45 H        6.2090     8.0430     2.9330 H     1 <1>   0.4500 
@<TRIPOS>BOND
  1   1   2  2   
  2   1   3  2   
  3   1   4  am  
  4   1   5  1   
  5   4   6  1   
  6   4   7  1   
  7   5   8  1   
  8   5  25  1   
  9   5  26  1   
 10   6  27  1   
 11   6  28  1   
 12   6  29  1   
 13   7  30  1   
 14   7  31  1   
 15   7  32  1   
 16   8   9  1   
 17   8  10  1   
 18   8  33  1   
 19   9  11  1   
 20   9  12  1   
 21   9  34  1   
 22  10  13  1   
 23  10  35  1   
 24  10  36  1   
 25  11  37  1   
 26  12  13  1   
 27  12  38  1   
 28  12  39  1   
 29  13  14  am  
 30  14  15  2   
 31  14  16  1   
 32  16  17  1   
 33  16  40  1   
 34  16  41  1   
 35  17  18  ar  
 36  17  19  ar  
 37  18  20  ar  
 38  18  42  1   
 39  19  21  ar  
 40  19  43  1   
 41  20  22  1   
 42  20  23  ar  
 43  21  23  ar  
 44  21  44  1   
 45  23  24  1   
 46  24  45  1   
@<TRIPOS>SUBSTRUCTURE
  1 ****  13 GROUP 4 **** **** 0

# MOE 2024.06 (io_trps.svl 2023.06)
