@<TRIPOS>MOLECULE
Untitled Document
56 58 1 0 0 
SMALL
USER_CHARGES


@<TRIPOS>ATOM
  1 O        0.0870    -1.0650    -1.9890 O.2   1 <1>  -0.5700 
  2 C       -0.0700    -1.4960    -0.8670 C.2   1 <1>   0.5440 
  3 N       -1.3350    -1.7490    -0.3950 N.am  1 <1>  -0.5470 
  4 C        1.0690    -1.6590     0.0170 C.ar  1 <1>   0.0860 
  5 C       -2.6090    -1.2960    -0.7850 C.ar  1 <1>   0.1170 
  6 C        2.2080    -0.8740    -0.1680 C.ar  1 <1>  -0.1500 
  7 C        1.0690    -2.5330     1.1090 C.ar  1 <1>  -0.1500 
  8 C       -2.9440     0.0310    -1.1070 C.ar  1 <1>  -0.1440 
  9 C       -3.6180    -2.2530    -0.7760 C.ar  1 <1>  -0.1500 
 10 C        3.2600    -0.8830     0.7260 C.ar  1 <1>   0.0830 
 11 C        2.1230    -2.5720     2.0040 C.ar  1 <1>  -0.1500 
 12 C       -4.2660     0.3450    -1.3920 C.ar  1 <1>  -0.1500 
 13 C       -1.9340     1.1760    -1.1920 C.3   1 <1>  -0.0170 
 14 C       -4.9280    -1.9260    -1.0640 C.ar  1 <1>  -0.1500 
 15 O        4.2700    -0.0110     0.4730 O.3   1 <1>  -0.3630 
 16 C        3.2130    -1.7340     1.8350 C.ar  1 <1>   0.0830 
 17 C       -5.2540    -0.6210    -1.3690 C.ar  1 <1>  -0.1500 
 18 C       -1.2650     1.5200     0.1530 C.3   1 <1>  -0.1600 
 19 C        5.5990    -0.4950     0.4830 C.3   1 <1>   0.0400 
 20 O        4.1840    -1.7520     2.7650 O.3   1 <1>  -0.5320 
 21 C        0.1930     1.9820    -0.0320 C.3   1 <1>   0.4230 
 22 N        0.8650     2.2530     1.2820 N.4   1 <1>  -0.9590 
 23 C        0.2810     3.2560    -0.8910 C.3   1 <1>  -0.1600 
 24 C        2.3090     2.5770     1.0820 C.3   1 <1>   0.3430 
 25 C        0.7640     1.1440     2.2810 C.3   1 <1>   0.2630 
 26 C        1.7300     3.7180    -1.0930 C.3   1 <1>  -0.1600 
 27 C        2.4440     3.8530     0.2550 C.3   1 <1>  -0.1600 
 28 H       -1.3790    -2.4680     0.3220 H     1 <1>   0.3700 
 29 H        2.2730    -0.2330    -1.0300 H     1 <1>   0.1500 
 30 H        0.2370    -3.1960     1.2680 H     1 <1>   0.1500 
 31 H       -3.3800    -3.2750    -0.5450 H     1 <1>   0.1500 
 32 H        2.0890    -3.2540     2.8360 H     1 <1>   0.1500 
 33 H       -4.5480     1.3530    -1.6420 H     1 <1>   0.1500 
 34 H       -2.4200     2.0620    -1.5640 H     1 <1>   0.0800 
 35 H       -1.2070     0.9210    -1.9370 H     1 <1>   0.0800 
 36 H       -5.6920    -2.6840    -1.0520 H     1 <1>   0.1500 
 37 H       -6.2730    -0.3570    -1.5940 H     1 <1>   0.1500 
 38 H       -1.2900     0.6400     0.7640 H     1 <1>   0.0800 
 39 H       -1.8440     2.2800     0.6470 H     1 <1>   0.0800 
 40 H        6.2060     0.1750    -0.1000 H     1 <1>   0.0800 
 41 H        5.6210    -1.4800     0.0500 H     1 <1>   0.0800 
 42 H        5.9580    -0.5180     1.4950 H     1 <1>   0.0800 
 43 H        4.0880    -2.4520     3.4370 H     1 <1>   0.4500 
 44 H        0.7270     1.1970    -0.5420 H     1 <1>   0.0800 
 45 H        0.4180     3.0910     1.6710 H     1 <1>   0.4500 
 46 H       -0.2930     4.0430    -0.4330 H     1 <1>   0.0800 
 47 H       -0.1430     3.0750    -1.8620 H     1 <1>   0.0800 
 48 H        2.7970     1.7650     0.5690 H     1 <1>   0.0800 
 49 H        2.7950     2.7140     2.0350 H     1 <1>   0.0800 
 50 H        1.1850     0.2380     1.8810 H     1 <1>   0.0800 
 51 H       -0.2650     0.9630     2.5440 H     1 <1>   0.0800 
 52 H        1.3020     1.4020     3.1790 H     1 <1>   0.0800 
 53 H        1.7460     4.6610    -1.6140 H     1 <1>   0.0800 
 54 H        2.2510     2.9980    -1.7030 H     1 <1>   0.0800 
 55 H        3.4880     4.0520     0.0860 H     1 <1>   0.0800 
 56 H        2.0420     4.6850     0.8070 H     1 <1>   0.0800 
@<TRIPOS>BOND
  1   1   2  2   
  2   2   3  am  
  3   2   4  1   
  4   3   5  1   
  5   3  28  1   
  6   4   6  ar  
  7   4   7  ar  
  8   5   8  ar  
  9   5   9  ar  
 10   6  10  ar  
 11   6  29  1   
 12   7  11  ar  
 13   7  30  1   
 14   8  12  ar  
 15   8  13  1   
 16   9  14  ar  
 17   9  31  1   
 18  10  15  1   
 19  10  16  ar  
 20  11  16  ar  
 21  11  32  1   
 22  12  17  ar  
 23  12  33  1   
 24  13  18  1   
 25  13  34  1   
 26  13  35  1   
 27  14  17  ar  
 28  14  36  1   
 29  15  19  1   
 30  16  20  1   
 31  17  37  1   
 32  18  21  1   
 33  18  38  1   
 34  18  39  1   
 35  19  40  1   
 36  19  41  1   
 37  19  42  1   
 38  20  43  1   
 39  21  22  1   
 40  21  23  1   
 41  21  44  1   
 42  22  24  1   
 43  22  25  1   
 44  22  45  1   
 45  23  26  1   
 46  23  46  1   
 47  23  47  1   
 48  24  27  1   
 49  24  48  1   
 50  24  49  1   
 51  25  50  1   
 52  25  51  1   
 53  25  52  1   
 54  26  27  1   
 55  26  53  1   
 56  26  54  1   
 57  27  55  1   
 58  27  56  1   
@<TRIPOS>SUBSTRUCTURE
  1 ****   2 GROUP 4 **** **** 0

# MOE 2024.06 (io_trps.svl 2023.06)
