@<TRIPOS>MOLECULE
NONAME
45 48 1 0 0 
SMALL
USER_CHARGES


@<TRIPOS>ATOM
  1 O       -0.2490     0.2940     0.5120 O.2   1 <1>  -0.5700 
  2 C       -1.2880     0.9250     0.5380 C.2   1 <1>   0.5440 
  3 N       -2.4770     0.2340     0.4700 N.am  1 <1>  -0.6600 
  4 C       -1.2540     2.3720     0.6210 C.ar  1 <1>   0.0860 
  5 C       -3.7610     0.8140     0.0020 C.3   1 <1>   0.1400 
  6 C       -2.5190    -1.2480     0.4060 C.3   1 <1>   0.1400 
  7 C       -0.4220     3.1150    -0.2170 C.ar  1 <1>  -0.1500 
  8 C       -2.0410     3.0720     1.5410 C.ar  1 <1>  -0.1500 
  9 C       -4.5220    -0.3650    -0.6030 C.3   1 <1>   0.2000 
 10 C       -3.9770    -1.6020     0.1060 C.3   1 <1>  -0.0800 
 11 C       -0.3920     4.4950    -0.1570 C.ar  1 <1>   0.0830 
 12 C       -2.0220     4.4540     1.6070 C.ar  1 <1>  -0.1500 
 13 O       -5.8880    -0.2570    -0.3960 O.3   1 <1>  -0.6800 
 14 C       -4.1380    -2.8880    -0.7180 C.3   1 <1>   0.0200 
 15 O        0.4420     5.1710    -0.9870 O.3   1 <1>  -0.3630 
 16 C       -1.2060     5.1730     0.7530 C.ar  1 <1>   0.0830 
 17 C       -3.5190    -4.0720    -0.0010 C.2   1 <1>  -0.0400 
 18 C        0.7050     6.5240    -0.6650 C.3   1 <1>   0.1200 
 19 O       -1.2140     6.5250     0.8160 O.3   1 <1>  -0.3630 
 20 O       -3.9960    -4.4620     1.1510 O.3   1 <1>  -0.0190 
 21 C       -2.4910    -4.8750    -0.3150 C.2   1 <1>  -0.1500 
 22 C       -0.5910     7.2300    -0.2420 C.3   1 <1>   0.1200 
 23 N       -3.3410    -5.4800     1.6270 N.2   1 <1>  -0.4100 
 24 C       -2.4280    -5.7520     0.7640 C.2   1 <1>   0.1080 
 25 C       -1.4240    -6.8730     0.9130 C.3   1 <1>  -0.0590 
 26 H       -4.2940     1.2190     0.8440 H     1 <1>   0.0800 
 27 H       -3.5910     1.5790    -0.7360 H     1 <1>   0.0800 
 28 H       -1.8680    -1.5820    -0.3840 H     1 <1>   0.0800 
 29 H       -2.1910    -1.6770     1.3380 H     1 <1>   0.0800 
 30 H        0.2110     2.6040    -0.9200 H     1 <1>   0.1500 
 31 H       -2.6700     2.5180     2.2150 H     1 <1>   0.1500 
 32 H       -4.3410    -0.4070    -1.6640 H     1 <1>   0.0800 
 33 H       -4.4740    -1.7210     1.0530 H     1 <1>   0.0800 
 34 H       -2.6350     4.9820     2.3150 H     1 <1>   0.1500 
 35 H       -6.0920    -0.2890     0.5590 H     1 <1>   0.4000 
 36 H       -3.6680    -2.7710    -1.6780 H     1 <1>   0.0800 
 37 H       -5.1840    -3.0840    -0.8800 H     1 <1>   0.0800 
 38 H        1.4210     6.5430     0.1380 H     1 <1>   0.0800 
 39 H        1.1320     6.9940    -1.5320 H     1 <1>   0.0800 
 40 H       -1.8490    -4.8720    -1.1750 H     1 <1>   0.1500 
 41 H       -1.2800     7.2710    -1.0670 H     1 <1>   0.0800 
 42 H       -0.3890     8.2290     0.0990 H     1 <1>   0.0800 
 43 H       -1.5190    -7.5590     0.0910 H     1 <1>   0.0800 
 44 H       -1.6000    -7.4030     1.8310 H     1 <1>   0.0800 
 45 H       -0.4280    -6.4710     0.9280 H     1 <1>   0.0800 
@<TRIPOS>BOND
  1   1   2  2   
  2   2   3  am  
  3   2   4  1   
  4   3   5  1   
  5   3   6  1   
  6   4   7  ar  
  7   4   8  ar  
  8   5   9  1   
  9   5  26  1   
 10   5  27  1   
 11   6  10  1   
 12   6  28  1   
 13   6  29  1   
 14   7  11  ar  
 15   7  30  1   
 16   8  12  ar  
 17   8  31  1   
 18   9  10  1   
 19   9  13  1   
 20   9  32  1   
 21  10  14  1   
 22  10  33  1   
 23  11  15  1   
 24  11  16  ar  
 25  12  16  ar  
 26  12  34  1   
 27  13  35  1   
 28  14  17  1   
 29  14  36  1   
 30  14  37  1   
 31  15  18  1   
 32  16  19  1   
 33  17  20  1   
 34  17  21  2   
 35  18  22  1   
 36  18  38  1   
 37  18  39  1   
 38  19  22  1   
 39  20  23  1   
 40  21  24  1   
 41  21  40  1   
 42  22  41  1   
 43  22  42  1   
 44  23  24  2   
 45  24  25  1   
 46  25  43  1   
 47  25  44  1   
 48  25  45  1   
@<TRIPOS>SUBSTRUCTURE
  1 ****   3 GROUP 4 **** **** 0

# MOE 2024.06 (io_trps.svl 2023.06)
