@<TRIPOS>MOLECULE
NONAME
44 45 1 0 0 
SMALL
USER_CHARGES


@<TRIPOS>ATOM
  1 S        0.1270     0.0970     0.4440 S.o2  1 <1>   1.3330 
  2 O        0.6510     0.3550     1.7660 O.2   1 <1>  -0.6500 
  3 O       -1.0710    -0.7000     0.2980 O.2   1 <1>  -0.6500 
  4 N        1.3620    -0.6320    -0.4640 N.am  1 <1>  -0.8490 
  5 C       -0.1460     1.6350    -0.4350 C.3   1 <1>  -0.0550 
  6 C        2.6990    -0.1290    -0.1260 C.3   1 <1>   0.1160 
  7 C        1.3380    -2.0930    -0.3530 C.3   1 <1>   0.1160 
  8 C       -1.1070     2.6020     0.2870 C.3   1 <1>  -0.0800 
  9 C       -1.5840     3.6960    -0.6720 C.3   1 <1>   0.2000 
 10 C       -0.3650     3.3870     1.3760 C.3   1 <1>   0.1400 
 11 O       -2.7180     4.2800    -0.1320 O.3   1 <1>  -0.6800 
 12 C       -0.4560     4.7290    -0.6630 C.3   1 <1>   0.1400 
 13 N        0.1840     4.5710     0.6690 N.am  1 <1>  -0.6600 
 14 C        1.3170     5.2310     1.0820 C.2   1 <1>   0.5440 
 15 O        1.7640     4.9900     2.1860 O.2   1 <1>  -0.5700 
 16 C        1.9620     6.2100     0.2360 C.ar  1 <1>   0.0860 
 17 C        2.7650     5.8050    -0.8280 C.ar  1 <1>   0.1900 
 18 C        1.8130     7.5890     0.4280 C.ar  1 <1>  -0.1440 
 19 F        2.9290     4.5290    -1.0560 F     1 <1>  -0.1900 
 20 C        3.4010     6.6890    -1.6760 C.ar  1 <1>  -0.1500 
 21 C        2.4450     8.4880    -0.4190 C.ar  1 <1>  -0.1500 
 22 C        0.9580     8.1150     1.5740 C.3   1 <1>  -0.0970 
 23 C        3.2360     8.0460    -1.4670 C.ar  1 <1>  -0.1500 
 24 H        0.7930     2.1270    -0.5990 H     1 <1>   0.0800 
 25 H       -0.5530     1.3900    -1.3970 H     1 <1>   0.0800 
 26 H        3.4330    -0.5570    -0.7880 H     1 <1>   0.0800 
 27 H        2.9530    -0.3850     0.8900 H     1 <1>   0.0800 
 28 H        2.7350     0.9420    -0.2280 H     1 <1>   0.0800 
 29 H        2.1230    -2.5260    -0.9500 H     1 <1>   0.0800 
 30 H        0.3960    -2.4750    -0.7090 H     1 <1>   0.0800 
 31 H        1.4660    -2.3930     0.6740 H     1 <1>   0.0800 
 32 H       -1.9390     2.0450     0.6860 H     1 <1>   0.0800 
 33 H       -1.8280     3.3410    -1.6590 H     1 <1>   0.0800 
 34 H        0.4230     2.8200     1.8440 H     1 <1>   0.0800 
 35 H       -1.0490     3.7200     2.1370 H     1 <1>   0.0800 
 36 H       -2.4880     4.6980     0.7220 H     1 <1>   0.4000 
 37 H       -0.8270     5.7290    -0.8100 H     1 <1>   0.0800 
 38 H        0.2590     4.4920    -1.4310 H     1 <1>   0.0800 
 39 H        4.0130     6.3230    -2.4820 H     1 <1>   0.1500 
 40 H        2.3290     9.5480    -0.2670 H     1 <1>   0.1500 
 41 H        0.9200     9.1900     1.5720 H     1 <1>   0.0800 
 42 H        1.3690     7.7920     2.5150 H     1 <1>   0.0800 
 43 H       -0.0470     7.7390     1.4920 H     1 <1>   0.0800 
 44 H        3.7220     8.7570    -2.1140 H     1 <1>   0.1500 
@<TRIPOS>BOND
  1   1   2  2   
  2   1   3  2   
  3   1   4  am  
  4   1   5  1   
  5   4   6  1   
  6   4   7  1   
  7   5   8  1   
  8   5  24  1   
  9   5  25  1   
 10   6  26  1   
 11   6  27  1   
 12   6  28  1   
 13   7  29  1   
 14   7  30  1   
 15   7  31  1   
 16   8   9  1   
 17   8  10  1   
 18   8  32  1   
 19   9  11  1   
 20   9  12  1   
 21   9  33  1   
 22  10  13  1   
 23  10  34  1   
 24  10  35  1   
 25  11  36  1   
 26  12  13  1   
 27  12  37  1   
 28  12  38  1   
 29  13  14  am  
 30  14  15  2   
 31  14  16  1   
 32  16  17  ar  
 33  16  18  ar  
 34  17  19  1   
 35  17  20  ar  
 36  18  21  ar  
 37  18  22  1   
 38  20  23  ar  
 39  20  39  1   
 40  21  23  ar  
 41  21  40  1   
 42  22  41  1   
 43  22  42  1   
 44  22  43  1   
 45  23  44  1   
@<TRIPOS>SUBSTRUCTURE
  1 ****  13 GROUP 4 **** **** 0

# MOE 2024.06 (io_trps.svl 2023.06)
