@<TRIPOS>MOLECULE
NONAME
45 47 1 0 0 
SMALL
USER_CHARGES


@<TRIPOS>ATOM
  1 O        1.1880     0.7700     1.2990 O.3   1 <1>  -0.0190 
  2 N        1.5300    -0.3360     0.7040 N.2   1 <1>  -0.4100 
  3 C        0.9830     1.7400     0.4480 C.2   1 <1>  -0.0400 
  4 C        1.5420    -0.0760    -0.5530 C.2   1 <1>   0.1080 
  5 C        1.1960     1.2520    -0.7850 C.2   1 <1>  -0.1500 
  6 C        0.5780     3.1040     0.9810 C.3   1 <1>   0.0200 
  7 C        1.8850    -1.0870    -1.6250 C.3   1 <1>  -0.0590 
  8 C        0.6190     4.2050    -0.0960 C.3   1 <1>  -0.0800 
  9 C        0.0920     5.5710     0.3500 C.3   1 <1>   0.2000 
 10 C        2.0340     4.4950    -0.6300 C.3   1 <1>   0.1100 
 11 O        0.5400     5.8440     1.6300 O.3   1 <1>  -0.6800 
 12 C        0.8290     6.5140    -0.5890 C.3   1 <1>   0.1100 
 13 N        2.1920     5.9590    -0.6410 N.3   1 <1>  -0.8100 
 14 C        2.9500     6.4480    -1.8090 C.3   1 <1>   0.2900 
 15 C        3.0770     7.9640    -1.7960 C.2   1 <1>   0.0070 
 16 N        2.6610     8.7220    -2.7540 N.2   1 <1>  -0.3380 
 17 N        3.6190     8.6790    -0.8010 N.pl3 1 <1>   0.0480 
 18 N        2.9230     9.9800    -2.4020 N.2   1 <1>  -0.3380 
 19 C        3.4870     9.9310    -1.2450 C.2   1 <1>   0.0360 
 20 C        4.2070     8.2190     0.4840 C.3   1 <1>   0.1760 
 21 C        3.3460     8.6930     1.6600 C.3   1 <1>  -0.2400 
 22 C        5.6490     8.7200     0.6220 C.3   1 <1>  -0.2400 
 23 H        1.1270     1.7270    -1.7450 H     1 <1>   0.1500 
 24 H       -0.4170     3.0330     1.3850 H     1 <1>   0.0800 
 25 H        1.2380     3.3600     1.7910 H     1 <1>   0.0800 
 26 H        1.0700    -1.1740    -2.3190 H     1 <1>   0.0800 
 27 H        2.0660    -2.0480    -1.1780 H     1 <1>   0.0800 
 28 H        2.7690    -0.7760    -2.1500 H     1 <1>   0.0800 
 29 H        0.0150     3.8870    -0.9260 H     1 <1>   0.0800 
 30 H       -0.9800     5.6640     0.3200 H     1 <1>   0.0800 
 31 H        2.1400     4.0850    -1.6200 H     1 <1>   0.0800 
 32 H        2.7890     4.0630     0.0070 H     1 <1>   0.0800 
 33 H        1.5110     5.9590     1.5570 H     1 <1>   0.4000 
 34 H        0.8190     7.5290    -0.2310 H     1 <1>   0.0800 
 35 H        0.3750     6.4800    -1.5660 H     1 <1>   0.0800 
 36 H        3.9350     6.0160    -1.8040 H     1 <1>   0.0800 
 37 H        2.4570     6.1490    -2.7180 H     1 <1>   0.0800 
 38 H        3.8160    10.7890    -0.6890 H     1 <1>   0.1500 
 39 H        4.2220     7.1440     0.4850 H     1 <1>   0.0800 
 40 H        3.3210     9.7670     1.7110 H     1 <1>   0.0800 
 41 H        3.7470     8.3180     2.5850 H     1 <1>   0.0800 
 42 H        2.3420     8.3220     1.5570 H     1 <1>   0.0800 
 43 H        5.6820     9.7940     0.6680 H     1 <1>   0.0800 
 44 H        6.2400     8.3830    -0.2110 H     1 <1>   0.0800 
 45 H        6.0870     8.3300     1.5240 H     1 <1>   0.0800 
@<TRIPOS>BOND
  1   1   2  1   
  2   1   3  1   
  3   2   4  2   
  4   3   5  2   
  5   3   6  1   
  6   4   5  1   
  7   4   7  1   
  8   5  23  1   
  9   6   8  1   
 10   6  24  1   
 11   6  25  1   
 12   7  26  1   
 13   7  27  1   
 14   7  28  1   
 15   8   9  1   
 16   8  10  1   
 17   8  29  1   
 18   9  11  1   
 19   9  12  1   
 20   9  30  1   
 21  10  13  1   
 22  10  31  1   
 23  10  32  1   
 24  11  33  1   
 25  12  13  1   
 26  12  34  1   
 27  12  35  1   
 28  13  14  1   
 29  14  15  1   
 30  14  36  1   
 31  14  37  1   
 32  15  16  2   
 33  15  17  1   
 34  16  18  1   
 35  17  19  1   
 36  17  20  1   
 37  18  19  2   
 38  19  38  1   
 39  20  21  1   
 40  20  22  1   
 41  20  39  1   
 42  21  40  1   
 43  21  41  1   
 44  21  42  1   
 45  22  43  1   
 46  22  44  1   
 47  22  45  1   
@<TRIPOS>SUBSTRUCTURE
  1 ****  13 GROUP 4 **** **** 0

# MOE 2024.06 (io_trps.svl 2023.06)
