@<TRIPOS>MOLECULE
NONAME
50 52 1 0 0 
SMALL
USER_CHARGES


@<TRIPOS>ATOM
  1 O        3.5470    -0.4070     0.6920 O.2   1 <1>  -0.5700 
  2 C        3.0230    -0.8270    -0.3150 C.2   1 <1>   0.5690 
  3 N        2.9260    -0.0220    -1.4110 N.am  1 <1>  -0.6600 
  4 C        2.5660    -2.2770    -0.3890 C.3   1 <1>  -0.0190 
  5 C        3.8540    -0.2330    -2.5650 C.3   1 <1>   0.1400 
  6 C        2.3420     1.3470    -1.3100 C.3   1 <1>   0.1400 
  7 C        1.5250    -2.5250     0.7170 C.3   1 <1>   0.0960 
  8 C        3.7580    -3.2510    -0.2960 C.3   1 <1>  -0.2400 
  9 C        5.3120     0.1270    -2.1880 C.3   1 <1>   0.3430 
 10 C        3.3180     2.3710    -0.7070 C.3   1 <1>  -0.1600 
 11 N        0.8870    -3.8470     0.5700 N.pl3 1 <1>   0.3140 
 12 N        5.3760     1.0620    -1.0120 N.4   1 <1>  -0.9590 
 13 C        4.7280     2.3700    -1.3030 C.3   1 <1>   0.3430 
 14 N        0.1880    -4.1850    -0.5040 N.2   1 <1>  -0.7070 
 15 C        0.8930    -4.8800     1.4180 C.2   1 <1>   0.0360 
 16 C        6.7540     1.1670    -0.4390 C.3   1 <1>   0.3430 
 17 C       -0.1770    -5.3940    -0.2280 C.2   1 <1>   0.3660 
 18 N        0.2330    -5.8770     0.9520 N.2   1 <1>  -0.5650 
 19 C        6.7350     1.6670     1.0080 C.3   1 <1>   0.0960 
 20 N        8.1210     1.7240     1.4900 N.pl3 1 <1>   0.0480 
 21 C        8.9520     2.7900     1.5030 C.2   1 <1>   0.0360 
 22 C        8.8690     0.7000     1.9380 C.2   1 <1>  -0.3020 
 23 N       10.1460     2.5160     1.9110 N.2   1 <1>  -0.5650 
 24 C       10.0970     1.2020     2.1920 C.2   1 <1>   0.0770 
 25 H        2.0790    -2.4150    -1.3400 H     1 <1>   0.0800 
 26 H        3.5380     0.3730    -3.3970 H     1 <1>   0.0800 
 27 H        3.8100    -1.2590    -2.8880 H     1 <1>   0.0800 
 28 H        1.4570     1.3030    -0.6960 H     1 <1>   0.0800 
 29 H        2.0300     1.6700    -2.2900 H     1 <1>   0.0800 
 30 H        0.7500    -1.7830     0.6600 H     1 <1>   0.0800 
 31 H        1.9860    -2.4630     1.6860 H     1 <1>   0.0800 
 32 H        4.2490    -3.1610     0.6570 H     1 <1>   0.0800 
 33 H        4.4730    -3.0460    -1.0720 H     1 <1>   0.0800 
 34 H        3.4240    -4.2690    -0.4160 H     1 <1>   0.0800 
 35 H        5.8140     0.5530    -3.0410 H     1 <1>   0.0800 
 36 H        5.8230    -0.7880    -1.9350 H     1 <1>   0.0800 
 37 H        3.3770     2.2250     0.3570 H     1 <1>   0.0800 
 38 H        2.8940     3.3490    -0.8520 H     1 <1>   0.0800 
 39 H        4.7570     0.6100    -0.3000 H     1 <1>   0.4500 
 40 H        5.2950     3.1710    -0.8570 H     1 <1>   0.0800 
 41 H        4.6830     2.5420    -2.3660 H     1 <1>   0.0800 
 42 H        1.3930    -4.8590     2.3690 H     1 <1>   0.1500 
 43 H        7.3510     1.8300    -1.0440 H     1 <1>   0.0800 
 44 H        7.2170     0.1930    -0.4480 H     1 <1>   0.0800 
 45 H       -0.7770    -5.9980    -0.8910 H     1 <1>   0.1500 
 46 H        6.1800     0.9910     1.6350 H     1 <1>   0.0800 
 47 H        6.3080     2.6510     1.0740 H     1 <1>   0.0800 
 48 H        8.6400     3.7730     1.1960 H     1 <1>   0.1500 
 49 H        8.5110    -0.3060     2.0610 H     1 <1>   0.1500 
 50 H       10.9630     0.6800     2.5690 H     1 <1>   0.1500 
@<TRIPOS>BOND
  1   1   2  2   
  2   2   3  am  
  3   2   4  1   
  4   3   5  1   
  5   3   6  1   
  6   4   7  1   
  7   4   8  1   
  8   4  25  1   
  9   5   9  1   
 10   5  26  1   
 11   5  27  1   
 12   6  10  1   
 13   6  28  1   
 14   6  29  1   
 15   7  11  1   
 16   7  30  1   
 17   7  31  1   
 18   8  32  1   
 19   8  33  1   
 20   8  34  1   
 21   9  12  1   
 22   9  35  1   
 23   9  36  1   
 24  10  13  1   
 25  10  37  1   
 26  10  38  1   
 27  11  14  1   
 28  11  15  1   
 29  12  13  1   
 30  12  16  1   
 31  12  39  1   
 32  13  40  1   
 33  13  41  1   
 34  14  17  2   
 35  15  18  2   
 36  15  42  1   
 37  16  19  1   
 38  16  43  1   
 39  16  44  1   
 40  17  18  1   
 41  17  45  1   
 42  19  20  1   
 43  19  46  1   
 44  19  47  1   
 45  20  21  1   
 46  20  22  1   
 47  21  23  2   
 48  21  48  1   
 49  22  24  2   
 50  22  49  1   
 51  23  24  1   
 52  24  50  1   
@<TRIPOS>SUBSTRUCTURE
  1 ****   1 GROUP 4 **** **** 0

# MOE 2024.06 (io_trps.svl 2023.06)
