@<TRIPOS>MOLECULE
NONAME
44 47 1 0 0 
SMALL
USER_CHARGES


@<TRIPOS>ATOM
  1 O       -0.0950     1.7610     1.5950 O.2   1 <1>  -0.5700 
  2 C       -1.1860     2.2670     1.7030 C.2   1 <1>   0.5690 
  3 N       -2.1220     2.1930     0.7060 N.am  1 <1>  -0.6600 
  4 C       -1.4900     2.9950     2.9920 C.3   1 <1>  -0.1790 
  5 C       -3.4510     2.8930     0.7530 C.3   1 <1>   0.1400 
  6 C       -1.8310     1.3840    -0.5160 C.3   1 <1>   0.1400 
  7 C       -3.8930     3.3560    -0.6480 C.3   1 <1>   0.1430 
  8 C       -3.1230     0.9570    -1.2250 C.3   1 <1>  -0.1600 
  9 C       -5.2010     4.1220    -0.5730 C.ar  1 <1>   0.1660 
 10 C       -4.0380     2.1420    -1.6000 C.3   1 <1>  -0.1600 
 11 C       -2.9270     4.4240    -1.2320 C.3   1 <1>  -0.1600 
 12 N       -6.2700     3.7330     0.0790 N.ar  1 <1>  -0.6200 
 13 C       -5.1440     5.2890    -1.2700 C.ar  1 <1>  -0.1440 
 14 C       -3.7980     5.4900    -1.9190 C.3   1 <1>  -0.0170 
 15 C       -7.3250     4.5580     0.0190 C.ar  1 <1>   0.6200 
 16 C       -6.2640     6.0790    -1.2840 C.ar  1 <1>   0.1600 
 17 N       -7.3540     5.7240    -0.6440 N.ar  1 <1>  -0.6200 
 18 C       -8.5310     4.1570     0.7320 C.ar  1 <1>   0.0000 
 19 C       -9.4400     5.0980     1.2250 C.ar  1 <1>  -0.1500 
 20 C       -8.8370     2.8110     0.9580 C.ar  1 <1>  -0.1500 
 21 C      -10.5860     4.7220     1.9020 C.ar  1 <1>  -0.1500 
 22 C       -9.9800     2.4260     1.6350 C.ar  1 <1>  -0.1500 
 23 C      -10.8590     3.3820     2.1090 C.ar  1 <1>  -0.1500 
 24 H       -2.4200     2.6490     3.4010 H     1 <1>   0.0800 
 25 H       -1.5400     4.0510     2.8090 H     1 <1>   0.0800 
 26 H       -0.7090     2.8050     3.7050 H     1 <1>   0.0800 
 27 H       -3.4070     3.7480     1.4030 H     1 <1>   0.0800 
 28 H       -4.1870     2.2150     1.1490 H     1 <1>   0.0800 
 29 H       -1.2710     0.5060    -0.2380 H     1 <1>   0.0800 
 30 H       -1.2190     1.9660    -1.1820 H     1 <1>   0.0800 
 31 H       -3.6550     0.2940    -0.5660 H     1 <1>   0.0800 
 32 H       -2.8790     0.3960    -2.1100 H     1 <1>   0.0800 
 33 H       -3.8410     2.4500    -2.6120 H     1 <1>   0.0800 
 34 H       -5.0550     1.7890    -1.5760 H     1 <1>   0.0800 
 35 H       -2.2040     4.0060    -1.9100 H     1 <1>   0.0800 
 36 H       -2.3910     4.8970    -0.4270 H     1 <1>   0.0800 
 37 H       -3.8740     5.2990    -2.9750 H     1 <1>   0.0800 
 38 H       -3.4160     6.4830    -1.7510 H     1 <1>   0.0800 
 39 H       -6.2680     7.0110    -1.8230 H     1 <1>   0.1500 
 40 H       -9.2450     6.1460     1.0730 H     1 <1>   0.1500 
 41 H       -8.1670     2.0510     0.5950 H     1 <1>   0.1500 
 42 H      -11.2650     5.4720     2.2680 H     1 <1>   0.1500 
 43 H      -10.1870     1.3820     1.7920 H     1 <1>   0.1500 
 44 H      -11.7500     3.0860     2.6360 H     1 <1>   0.1500 
@<TRIPOS>BOND
  1   1   2  2   
  2   2   3  am  
  3   2   4  1   
  4   3   5  1   
  5   3   6  1   
  6   4  24  1   
  7   4  25  1   
  8   4  26  1   
  9   5   7  1   
 10   5  27  1   
 11   5  28  1   
 12   6   8  1   
 13   6  29  1   
 14   6  30  1   
 15   7   9  1   
 16   7  10  1   
 17   7  11  1   
 18   8  10  1   
 19   8  31  1   
 20   8  32  1   
 21   9  12  ar  
 22   9  13  ar  
 23  10  33  1   
 24  10  34  1   
 25  11  14  1   
 26  11  35  1   
 27  11  36  1   
 28  12  15  ar  
 29  13  14  1   
 30  13  16  ar  
 31  14  37  1   
 32  14  38  1   
 33  15  17  ar  
 34  15  18  1   
 35  16  17  ar  
 36  16  39  1   
 37  18  19  ar  
 38  18  20  ar  
 39  19  21  ar  
 40  19  40  1   
 41  20  22  ar  
 42  20  41  1   
 43  21  23  ar  
 44  21  42  1   
 45  22  23  ar  
 46  22  43  1   
 47  23  44  1   
@<TRIPOS>SUBSTRUCTURE
  1 ****  12 GROUP 4 **** **** 0

# MOE 2024.06 (io_trps.svl 2023.06)
