@<TRIPOS>MOLECULE
NONAME
46 48 1 0 0 
SMALL
USER_CHARGES


@<TRIPOS>ATOM
  1 S        0.7180    -0.3210     2.1210 S.o2  1 <1>   1.4470 
  2 O        0.1650     0.6010     3.0890 O.2   1 <1>  -0.6500 
  3 O        1.5690    -1.3980     2.5820 O.2   1 <1>  -0.6500 
  4 N        1.6660     0.5890     1.0510 N.am  1 <1>  -0.8490 
  5 C       -0.6040    -0.9630     1.0570 C.ar  1 <1>  -0.0090 
  6 C        2.4390     1.6350     1.7490 C.3   1 <1>   0.1960 
  7 C        2.4560    -0.2490     0.1390 C.3   1 <1>   0.1960 
  8 C       -1.1470    -2.2240     1.2720 C.ar  1 <1>  -0.1500 
  9 C       -1.1120    -0.2090     0.0050 C.ar  1 <1>  -0.1500 
 10 C        3.3130     2.5360     0.8440 C.3   1 <1>   0.2200 
 11 C        2.9360     0.4730    -1.1390 C.3   1 <1>  -0.0190 
 12 C       -2.1530    -2.7320     0.4660 C.ar  1 <1>  -0.1440 
 13 C       -2.1150    -0.6990    -0.8120 C.ar  1 <1>  -0.1500 
 14 N        2.6000     2.8490    -0.4380 N.am  1 <1>  -0.6600 
 15 C        4.7330     1.9380     0.6500 C.3   1 <1>   0.1200 
 16 C        2.3360     1.8560    -1.3460 C.2   1 <1>   0.5690 
 17 C        4.4700     0.5080    -1.2530 C.3   1 <1>   0.1200 
 18 C       -2.6430    -1.9670    -0.5880 C.ar  1 <1>   0.0830 
 19 C       -2.7150    -4.1200     0.7400 C.3   1 <1>  -0.0960 
 20 C        2.1020     4.2390    -0.6080 C.3   1 <1>   0.0600 
 21 O        5.0490     1.6410    -0.6790 O.3   1 <1>  -0.5600 
 22 O        1.6380     2.0320    -2.3190 O.2   1 <1>  -0.5700 
 23 O       -3.6250    -2.5030    -1.3570 O.3   1 <1>  -0.3630 
 24 C       -4.1860    -1.7990    -2.4430 C.3   1 <1>   0.0400 
 25 H        1.7400     2.2870     2.2470 H     1 <1>   0.0800 
 26 H        3.0460     1.1870     2.5170 H     1 <1>   0.0800 
 27 H        3.2880    -0.6750     0.6750 H     1 <1>   0.0800 
 28 H        1.8420    -1.0750    -0.1810 H     1 <1>   0.0800 
 29 H       -0.7680    -2.8160     2.0880 H     1 <1>   0.1500 
 30 H       -0.7150     0.7760    -0.1840 H     1 <1>   0.1500 
 31 H        3.4530     3.4550     1.3850 H     1 <1>   0.0800 
 32 H        2.6010    -0.1370    -1.9570 H     1 <1>   0.0800 
 33 H       -2.4670    -0.0790    -1.6140 H     1 <1>   0.1500 
 34 H        4.8810     1.0530     1.2440 H     1 <1>   0.0800 
 35 H        5.4540     2.6660     0.9770 H     1 <1>   0.0800 
 36 H        4.7390     0.5340    -2.2950 H     1 <1>   0.0800 
 37 H        4.9210    -0.3660    -0.8160 H     1 <1>   0.0800 
 38 H       -2.2330    -4.5780     1.5850 H     1 <1>   0.0800 
 39 H       -2.5700    -4.7470    -0.1210 H     1 <1>   0.0800 
 40 H       -3.7690    -4.0510     0.9420 H     1 <1>   0.0800 
 41 H        2.9260     4.9280    -0.5570 H     1 <1>   0.0800 
 42 H        1.3910     4.4680     0.1650 H     1 <1>   0.0800 
 43 H        1.6210     4.3530    -1.5650 H     1 <1>   0.0800 
 44 H       -4.9390    -2.4210    -2.8910 H     1 <1>   0.0800 
 45 H       -3.4120    -1.5890    -3.1600 H     1 <1>   0.0800 
 46 H       -4.6310    -0.8910    -2.0780 H     1 <1>   0.0800 
@<TRIPOS>BOND
  1   1   2  2   
  2   1   3  2   
  3   1   4  am  
  4   1   5  1   
  5   4   6  1   
  6   4   7  1   
  7   5   8  ar  
  8   5   9  ar  
  9   6  10  1   
 10   6  25  1   
 11   6  26  1   
 12   7  11  1   
 13   7  27  1   
 14   7  28  1   
 15   8  12  ar  
 16   8  29  1   
 17   9  13  ar  
 18   9  30  1   
 19  10  14  1   
 20  10  15  1   
 21  10  31  1   
 22  11  16  1   
 23  11  17  1   
 24  11  32  1   
 25  12  18  ar  
 26  12  19  1   
 27  13  18  ar  
 28  13  33  1   
 29  14  16  am  
 30  14  20  1   
 31  15  21  1   
 32  15  34  1   
 33  15  35  1   
 34  16  22  2   
 35  17  21  1   
 36  17  36  1   
 37  17  37  1   
 38  18  23  1   
 39  19  38  1   
 40  19  39  1   
 41  19  40  1   
 42  20  41  1   
 43  20  42  1   
 44  20  43  1   
 45  23  24  1   
 46  24  44  1   
 47  24  45  1   
 48  24  46  1   
@<TRIPOS>SUBSTRUCTURE
  1 ****   4 GROUP 4 **** **** 0

# MOE 2024.06 (io_trps.svl 2023.06)
