@<TRIPOS>MOLECULE
NONAME
48 50 1 0 0 
SMALL
USER_CHARGES


@<TRIPOS>ATOM
  1 CL       2.6770    -0.2210     2.8470 Cl    1 <1>  -0.1770 
  2 C        2.6940     0.6050     1.3080 C.ar  1 <1>   0.1770 
  3 C        2.5020    -0.1200     0.1450 C.ar  1 <1>  -0.1440 
  4 C        2.8870     1.9750     1.2840 C.ar  1 <1>  -0.1500 
  5 C        2.5040     0.5820    -1.0470 C.ar  1 <1>   0.1900 
  6 C        2.3010    -1.6190     0.1690 C.3   1 <1>   0.4860 
  7 C        2.8860     2.6500     0.0730 C.ar  1 <1>  -0.1500 
  8 F        2.3110    -0.0870    -2.1540 F     1 <1>  -0.1900 
  9 C        2.6920     1.9560    -1.1140 C.ar  1 <1>  -0.1440 
 10 N        0.9500    -1.9220     0.7100 N.4   1 <1>  -0.9590 
 11 C        2.6900     2.6920    -2.4460 C.3   1 <1>  -0.0970 
 12 C       -0.1420    -1.4230    -0.1630 C.3   1 <1>   0.3430 
 13 C        0.7000    -3.3730     0.9010 C.3   1 <1>   0.3430 
 14 C       -1.3700    -2.2100     0.2760 C.3   1 <1>  -0.0800 
 15 C       -0.8050    -3.5820     0.7030 C.3   1 <1>  -0.0800 
 16 C       -2.4990    -2.2490    -0.7870 C.3   1 <1>   0.2800 
 17 C       -1.0630    -4.6870    -0.3350 C.3   1 <1>  -0.1600 
 18 O       -1.9220    -2.3130    -2.0390 O.3   1 <1>  -0.6800 
 19 C       -3.3480    -3.5180    -0.5970 C.3   1 <1>  -0.1600 
 20 C       -3.4100    -1.0010    -0.7630 C.3   1 <1>  -0.1600 
 21 C       -2.5560    -4.8400    -0.6670 C.3   1 <1>  -0.1600 
 22 C       -2.7250     0.3550    -1.0100 C.3   1 <1>  -0.2400 
 23 H        3.0360     2.5110     2.2060 H     1 <1>   0.1500 
 24 H        3.0560    -2.0670     0.7950 H     1 <1>   0.0800 
 25 H        2.4000    -2.0230    -0.8250 H     1 <1>   0.0800 
 26 H        3.0380     3.7170     0.0610 H     1 <1>   0.1500 
 27 H        0.8660    -1.4540     1.6230 H     1 <1>   0.4500 
 28 H        2.8610     3.7450    -2.3090 H     1 <1>   0.0800 
 29 H        1.7420     2.5630    -2.9380 H     1 <1>   0.0800 
 30 H        3.4640     2.3030    -3.0840 H     1 <1>   0.0800 
 31 H       -0.2830    -0.3600    -0.0590 H     1 <1>   0.0800 
 32 H        0.0850    -1.6500    -1.1930 H     1 <1>   0.0800 
 33 H        1.2360    -3.9390     0.1550 H     1 <1>   0.0800 
 34 H        1.0130    -3.6970     1.8810 H     1 <1>   0.0800 
 35 H       -1.7650    -1.7390     1.1590 H     1 <1>   0.0800 
 36 H       -1.2510    -3.8820     1.6360 H     1 <1>   0.0800 
 37 H       -0.5380    -4.4470    -1.2450 H     1 <1>   0.0800 
 38 H       -0.6800    -5.6310     0.0160 H     1 <1>   0.0800 
 39 H       -2.6230    -2.4210    -2.7120 H     1 <1>   0.4000 
 40 H       -3.8070    -3.4610     0.3750 H     1 <1>   0.0800 
 41 H       -4.1520    -3.5440    -1.3120 H     1 <1>   0.0800 
 42 H       -4.1810    -1.1270    -1.5040 H     1 <1>   0.0800 
 43 H       -3.9100    -0.9550     0.1890 H     1 <1>   0.0800 
 44 H       -3.0060    -5.5470     0.0090 H     1 <1>   0.0800 
 45 H       -2.6410    -5.2530    -1.6580 H     1 <1>   0.0800 
 46 H       -2.1410     0.3350    -1.9140 H     1 <1>   0.0800 
 47 H       -2.0970     0.6300    -0.1830 H     1 <1>   0.0800 
 48 H       -3.4750     1.1200    -1.1160 H     1 <1>   0.0800 
@<TRIPOS>BOND
  1   1   2  1   
  2   2   3  ar  
  3   2   4  ar  
  4   3   5  ar  
  5   3   6  1   
  6   4   7  ar  
  7   4  23  1   
  8   5   8  1   
  9   5   9  ar  
 10   6  10  1   
 11   6  24  1   
 12   6  25  1   
 13   7   9  ar  
 14   7  26  1   
 15   9  11  1   
 16  10  12  1   
 17  10  13  1   
 18  10  27  1   
 19  11  28  1   
 20  11  29  1   
 21  11  30  1   
 22  12  14  1   
 23  12  31  1   
 24  12  32  1   
 25  13  15  1   
 26  13  33  1   
 27  13  34  1   
 28  14  15  1   
 29  14  16  1   
 30  14  35  1   
 31  15  17  1   
 32  15  36  1   
 33  16  18  1   
 34  16  19  1   
 35  16  20  1   
 36  17  21  1   
 37  17  37  1   
 38  17  38  1   
 39  18  39  1   
 40  19  21  1   
 41  19  40  1   
 42  19  41  1   
 43  20  22  1   
 44  20  42  1   
 45  20  43  1   
 46  21  44  1   
 47  21  45  1   
 48  22  46  1   
 49  22  47  1   
 50  22  48  1   
@<TRIPOS>SUBSTRUCTURE
  1 ****  12 GROUP 4 **** **** 0

# MOE 2024.06 (io_trps.svl 2023.06)
