@<TRIPOS>MOLECULE
NONAME
43 45 1 0 0 
SMALL
USER_CHARGES


@<TRIPOS>ATOM
  1 F        0.1600    -1.2200    -0.8770 F     1 <1>  -0.1900 
  2 C       -0.6010    -2.2150    -0.4950 C.ar  1 <1>   0.1900 
  3 C       -0.1220    -3.2420     0.3260 C.ar  1 <1>   0.0820 
  4 C       -1.9070    -2.1960    -0.9420 C.ar  1 <1>  -0.1500 
  5 O        1.1400    -3.3710     0.8290 O.3   1 <1>  -0.3630 
  6 C       -1.0080    -4.2480     0.6770 C.ar  1 <1>  -0.1500 
  7 C       -2.7640    -3.2150    -0.5710 C.ar  1 <1>  -0.1500 
  8 C        2.1840    -2.4730     0.5240 C.3   1 <1>   0.0400 
  9 C       -2.3370    -4.2670     0.2440 C.ar  1 <1>   0.0530 
 10 C       -3.2260    -5.3360     0.6340 C.2   1 <1>   0.0870 
 11 O       -2.9810    -6.0430     1.7130 O.3   1 <1>  -0.0190 
 12 C       -4.3680    -5.8340     0.0980 C.2   1 <1>  -0.2330 
 13 N       -3.8820    -6.9660     1.9330 N.2   1 <1>  -0.4100 
 14 C       -4.7300    -6.8570     0.9720 C.2   1 <1>   0.3720 
 15 C       -5.0820    -5.4600    -1.0750 C.2   1 <1>   1.0330 
 16 N       -5.8520    -7.6830     0.8780 N.pl3 1 <1>  -0.8210 
 17 O       -5.9120    -4.5350    -1.0340 O.co2 1 <1>  -0.9000 
 18 O       -4.8940    -6.0520    -2.1510 O.co2 1 <1>  -0.9000 
 19 C       -5.8440    -8.5610    -0.3390 C.3   1 <1>   0.2090 
 20 C       -7.1440    -6.9510     0.9790 C.3   1 <1>   0.2090 
 21 C       -6.9080    -9.6650    -0.1780 C.3   1 <1>   0.2800 
 22 C       -8.2880    -7.9600     1.1410 C.3   1 <1>  -0.1600 
 23 O       -6.6040   -10.3390     0.9810 O.3   1 <1>  -0.6800 
 24 C       -8.2920    -9.0210     0.0170 C.3   1 <1>  -0.1600 
 25 C       -6.8970   -10.6810    -1.3170 C.3   1 <1>  -0.2400 
 26 H       -2.2530    -1.3970    -1.5720 H     1 <1>   0.1500 
 27 H       -0.6520    -5.0450     1.3040 H     1 <1>   0.1500 
 28 H       -3.7830    -3.1890    -0.9180 H     1 <1>   0.1500 
 29 H        3.0750    -2.8160     1.0170 H     1 <1>   0.0800 
 30 H        1.9210    -1.4950     0.8860 H     1 <1>   0.0800 
 31 H        2.3370    -2.4630    -0.5410 H     1 <1>   0.0800 
 32 H       -4.8700    -9.0000    -0.4690 H     1 <1>   0.0800 
 33 H       -6.0690    -7.9830    -1.2180 H     1 <1>   0.0800 
 34 H       -7.3060    -6.3620     0.0910 H     1 <1>   0.0800 
 35 H       -7.1130    -6.2830     1.8230 H     1 <1>   0.0800 
 36 H       -9.2240    -7.4320     1.1420 H     1 <1>   0.0800 
 37 H       -8.1850    -8.4420     2.0970 H     1 <1>   0.0800 
 38 H       -6.2450    -9.6420     1.5800 H     1 <1>   0.4000 
 39 H       -9.0220    -9.7820     0.2280 H     1 <1>   0.0800 
 40 H       -8.5750    -8.5400    -0.9030 H     1 <1>   0.0800 
 41 H       -5.9260   -11.1370    -1.3960 H     1 <1>   0.0800 
 42 H       -7.1210   -10.1920    -2.2470 H     1 <1>   0.0800 
 43 H       -7.6330   -11.4440    -1.1410 H     1 <1>   0.0800 
@<TRIPOS>BOND
  1   1   2  1   
  2   2   3  ar  
  3   2   4  ar  
  4   3   5  1   
  5   3   6  ar  
  6   4   7  ar  
  7   4  26  1   
  8   5   8  1   
  9   6   9  ar  
 10   6  27  1   
 11   7   9  ar  
 12   7  28  1   
 13   8  29  1   
 14   8  30  1   
 15   8  31  1   
 16   9  10  1   
 17  10  11  1   
 18  10  12  2   
 19  11  13  1   
 20  12  14  1   
 21  12  15  1   
 22  13  14  2   
 23  14  16  1   
 24  15  17  ar  
 25  15  18  ar  
 26  16  19  1   
 27  16  20  1   
 28  19  21  1   
 29  19  32  1   
 30  19  33  1   
 31  20  22  1   
 32  20  34  1   
 33  20  35  1   
 34  21  23  1   
 35  21  24  1   
 36  21  25  1   
 37  22  24  1   
 38  22  36  1   
 39  22  37  1   
 40  23  38  1   
 41  24  39  1   
 42  24  40  1   
 43  25  41  1   
 44  25  42  1   
 45  25  43  1   
@<TRIPOS>SUBSTRUCTURE
  1 ****  12 GROUP 4 **** **** 0

# MOE 2024.06 (io_trps.svl 2023.06)
