@<TRIPOS>MOLECULE
NONAME
52 54 1 0 0 
SMALL
USER_CHARGES


@<TRIPOS>ATOM
  1 S        2.7390    -0.7260    -2.8250 S.3   1 <1>  -0.0800 
  2 C        1.9420    -1.3110    -1.3750 C.2   1 <1>  -0.1400 
  3 C        3.0380     0.8370    -2.0850 C.2   1 <1>  -0.1100 
  4 C        1.9570    -0.3660    -0.4190 C.2   1 <1>  -0.1500 
  5 C        1.3750    -2.7220    -1.4050 C.3   1 <1>   0.2900 
  6 C        2.5530     0.8720    -0.8280 C.2   1 <1>  -0.1810 
  7 N        0.4230    -2.9190    -0.2980 N.3   1 <1>  -0.8100 
  8 C        2.5720     2.0610     0.1060 C.3   1 <1>   0.5240 
  9 C        0.1120    -4.3780    -0.1080 C.3   1 <1>   0.2510 
 10 C       -0.8180    -2.1390    -0.5240 C.3   1 <1>   0.1100 
 11 N        1.3450     2.8730    -0.1340 N.4   1 <1>  -0.9590 
 12 C       -1.3540    -4.7580     0.2550 C.2   1 <1>   0.5690 
 13 C        1.0850    -4.8970     0.9570 C.3   1 <1>  -0.2400 
 14 C       -1.8030    -2.3690     0.6250 C.3   1 <1>   0.1400 
 15 C        1.3870     4.1500     0.6320 C.3   1 <1>   0.3430 
 16 C        0.0850     2.1040     0.1200 C.3   1 <1>   0.3430 
 17 O       -1.6610    -5.9300     0.2140 O.2   1 <1>  -0.5700 
 18 N       -2.2580    -3.7800     0.5840 N.am  1 <1>  -0.6600 
 19 C        0.1980     5.0300     0.2410 C.3   1 <1>  -0.1600 
 20 C       -1.1290     2.9500    -0.2680 C.3   1 <1>  -0.1600 
 21 C       -3.7550    -3.9800     0.4080 C.3   1 <1>   0.0340 
 22 C       -1.1370     4.3050     0.4510 C.3   1 <1>  -0.1600 
 23 C       -4.4880    -3.0610    -0.5860 C.2   1 <1>   0.9060 
 24 O       -3.8710    -2.4870    -1.5000 O.co2 1 <1>  -0.9000 
 25 O       -5.6980    -2.8730    -0.4130 O.co2 1 <1>  -0.9000 
 26 H        3.5430     1.5670    -2.6950 H     1 <1>   0.1500 
 27 H        1.5490    -0.5150     0.5670 H     1 <1>   0.1500 
 28 H        2.1910    -3.4180    -1.3190 H     1 <1>   0.0800 
 29 H        0.8780    -2.8970    -2.3450 H     1 <1>   0.0800 
 30 H        3.4470     2.6550    -0.0990 H     1 <1>   0.0800 
 31 H        2.6150     1.7260     1.1290 H     1 <1>   0.0800 
 32 H        0.3120    -4.8970    -1.0290 H     1 <1>   0.0800 
 33 H       -1.2890    -2.4270    -1.4510 H     1 <1>   0.0800 
 34 H       -0.5960    -1.0910    -0.5800 H     1 <1>   0.0800 
 35 H        1.3430     3.0990    -1.1360 H     1 <1>   0.4500 
 36 H        0.8870    -4.4100     1.8950 H     1 <1>   0.0800 
 37 H        2.1030    -4.7180     0.6670 H     1 <1>   0.0800 
 38 H        0.9460    -5.9550     1.0870 H     1 <1>   0.0800 
 39 H       -2.6350    -1.6960     0.5250 H     1 <1>   0.0800 
 40 H       -1.3230    -2.1730     1.5670 H     1 <1>   0.0800 
 41 H        2.3050     4.6780     0.4250 H     1 <1>   0.0800 
 42 H        1.3450     3.9420     1.6890 H     1 <1>   0.0800 
 43 H        0.0200     1.8370     1.1620 H     1 <1>   0.0800 
 44 H        0.0740     1.1980    -0.4650 H     1 <1>   0.0800 
 45 H        0.2960     5.3280    -0.7880 H     1 <1>   0.0800 
 46 H        0.2130     5.9260     0.8380 H     1 <1>   0.0800 
 47 H       -2.0260     2.4080    -0.0220 H     1 <1>   0.0800 
 48 H       -1.1320     3.0990    -1.3350 H     1 <1>   0.0800 
 49 H       -4.2270    -3.8510     1.3620 H     1 <1>   0.0800 
 50 H       -3.9450    -4.9880     0.0910 H     1 <1>   0.0800 
 51 H       -1.9460     4.9100     0.0780 H     1 <1>   0.0800 
 52 H       -1.3030     4.1510     1.5040 H     1 <1>   0.0800 
@<TRIPOS>BOND
  1   1   2  1   
  2   1   3  1   
  3   2   4  2   
  4   2   5  1   
  5   3   6  2   
  6   3  26  1   
  7   4   6  1   
  8   4  27  1   
  9   5   7  1   
 10   5  28  1   
 11   5  29  1   
 12   6   8  1   
 13   7   9  1   
 14   7  10  1   
 15   8  11  1   
 16   8  30  1   
 17   8  31  1   
 18   9  12  1   
 19   9  13  1   
 20   9  32  1   
 21  10  14  1   
 22  10  33  1   
 23  10  34  1   
 24  11  15  1   
 25  11  16  1   
 26  11  35  1   
 27  12  17  2   
 28  12  18  am  
 29  13  36  1   
 30  13  37  1   
 31  13  38  1   
 32  14  18  1   
 33  14  39  1   
 34  14  40  1   
 35  15  19  1   
 36  15  41  1   
 37  15  42  1   
 38  16  20  1   
 39  16  43  1   
 40  16  44  1   
 41  18  21  1   
 42  19  22  1   
 43  19  45  1   
 44  19  46  1   
 45  20  22  1   
 46  20  47  1   
 47  20  48  1   
 48  21  23  1   
 49  21  49  1   
 50  21  50  1   
 51  22  51  1   
 52  22  52  1   
 53  23  24  ar  
 54  23  25  ar  
@<TRIPOS>SUBSTRUCTURE
  1 ****  10 GROUP 4 **** **** 0

# MOE 2024.06 (io_trps.svl 2023.06)
