@<TRIPOS>MOLECULE
NONAME
44 46 1 0 0 
SMALL
USER_CHARGES


@<TRIPOS>ATOM
  1 O        1.3330    -1.6410     3.1640 O.2   1 <1>  -0.5700 
  2 C        0.7440    -2.2280     2.2780 C.2   1 <1>   0.5440 
  3 N       -0.5200    -2.5960     2.5770 N.am  1 <1>  -0.8000 
  4 C        1.3710    -2.5020     0.9980 C.ar  1 <1>   0.0860 
  5 C        0.8030    -3.3220    -0.0070 C.ar  1 <1>   0.4100 
  6 C        2.6100    -1.9360     0.7160 C.ar  1 <1>  -0.1500 
  7 N        1.3860    -3.5670    -1.1820 N.ar  1 <1>  -0.6200 
  8 N       -0.4140    -3.9670     0.1450 N.pl3 1 <1>  -0.8380 
  9 C        3.2030    -2.1940    -0.4970 C.ar  1 <1>  -0.1500 
 10 C        2.5550    -3.0090    -1.4060 C.ar  1 <1>   0.1670 
 11 C       -1.4640    -3.6990    -0.8840 C.3   1 <1>   0.2090 
 12 C       -0.3450    -5.4380     0.3890 C.3   1 <1>   0.2090 
 13 C        3.1870    -3.3090    -2.7480 C.3   1 <1>  -0.0970 
 14 C       -1.7990    -5.0600    -1.4880 C.3   1 <1>   0.2000 
 15 C       -1.5160    -6.0560    -0.3730 C.3   1 <1>  -0.0800 
 16 O       -3.1270    -5.1470    -1.8860 O.3   1 <1>  -0.6800 
 17 C       -1.2300    -7.4760    -0.8860 C.3   1 <1>   0.0210 
 18 C       -0.7930    -8.4020     0.2340 C.2   1 <1>   0.1080 
 19 N       -1.3710    -8.4390     1.3960 N.2   1 <1>  -0.7070 
 20 C        0.2640    -9.3010     0.1470 C.2   1 <1>  -0.1500 
 21 N       -0.6920    -9.3750     2.0860 N.pl3 1 <1>   0.3000 
 22 C        0.3050    -9.9100     1.3510 C.2   1 <1>  -0.3320 
 23 C        1.2480   -10.9890     1.8510 C.3   1 <1>  -0.0600 
 24 H       -0.8930    -2.4650     3.5150 H     1 <1>   0.3700 
 25 H       -1.0240    -3.2010     1.9180 H     1 <1>   0.3700 
 26 H        3.0970    -1.3040     1.4390 H     1 <1>   0.1500 
 27 H        4.1600    -1.7640    -0.7310 H     1 <1>   0.1500 
 28 H       -2.3270    -3.2770    -0.3990 H     1 <1>   0.0800 
 29 H       -1.1100    -3.0230    -1.6430 H     1 <1>   0.0800 
 30 H        0.5900    -5.8250     0.0190 H     1 <1>   0.0800 
 31 H       -0.4170    -5.6540     1.4420 H     1 <1>   0.0800 
 32 H        4.1310    -2.8080    -2.8550 H     1 <1>   0.0800 
 33 H        2.5290    -2.9850    -3.5340 H     1 <1>   0.0800 
 34 H        3.3420    -4.3680    -2.8430 H     1 <1>   0.0800 
 35 H       -1.1700    -5.2340    -2.3450 H     1 <1>   0.0800 
 36 H       -2.3510    -6.0870     0.3050 H     1 <1>   0.0800 
 37 H       -3.7150    -5.1350    -1.1060 H     1 <1>   0.4000 
 38 H       -0.4590    -7.4440    -1.6350 H     1 <1>   0.0800 
 39 H       -2.1190    -7.8780    -1.3390 H     1 <1>   0.0800 
 40 H        0.8970    -9.4570    -0.7090 H     1 <1>   0.1500 
 41 H       -0.9330    -9.6250     3.0520 H     1 <1>   0.2700 
 42 H        1.9520   -11.2510     1.0800 H     1 <1>   0.0800 
 43 H        0.6950   -11.8710     2.1220 H     1 <1>   0.0800 
 44 H        1.7950   -10.6380     2.7080 H     1 <1>   0.0800 
@<TRIPOS>BOND
  1   1   2  2   
  2   2   3  am  
  3   2   4  1   
  4   3  24  1   
  5   3  25  1   
  6   4   5  ar  
  7   4   6  ar  
  8   5   7  ar  
  9   5   8  1   
 10   6   9  ar  
 11   6  26  1   
 12   7  10  ar  
 13   8  11  1   
 14   8  12  1   
 15   9  10  ar  
 16   9  27  1   
 17  10  13  1   
 18  11  14  1   
 19  11  28  1   
 20  11  29  1   
 21  12  15  1   
 22  12  30  1   
 23  12  31  1   
 24  13  32  1   
 25  13  33  1   
 26  13  34  1   
 27  14  15  1   
 28  14  16  1   
 29  14  35  1   
 30  15  17  1   
 31  15  36  1   
 32  16  37  1   
 33  17  18  1   
 34  17  38  1   
 35  17  39  1   
 36  18  19  2   
 37  18  20  1   
 38  19  21  1   
 39  20  22  2   
 40  20  40  1   
 41  21  22  1   
 42  21  41  1   
 43  22  23  1   
 44  23  42  1   
 45  23  43  1   
 46  23  44  1   
@<TRIPOS>SUBSTRUCTURE
  1 ****  12 GROUP 4 **** **** 0

# MOE 2024.06 (io_trps.svl 2023.06)
