@<TRIPOS>MOLECULE
NONAME
52 53 1 0 0 
SMALL
USER_CHARGES


@<TRIPOS>ATOM
  1 O       -0.2520     0.1430    -0.4930 O.2   1 <1>  -0.5700 
  2 C       -1.2320     0.7420    -0.1120 C.2   1 <1>   0.5690 
  3 N       -2.4120     0.0710     0.1190 N.am  1 <1>  -0.6600 
  4 C       -1.1670     2.2720     0.1100 C.3   1 <1>   0.1710 
  5 C       -3.7390     0.7000     0.4010 C.3   1 <1>   0.1400 
  6 C       -2.4990    -1.4190    -0.0020 C.3   1 <1>   0.1400 
  7 N        0.1680     2.9290     0.2120 N.3   1 <1>  -0.8100 
  8 C       -4.8150     0.1680    -0.5700 C.3   1 <1>   0.2000 
  9 C       -3.6450    -1.8300    -0.9460 C.3   1 <1>   0.2000 
 10 C        0.0240     4.4030     0.2570 C.3   1 <1>   0.2540 
 11 C        0.9460     2.3970     1.3480 C.3   1 <1>   0.2480 
 12 O       -4.8400    -1.2260    -0.5460 O.3   1 <1>  -0.5600 
 13 C       -6.2150     0.6440    -0.1920 C.3   1 <1>  -0.2400 
 14 C       -3.8840    -3.3370    -0.9370 C.3   1 <1>  -0.2400 
 15 C        1.1330     5.1540    -0.4800 C.ar  1 <1>  -0.1440 
 16 C        2.4010     2.8180     1.2730 C.2   1 <1>  -0.2880 
 17 C        1.3720     6.4920    -0.1730 C.ar  1 <1>   0.0820 
 18 C        1.8970     4.5370    -1.4620 C.ar  1 <1>  -0.1500 
 19 C        3.4270     1.9870     1.0640 C.2   1 <1>  -0.3000 
 20 O        0.5940     7.0700     0.7820 O.3   1 <1>  -0.3630 
 21 C        2.3760     7.1870    -0.8450 C.ar  1 <1>  -0.1500 
 22 C        2.8920     5.2320    -2.1260 C.ar  1 <1>  -0.1500 
 23 C        0.7810     8.4110     1.1790 C.3   1 <1>   0.0400 
 24 C        3.1320     6.5570    -1.8170 C.ar  1 <1>  -0.1500 
 25 H       -1.7170     2.4990     1.0040 H     1 <1>   0.0800 
 26 H       -1.6890     2.7120    -0.7200 H     1 <1>   0.0800 
 27 H       -4.0300     0.4660     1.4100 H     1 <1>   0.0800 
 28 H       -3.6920     1.7680     0.3060 H     1 <1>   0.0800 
 29 H       -1.5760    -1.8280    -0.3730 H     1 <1>   0.0800 
 30 H       -2.6740    -1.8390     0.9730 H     1 <1>   0.0800 
 31 H       -4.5890     0.4840    -1.5750 H     1 <1>   0.0800 
 32 H       -3.4210    -1.5080    -1.9500 H     1 <1>   0.0800 
 33 H       -0.9010     4.6940    -0.2100 H     1 <1>   0.0800 
 34 H       -0.0210     4.7280     1.2820 H     1 <1>   0.0800 
 35 H        0.5180     2.7250     2.2800 H     1 <1>   0.0800 
 36 H        0.9170     1.3220     1.3340 H     1 <1>   0.0800 
 37 H       -6.4710     0.3040     0.7960 H     1 <1>   0.0800 
 38 H       -6.9310     0.2580    -0.8940 H     1 <1>   0.0800 
 39 H       -6.2620     1.7180    -0.2130 H     1 <1>   0.0800 
 40 H       -4.1430    -3.6680     0.0520 H     1 <1>   0.0800 
 41 H       -2.9960    -3.8530    -1.2550 H     1 <1>   0.0800 
 42 H       -4.6820    -3.5830    -1.6140 H     1 <1>   0.0800 
 43 H        2.5380     3.8770     1.4030 H     1 <1>   0.1500 
 44 H        1.7220     3.5030    -1.7080 H     1 <1>   0.1500 
 45 H        4.4540     2.3040     1.0110 H     1 <1>   0.1500 
 46 H        3.3220     0.9250     0.9210 H     1 <1>   0.1500 
 47 H        2.5850     8.2170    -0.6290 H     1 <1>   0.1500 
 48 H        3.4760     4.7340    -2.8800 H     1 <1>   0.1500 
 49 H        0.0640     8.6350     1.9480 H     1 <1>   0.0800 
 50 H        0.6190     9.0520     0.3310 H     1 <1>   0.0800 
 51 H        1.7780     8.5250     1.5650 H     1 <1>   0.0800 
 52 H        3.9070     7.0960    -2.3330 H     1 <1>   0.1500 
@<TRIPOS>BOND
  1   1   2  2   
  2   2   3  am  
  3   2   4  1   
  4   3   5  1   
  5   3   6  1   
  6   4   7  1   
  7   4  25  1   
  8   4  26  1   
  9   5   8  1   
 10   5  27  1   
 11   5  28  1   
 12   6   9  1   
 13   6  29  1   
 14   6  30  1   
 15   7  10  1   
 16   7  11  1   
 17   8  12  1   
 18   8  13  1   
 19   8  31  1   
 20   9  12  1   
 21   9  14  1   
 22   9  32  1   
 23  10  15  1   
 24  10  33  1   
 25  10  34  1   
 26  11  16  1   
 27  11  35  1   
 28  11  36  1   
 29  13  37  1   
 30  13  38  1   
 31  13  39  1   
 32  14  40  1   
 33  14  41  1   
 34  14  42  1   
 35  15  17  ar  
 36  15  18  ar  
 37  16  19  2   
 38  16  43  1   
 39  17  20  1   
 40  17  21  ar  
 41  18  22  ar  
 42  18  44  1   
 43  19  45  1   
 44  19  46  1   
 45  20  23  1   
 46  21  24  ar  
 47  21  47  1   
 48  22  24  ar  
 49  22  48  1   
 50  23  49  1   
 51  23  50  1   
 52  23  51  1   
 53  24  52  1   
@<TRIPOS>SUBSTRUCTURE
  1 ****   4 GROUP 4 **** **** 0

# MOE 2024.06 (io_trps.svl 2023.06)
