@<TRIPOS>MOLECULE
NONAME
43 45 1 0 0 
SMALL
USER_CHARGES


@<TRIPOS>ATOM
  1 O       -0.2910    -2.7830    -1.4920 O.3   1 <1>  -0.6800 
  2 C        0.0710    -1.6320    -0.8100 C.3   1 <1>   0.1200 
  3 C        1.1230    -1.9070     0.3050 C.3   1 <1>   0.0000 
  4 C        2.5040    -2.4080    -0.2240 C.3   1 <1>   0.4230 
  5 C        1.3870    -0.5520     1.0180 C.3   1 <1>  -0.1600 
  6 C        0.5510    -2.8990     1.3620 C.3   1 <1>  -0.1600 
  7 N        2.5540    -3.8470    -0.7200 N.4   1 <1>  -0.9590 
  8 C        3.1570    -1.3710    -1.1640 C.3   1 <1>   0.2090 
  9 C        2.0870     0.5010     0.1420 C.3   1 <1>   0.2090 
 10 C        1.2420    -4.2740     1.3560 C.3   1 <1>  -0.1600 
 11 C        1.5400    -4.7350    -0.0680 C.3   1 <1>   0.3430 
 12 C        2.4570    -4.0030    -2.2060 C.3   1 <1>   0.2630 
 13 N        3.3310    -0.0730    -0.4450 N.pl3 1 <1>  -0.8380 
 14 C        4.5470     0.1910     0.1820 C.ar  1 <1>   0.4100 
 15 N        5.0630    -0.8570     0.8230 N.ar  1 <1>  -0.6200 
 16 C        5.1780     1.4610     0.1480 C.ar  1 <1>   0.3830 
 17 C        6.2040    -0.5790     1.4260 C.ar  1 <1>   0.1600 
 18 N        6.3300     1.7160     0.7680 N.ar  1 <1>  -0.6200 
 19 C        4.5440     2.5190    -0.5870 C.1   1 <1>   0.4840 
 20 C        6.8170     0.6650     1.4020 C.ar  1 <1>   0.1600 
 21 N        3.9920     3.3410    -1.1600 N.1   1 <1>  -0.5570 
 22 H       -1.1010    -2.6220    -2.0240 H     1 <1>   0.4000 
 23 H        0.4290    -0.9240    -1.5370 H     1 <1>   0.0800 
 24 H       -0.8250    -1.2290    -0.3670 H     1 <1>   0.0800 
 25 H        3.1340    -2.3980     0.6500 H     1 <1>   0.0800 
 26 H        2.0130    -0.7120     1.8800 H     1 <1>   0.0800 
 27 H        0.4610    -0.1380     1.3780 H     1 <1>   0.0800 
 28 H        0.6320    -2.4980     2.3590 H     1 <1>   0.0800 
 29 H       -0.5020    -3.0460     1.1860 H     1 <1>   0.0800 
 30 H        3.4770    -4.1950    -0.4300 H     1 <1>   0.4500 
 31 H        2.5530    -1.2090    -2.0390 H     1 <1>   0.0800 
 32 H        4.1230    -1.7270    -1.4780 H     1 <1>   0.0800 
 33 H        2.3250     1.3600     0.7490 H     1 <1>   0.0800 
 34 H        1.4410     0.8380    -0.6510 H     1 <1>   0.0800 
 35 H        0.5960    -4.9920     1.8310 H     1 <1>   0.0800 
 36 H        2.1560    -4.2420     1.9240 H     1 <1>   0.0800 
 37 H        0.6210    -4.7140    -0.6310 H     1 <1>   0.0800 
 38 H        1.8980    -5.7520    -0.0570 H     1 <1>   0.0800 
 39 H        1.5240    -3.6060    -2.5680 H     1 <1>   0.0800 
 40 H        2.5100    -5.0450    -2.4750 H     1 <1>   0.0800 
 41 H        3.2660    -3.4850    -2.6950 H     1 <1>   0.0800 
 42 H        6.6840    -1.3740     1.9720 H     1 <1>   0.1500 
 43 H        7.7490     0.7950     1.9270 H     1 <1>   0.1500 
@<TRIPOS>BOND
  1   1   2  1   
  2   1  22  1   
  3   2   3  1   
  4   2  23  1   
  5   2  24  1   
  6   3   4  1   
  7   3   5  1   
  8   3   6  1   
  9   4   7  1   
 10   4   8  1   
 11   4  25  1   
 12   5   9  1   
 13   5  26  1   
 14   5  27  1   
 15   6  10  1   
 16   6  28  1   
 17   6  29  1   
 18   7  11  1   
 19   7  12  1   
 20   7  30  1   
 21   8  13  1   
 22   8  31  1   
 23   8  32  1   
 24   9  13  1   
 25   9  33  1   
 26   9  34  1   
 27  10  11  1   
 28  10  35  1   
 29  10  36  1   
 30  11  37  1   
 31  11  38  1   
 32  12  39  1   
 33  12  40  1   
 34  12  41  1   
 35  13  14  1   
 36  14  15  ar  
 37  14  16  ar  
 38  15  17  ar  
 39  16  18  ar  
 40  16  19  1   
 41  17  20  ar  
 42  17  42  1   
 43  18  20  ar  
 44  19  21  3   
 45  20  43  1   
@<TRIPOS>SUBSTRUCTURE
  1 ****  13 GROUP 4 **** **** 0

# MOE 2024.06 (io_trps.svl 2023.06)
