@<TRIPOS>MOLECULE
NONAME
39 41 1 0 0 
SMALL
USER_CHARGES


@<TRIPOS>ATOM
  1 O       -1.8720     0.5860    -1.3020 O.2   1 <1>  -0.5700 
  2 C       -1.7080     0.6800    -0.0970 C.2   1 <1>   0.7160 
  3 N       -1.6990    -0.4700     0.6370 N.am  1 <1>  -0.7300 
  4 C       -1.5460     1.9570     0.5890 C.2   1 <1>   0.1410 
  5 C       -1.9960    -1.8240     0.1300 C.3   1 <1>   0.2200 
  6 N       -1.4680     2.0220     1.9570 N.2   1 <1>  -0.5650 
  7 C       -1.4520     3.2310     0.0920 C.2   1 <1>  -0.3320 
  8 C       -3.4740    -2.1390     0.3430 C.3   1 <1>  -0.0800 
  9 C       -1.2670    -2.9020     0.9340 C.3   1 <1>   0.1200 
 10 C       -1.3350     3.2740     2.2280 C.2   1 <1>   0.0360 
 11 N       -1.3190     4.0610     1.1360 N.pl3 1 <1>   0.0330 
 12 C       -1.4760     3.7480    -1.3400 C.3   1 <1>  -0.0600 
 13 C       -3.4540    -3.4710     1.0880 C.3   1 <1>   0.1200 
 14 C       -4.2680    -2.1720    -0.9720 C.3   1 <1>  -0.0170 
 15 O       -2.2280    -3.5050     1.7400 O.3   1 <1>  -0.5600 
 16 C       -5.7290    -2.5100    -0.7190 C.ar  1 <1>  -0.1430 
 17 C       -6.2540    -3.7590    -0.9790 C.ar  1 <1>  -0.1500 
 18 C       -6.6060    -1.5730    -0.2110 C.ar  1 <1>  -0.1500 
 19 C       -7.5930    -4.0050    -0.7210 C.ar  1 <1>   0.1600 
 20 C       -7.9270    -1.9220     0.0120 C.ar  1 <1>   0.1600 
 21 N       -8.4420    -3.1170    -0.2300 N.ar  1 <1>  -0.6200 
 22 H       -1.6600    -0.3470     1.6530 H     1 <1>   0.3700 
 23 H       -1.7100    -1.8950    -0.9070 H     1 <1>   0.0800 
 24 H       -3.9140    -1.4090     0.9990 H     1 <1>   0.0800 
 25 H       -0.4830    -2.5020     1.5540 H     1 <1>   0.0800 
 26 H       -0.8690    -3.6570     0.2790 H     1 <1>   0.0800 
 27 H       -1.2440     3.6760     3.2220 H     1 <1>   0.1500 
 28 H       -1.2230     5.0800     1.1180 H     1 <1>   0.2700 
 29 H       -1.5580     2.9420    -2.0450 H     1 <1>   0.0800 
 30 H       -0.5700     4.2870    -1.5540 H     1 <1>   0.0800 
 31 H       -2.3150     4.4050    -1.4820 H     1 <1>   0.0800 
 32 H       -3.4930    -4.3070     0.4110 H     1 <1>   0.0800 
 33 H       -4.2460    -3.5460     1.8140 H     1 <1>   0.0800 
 34 H       -3.8380    -2.8920    -1.6450 H     1 <1>   0.0800 
 35 H       -4.2050    -1.2070    -1.4470 H     1 <1>   0.0800 
 36 H       -5.6380    -4.5430    -1.3790 H     1 <1>   0.1500 
 37 H       -6.2720    -0.5760     0.0150 H     1 <1>   0.1500 
 38 H       -7.9860    -4.9860    -0.9300 H     1 <1>   0.1500 
 39 H       -8.5960    -1.1780     0.4100 H     1 <1>   0.1500 
@<TRIPOS>BOND
  1   1   2  2   
  2   2   3  am  
  3   2   4  1   
  4   3   5  1   
  5   3  22  1   
  6   4   6  1   
  7   4   7  2   
  8   5   8  1   
  9   5   9  1   
 10   5  23  1   
 11   6  10  2   
 12   7  11  1   
 13   7  12  1   
 14   8  13  1   
 15   8  14  1   
 16   8  24  1   
 17   9  15  1   
 18   9  25  1   
 19   9  26  1   
 20  10  11  1   
 21  10  27  1   
 22  11  28  1   
 23  12  29  1   
 24  12  30  1   
 25  12  31  1   
 26  13  15  1   
 27  13  32  1   
 28  13  33  1   
 29  14  16  1   
 30  14  34  1   
 31  14  35  1   
 32  16  17  ar  
 33  16  18  ar  
 34  17  19  ar  
 35  17  36  1   
 36  18  20  ar  
 37  18  37  1   
 38  19  21  ar  
 39  19  38  1   
 40  20  21  ar  
 41  20  39  1   
@<TRIPOS>SUBSTRUCTURE
  1 ****   8 GROUP 4 **** **** 0

# MOE 2024.06 (io_trps.svl 2023.06)
