@<TRIPOS>MOLECULE
NONAME
54 56 1 0 0 
SMALL
USER_CHARGES


@<TRIPOS>ATOM
  1 O        1.4900    -0.3540    -2.3210 O.2   1 <1>  -0.5700 
  2 C        1.4660    -1.0230    -1.3130 C.2   1 <1>   0.5690 
  3 N        2.0220    -0.5790    -0.1250 N.am  1 <1>  -0.6600 
  4 C        0.7930    -2.4070    -1.4200 C.3   1 <1>   0.1710 
  5 C        2.3290     0.8610     0.1380 C.3   1 <1>   0.2200 
  6 C        2.4240    -1.4790     0.9950 C.3   1 <1>   0.0600 
  7 N       -0.6840    -2.4220    -1.2160 N.3   1 <1>  -0.8100 
  8 C        1.1030     1.7610    -0.0790 C.3   1 <1>  -0.1600 
  9 C        3.5400     1.3390    -0.6750 C.3   1 <1>  -0.1600 
 10 C       -1.2890    -3.7730    -1.2540 C.3   1 <1>   0.1100 
 11 C       -1.1560    -1.7440    -0.0060 C.3   1 <1>   0.1100 
 12 C        1.4380     3.2250     0.2480 C.3   1 <1>  -0.1600 
 13 C        3.8710     2.8040    -0.3520 C.3   1 <1>  -0.1600 
 14 C       -1.9770    -4.0150     0.0990 C.3   1 <1>   0.4240 
 15 C       -2.3300    -2.5810     0.4890 C.3   1 <1>  -0.1600 
 16 C        2.6480     3.7080    -0.5650 C.3   1 <1>  -0.1600 
 17 O       -1.0090    -4.4230     1.0010 O.3   1 <1>  -0.6800 
 18 C       -3.1320    -5.0470     0.0900 C.ar  1 <1>  -0.1440 
 19 C       -2.9880    -6.3460    -0.4180 C.ar  1 <1>  -0.1440 
 20 C       -4.3760    -4.6870     0.6090 C.ar  1 <1>  -0.1500 
 21 C       -4.0720    -7.2120    -0.4240 C.ar  1 <1>  -0.1500 
 22 C       -1.6810    -6.9010    -0.9720 C.3   1 <1>  -0.0970 
 23 C       -5.4470    -5.5600     0.6020 C.ar  1 <1>  -0.1500 
 24 C       -5.2980    -6.8260     0.0790 C.ar  1 <1>  -0.1500 
 25 H        1.2500    -3.0960    -0.7400 H     1 <1>   0.0800 
 26 H        0.9910    -2.7720    -2.4120 H     1 <1>   0.0800 
 27 H        2.5920     0.9610     1.1780 H     1 <1>   0.0800 
 28 H        2.6060    -2.4790     0.6480 H     1 <1>   0.0800 
 29 H        1.6560    -1.4910     1.7480 H     1 <1>   0.0800 
 30 H        3.3380    -1.1230     1.4390 H     1 <1>   0.0800 
 31 H        0.2960     1.4280     0.5470 H     1 <1>   0.0800 
 32 H        0.7820     1.7100    -1.1040 H     1 <1>   0.0800 
 33 H        3.3290     1.2580    -1.7260 H     1 <1>   0.0800 
 34 H        4.3910     0.7210    -0.4520 H     1 <1>   0.0800 
 35 H       -0.5590    -4.5290    -1.4730 H     1 <1>   0.0800 
 36 H       -2.0380    -3.7830    -2.0270 H     1 <1>   0.0800 
 37 H       -1.4520    -0.7330    -0.2330 H     1 <1>   0.0800 
 38 H       -0.3860    -1.7250     0.7440 H     1 <1>   0.0800 
 39 H        1.6520     3.3190     1.2990 H     1 <1>   0.0800 
 40 H        0.5860     3.8450     0.0280 H     1 <1>   0.0800 
 41 H        4.6770     3.1370    -0.9830 H     1 <1>   0.0800 
 42 H        4.1980     2.8820     0.6700 H     1 <1>   0.0800 
 43 H       -3.2040    -2.2620    -0.0490 H     1 <1>   0.0800 
 44 H       -2.5040    -2.4680     1.5440 H     1 <1>   0.0800 
 45 H        2.8920     4.7180    -0.2820 H     1 <1>   0.0800 
 46 H        2.3910     3.7130    -1.6110 H     1 <1>   0.0800 
 47 H       -0.2780    -3.7870     0.9290 H     1 <1>   0.4000 
 48 H       -4.5450    -3.7190     1.0380 H     1 <1>   0.1500 
 49 H       -3.9690    -8.2070    -0.8210 H     1 <1>   0.1500 
 50 H       -0.8490    -6.6080    -0.3590 H     1 <1>   0.0800 
 51 H       -1.5300    -6.5570    -1.9780 H     1 <1>   0.0800 
 52 H       -1.7000    -7.9760    -0.9860 H     1 <1>   0.0800 
 53 H       -6.3960    -5.2540     1.0060 H     1 <1>   0.1500 
 54 H       -6.1280    -7.5100     0.0680 H     1 <1>   0.1500 
@<TRIPOS>BOND
  1   1   2  2   
  2   2   3  am  
  3   2   4  1   
  4   3   5  1   
  5   3   6  1   
  6   4   7  1   
  7   4  25  1   
  8   4  26  1   
  9   5   8  1   
 10   5   9  1   
 11   5  27  1   
 12   6  28  1   
 13   6  29  1   
 14   6  30  1   
 15   7  10  1   
 16   7  11  1   
 17   8  12  1   
 18   8  31  1   
 19   8  32  1   
 20   9  13  1   
 21   9  33  1   
 22   9  34  1   
 23  10  14  1   
 24  10  35  1   
 25  10  36  1   
 26  11  15  1   
 27  11  37  1   
 28  11  38  1   
 29  12  16  1   
 30  12  39  1   
 31  12  40  1   
 32  13  16  1   
 33  13  41  1   
 34  13  42  1   
 35  14  15  1   
 36  14  17  1   
 37  14  18  1   
 38  15  43  1   
 39  15  44  1   
 40  16  45  1   
 41  16  46  1   
 42  17  47  1   
 43  18  19  ar  
 44  18  20  ar  
 45  19  21  ar  
 46  19  22  1   
 47  20  23  ar  
 48  20  48  1   
 49  21  24  ar  
 50  21  49  1   
 51  22  50  1   
 52  22  51  1   
 53  22  52  1   
 54  23  24  ar  
 55  23  53  1   
 56  24  54  1   
@<TRIPOS>SUBSTRUCTURE
  1 ****  11 GROUP 4 **** **** 0

# MOE 2024.06 (io_trps.svl 2023.06)
