@<TRIPOS>MOLECULE
NONAME
47 49 1 0 0 
SMALL
USER_CHARGES


@<TRIPOS>ATOM
  1 O       -1.4080     0.7960     3.2800 O.2   1 <1>  -0.5700 
  2 C       -2.2050     1.3020     2.5200 C.2   1 <1>   0.5690 
  3 N       -3.3320     0.6440     2.1130 N.am  1 <1>  -0.6600 
  4 C       -1.8810     2.6960     2.0120 C.3   1 <1>   0.0440 
  5 C       -4.2500     1.0950     1.0410 C.3   1 <1>   0.1400 
  6 C       -3.5770    -0.7750     2.4460 C.3   1 <1>   0.1400 
  7 C       -1.1020     2.6610     0.6990 C.ar  1 <1>  -0.1440 
  8 C       -5.2850    -0.0300     0.8860 C.3   1 <1>  -0.0800 
  9 C       -4.5540    -1.2880     1.3860 C.3   1 <1>  -0.0800 
 10 C        0.1300     2.0180     0.5920 C.ar  1 <1>   0.0820 
 11 C       -1.6210     3.2980    -0.4190 C.ar  1 <1>  -0.1500 
 12 C       -5.9510    -0.1680    -0.5200 C.3   1 <1>   0.2800 
 13 C       -3.8440    -2.0010     0.2250 C.3   1 <1>  -0.1600 
 14 O        0.6750     1.3550     1.6280 O.3   1 <1>  -0.5330 
 15 C        0.8310     2.0320    -0.6020 C.ar  1 <1>  -0.1500 
 16 C       -0.9240     3.3040    -1.6160 C.ar  1 <1>  -0.1500 
 17 O       -5.1270     0.3560    -1.4970 O.3   1 <1>  -0.6800 
 18 C       -6.1510    -1.6550    -0.8710 C.3   1 <1>  -0.1600 
 19 C       -7.2960     0.5840    -0.6180 C.3   1 <1>  -0.1600 
 20 C       -4.8440    -2.4760    -0.8460 C.3   1 <1>  -0.1600 
 21 C        0.3050     2.6740    -1.7080 C.ar  1 <1>  -0.1500 
 22 C       -7.2260     2.1030    -0.3810 C.3   1 <1>  -0.2400 
 23 H       -2.7870     3.2600     1.9060 H     1 <1>   0.0800 
 24 H       -1.2830     3.1990     2.7510 H     1 <1>   0.0800 
 25 H       -4.7230     2.0240     1.3040 H     1 <1>   0.0800 
 26 H       -3.6690     1.2290     0.1450 H     1 <1>   0.0800 
 27 H       -2.6560    -1.3350     2.4480 H     1 <1>   0.0800 
 28 H       -4.0240    -0.8280     3.4240 H     1 <1>   0.0800 
 29 H       -6.0640     0.1610     1.6020 H     1 <1>   0.0800 
 30 H       -5.2440    -1.9780     1.8420 H     1 <1>   0.0800 
 31 H       -2.5720     3.7990    -0.3700 H     1 <1>   0.1500 
 32 H       -3.1470    -1.3150    -0.2280 H     1 <1>   0.0800 
 33 H       -3.2780    -2.8410     0.5900 H     1 <1>   0.0800 
 34 H        0.0260     1.1410     2.3460 H     1 <1>   0.4500 
 35 H        1.7820     1.5350    -0.6570 H     1 <1>   0.1500 
 36 H       -1.3370     3.8010    -2.4760 H     1 <1>   0.1500 
 37 H       -5.4930     0.1460    -2.3740 H     1 <1>   0.4000 
 38 H       -6.8260    -2.0770    -0.1480 H     1 <1>   0.0800 
 39 H       -6.6240    -1.7570    -1.8320 H     1 <1>   0.0800 
 40 H       -7.7230     0.4090    -1.5910 H     1 <1>   0.0800 
 41 H       -7.9800     0.1620     0.0980 H     1 <1>   0.0800 
 42 H       -5.0900    -3.5100    -0.6740 H     1 <1>   0.0800 
 43 H       -4.3630    -2.4150    -1.8070 H     1 <1>   0.0800 
 44 H        0.8480     2.6810    -2.6360 H     1 <1>   0.1500 
 45 H       -6.5220     2.5620    -1.0540 H     1 <1>   0.0800 
 46 H       -6.9340     2.3210     0.6300 H     1 <1>   0.0800 
 47 H       -8.1920     2.5430    -0.5520 H     1 <1>   0.0800 
@<TRIPOS>BOND
  1   1   2  2   
  2   2   3  am  
  3   2   4  1   
  4   3   5  1   
  5   3   6  1   
  6   4   7  1   
  7   4  23  1   
  8   4  24  1   
  9   5   8  1   
 10   5  25  1   
 11   5  26  1   
 12   6   9  1   
 13   6  27  1   
 14   6  28  1   
 15   7  10  ar  
 16   7  11  ar  
 17   8   9  1   
 18   8  12  1   
 19   8  29  1   
 20   9  13  1   
 21   9  30  1   
 22  10  14  1   
 23  10  15  ar  
 24  11  16  ar  
 25  11  31  1   
 26  12  17  1   
 27  12  18  1   
 28  12  19  1   
 29  13  20  1   
 30  13  32  1   
 31  13  33  1   
 32  14  34  1   
 33  15  21  ar  
 34  15  35  1   
 35  16  21  ar  
 36  16  36  1   
 37  17  37  1   
 38  18  20  1   
 39  18  38  1   
 40  18  39  1   
 41  19  22  1   
 42  19  40  1   
 43  19  41  1   
 44  20  42  1   
 45  20  43  1   
 46  21  44  1   
 47  22  45  1   
 48  22  46  1   
 49  22  47  1   
@<TRIPOS>SUBSTRUCTURE
  1 ****   5 GROUP 4 **** **** 0

# MOE 2024.06 (io_trps.svl 2023.06)
