@<TRIPOS>MOLECULE
NONAME
47 51 1 0 0 
SMALL
USER_CHARGES


@<TRIPOS>ATOM
  1 O       -0.7400     0.5730    -1.0680 O.2   1 <1>  -0.5700 
  2 C       -1.7680     1.1070    -0.6840 C.2   1 <1>   0.7160 
  3 N       -2.9600     0.4390    -0.9200 N.am  1 <1>  -0.6600 
  4 C       -1.6710     2.3920     0.0010 C.2   1 <1>   0.2030 
  5 C       -4.2090     0.6300    -0.1300 C.3   1 <1>   0.1400 
  6 C       -3.0800    -0.5930    -1.9890 C.3   1 <1>   0.1400 
  7 N       -2.6070     3.2740     0.2110 N.2   1 <1>  -0.4100 
  8 C       -0.4920     2.8940     0.5360 C.2   1 <1>  -0.1500 
  9 C       -4.6110    -0.7010     0.5070 C.3   1 <1>  -0.1600 
 10 C       -3.4630    -1.9330    -1.3630 C.3   1 <1>  -0.1600 
 11 O       -2.1290     4.3110     0.8530 O.3   1 <1>  -0.0190 
 12 C       -0.8500     4.0750     1.0440 C.2   1 <1>  -0.0400 
 13 C       -4.7460    -1.8180    -0.5360 C.3   1 <1>   0.4600 
 14 C       -0.0190     5.1160     1.7640 C.3   1 <1>  -0.0600 
 15 O       -5.7750    -1.4830    -1.4430 O.3   1 <1>  -0.5600 
 16 C       -5.0730    -3.1520     0.1240 C.2   1 <1>  -0.3320 
 17 C       -7.1060    -1.7380    -1.0620 C.3   1 <1>   0.1200 
 18 N       -4.2530    -3.8750     0.9460 N.pl3 1 <1>   0.0330 
 19 C       -6.2420    -3.8060    -0.0240 C.2   1 <1>  -0.1810 
 20 C       -7.3530    -3.2440    -0.8760 C.3   1 <1>   0.0210 
 21 C       -4.9240    -5.0150     1.3190 C.ar  1 <1>  -0.1520 
 22 C       -6.1820    -5.0020     0.7200 C.ar  1 <1>   0.0000 
 23 C       -4.5340    -6.0750     2.1400 C.ar  1 <1>  -0.1500 
 24 C       -7.0650    -6.0630     0.9420 C.ar  1 <1>  -0.1500 
 25 C       -5.4130    -7.1120     2.3510 C.ar  1 <1>  -0.1500 
 26 C       -6.6790    -7.1060     1.7520 C.ar  1 <1>  -0.1500 
 27 H       -4.9900     0.9810    -0.7840 H     1 <1>   0.0800 
 28 H       -4.0720     1.3530     0.6520 H     1 <1>   0.0800 
 29 H       -2.1560    -0.6960    -2.5320 H     1 <1>   0.0800 
 30 H       -3.8400    -0.2860    -2.6880 H     1 <1>   0.0800 
 31 H        0.4640     2.4030     0.5150 H     1 <1>   0.1500 
 32 H       -5.5300    -0.5890     1.0490 H     1 <1>   0.0800 
 33 H       -3.8570    -0.9760     1.2210 H     1 <1>   0.0800 
 34 H       -2.6520    -2.2620    -0.7400 H     1 <1>   0.0800 
 35 H       -3.6060    -2.6700    -2.1320 H     1 <1>   0.0800 
 36 H        1.0020     4.7880     1.8440 H     1 <1>   0.0800 
 37 H       -0.4130     5.2780     2.7510 H     1 <1>   0.0800 
 38 H       -0.0460     6.0430     1.2210 H     1 <1>   0.0800 
 39 H       -7.7480    -1.3490    -1.8320 H     1 <1>   0.0800 
 40 H       -7.3080    -1.2110    -0.1470 H     1 <1>   0.0800 
 41 H       -3.3000    -3.6320     1.2310 H     1 <1>   0.2700 
 42 H       -7.3610    -3.7360    -1.8320 H     1 <1>   0.0800 
 43 H       -8.3020    -3.4000    -0.3990 H     1 <1>   0.0800 
 44 H       -3.5600    -6.0730     2.5960 H     1 <1>   0.1500 
 45 H       -8.0310    -6.0450     0.4750 H     1 <1>   0.1500 
 46 H       -5.1360    -7.9400     2.9800 H     1 <1>   0.1500 
 47 H       -7.3470    -7.9300     1.9320 H     1 <1>   0.1500 
@<TRIPOS>BOND
  1   1   2  2   
  2   2   3  am  
  3   2   4  1   
  4   3   5  1   
  5   3   6  1   
  6   4   7  2   
  7   4   8  1   
  8   5   9  1   
  9   5  27  1   
 10   5  28  1   
 11   6  10  1   
 12   6  29  1   
 13   6  30  1   
 14   7  11  1   
 15   8  12  2   
 16   8  31  1   
 17   9  13  1   
 18   9  32  1   
 19   9  33  1   
 20  10  13  1   
 21  10  34  1   
 22  10  35  1   
 23  11  12  1   
 24  12  14  1   
 25  13  15  1   
 26  13  16  1   
 27  14  36  1   
 28  14  37  1   
 29  14  38  1   
 30  15  17  1   
 31  16  18  1   
 32  16  19  2   
 33  17  20  1   
 34  17  39  1   
 35  17  40  1   
 36  18  21  1   
 37  18  41  1   
 38  19  20  1   
 39  19  22  1   
 40  20  42  1   
 41  20  43  1   
 42  21  22  ar  
 43  21  23  ar  
 44  22  24  ar  
 45  23  25  ar  
 46  23  44  1   
 47  24  26  ar  
 48  24  45  1   
 49  25  26  ar  
 50  25  46  1   
 51  26  47  1   
@<TRIPOS>SUBSTRUCTURE
  1 ****   9 GROUP 4 **** **** 0

# MOE 2024.06 (io_trps.svl 2023.06)
