@<TRIPOS>MOLECULE
NONAME
52 56 1 0 0 
SMALL
USER_CHARGES


@<TRIPOS>ATOM
  1 O        0.0740    -0.0710    -0.5190 O.2   1 <1>  -0.5700 
  2 C        0.4820    -0.9530     0.1970 C.2   1 <1>   0.5690 
  3 N       -0.0640    -2.1780     0.4300 N.am  1 <1>  -0.6600 
  4 C        1.7420    -0.8860     0.9770 C.3   1 <1>  -0.0190 
  5 C        0.9640    -3.0710     1.0860 C.3   1 <1>   0.1400 
  6 C       -1.1270    -2.7630    -0.4300 C.3   1 <1>   0.2840 
  7 C        2.2510    -2.3050     0.7200 C.3   1 <1>   0.4180 
  8 C        3.1130    -0.1140     1.2570 C.3   1 <1>  -0.0190 
  9 C       -0.5180    -3.4890    -1.6260 C.ar  1 <1>   0.1660 
 10 O        3.2940    -1.6100     0.3470 O.3   1 <1>  -0.5600 
 11 C        3.2990    -3.3460     0.3980 C.2   1 <1>  -0.2880 
 12 C        3.5400     0.9270     0.2240 C.2   1 <1>   0.5690 
 13 C        4.0420    -1.3600     1.3320 C.3   1 <1>   0.3380 
 14 N       -0.3910    -4.8070    -1.5300 N.ar  1 <1>  -0.6200 
 15 C       -0.1220    -2.7520    -2.7320 C.ar  1 <1>  -0.1500 
 16 C        4.4360    -2.7760     0.8740 C.2   1 <1>  -0.2880 
 17 O        4.6020     1.4730     0.4040 O.2   1 <1>  -0.5700 
 18 N        2.7100     1.2300    -0.8230 N.am  1 <1>  -0.4940 
 19 C        0.1430    -5.4090    -2.5810 C.ar  1 <1>   0.1600 
 20 C        0.4360    -3.3930    -3.8170 C.ar  1 <1>  -0.1500 
 21 C        2.8900     2.1160    -1.9100 C.2   1 <1>  -0.0880 
 22 C        0.5670    -4.7620    -3.7290 C.ar  1 <1>  -0.1500 
 23 N        4.0190     2.3250    -2.6480 N.pl3 1 <1>   0.3140 
 24 C        1.9320     2.9040    -2.4490 C.2   1 <1>  -0.1500 
 25 N        3.7900     3.2220    -3.6420 N.2   1 <1>  -0.7070 
 26 C        5.3120     1.6090    -2.5780 C.3   1 <1>   0.0960 
 27 C        2.5470     3.5620    -3.5040 C.2   1 <1>   0.1390 
 28 C        6.4390     2.5350    -2.0960 C.3   1 <1>  -0.1600 
 29 C        7.7680     1.7800    -1.9780 C.3   1 <1>  -0.2400 
 30 H        1.3350    -0.8690     1.9740 H     1 <1>   0.0800 
 31 H        0.8100    -3.1270     2.1490 H     1 <1>   0.0800 
 32 H        0.9430    -4.0570     0.6560 H     1 <1>   0.0800 
 33 H       -1.7200    -3.4490     0.1480 H     1 <1>   0.0800 
 34 H       -1.7720    -1.9770    -0.7820 H     1 <1>   0.0800 
 35 H        3.0860     0.3730     2.2150 H     1 <1>   0.0800 
 36 H        3.0790    -4.2890    -0.0710 H     1 <1>   0.1500 
 37 H        4.7230    -1.1610     2.1430 H     1 <1>   0.0800 
 38 H       -0.2440    -1.6830    -2.7430 H     1 <1>   0.1500 
 39 H        5.4540    -3.1170     0.9250 H     1 <1>   0.1500 
 40 H        1.7780     0.7940    -0.7920 H     1 <1>   0.3700 
 41 H        0.2510    -6.4790    -2.5250 H     1 <1>   0.1500 
 42 H        0.7550    -2.8490    -4.6890 H     1 <1>   0.1500 
 43 H        0.9930    -5.3240    -4.5400 H     1 <1>   0.1500 
 44 H        0.9080     3.0100    -2.1430 H     1 <1>   0.1500 
 45 H        5.2120     0.7640    -1.9250 H     1 <1>   0.0800 
 46 H        5.5380     1.2460    -3.5630 H     1 <1>   0.0800 
 47 H        2.0570     4.2740    -4.1450 H     1 <1>   0.1500 
 48 H        6.5500     3.3490    -2.7920 H     1 <1>   0.0800 
 49 H        6.1780     2.9430    -1.1350 H     1 <1>   0.0800 
 50 H        8.0580     1.3740    -2.9310 H     1 <1>   0.0800 
 51 H        7.6770     0.9770    -1.2670 H     1 <1>   0.0800 
 52 H        8.5390     2.4490    -1.6400 H     1 <1>   0.0800 
@<TRIPOS>BOND
  1   1   2  2   
  2   2   3  am  
  3   2   4  1   
  4   3   5  1   
  5   3   6  1   
  6   4   7  1   
  7   4   8  1   
  8   4  30  1   
  9   5   7  1   
 10   5  31  1   
 11   5  32  1   
 12   6   9  1   
 13   6  33  1   
 14   6  34  1   
 15   7  10  1   
 16   7  11  1   
 17   8  12  1   
 18   8  13  1   
 19   8  35  1   
 20   9  14  ar  
 21   9  15  ar  
 22  10  13  1   
 23  11  16  2   
 24  11  36  1   
 25  12  17  2   
 26  12  18  am  
 27  13  16  1   
 28  13  37  1   
 29  14  19  ar  
 30  15  20  ar  
 31  15  38  1   
 32  16  39  1   
 33  18  21  1   
 34  18  40  1   
 35  19  22  ar  
 36  19  41  1   
 37  20  22  ar  
 38  20  42  1   
 39  21  23  1   
 40  21  24  2   
 41  22  43  1   
 42  23  25  1   
 43  23  26  1   
 44  24  27  1   
 45  24  44  1   
 46  25  27  2   
 47  26  28  1   
 48  26  45  1   
 49  26  46  1   
 50  27  47  1   
 51  28  29  1   
 52  28  48  1   
 53  28  49  1   
 54  29  50  1   
 55  29  51  1   
 56  29  52  1   
@<TRIPOS>SUBSTRUCTURE
  1 ****  10 GROUP 4 **** **** 0

# MOE 2024.06 (io_trps.svl 2023.06)
