@<TRIPOS>MOLECULE
NONAME
50 51 1 0 0 
SMALL
USER_CHARGES


@<TRIPOS>ATOM
  1 O       -0.5570    -0.2290     2.0210 O.2   1 <1>  -0.5700 
  2 C       -1.2350     0.3390     1.1950 C.2   1 <1>   0.5690 
  3 N       -1.9260    -0.3700     0.2350 N.am  1 <1>  -0.6600 
  4 C       -1.3210     1.8760     1.2960 C.3   1 <1>   0.1710 
  5 C       -1.7340    -1.8450     0.1250 C.3   1 <1>   0.3200 
  6 C       -2.8560     0.2380    -0.7620 C.3   1 <1>   0.1400 
  7 N       -0.2050     2.6420     0.6690 N.3   1 <1>  -0.8100 
  8 C       -3.0350    -2.5600     0.4270 C.2   1 <1>  -0.3320 
  9 C       -4.2620     0.4360    -0.1780 C.3   1 <1>   0.1200 
 10 C       -0.2740     4.0710     1.0260 C.3   1 <1>   0.2530 
 11 C       -0.0900     2.4340    -0.7820 C.3   1 <1>   0.0300 
 12 N       -3.9210    -2.9800    -0.4970 N.pl3 1 <1>   0.0330 
 13 C       -3.5490    -2.9030     1.6270 C.2   1 <1>   0.0770 
 14 O       -5.0800     0.9810    -1.1590 O.3   1 <1>  -0.6800 
 15 C        0.9580     4.8370     0.5600 C.ar  1 <1>  -0.1440 
 16 C       -4.9250    -3.5460     0.2070 C.2   1 <1>   0.0060 
 17 N       -4.7370    -3.5210     1.4850 N.2   1 <1>  -0.5650 
 18 C        2.2260     4.3960     0.9040 C.ar  1 <1>  -0.1500 
 19 C        0.8290     5.9850    -0.2070 C.ar  1 <1>  -0.1500 
 20 C       -6.1510    -4.1430    -0.4480 C.3   1 <1>  -0.0600 
 21 C        3.3480     5.0910     0.4890 C.ar  1 <1>  -0.1500 
 22 C        1.9520     6.6800    -0.6230 C.ar  1 <1>  -0.1500 
 23 C        3.2180     6.2370    -0.2780 C.ar  1 <1>  -0.1440 
 24 C        4.4490     7.0000    -0.7320 C.3   1 <1>  -0.0970 
 25 H       -1.3280     2.1010     2.3480 H     1 <1>   0.0800 
 26 H       -2.2560     2.2180     0.8980 H     1 <1>   0.0800 
 27 H       -0.9840    -2.1860     0.8180 H     1 <1>   0.0800 
 28 H       -1.3890    -2.0920    -0.8640 H     1 <1>   0.0800 
 29 H       -2.9210    -0.4020    -1.6240 H     1 <1>   0.0800 
 30 H       -2.4700     1.1860    -1.0860 H     1 <1>   0.0800 
 31 H       -4.2530     1.1020     0.6660 H     1 <1>   0.0800 
 32 H       -4.6950    -0.5020     0.1190 H     1 <1>   0.0800 
 33 H       -0.3370     4.1650     2.0970 H     1 <1>   0.0800 
 34 H       -1.1610     4.5070     0.6000 H     1 <1>   0.0800 
 35 H       -0.0170     1.3830    -1.0010 H     1 <1>   0.0800 
 36 H        0.8050     2.9050    -1.1520 H     1 <1>   0.0800 
 37 H       -0.9380     2.8520    -1.2940 H     1 <1>   0.0800 
 38 H       -3.8700    -2.8900    -1.5150 H     1 <1>   0.2700 
 39 H       -3.1200    -2.7300     2.6010 H     1 <1>   0.1500 
 40 H       -4.9280     1.9410    -1.2570 H     1 <1>   0.4000 
 41 H        2.3340     3.5020     1.4940 H     1 <1>   0.1500 
 42 H       -0.1450     6.3460    -0.4860 H     1 <1>   0.1500 
 43 H       -5.8660    -4.9480    -1.1010 H     1 <1>   0.0800 
 44 H       -6.6720    -3.3910    -1.0110 H     1 <1>   0.0800 
 45 H       -6.8130    -4.5290     0.3060 H     1 <1>   0.0800 
 46 H        4.3230     4.7320     0.7670 H     1 <1>   0.1500 
 47 H        1.8360     7.5700    -1.2160 H     1 <1>   0.1500 
 48 H        5.2810     6.3300    -0.8550 H     1 <1>   0.0800 
 49 H        4.7050     7.7430     0.0010 H     1 <1>   0.0800 
 50 H        4.2630     7.4870    -1.6720 H     1 <1>   0.0800 
@<TRIPOS>BOND
  1   1   2  2   
  2   2   3  am  
  3   2   4  1   
  4   3   5  1   
  5   3   6  1   
  6   4   7  1   
  7   4  25  1   
  8   4  26  1   
  9   5   8  1   
 10   5  27  1   
 11   5  28  1   
 12   6   9  1   
 13   6  29  1   
 14   6  30  1   
 15   7  10  1   
 16   7  11  1   
 17   8  12  1   
 18   8  13  2   
 19   9  14  1   
 20   9  31  1   
 21   9  32  1   
 22  10  15  1   
 23  10  33  1   
 24  10  34  1   
 25  11  35  1   
 26  11  36  1   
 27  11  37  1   
 28  12  16  1   
 29  12  38  1   
 30  13  17  1   
 31  13  39  1   
 32  14  40  1   
 33  15  18  ar  
 34  15  19  ar  
 35  16  17  2   
 36  16  20  1   
 37  18  21  ar  
 38  18  41  1   
 39  19  22  ar  
 40  19  42  1   
 41  20  43  1   
 42  20  44  1   
 43  20  45  1   
 44  21  23  ar  
 45  21  46  1   
 46  22  23  ar  
 47  22  47  1   
 48  23  24  1   
 49  24  48  1   
 50  24  49  1   
 51  24  50  1   
@<TRIPOS>SUBSTRUCTURE
  1 ****   4 GROUP 4 **** **** 0

# MOE 2024.06 (io_trps.svl 2023.06)
