@<TRIPOS>MOLECULE
NONAME
43 46 1 0 0 
SMALL
USER_CHARGES


@<TRIPOS>ATOM
  1 O       -0.4060     1.0810     0.8160 O.2   1 <1>  -0.5700 
  2 C       -0.1900     2.2420     0.5100 C.2   1 <1>   0.7150 
  3 N       -1.2750     3.0810     0.3280 N.am  1 <1>  -0.6600 
  4 C        1.1890     2.6640     0.3500 C.2   1 <1>   0.0550 
  5 C       -2.6210     2.7490     0.8860 C.3   1 <1>   0.1400 
  6 C       -1.2430     4.3320    -0.4800 C.3   1 <1>   0.1400 
  7 O        1.5620     3.9460     0.5060 O.3   1 <1>  -0.2800 
  8 C        2.2870     1.9150     0.0710 C.2   1 <1>  -0.1500 
  9 C       -3.6830     2.6210    -0.2330 C.3   1 <1>   0.0000 
 10 C       -2.2940     4.2710    -1.5950 C.3   1 <1>  -0.1600 
 11 C        2.8780     4.0240     0.3210 C.ar  1 <1>   0.1400 
 12 C        3.3970     2.7740     0.0400 C.ar  1 <1>   0.0000 
 13 C       -5.0840     2.2970     0.3260 C.3   1 <1>   0.2000 
 14 C       -3.6940     3.9230    -1.0630 C.3   1 <1>  -0.1600 
 15 C       -3.4030     1.3810    -1.1010 C.3   1 <1>  -0.1600 
 16 C        3.6800     5.1550     0.3820 C.ar  1 <1>  -0.1500 
 17 C        4.7670     2.6360    -0.1900 C.ar  1 <1>  -0.1500 
 18 O       -5.3460     2.9210     1.5340 O.3   1 <1>  -0.6800 
 19 C       -5.1560     0.7770     0.4940 C.3   1 <1>  -0.1600 
 20 C       -3.9930     0.2020    -0.3240 C.3   1 <1>  -0.1600 
 21 C        5.0330     5.0120     0.1530 C.ar  1 <1>  -0.1500 
 22 C        5.5730     3.7540    -0.1320 C.ar  1 <1>  -0.1500 
 23 H       -2.5770     1.8410     1.4620 H     1 <1>   0.0800 
 24 H       -2.9000     3.5430     1.5570 H     1 <1>   0.0800 
 25 H       -1.4410     5.1700     0.1670 H     1 <1>   0.0800 
 26 H       -0.2780     4.4760    -0.9320 H     1 <1>   0.0800 
 27 H        2.3280     0.8540    -0.0940 H     1 <1>   0.1500 
 28 H       -2.3280     5.2220    -2.0960 H     1 <1>   0.0800 
 29 H       -1.9860     3.5380    -2.3190 H     1 <1>   0.0800 
 30 H       -5.8360     2.6140    -0.3760 H     1 <1>   0.0800 
 31 H       -4.3800     3.8330    -1.8870 H     1 <1>   0.0800 
 32 H       -4.0410     4.7290    -0.4380 H     1 <1>   0.0800 
 33 H       -3.9220     1.4700    -2.0390 H     1 <1>   0.0800 
 34 H       -2.3570     1.2350    -1.3040 H     1 <1>   0.0800 
 35 H        3.2390     6.1100     0.6050 H     1 <1>   0.1500 
 36 H        5.1720     1.6640    -0.4080 H     1 <1>   0.1500 
 37 H       -4.8410     2.4890     2.2470 H     1 <1>   0.4000 
 38 H       -5.0580     0.4800     1.5240 H     1 <1>   0.0800 
 39 H       -6.0940     0.4180     0.1100 H     1 <1>   0.0800 
 40 H       -3.2440    -0.1960     0.3410 H     1 <1>   0.0800 
 41 H       -4.3170    -0.5820    -0.9870 H     1 <1>   0.0800 
 42 H        5.6830     5.8700     0.1940 H     1 <1>   0.1500 
 43 H        6.6320     3.6650    -0.3070 H     1 <1>   0.1500 
@<TRIPOS>BOND
  1   1   2  2   
  2   2   3  am  
  3   2   4  1   
  4   3   5  1   
  5   3   6  1   
  6   4   7  1   
  7   4   8  2   
  8   5   9  1   
  9   5  23  1   
 10   5  24  1   
 11   6  10  1   
 12   6  25  1   
 13   6  26  1   
 14   7  11  1   
 15   8  12  1   
 16   8  27  1   
 17   9  13  1   
 18   9  14  1   
 19   9  15  1   
 20  10  14  1   
 21  10  28  1   
 22  10  29  1   
 23  11  12  ar  
 24  11  16  ar  
 25  12  17  ar  
 26  13  18  1   
 27  13  19  1   
 28  13  30  1   
 29  14  31  1   
 30  14  32  1   
 31  15  20  1   
 32  15  33  1   
 33  15  34  1   
 34  16  21  ar  
 35  16  35  1   
 36  17  22  ar  
 37  17  36  1   
 38  18  37  1   
 39  19  20  1   
 40  19  38  1   
 41  19  39  1   
 42  20  40  1   
 43  20  41  1   
 44  21  22  ar  
 45  21  42  1   
 46  22  43  1   
@<TRIPOS>SUBSTRUCTURE
  1 ****   2 GROUP 4 **** **** 0

# MOE 2024.06 (io_trps.svl 2023.06)
