@<TRIPOS>MOLECULE
NONAME
46 48 1 0 0 
SMALL
USER_CHARGES


@<TRIPOS>ATOM
  1 F       -1.5370    -0.1840     1.6390 F     1 <1>  -0.1900 
  2 C       -2.1160    -0.8190     0.6420 C.ar  1 <1>   0.1900 
  3 C       -2.6530    -0.0800    -0.4330 C.ar  1 <1>  -0.1710 
  4 C       -2.1750    -2.1870     0.6990 C.ar  1 <1>  -0.1500 
  5 O       -2.6400     1.1730    -0.5080 O.3   1 <1>  -0.8290 
  6 C       -3.2330    -0.8150    -1.4710 C.ar  1 <1>  -0.1500 
  7 C       -2.7930    -2.9180    -0.3260 C.ar  1 <1>   0.0860 
  8 C       -3.2950    -2.1880    -1.4180 C.ar  1 <1>  -0.1500 
  9 C       -2.9200    -4.3480    -0.2460 C.2   1 <1>   0.5440 
 10 O       -2.0300    -5.0250     0.2490 O.2   1 <1>  -0.5700 
 11 N       -4.0570    -5.0050    -0.6870 N.am  1 <1>  -0.6600 
 12 C       -5.4200    -4.4200    -0.4980 C.3   1 <1>   0.1400 
 13 C       -4.0880    -6.4890    -0.8510 C.3   1 <1>   0.1400 
 14 C       -6.2020    -5.1860     0.5930 C.3   1 <1>   0.2950 
 15 C       -4.9290    -7.1410     0.2660 C.3   1 <1>   0.2000 
 16 O       -6.2010    -6.5570     0.3090 O.3   1 <1>  -0.5600 
 17 C       -7.6740    -4.7630     0.7510 C.3   1 <1>  -0.1950 
 18 C       -5.1420    -8.6470     0.0630 C.3   1 <1>  -0.1600 
 19 C       -8.5940    -4.4940    -0.4000 C.3   1 <1>  -0.2000 
 20 C       -8.1670    -3.3690     0.5020 C.3   1 <1>  -0.2000 
 21 C       -3.8370    -9.4560     0.1440 C.3   1 <1>  -0.1600 
 22 C       -4.1160   -10.9590     0.0320 C.3   1 <1>  -0.1600 
 23 C       -2.8170   -11.7670     0.1100 C.3   1 <1>  -0.2400 
 24 H       -1.7510    -2.7040     1.5380 H     1 <1>   0.1500 
 25 H       -3.6210    -0.2560    -2.3020 H     1 <1>   0.1500 
 26 H       -3.7400    -2.7230    -2.2350 H     1 <1>   0.1500 
 27 H       -5.3500    -3.3870    -0.2090 H     1 <1>   0.0800 
 28 H       -5.9520    -4.4690    -1.4300 H     1 <1>   0.0800 
 29 H       -4.5190    -6.7290    -1.8070 H     1 <1>   0.0800 
 30 H       -3.0890    -6.8850    -0.8340 H     1 <1>   0.0800 
 31 H       -5.7050    -5.0410     1.5370 H     1 <1>   0.0800 
 32 H       -4.4510    -6.9750     1.2170 H     1 <1>   0.0800 
 33 H       -8.1090    -5.2680     1.5960 H     1 <1>   0.1000 
 34 H       -5.8120    -8.9950     0.8290 H     1 <1>   0.0800 
 35 H       -5.6100    -8.8110    -0.8920 H     1 <1>   0.0800 
 36 H       -8.2120    -4.5330    -1.4050 H     1 <1>   0.1000 
 37 H       -9.6040    -4.8610    -0.3360 H     1 <1>   0.1000 
 38 H       -8.8900    -2.9520     1.1820 H     1 <1>   0.1000 
 39 H       -7.5140    -2.6160     0.0970 H     1 <1>   0.1000 
 40 H       -3.1720    -9.1650    -0.6510 H     1 <1>   0.0800 
 41 H       -3.3470    -9.2530     1.0810 H     1 <1>   0.0800 
 42 H       -4.7710   -11.2660     0.8300 H     1 <1>   0.0800 
 43 H       -4.6080   -11.1680    -0.9020 H     1 <1>   0.0800 
 44 H       -2.3190   -11.5890     1.0470 H     1 <1>   0.0800 
 45 H       -2.1550   -11.4930    -0.6930 H     1 <1>   0.0800 
 46 H       -3.0330   -12.8180     0.0320 H     1 <1>   0.0800 
@<TRIPOS>BOND
  1   1   2  1   
  2   2   3  ar  
  3   2   4  ar  
  4   3   5  1   
  5   3   6  ar  
  6   4   7  ar  
  7   4  24  1   
  8   6   8  ar  
  9   6  25  1   
 10   7   8  ar  
 11   7   9  1   
 12   8  26  1   
 13   9  10  2   
 14   9  11  am  
 15  11  12  1   
 16  11  13  1   
 17  12  14  1   
 18  12  27  1   
 19  12  28  1   
 20  13  15  1   
 21  13  29  1   
 22  13  30  1   
 23  14  16  1   
 24  14  17  1   
 25  14  31  1   
 26  15  16  1   
 27  15  18  1   
 28  15  32  1   
 29  17  19  1   
 30  17  20  1   
 31  17  33  1   
 32  18  21  1   
 33  18  34  1   
 34  18  35  1   
 35  19  20  1   
 36  19  36  1   
 37  19  37  1   
 38  20  38  1   
 39  20  39  1   
 40  21  22  1   
 41  21  40  1   
 42  21  41  1   
 43  22  23  1   
 44  22  42  1   
 45  22  43  1   
 46  23  44  1   
 47  23  45  1   
 48  23  46  1   
@<TRIPOS>SUBSTRUCTURE
  1 ****  11 GROUP 4 **** **** 0

# MOE 2024.06 (io_trps.svl 2023.06)
