@<TRIPOS>MOLECULE
NONAME
59 62 1 0 0 
SMALL
USER_CHARGES


@<TRIPOS>ATOM
  1 O        0.2170     0.5290     0.6710 O.2   1 <1>  -0.5700 
  2 C       -0.2560     1.5390     0.2040 C.2   1 <1>   0.5690 
  3 N       -1.5880     1.6320    -0.1120 N.am  1 <1>  -0.6600 
  4 C        0.6810     2.7170    -0.0270 C.3   1 <1>  -0.0990 
  5 C       -2.2470     2.7910    -0.7970 C.3   1 <1>   0.1400 
  6 C       -2.5480     0.5490     0.2460 C.3   1 <1>   0.1400 
  7 C        1.9430     2.6830     0.8560 C.3   1 <1>  -0.0990 
  8 C       -3.3220     3.4200     0.1110 C.3   1 <1>   0.1440 
  9 C       -3.6550     1.1140     1.1490 C.3   1 <1>  -0.1600 
 10 C        2.7910     3.9180     0.6400 C.2   1 <1>   0.5690 
 11 C       -3.9520     4.5820    -0.6360 C.ar  1 <1>   0.1660 
 12 C       -4.3460     2.3380     0.5180 C.3   1 <1>  -0.1600 
 13 C       -2.6990     4.1270     1.3460 C.3   1 <1>  -0.1600 
 14 O        2.3320     4.9830     0.9710 O.2   1 <1>  -0.5700 
 15 N        4.0160     3.7530     0.0560 N.am  1 <1>  -0.5470 
 16 N       -4.8030     4.4800    -1.6300 N.ar  1 <1>  -0.6200 
 17 C       -3.5040     5.7800    -0.1620 C.ar  1 <1>  -0.1440 
 18 C       -2.5210     5.6080     0.9700 C.3   1 <1>  -0.0170 
 19 C        5.0120     4.6830    -0.2800 C.ar  1 <1>   0.1170 
 20 C       -5.1910     5.6450    -2.1270 C.ar  1 <1>   0.7200 
 21 C       -3.9830     6.9230    -0.7550 C.ar  1 <1>   0.1600 
 22 C        5.1210     5.9330     0.3220 C.ar  1 <1>  -0.1500 
 23 C        5.9460     4.3350    -1.2490 C.ar  1 <1>  -0.1500 
 24 N       -4.8420     6.8660    -1.7480 N.ar  1 <1>  -0.6200 
 25 N       -6.0690     5.5810    -3.1300 N.pl3 1 <1>  -0.9000 
 26 C        6.1260     6.8170    -0.0330 C.ar  1 <1>  -0.1440 
 27 C        6.9530     5.2100    -1.6110 C.ar  1 <1>  -0.1500 
 28 C        7.0430     6.4510    -1.0050 C.ar  1 <1>  -0.1500 
 29 C        6.2200     8.1780     0.6370 C.3   1 <1>  -0.0170 
 30 C        5.3960     9.2120    -0.1330 C.3   1 <1>  -0.2400 
 31 H        0.1620     3.6300     0.1920 H     1 <1>   0.0800 
 32 H        0.9640     2.7280    -1.0630 H     1 <1>   0.0800 
 33 H       -2.7200     2.4330    -1.6950 H     1 <1>   0.0800 
 34 H       -1.5350     3.5380    -1.0940 H     1 <1>   0.0800 
 35 H       -2.0450    -0.2560     0.7560 H     1 <1>   0.0800 
 36 H       -2.9780     0.1500    -0.6560 H     1 <1>   0.0800 
 37 H        2.5140     1.7970     0.6460 H     1 <1>   0.0800 
 38 H        1.6530     2.6500     1.8910 H     1 <1>   0.0800 
 39 H       -3.2230     1.3810     2.0970 H     1 <1>   0.0800 
 40 H       -4.3840     0.3450     1.3310 H     1 <1>   0.0800 
 41 H       -4.8780     2.0170    -0.3610 H     1 <1>   0.0800 
 42 H       -5.0700     2.7490     1.1990 H     1 <1>   0.0800 
 43 H       -1.7750     3.6800     1.6660 H     1 <1>   0.0800 
 44 H       -3.3910     4.0770     2.1680 H     1 <1>   0.0800 
 45 H        4.2340     2.7960    -0.2140 H     1 <1>   0.3700 
 46 H       -1.5210     5.7950     0.6170 H     1 <1>   0.0800 
 47 H       -2.7450     6.2560     1.7990 H     1 <1>   0.0800 
 48 H       -3.6590     7.8910    -0.4130 H     1 <1>   0.1500 
 49 H        4.4160     6.2200     1.0790 H     1 <1>   0.1500 
 50 H        5.8860     3.3760    -1.7290 H     1 <1>   0.1500 
 51 H       -6.5900     6.4360    -3.2990 H     1 <1>   0.4000 
 52 H       -6.5810     4.7080    -3.2010 H     1 <1>   0.4000 
 53 H        7.6680     4.9310    -2.3650 H     1 <1>   0.1500 
 54 H        7.8260     7.1300    -1.2930 H     1 <1>   0.1500 
 55 H        7.2480     8.4930     0.6790 H     1 <1>   0.0800 
 56 H        5.8580     8.1100     1.6480 H     1 <1>   0.0800 
 57 H        5.7570     9.2990    -1.1420 H     1 <1>   0.0800 
 58 H        5.4650    10.1730     0.3450 H     1 <1>   0.0800 
 59 H        4.3630     8.9130    -0.1620 H     1 <1>   0.0800 
@<TRIPOS>BOND
  1   1   2  2   
  2   2   3  am  
  3   2   4  1   
  4   3   5  1   
  5   3   6  1   
  6   4   7  1   
  7   4  31  1   
  8   4  32  1   
  9   5   8  1   
 10   5  33  1   
 11   5  34  1   
 12   6   9  1   
 13   6  35  1   
 14   6  36  1   
 15   7  10  1   
 16   7  37  1   
 17   7  38  1   
 18   8  11  1   
 19   8  12  1   
 20   8  13  1   
 21   9  12  1   
 22   9  39  1   
 23   9  40  1   
 24  10  14  2   
 25  10  15  am  
 26  11  16  ar  
 27  11  17  ar  
 28  12  41  1   
 29  12  42  1   
 30  13  18  1   
 31  13  43  1   
 32  13  44  1   
 33  15  19  1   
 34  15  45  1   
 35  16  20  ar  
 36  17  18  1   
 37  17  21  ar  
 38  18  46  1   
 39  18  47  1   
 40  19  22  ar  
 41  19  23  ar  
 42  20  24  ar  
 43  20  25  1   
 44  21  24  ar  
 45  21  48  1   
 46  22  26  ar  
 47  22  49  1   
 48  23  27  ar  
 49  23  50  1   
 50  25  51  1   
 51  25  52  1   
 52  26  28  ar  
 53  26  29  1   
 54  27  28  ar  
 55  27  53  1   
 56  28  54  1   
 57  29  30  1   
 58  29  55  1   
 59  29  56  1   
 60  30  57  1   
 61  30  58  1   
 62  30  59  1   
@<TRIPOS>SUBSTRUCTURE
  1 ****   4 GROUP 4 **** **** 0

# MOE 2024.06 (io_trps.svl 2023.06)
