@<TRIPOS>MOLECULE
NONAME
37 39 1 0 0 
SMALL
USER_CHARGES


@<TRIPOS>ATOM
  1 O       -0.1220     0.1940    -0.5020 O.3   1 <1>  -0.2800 
  2 C       -1.2990     0.8080    -0.5740 C.2   1 <1>   0.5620 
  3 C        0.7430     1.1370    -0.1850 C.ar  1 <1>   0.1400 
  4 N       -1.2660     2.0730    -0.3280 N.2   1 <1>  -0.5650 
  5 N       -2.4220     0.0740    -0.8910 N.pl3 1 <1>  -0.8220 
  6 C        0.0430     2.3110    -0.0740 C.ar  1 <1>   0.2270 
  7 C        2.1110     1.0650     0.0200 C.ar  1 <1>  -0.1500 
  8 C       -2.3940    -1.4070    -1.0740 C.3   1 <1>   0.2090 
  9 C       -3.7660     0.7000    -0.9480 C.3   1 <1>   0.2090 
 10 C        0.7140     3.4830     0.2550 C.ar  1 <1>  -0.1500 
 11 C        2.7760     2.2330     0.3470 C.ar  1 <1>  -0.1500 
 12 C       -3.3250    -2.0840    -0.0530 C.3   1 <1>   0.2000 
 13 C       -4.6700     0.0510     0.1050 C.3   1 <1>  -0.1600 
 14 C        2.0820     3.4420     0.4660 C.ar  1 <1>  -0.1440 
 15 O       -3.4020    -3.4440    -0.3290 O.3   1 <1>  -0.6800 
 16 C       -4.7460    -1.4840    -0.0580 C.3   1 <1>  -0.0800 
 17 C        2.8480     4.7030     0.8270 C.3   1 <1>  -0.0970 
 18 C       -5.6060    -2.1400     1.0370 C.3   1 <1>   0.1200 
 19 O       -6.8900    -1.6190     1.0010 O.3   1 <1>  -0.6800 
 20 H        2.6230     0.1240    -0.0770 H     1 <1>   0.1500 
 21 H       -2.7220    -1.6320    -2.0730 H     1 <1>   0.0800 
 22 H       -1.3970    -1.7890    -0.9460 H     1 <1>   0.0800 
 23 H       -3.7030     1.7600    -0.7670 H     1 <1>   0.0800 
 24 H       -4.1790     0.5570    -1.9310 H     1 <1>   0.0800 
 25 H        0.1490     4.3930     0.3360 H     1 <1>   0.1500 
 26 H        3.8390     2.2120     0.5130 H     1 <1>   0.1500 
 27 H       -2.8860    -1.9820     0.9250 H     1 <1>   0.0800 
 28 H       -4.2900     0.3010     1.0800 H     1 <1>   0.0800 
 29 H       -5.6500     0.4830     0.0110 H     1 <1>   0.0800 
 30 H       -3.8870    -3.5980    -1.1620 H     1 <1>   0.4000 
 31 H       -5.1940    -1.6970    -1.0130 H     1 <1>   0.0800 
 32 H        3.3290     4.5790     1.7800 H     1 <1>   0.0800 
 33 H        2.1880     5.5500     0.8840 H     1 <1>   0.0800 
 34 H        3.5960     4.9030     0.0810 H     1 <1>   0.0800 
 35 H       -5.1940    -1.9630     2.0160 H     1 <1>   0.0800 
 36 H       -5.6830    -3.2020     0.8780 H     1 <1>   0.0800 
 37 H       -6.8850    -0.6800     1.2670 H     1 <1>   0.4000 
@<TRIPOS>BOND
  1   1   2  1   
  2   1   3  1   
  3   2   4  2   
  4   2   5  1   
  5   3   6  ar  
  6   3   7  ar  
  7   4   6  1   
  8   5   8  1   
  9   5   9  1   
 10   6  10  ar  
 11   7  11  ar  
 12   7  20  1   
 13   8  12  1   
 14   8  21  1   
 15   8  22  1   
 16   9  13  1   
 17   9  23  1   
 18   9  24  1   
 19  10  14  ar  
 20  10  25  1   
 21  11  14  ar  
 22  11  26  1   
 23  12  15  1   
 24  12  16  1   
 25  12  27  1   
 26  13  16  1   
 27  13  28  1   
 28  13  29  1   
 29  14  17  1   
 30  15  30  1   
 31  16  18  1   
 32  16  31  1   
 33  17  32  1   
 34  17  33  1   
 35  17  34  1   
 36  18  19  1   
 37  18  35  1   
 38  18  36  1   
 39  19  37  1   
@<TRIPOS>SUBSTRUCTURE
  1 ****   2 GROUP 4 **** **** 0

# MOE 2024.06 (io_trps.svl 2023.06)
