@<TRIPOS>MOLECULE
NONAME
42 44 1 0 0 
SMALL
USER_CHARGES


@<TRIPOS>ATOM
  1 S        0.0300    -0.8640     0.5480 S.3   1 <1>  -0.0800 
  2 C       -1.2670     0.1460     1.1420 C.2   1 <1>   0.1980 
  3 C       -1.1250    -1.7390    -0.4150 C.2   1 <1>  -0.1400 
  4 N       -2.4140    -0.1430     0.6770 N.2   1 <1>  -0.5650 
  5 C       -0.9050     1.2330     2.1250 C.3   1 <1>  -0.0600 
  6 C       -2.3490    -1.2150    -0.2100 C.2   1 <1>   0.0460 
  7 C       -0.5850    -2.8720    -1.2670 C.3   1 <1>  -0.0600 
  8 C       -3.6730    -1.6600    -0.8450 C.3   1 <1>   0.3710 
  9 N       -3.8560    -3.1400    -0.8170 N.3   1 <1>  -0.8100 
 10 C       -3.7140    -1.1140    -2.2770 C.3   1 <1>  -0.2400 
 11 C       -5.1380    -3.5700    -1.4470 C.3   1 <1>   0.2900 
 12 C       -3.7470    -3.6480     0.5680 C.3   1 <1>   0.0300 
 13 C       -5.3790    -5.0800    -1.4730 C.2   1 <1>   0.2980 
 14 O       -5.8370    -5.6720    -0.4070 O.3   1 <1>  -0.2800 
 15 N       -5.2010    -5.8480    -2.4760 N.2   1 <1>  -0.3380 
 16 C       -5.9060    -6.9100    -0.8350 C.2   1 <1>   0.4250 
 17 N       -5.5430    -7.0460    -2.0640 N.2   1 <1>  -0.3380 
 18 C       -6.3550    -7.9540     0.0570 C.ar  1 <1>   0.0530 
 19 C       -6.6730    -7.6860     1.3900 C.ar  1 <1>   0.1600 
 20 C       -6.4910    -9.2720    -0.3640 C.ar  1 <1>  -0.1500 
 21 N       -7.0880    -8.5680     2.2840 N.ar  1 <1>  -0.6200 
 22 C       -6.9230   -10.2070     0.5500 C.ar  1 <1>  -0.1500 
 23 C       -7.2050    -9.8100     1.8450 C.ar  1 <1>   0.1600 
 24 H       -0.4640     0.7990     3.0020 H     1 <1>   0.0800 
 25 H       -1.7890     1.7750     2.4070 H     1 <1>   0.0800 
 26 H       -0.2060     1.9120     1.6730 H     1 <1>   0.0800 
 27 H       -0.1340    -3.6180    -0.6380 H     1 <1>   0.0800 
 28 H        0.1540    -2.4960    -1.9510 H     1 <1>   0.0800 
 29 H       -1.3750    -3.3320    -1.8320 H     1 <1>   0.0800 
 30 H       -4.4700    -1.2060    -0.2810 H     1 <1>   0.0800 
 31 H       -3.0400    -1.6670    -2.9060 H     1 <1>   0.0800 
 32 H       -3.4030    -0.0850    -2.2700 H     1 <1>   0.0800 
 33 H       -4.7070    -1.1440    -2.6820 H     1 <1>   0.0800 
 34 H       -5.1500    -3.2530    -2.4730 H     1 <1>   0.0800 
 35 H       -5.9640    -3.0990    -0.9440 H     1 <1>   0.0800 
 36 H       -2.8270    -3.3300     1.0270 H     1 <1>   0.0800 
 37 H       -3.7380    -4.7230     0.5730 H     1 <1>   0.0800 
 38 H       -4.5690    -3.2950     1.1680 H     1 <1>   0.0800 
 39 H       -6.5750    -6.6730     1.7420 H     1 <1>   0.1500 
 40 H       -6.2630    -9.5530    -1.3790 H     1 <1>   0.1500 
 41 H       -7.0410   -11.2370     0.2650 H     1 <1>   0.1500 
 42 H       -7.5420   -10.5490     2.5530 H     1 <1>   0.1500 
@<TRIPOS>BOND
  1   1   2  1   
  2   1   3  1   
  3   2   4  2   
  4   2   5  1   
  5   3   6  2   
  6   3   7  1   
  7   4   6  1   
  8   5  24  1   
  9   5  25  1   
 10   5  26  1   
 11   6   8  1   
 12   7  27  1   
 13   7  28  1   
 14   7  29  1   
 15   8   9  1   
 16   8  10  1   
 17   8  30  1   
 18   9  11  1   
 19   9  12  1   
 20  10  31  1   
 21  10  32  1   
 22  10  33  1   
 23  11  13  1   
 24  11  34  1   
 25  11  35  1   
 26  12  36  1   
 27  12  37  1   
 28  12  38  1   
 29  13  14  1   
 30  13  15  2   
 31  14  16  1   
 32  15  17  1   
 33  16  17  2   
 34  16  18  1   
 35  18  19  ar  
 36  18  20  ar  
 37  19  21  ar  
 38  19  39  1   
 39  20  22  ar  
 40  20  40  1   
 41  21  23  ar  
 42  22  23  ar  
 43  22  41  1   
 44  23  42  1   
@<TRIPOS>SUBSTRUCTURE
  1 ****  12 GROUP 4 **** **** 0

# MOE 2024.06 (io_trps.svl 2023.06)
