@<TRIPOS>MOLECULE
NONAME
49 50 1 0 0 
SMALL
USER_CHARGES


@<TRIPOS>ATOM
  1 O        1.0930     0.5220     0.0820 O.2   1 <1>  -0.5700 
  2 C        1.4930    -0.3340     0.8490 C.2   1 <1>   0.5440 
  3 N        2.4630     0.0270     1.7640 N.am  1 <1>  -0.6600 
  4 C        1.0320    -1.7080     0.7510 C.ar  1 <1>   0.0860 
  5 C        3.5820    -0.8960     2.0980 C.3   1 <1>   0.1400 
  6 C        2.6670     1.4520     2.1360 C.3   1 <1>   0.1400 
  7 C        1.0220    -2.4370    -0.4490 C.ar  1 <1>  -0.1440 
  8 C        0.5980    -2.3580     1.9080 C.ar  1 <1>  -0.1500 
  9 C        4.5040    -1.0800     0.8760 C.3   1 <1>   0.3430 
 10 C        3.9260     2.0300     1.4780 C.3   1 <1>  -0.1600 
 11 C        0.6210    -3.7630    -0.4620 C.ar  1 <1>  -0.1500 
 12 C        1.4340    -1.7960    -1.7710 C.3   1 <1>  -0.0960 
 13 C        0.2020    -3.6800     1.8910 C.ar  1 <1>  -0.1500 
 14 N        5.2060     0.1720     0.4150 N.4   1 <1>  -0.9590 
 15 C        4.3080     1.3490     0.1600 C.3   1 <1>   0.3430 
 16 C        0.2160    -4.3970     0.7090 C.ar  1 <1>   0.0830 
 17 C        6.0040    -0.1210    -0.7980 C.3   1 <1>   0.4810 
 18 O       -0.1760    -5.6880     0.7720 O.3   1 <1>  -0.3620 
 19 C        6.9820     1.0140    -0.9920 C.2   1 <1>  -0.2880 
 20 C       -0.2970    -6.4900    -0.3820 C.3   1 <1>   0.0400 
 21 C        6.9460     1.8950    -1.9970 C.2   1 <1>  -0.2880 
 22 C        7.9400     3.0280    -2.1820 C.3   1 <1>  -0.1020 
 23 H        4.1420    -0.5180     2.9360 H     1 <1>   0.0800 
 24 H        3.1850    -1.8540     2.3850 H     1 <1>   0.0800 
 25 H        1.8090     2.0270     1.8250 H     1 <1>   0.0800 
 26 H        2.7330     1.5400     3.2070 H     1 <1>   0.0800 
 27 H        0.5690    -1.8140     2.8360 H     1 <1>   0.1500 
 28 H        3.9060    -1.4730     0.0700 H     1 <1>   0.0800 
 29 H        5.2410    -1.8260     1.1220 H     1 <1>   0.0800 
 30 H        4.7500     2.0110     2.1670 H     1 <1>   0.0800 
 31 H        3.7240     3.0660     1.2720 H     1 <1>   0.0800 
 32 H        0.6200    -4.3020    -1.3900 H     1 <1>   0.1500 
 33 H        1.5280    -2.5310    -2.5500 H     1 <1>   0.0800 
 34 H        2.3730    -1.2850    -1.6730 H     1 <1>   0.0800 
 35 H        0.6860    -1.0820    -2.0720 H     1 <1>   0.0800 
 36 H       -0.1270    -4.1680     2.7920 H     1 <1>   0.1500 
 37 H        5.8740     0.4650     1.1350 H     1 <1>   0.4500 
 38 H        4.8310     2.0720    -0.4450 H     1 <1>   0.0800 
 39 H        3.4220     1.0500    -0.3780 H     1 <1>   0.0800 
 40 H        6.5470    -1.0460    -0.6830 H     1 <1>   0.0800 
 41 H        5.3570    -0.2050    -1.6560 H     1 <1>   0.0800 
 42 H        7.7400     1.0470    -0.2280 H     1 <1>   0.1500 
 43 H       -0.6610    -7.4560    -0.0800 H     1 <1>   0.0800 
 44 H        0.6700    -6.5910    -0.8410 H     1 <1>   0.0800 
 45 H       -0.9990    -6.0300    -1.0550 H     1 <1>   0.0800 
 46 H        6.2020     1.8780    -2.7790 H     1 <1>   0.1500 
 47 H        7.4300     3.9750    -2.1730 H     1 <1>   0.0800 
 48 H        8.4480     2.9210    -3.1240 H     1 <1>   0.0800 
 49 H        8.6760     3.0280    -1.3970 H     1 <1>   0.0800 
@<TRIPOS>BOND
  1   1   2  2   
  2   2   3  am  
  3   2   4  1   
  4   3   5  1   
  5   3   6  1   
  6   4   7  ar  
  7   4   8  ar  
  8   5   9  1   
  9   5  23  1   
 10   5  24  1   
 11   6  10  1   
 12   6  25  1   
 13   6  26  1   
 14   7  11  ar  
 15   7  12  1   
 16   8  13  ar  
 17   8  27  1   
 18   9  14  1   
 19   9  28  1   
 20   9  29  1   
 21  10  15  1   
 22  10  30  1   
 23  10  31  1   
 24  11  16  ar  
 25  11  32  1   
 26  12  33  1   
 27  12  34  1   
 28  12  35  1   
 29  13  16  ar  
 30  13  36  1   
 31  14  15  1   
 32  14  17  1   
 33  14  37  1   
 34  15  38  1   
 35  15  39  1   
 36  16  18  1   
 37  17  19  1   
 38  17  40  1   
 39  17  41  1   
 40  18  20  1   
 41  19  21  2   
 42  19  42  1   
 43  20  43  1   
 44  20  44  1   
 45  20  45  1   
 46  21  22  1   
 47  21  46  1   
 48  22  47  1   
 49  22  48  1   
 50  22  49  1   
@<TRIPOS>SUBSTRUCTURE
  1 ****   2 GROUP 4 **** **** 0

# MOE 2024.06 (io_trps.svl 2023.06)
