@<TRIPOS>MOLECULE
NONAME
50 51 1 0 0 
SMALL
USER_CHARGES


@<TRIPOS>ATOM
  1 O       -1.2170     0.0540    -0.2920 O.2   1 <1>  -0.5700 
  2 C       -2.2510     0.5640     0.0710 C.2   1 <1>   0.5690 
  3 N       -3.4020    -0.1800     0.1950 N.am  1 <1>  -0.6600 
  4 C       -2.2390     2.0730     0.3660 C.3   1 <1>  -0.0190 
  5 C       -3.3720    -1.6490    -0.0760 C.3   1 <1>   0.2840 
  6 C       -4.7570     0.3760     0.4580 C.3   1 <1>   0.1400 
  7 C       -2.4350     2.8910    -0.9250 C.3   1 <1>  -0.1600 
  8 C       -0.9610     2.5410     1.1090 C.3   1 <1>  -0.1600 
  9 C       -4.0730    -1.9570    -1.3920 C.ar  1 <1>  -0.1440 
 10 C       -5.0490     0.3500     1.9600 C.3   1 <1>  -0.1600 
 11 C       -2.6310     4.3950    -0.6340 C.3   1 <1>   0.2000 
 12 C       -0.7110     4.0620     1.0180 C.3   1 <1>  -0.1600 
 13 C       -5.2560    -2.6810    -1.4150 C.ar  1 <1>  -0.1500 
 14 C       -3.5260    -1.5110    -2.5850 C.ar  1 <1>  -0.1500 
 15 C       -6.4060     0.9860     2.2500 C.3   1 <1>   0.1200 
 16 O       -2.0500     5.1310    -1.6820 O.3   1 <1>  -0.5600 
 17 C       -1.9960     4.8360     0.7120 C.3   1 <1>   0.2000 
 18 C       -5.8860    -2.9520    -2.6180 C.ar  1 <1>  -0.1500 
 19 C       -4.1540    -1.7810    -3.7880 C.ar  1 <1>  -0.1500 
 20 O       -6.5630     1.0620     3.6180 O.3   1 <1>  -0.6800 
 21 C       -2.8030     5.1950    -2.8530 C.3   1 <1>   0.0400 
 22 O       -1.6850     6.1780     0.6480 O.3   1 <1>  -0.6800 
 23 C       -5.3350    -2.5020    -3.8050 C.ar  1 <1>  -0.1500 
 24 H       -3.0590     2.2930     1.0200 H     1 <1>   0.0800 
 25 H       -2.3590    -2.0090    -0.1270 H     1 <1>   0.0800 
 26 H       -3.8540    -2.1680     0.7330 H     1 <1>   0.0800 
 27 H       -4.8220     1.3820     0.0830 H     1 <1>   0.0800 
 28 H       -5.4990    -0.2020    -0.0670 H     1 <1>   0.0800 
 29 H       -3.2880     2.5190    -1.4640 H     1 <1>   0.0800 
 30 H       -1.5630     2.7520    -1.5410 H     1 <1>   0.0800 
 31 H       -1.0430     2.2510     2.1420 H     1 <1>   0.0800 
 32 H       -0.0930     2.0440     0.7090 H     1 <1>   0.0800 
 33 H       -4.2850     0.9000     2.4810 H     1 <1>   0.0800 
 34 H       -5.0490    -0.6680     2.3040 H     1 <1>   0.0800 
 35 H       -3.6810     4.6290    -0.5900 H     1 <1>   0.0800 
 36 H       -0.0080     4.2480     0.2240 H     1 <1>   0.0800 
 37 H       -0.2810     4.4140     1.9390 H     1 <1>   0.0800 
 38 H       -5.6940    -3.0400    -0.5000 H     1 <1>   0.1500 
 39 H       -2.6050    -0.9510    -2.5740 H     1 <1>   0.1500 
 40 H       -7.2140     0.4020     1.8430 H     1 <1>   0.0800 
 41 H       -6.4570     1.9890     1.8600 H     1 <1>   0.0800 
 42 H       -2.6950     4.6990     1.5190 H     1 <1>   0.0800 
 43 H       -6.8030    -3.5150    -2.6330 H     1 <1>   0.1500 
 44 H       -3.7210    -1.4330    -4.7100 H     1 <1>   0.1500 
 45 H       -6.5370     0.1740     4.0230 H     1 <1>   0.4000 
 46 H       -2.2660     5.8010    -3.5620 H     1 <1>   0.0800 
 47 H       -3.7560     5.6480    -2.6400 H     1 <1>   0.0800 
 48 H       -2.9330     4.2050    -3.2540 H     1 <1>   0.0800 
 49 H       -1.4510     6.3510    -0.2930 H     1 <1>   0.4000 
 50 H       -5.8230    -2.7130    -4.7410 H     1 <1>   0.1500 
@<TRIPOS>BOND
  1   1   2  2   
  2   2   3  am  
  3   2   4  1   
  4   3   5  1   
  5   3   6  1   
  6   4   7  1   
  7   4   8  1   
  8   4  24  1   
  9   5   9  1   
 10   5  25  1   
 11   5  26  1   
 12   6  10  1   
 13   6  27  1   
 14   6  28  1   
 15   7  11  1   
 16   7  29  1   
 17   7  30  1   
 18   8  12  1   
 19   8  31  1   
 20   8  32  1   
 21   9  13  ar  
 22   9  14  ar  
 23  10  15  1   
 24  10  33  1   
 25  10  34  1   
 26  11  16  1   
 27  11  17  1   
 28  11  35  1   
 29  12  17  1   
 30  12  36  1   
 31  12  37  1   
 32  13  18  ar  
 33  13  38  1   
 34  14  19  ar  
 35  14  39  1   
 36  15  20  1   
 37  15  40  1   
 38  15  41  1   
 39  16  21  1   
 40  17  22  1   
 41  17  42  1   
 42  18  23  ar  
 43  18  43  1   
 44  19  23  ar  
 45  19  44  1   
 46  20  45  1   
 47  21  46  1   
 48  21  47  1   
 49  21  48  1   
 50  22  49  1   
 51  23  50  1   
@<TRIPOS>SUBSTRUCTURE
  1 ****   2 GROUP 4 **** **** 0

# MOE 2024.06 (io_trps.svl 2023.06)
