@<TRIPOS>MOLECULE
NONAME
48 51 1 0 0 
SMALL
USER_CHARGES


@<TRIPOS>ATOM
  1 O       -0.6260     0.0050    -0.7070 O.2   1 <1>  -0.5700 
  2 C       -1.5960     0.7280    -0.8200 C.2   1 <1>   0.5440 
  3 N       -2.8250     0.1650    -1.0930 N.am  1 <1>  -0.6600 
  4 C       -1.4360     2.1550    -0.6530 C.ar  1 <1>   0.0860 
  5 C       -4.1350     0.8160    -0.7690 C.3   1 <1>   0.1400 
  6 C       -2.9690    -1.2710    -1.4870 C.3   1 <1>   0.1400 
  7 C       -1.9460     3.0450    -1.5940 C.ar  1 <1>   0.1600 
  8 C       -0.7780     2.6990     0.4400 C.ar  1 <1>  -0.1500 
  9 C       -4.9250    -0.0170     0.2590 C.3   1 <1>   0.1900 
 10 C       -3.7960    -2.0470    -0.4500 C.3   1 <1>   0.1100 
 11 N       -1.8920     4.3650    -1.5230 N.ar  1 <1>  -0.6200 
 12 C       -0.6920     4.0720     0.5370 C.ar  1 <1>  -0.1430 
 13 N       -5.1130    -1.4080    -0.2210 N.3   1 <1>  -0.8100 
 14 C       -6.2870     0.6440     0.5520 C.3   1 <1>   0.1200 
 15 C       -1.2660     4.8470    -0.4610 C.ar  1 <1>   0.1600 
 16 C        0.0150     4.7210     1.7150 C.3   1 <1>  -0.0970 
 17 C       -5.9340    -2.1720     0.7490 C.3   1 <1>   0.3330 
 18 O       -7.0060    -0.1100     1.4840 O.3   1 <1>  -0.5600 
 19 C       -6.2590    -3.5660     0.2150 C.ar  1 <1>  -0.1430 
 20 C       -7.2490    -1.4260     1.0590 C.3   1 <1>   0.1200 
 21 C       -6.7220    -3.7420    -1.0820 C.ar  1 <1>  -0.1500 
 22 C       -6.0990    -4.6780     1.0290 C.ar  1 <1>  -0.1500 
 23 C       -7.0220    -5.0060    -1.5580 C.ar  1 <1>  -0.1500 
 24 C       -6.3970    -5.9440     0.5550 C.ar  1 <1>  -0.1500 
 25 C       -6.8590    -6.1090    -0.7380 C.ar  1 <1>  -0.1500 
 26 H       -3.9820     1.8010    -0.3670 H     1 <1>   0.0800 
 27 H       -4.7130     0.9070    -1.6720 H     1 <1>   0.0800 
 28 H       -3.4620    -1.3260    -2.4410 H     1 <1>   0.0800 
 29 H       -2.0040    -1.7360    -1.5910 H     1 <1>   0.0800 
 30 H       -2.4340     2.6300    -2.4600 H     1 <1>   0.1500 
 31 H       -0.3490     2.0490     1.1840 H     1 <1>   0.1500 
 32 H       -4.3620    -0.0280     1.1770 H     1 <1>   0.0800 
 33 H       -3.2440    -2.1010     0.4720 H     1 <1>   0.0800 
 34 H       -3.9350    -3.0510    -0.8140 H     1 <1>   0.0800 
 35 H       -6.8710     0.7270    -0.3480 H     1 <1>   0.0800 
 36 H       -6.1460     1.6250     0.9680 H     1 <1>   0.0800 
 37 H       -1.2050     5.9190    -0.3830 H     1 <1>   0.1500 
 38 H        0.7210     4.0390     2.1550 H     1 <1>   0.0800 
 39 H       -0.7040     5.0040     2.4630 H     1 <1>   0.0800 
 40 H        0.5490     5.5980     1.3950 H     1 <1>   0.0800 
 41 H       -5.3850    -2.2690     1.6700 H     1 <1>   0.0800 
 42 H       -7.7810    -1.9320     1.8440 H     1 <1>   0.0800 
 43 H       -7.8750    -1.3940     0.1850 H     1 <1>   0.0800 
 44 H       -6.8440    -2.8860    -1.7250 H     1 <1>   0.1500 
 45 H       -5.7410    -4.5660     2.0380 H     1 <1>   0.1500 
 46 H       -7.3790    -5.1310    -2.5650 H     1 <1>   0.1500 
 47 H       -6.2700    -6.8020     1.1930 H     1 <1>   0.1500 
 48 H       -7.0920    -7.0930    -1.1070 H     1 <1>   0.1500 
@<TRIPOS>BOND
  1   1   2  2   
  2   2   3  am  
  3   2   4  1   
  4   3   5  1   
  5   3   6  1   
  6   4   7  ar  
  7   4   8  ar  
  8   5   9  1   
  9   5  26  1   
 10   5  27  1   
 11   6  10  1   
 12   6  28  1   
 13   6  29  1   
 14   7  11  ar  
 15   7  30  1   
 16   8  12  ar  
 17   8  31  1   
 18   9  13  1   
 19   9  14  1   
 20   9  32  1   
 21  10  13  1   
 22  10  33  1   
 23  10  34  1   
 24  11  15  ar  
 25  12  15  ar  
 26  12  16  1   
 27  13  17  1   
 28  14  18  1   
 29  14  35  1   
 30  14  36  1   
 31  15  37  1   
 32  16  38  1   
 33  16  39  1   
 34  16  40  1   
 35  17  19  1   
 36  17  20  1   
 37  17  41  1   
 38  18  20  1   
 39  19  21  ar  
 40  19  22  ar  
 41  20  42  1   
 42  20  43  1   
 43  21  23  ar  
 44  21  44  1   
 45  22  24  ar  
 46  22  45  1   
 47  23  25  ar  
 48  23  46  1   
 49  24  25  ar  
 50  24  47  1   
 51  25  48  1   
@<TRIPOS>SUBSTRUCTURE
  1 ****   9 GROUP 4 **** **** 0

# MOE 2024.06 (io_trps.svl 2023.06)
