@<TRIPOS>MOLECULE
NONAME
28 29 1 0 0 
SMALL
USER_CHARGES


@<TRIPOS>ATOM
  1 CL      -1.2600     0.9320     2.9520 Cl    1 <1>  -0.1770 
  2 C       -2.0910     1.2580     1.4550 C.ar  1 <1>   0.1770 
  3 C       -1.5330     2.1360     0.5470 C.ar  1 <1>  -0.1500 
  4 C       -3.2980     0.6270     1.2060 C.ar  1 <1>  -0.1500 
  5 C       -2.2170     2.3710    -0.6280 C.ar  1 <1>   0.1770 
  6 C       -3.9840     0.8730     0.0210 C.ar  1 <1>  -0.1440 
  7 CL      -1.5460     3.4730    -1.8010 Cl    1 <1>  -0.1770 
  8 C       -3.4260     1.7540    -0.8990 C.ar  1 <1>  -0.1500 
  9 C       -5.3190     0.1990    -0.2810 C.3   1 <1>   0.0640 
 10 C       -6.3580     0.5630     0.7940 C.3   1 <1>   0.3430 
 11 C       -5.1510    -1.3260    -0.4020 C.3   1 <1>  -0.1600 
 12 N       -7.6540    -0.1550     0.5670 N.4   1 <1>  -0.9060 
 13 C       -6.5120    -2.0190    -0.5810 C.3   1 <1>  -0.1600 
 14 C       -7.4990    -1.6360     0.5250 C.3   1 <1>   0.3430 
 15 H       -0.5950     2.6200     0.7490 H     1 <1>   0.1500 
 16 H       -3.6750    -0.0510     1.9510 H     1 <1>   0.1500 
 17 H       -3.9110     1.9740    -1.8350 H     1 <1>   0.1500 
 18 H       -5.6810     0.5720    -1.2240 H     1 <1>   0.0800 
 19 H       -6.5180     1.6290     0.7830 H     1 <1>   0.0800 
 20 H       -5.9650     0.2960     1.7610 H     1 <1>   0.0800 
 21 H       -4.6720    -1.7160     0.4800 H     1 <1>   0.0800 
 22 H       -4.5140    -1.5530    -1.2410 H     1 <1>   0.0800 
 23 H       -8.0640     0.1590    -0.3210 H     1 <1>   0.4500 
 24 H       -8.3230     0.1000     1.3060 H     1 <1>   0.4500 
 25 H       -6.3680    -3.0860    -0.5660 H     1 <1>   0.0800 
 26 H       -6.9300    -1.7690    -1.5410 H     1 <1>   0.0800 
 27 H       -8.4530    -2.1050     0.3380 H     1 <1>   0.0800 
 28 H       -7.1290    -1.9920     1.4740 H     1 <1>   0.0800 
@<TRIPOS>BOND
  1   1   2  1   
  2   2   3  ar  
  3   2   4  ar  
  4   3   5  ar  
  5   3  15  1   
  6   4   6  ar  
  7   4  16  1   
  8   5   7  1   
  9   5   8  ar  
 10   6   8  ar  
 11   6   9  1   
 12   8  17  1   
 13   9  10  1   
 14   9  11  1   
 15   9  18  1   
 16  10  12  1   
 17  10  19  1   
 18  10  20  1   
 19  11  13  1   
 20  11  21  1   
 21  11  22  1   
 22  12  14  1   
 23  12  23  1   
 24  12  24  1   
 25  13  14  1   
 26  13  25  1   
 27  13  26  1   
 28  14  27  1   
 29  14  28  1   
@<TRIPOS>SUBSTRUCTURE
  1 ****   6 GROUP 4 **** **** 0

# MOE 2024.06 (io_trps.svl 2023.06)
