@<TRIPOS>MOLECULE
NONAME
50 53 1 0 0 
SMALL
USER_CHARGES


@<TRIPOS>ATOM
  1 O        3.3470     2.9180    -2.6400 O.co2 1 <1>  -0.9030 
  2 C        3.3630     1.6780    -2.6850 C.2   1 <1>   0.9770 
  3 O        2.5660     1.0680    -3.4100 O.co2 1 <1>  -0.9030 
  4 C        4.3340     0.9560    -1.8980 C.ar  1 <1>  -0.1870 
  5 C        4.4890    -0.4330    -2.0570 C.ar  1 <1>   0.1520 
  6 C        5.1430     1.6140    -0.9840 C.ar  1 <1>  -0.1170 
  7 N        5.3670    -1.1930    -1.4200 N.ar  1 <1>  -0.5840 
  8 C        6.0630     0.8390    -0.3190 C.ar  1 <1>   0.3020 
  9 C        6.1320    -0.5150    -0.5760 C.ar  1 <1>   0.6140 
 10 N        7.0440     1.1140     0.6010 N.pl3 1 <1>  -0.7040 
 11 N        7.1570    -1.0310     0.1840 N.pl3 1 <1>  -0.7680 
 12 C        7.7090    -0.0040     0.8490 C.cat 1 <1>   1.0680 
 13 C        7.3660    -2.4810     0.3490 C.3   1 <1>   0.3470 
 14 N        8.8050    -0.0600     1.6210 N.pl3 1 <1>  -0.5970 
 15 C        6.4060    -3.0050     1.4120 C.3   1 <1>  -0.2470 
 16 C       10.0930    -0.5200     1.0040 C.3   1 <1>   0.1600 
 17 C        9.0510     0.9890     2.6750 C.3   1 <1>   0.1600 
 18 C       10.8050     0.6500     0.2810 C.3   1 <1>   0.2020 
 19 C       10.1060     2.0290     2.2350 C.3   1 <1>   0.2020 
 20 N       10.3090     1.9790     0.7590 N.pl3 1 <1>  -0.8410 
 21 C       10.7550     3.1300     0.1440 C.ar  1 <1>   0.4040 
 22 N       12.0740     3.1820    -0.0170 N.ar  1 <1>  -0.6250 
 23 C        9.8700     4.1490    -0.2690 C.ar  1 <1>   0.0780 
 24 C       12.5590     4.2690    -0.5840 C.ar  1 <1>   0.1520 
 25 C        8.4360     4.0440    -0.1200 C.2   1 <1>   0.5390 
 26 C       10.4230     5.2780    -0.8600 C.ar  1 <1>  -0.1580 
 27 C       11.7890     5.3330    -1.0160 C.ar  1 <1>  -0.1580 
 28 O        7.8930     3.7270     0.9220 O.2   1 <1>  -0.5750 
 29 N        7.6070     4.3030    -1.1610 N.am  1 <1>  -0.8040 
 30 H        3.8340    -0.9200    -2.7660 H     1 <1>   0.1420 
 31 H        5.0560     2.6730    -0.8140 H     1 <1>   0.1420 
 32 H        7.3730     2.0570     0.8600 H     1 <1>   0.4440 
 33 H        8.3760    -2.6890     0.6510 H     1 <1>   0.0720 
 34 H        7.1850    -2.9820    -0.5890 H     1 <1>   0.0720 
 35 H        6.5850    -2.5240     2.3560 H     1 <1>   0.0720 
 36 H        6.5520    -4.0630     1.5370 H     1 <1>   0.0720 
 37 H        5.3860    -2.8420     1.1100 H     1 <1>   0.0720 
 38 H        9.9310    -1.3120     0.2970 H     1 <1>   0.0720 
 39 H       10.7380    -0.9000     1.7780 H     1 <1>   0.0720 
 40 H        9.3850     0.5130     3.5810 H     1 <1>   0.0720 
 41 H        8.1360     1.5040     2.9110 H     1 <1>   0.0720 
 42 H       10.6270     0.5790    -0.7790 H     1 <1>   0.0720 
 43 H       11.8680     0.5770     0.4360 H     1 <1>   0.0720 
 44 H       11.0430     1.8190     2.7220 H     1 <1>   0.0720 
 45 H        9.8000     3.0160     2.5400 H     1 <1>   0.0720 
 46 H       13.6270     4.3190    -0.7110 H     1 <1>   0.1420 
 47 H        9.7990     6.0920    -1.1850 H     1 <1>   0.1420 
 48 H       12.2590     6.1890    -1.4670 H     1 <1>   0.1420 
 49 H        6.5930     4.3390    -1.0330 H     1 <1>   0.3640 
 50 H        7.9340     4.5500    -2.0960 H     1 <1>   0.3640 
@<TRIPOS>BOND
  1   1   2  ar  
  2   2   3  ar  
  3   2   4  1   
  4   4   5  ar  
  5   4   6  ar  
  6   5   7  ar  
  7   5  30  1   
  8   6   8  ar  
  9   6  31  1   
 10   7   9  ar  
 11   8   9  ar  
 12   8  10  1   
 13   9  11  1   
 14  10  12  ar  
 15  10  32  1   
 16  11  12  ar  
 17  11  13  1   
 18  12  14  ar  
 19  13  15  1   
 20  13  33  1   
 21  13  34  1   
 22  14  16  1   
 23  14  17  1   
 24  15  35  1   
 25  15  36  1   
 26  15  37  1   
 27  16  18  1   
 28  16  38  1   
 29  16  39  1   
 30  17  19  1   
 31  17  40  1   
 32  17  41  1   
 33  18  20  1   
 34  18  42  1   
 35  18  43  1   
 36  19  20  1   
 37  19  44  1   
 38  19  45  1   
 39  20  21  1   
 40  21  22  ar  
 41  21  23  ar  
 42  22  24  ar  
 43  23  25  1   
 44  23  26  ar  
 45  24  27  ar  
 46  24  46  1   
 47  25  28  2   
 48  25  29  am  
 49  26  27  ar  
 50  26  47  1   
 51  27  48  1   
 52  29  49  1   
 53  29  50  1   
@<TRIPOS>SUBSTRUCTURE
  1 ****  10 GROUP 4 **** **** 0

# MOE 2024.06 (io_trps.svl 2023.06)
