@<TRIPOS>MOLECULE
NONAME
53 57 1 0 0 
SMALL
USER_CHARGES


@<TRIPOS>ATOM
  1 CL      -3.2200    -2.5920     0.6050 Cl    1 <1>  -0.1770 
  2 C       -3.9600    -1.0240     0.4140 C.ar  1 <1>   0.1770 
  3 C       -4.3950    -0.3370     1.5300 C.ar  1 <1>  -0.1500 
  4 C       -4.1020    -0.4900    -0.8510 C.ar  1 <1>  -0.1500 
  5 C       -4.9830     0.9060     1.3700 C.ar  1 <1>  -0.1500 
  6 C       -4.6910     0.7540    -1.0020 C.ar  1 <1>  -0.1500 
  7 C       -5.1430     1.4670     0.1070 C.ar  1 <1>  -0.1080 
  8 C       -5.8170     2.8530     0.0180 C.3   1 <1>   0.1610 
  9 C       -7.1510     2.9160     0.7870 C.2   1 <1>   0.5770 
 10 C       -4.8030     3.9800     0.4050 C.3   1 <1>   0.0000 
 11 C       -5.8920     3.5600    -1.3750 C.3   1 <1>   0.0000 
 12 O       -7.1630     3.4810     1.8580 O.2   1 <1>  -0.5700 
 13 N       -8.3010     2.3480     0.2850 N.am  1 <1>  -0.6600 
 14 C       -4.4730     4.1180    -1.1030 C.3   1 <1>   0.0000 
 15 C       -9.6050     2.5240     1.0160 C.3   1 <1>   0.1400 
 16 C       -8.3490     1.5270    -0.9650 C.3   1 <1>   0.1400 
 17 C      -10.7930     2.6530     0.0420 C.3   1 <1>   0.1430 
 18 C       -9.5770     0.6130    -0.9880 C.3   1 <1>  -0.1600 
 19 C      -12.0500     2.9160     0.8580 C.ar  1 <1>   0.1670 
 20 C      -10.9050     1.3820    -0.8450 C.3   1 <1>  -0.1600 
 21 C      -10.6760     3.9580    -0.7990 C.3   1 <1>  -0.1600 
 22 N      -12.7020     2.0260     1.5690 N.ar  1 <1>  -0.6200 
 23 C      -12.4300     4.2250     0.7870 C.ar  1 <1>  -0.1430 
 24 C      -11.4960     5.0370    -0.0730 C.3   1 <1>  -0.0170 
 25 C      -13.7710     2.5040     2.1880 C.ar  1 <1>   0.7200 
 26 C      -13.5490     4.6080     1.4850 C.ar  1 <1>   0.1600 
 27 N      -14.2360     3.7450     2.2000 N.ar  1 <1>  -0.6200 
 28 N      -14.4560     1.6250     2.9200 N.pl3 1 <1>  -0.9000 
 29 H       -4.2750    -0.7690     2.5070 H     1 <1>   0.1500 
 30 H       -3.7510    -1.0430    -1.7040 H     1 <1>   0.1500 
 31 H       -5.3180     1.4390     2.2460 H     1 <1>   0.1500 
 32 H       -4.7830     1.1470    -1.9970 H     1 <1>   0.1500 
 33 H       -3.9690     3.6510     0.9990 H     1 <1>   0.0000 
 34 H       -5.2670     4.8730     0.7890 H     1 <1>   0.0000 
 35 H       -6.6290     4.3460    -1.3990 H     1 <1>   0.0000 
 36 H       -5.9620     2.9170    -2.2320 H     1 <1>   0.0000 
 37 H       -3.6890     3.4540    -1.4240 H     1 <1>   0.0000 
 38 H       -4.3370     5.1340    -1.4270 H     1 <1>   0.0000 
 39 H       -9.5650     3.4000     1.6410 H     1 <1>   0.0800 
 40 H       -9.7620     1.6740     1.6580 H     1 <1>   0.0800 
 41 H       -7.4660     0.9170    -1.0370 H     1 <1>   0.0800 
 42 H       -8.3800     2.1850    -1.8160 H     1 <1>   0.0800 
 43 H       -9.4840    -0.0900    -0.1770 H     1 <1>   0.0800 
 44 H       -9.5880     0.0440    -1.9010 H     1 <1>   0.0800 
 45 H      -11.2800     1.6390    -1.8190 H     1 <1>   0.0800 
 46 H      -11.6230     0.7040    -0.4160 H     1 <1>   0.0800 
 47 H      -11.1180     3.8130    -1.7680 H     1 <1>   0.0800 
 48 H       -9.6580     4.2750    -0.9410 H     1 <1>   0.0800 
 49 H      -12.0320     5.6630    -0.7660 H     1 <1>   0.0800 
 50 H      -10.8610     5.6400     0.5530 H     1 <1>   0.0800 
 51 H      -13.8840     5.6310     1.4590 H     1 <1>   0.1500 
 52 H      -15.0600     2.0340     3.6260 H     1 <1>   0.4000 
 53 H      -13.9430     0.7880     3.1790 H     1 <1>   0.4000 
@<TRIPOS>BOND
  1   1   2  1   
  2   2   3  ar  
  3   2   4  ar  
  4   3   5  ar  
  5   3  29  1   
  6   4   6  ar  
  7   4  30  1   
  8   5   7  ar  
  9   5  31  1   
 10   6   7  ar  
 11   6  32  1   
 12   7   8  1   
 13   8   9  1   
 14   8  10  1   
 15   8  11  1   
 16   9  12  2   
 17   9  13  am  
 18  10  14  1   
 19  10  33  1   
 20  10  34  1   
 21  11  14  1   
 22  11  35  1   
 23  11  36  1   
 24  13  15  1   
 25  13  16  1   
 26  14  37  1   
 27  14  38  1   
 28  15  17  1   
 29  15  39  1   
 30  15  40  1   
 31  16  18  1   
 32  16  41  1   
 33  16  42  1   
 34  17  19  1   
 35  17  20  1   
 36  17  21  1   
 37  18  20  1   
 38  18  43  1   
 39  18  44  1   
 40  19  22  ar  
 41  19  23  ar  
 42  20  45  1   
 43  20  46  1   
 44  21  24  1   
 45  21  47  1   
 46  21  48  1   
 47  22  25  ar  
 48  23  24  1   
 49  23  26  ar  
 50  24  49  1   
 51  24  50  1   
 52  25  27  ar  
 53  25  28  1   
 54  26  27  ar  
 55  26  51  1   
 56  28  52  1   
 57  28  53  1   
@<TRIPOS>SUBSTRUCTURE
  1 ****  13 GROUP 4 **** **** 0

# MOE 2024.06 (io_trps.svl 2023.06)
