@<TRIPOS>MOLECULE
NONAME
46 48 1 0 0 
SMALL
USER_CHARGES


@<TRIPOS>ATOM
  1 S       -0.0840    -1.3230    -0.7450 S.o2  1 <1>   1.4470 
  2 O       -0.7020    -2.6220    -0.5670 O.2   1 <1>  -0.6500 
  3 O        0.3650    -0.9470    -2.0690 O.2   1 <1>  -0.6500 
  4 N       -1.2220    -0.1610    -0.2610 N.am  1 <1>  -0.8490 
  5 C        1.2240    -1.1210     0.4970 C.ar  1 <1>  -0.0090 
  6 C       -2.6100    -0.5560    -0.5710 C.3   1 <1>   0.1960 
  7 C       -0.8580     1.2270    -0.5920 C.3   1 <1>   0.1960 
  8 C        2.1840    -0.1250     0.3800 C.ar  1 <1>  -0.1500 
  9 C        1.2660    -1.9300     1.6270 C.ar  1 <1>  -0.1500 
 10 C       -3.6240     0.5760    -0.2940 C.3   1 <1>   0.0000 
 11 C       -1.8020     1.8330    -1.6340 C.3   1 <1>  -0.1600 
 12 C        3.1570     0.1100     1.3520 C.ar  1 <1>  -0.1790 
 13 C        2.2310    -1.7440     2.6000 C.ar  1 <1>  -0.1500 
 14 C       -3.7170     0.9520     1.2040 C.3   1 <1>   0.2000 
 15 C       -3.2670     1.8210    -1.1620 C.3   1 <1>  -0.1600 
 16 C       -5.0660     0.1310    -0.5930 C.3   1 <1>  -0.1600 
 17 C        4.1120     1.2020     1.2150 C.2   1 <1>   0.9790 
 18 C        3.1630    -0.7340     2.4620 C.ar  1 <1>  -0.1500 
 19 O       -3.7480    -0.2000     2.0000 O.3   1 <1>  -0.5600 
 20 C       -5.0890     1.6170     1.3570 C.3   1 <1>  -0.1600 
 21 C       -5.9680     1.0600     0.2270 C.3   1 <1>  -0.1600 
 22 O        5.0550     1.3260     2.0150 O.co2 1 <1>  -0.9000 
 23 O        3.9810     2.0380     0.3020 O.co2 1 <1>  -0.9000 
 24 C       -2.6540    -0.3560     2.8490 C.3   1 <1>   0.0400 
 25 H       -2.6740    -0.8340    -1.6100 H     1 <1>   0.0800 
 26 H       -2.8680    -1.4260     0.0110 H     1 <1>   0.0800 
 27 H       -0.9060     1.8150     0.3090 H     1 <1>   0.0800 
 28 H        0.1530     1.2890    -0.9550 H     1 <1>   0.0800 
 29 H        2.1880     0.5070    -0.4930 H     1 <1>   0.1500 
 30 H        0.5350    -2.7110     1.7460 H     1 <1>   0.1500 
 31 H       -1.4980     2.8420    -1.8480 H     1 <1>   0.0800 
 32 H       -1.7020     1.2690    -2.5460 H     1 <1>   0.0800 
 33 H        2.2580    -2.3810     3.4660 H     1 <1>   0.1500 
 34 H       -2.9170     1.6000     1.5210 H     1 <1>   0.0800 
 35 H       -3.8880     1.8600    -2.0400 H     1 <1>   0.0800 
 36 H       -3.4580     2.7230    -0.6090 H     1 <1>   0.0800 
 37 H       -5.3090     0.1460    -1.6410 H     1 <1>   0.0800 
 38 H       -5.2040    -0.8750    -0.2310 H     1 <1>   0.0800 
 39 H        3.9140    -0.5790     3.2190 H     1 <1>   0.1500 
 40 H       -5.5100     1.4210     2.3280 H     1 <1>   0.0800 
 41 H       -4.9870     2.6800     1.2360 H     1 <1>   0.0800 
 42 H       -6.8090     0.5170     0.6230 H     1 <1>   0.0800 
 43 H       -6.3290     1.8670    -0.3870 H     1 <1>   0.0800 
 44 H       -2.7710    -1.2850     3.3780 H     1 <1>   0.0800 
 45 H       -2.6310     0.4610     3.5480 H     1 <1>   0.0800 
 46 H       -1.7480    -0.3830     2.2700 H     1 <1>   0.0800 
@<TRIPOS>BOND
  1   1   2  2   
  2   1   3  2   
  3   1   4  am  
  4   1   5  1   
  5   4   6  1   
  6   4   7  1   
  7   5   8  ar  
  8   5   9  ar  
  9   6  10  1   
 10   6  25  1   
 11   6  26  1   
 12   7  11  1   
 13   7  27  1   
 14   7  28  1   
 15   8  12  ar  
 16   8  29  1   
 17   9  13  ar  
 18   9  30  1   
 19  10  14  1   
 20  10  15  1   
 21  10  16  1   
 22  11  15  1   
 23  11  31  1   
 24  11  32  1   
 25  12  17  1   
 26  12  18  ar  
 27  13  18  ar  
 28  13  33  1   
 29  14  19  1   
 30  14  20  1   
 31  14  34  1   
 32  15  35  1   
 33  15  36  1   
 34  16  21  1   
 35  16  37  1   
 36  16  38  1   
 37  17  22  ar  
 38  17  23  ar  
 39  18  39  1   
 40  19  24  1   
 41  20  21  1   
 42  20  40  1   
 43  20  41  1   
 44  21  42  1   
 45  21  43  1   
 46  24  44  1   
 47  24  45  1   
 48  24  46  1   
@<TRIPOS>SUBSTRUCTURE
  1 ****   4 GROUP 4 **** **** 0

# MOE 2024.06 (io_trps.svl 2023.06)
