@<TRIPOS>MOLECULE
NONAME
54 58 1 0 0 
SMALL
USER_CHARGES


@<TRIPOS>ATOM
  1 O       -2.5160     1.1690    -2.3620 O.2   1 <1>  -0.5700 
  2 C       -2.1540     1.1500    -1.2100 C.2   1 <1>   0.5690 
  3 N       -2.1470     0.0070    -0.4800 N.am  1 <1>  -0.7300 
  4 C       -1.6970     2.4460    -0.5330 C.3   1 <1>   0.1710 
  5 C       -2.5650    -1.3310    -0.9460 C.3   1 <1>   0.2200 
  6 N       -0.8950     2.2420     0.7150 N.3   1 <1>  -0.8100 
  7 C       -3.8160    -1.7470    -0.1940 C.3   1 <1>  -0.0800 
  8 C       -1.5510    -2.3820    -0.4970 C.3   1 <1>   0.1200 
  9 C        0.4700     1.7700     0.3630 C.3   1 <1>   0.2530 
 10 C       -0.7030     3.5410     1.4040 C.3   1 <1>   0.2540 
 11 C       -3.2240    -2.3260     1.0910 C.3   1 <1>   0.1200 
 12 C       -4.6290    -2.7920    -0.9840 C.3   1 <1>  -0.0160 
 13 O       -1.9720    -2.8470     0.7540 O.3   1 <1>  -0.5600 
 14 C        1.2910     3.0300     0.2780 C.ar  1 <1>  -0.1440 
 15 C        0.6130     4.0540     0.8790 C.ar  1 <1>  -0.1440 
 16 C       -5.9180    -3.1630    -0.2580 C.ar  1 <1>  -0.1440 
 17 C        2.5350     3.2380    -0.2910 C.ar  1 <1>  -0.1500 
 18 C        1.1520     5.3270     0.9350 C.ar  1 <1>  -0.1500 
 19 C       -7.0500    -2.3130    -0.2400 C.ar  1 <1>   0.0000 
 20 C       -6.0100    -4.3500     0.4090 C.ar  1 <1>  -0.1500 
 21 C        3.0860     4.5090    -0.2420 C.ar  1 <1>  -0.1500 
 22 C        2.3980     5.5490     0.3690 C.ar  1 <1>  -0.1500 
 23 C       -8.1870    -2.7480     0.4850 C.ar  1 <1>   0.3100 
 24 C       -7.1240    -1.0630    -0.8980 C.ar  1 <1>  -0.1500 
 25 C       -7.1850    -4.6870     1.0900 C.ar  1 <1>   0.1600 
 26 N       -8.2380    -3.9340     1.1430 N.ar  1 <1>  -0.6200 
 27 C       -9.3220    -1.9230     0.5300 C.ar  1 <1>  -0.1500 
 28 C       -8.2470    -0.2830    -0.8360 C.ar  1 <1>  -0.1500 
 29 C       -9.3610    -0.7160    -0.1120 C.ar  1 <1>  -0.1500 
 30 H       -1.8150     0.0800     0.4880 H     1 <1>   0.3700 
 31 H       -2.5880     2.9980    -0.2940 H     1 <1>   0.0800 
 32 H       -1.1330     3.0260    -1.2430 H     1 <1>   0.0800 
 33 H       -2.6950    -1.3260    -2.0160 H     1 <1>   0.0800 
 34 H       -4.4400    -0.8990     0.0220 H     1 <1>   0.0800 
 35 H       -0.5550    -1.9850    -0.4170 H     1 <1>   0.0800 
 36 H       -1.5550    -3.2210    -1.1700 H     1 <1>   0.0800 
 37 H        0.8520     1.1470     1.1550 H     1 <1>   0.0800 
 38 H        0.4880     1.2210    -0.5630 H     1 <1>   0.0800 
 39 H       -1.5080     4.2290     1.2070 H     1 <1>   0.0800 
 40 H       -0.6250     3.3780     2.4650 H     1 <1>   0.0800 
 41 H       -3.8260    -3.1030     1.5280 H     1 <1>   0.0800 
 42 H       -3.0650    -1.5480     1.8180 H     1 <1>   0.0800 
 43 H       -4.0340    -3.6770    -1.1310 H     1 <1>   0.0800 
 44 H       -4.8690    -2.4130    -1.9610 H     1 <1>   0.0800 
 45 H        3.0650     2.4300    -0.7630 H     1 <1>   0.1500 
 46 H        0.6160     6.1310     1.4080 H     1 <1>   0.1500 
 47 H       -5.1920    -5.0470     0.4340 H     1 <1>   0.1500 
 48 H        4.0520     4.6910    -0.6790 H     1 <1>   0.1500 
 49 H        2.8330     6.5320     0.4020 H     1 <1>   0.1500 
 50 H       -6.2820    -0.7100    -1.4630 H     1 <1>   0.1500 
 51 H       -7.2140    -5.6330     1.6040 H     1 <1>   0.1500 
 52 H      -10.1670    -2.2770     1.0910 H     1 <1>   0.1500 
 53 H       -8.2890     0.6670    -1.3410 H     1 <1>   0.1500 
 54 H      -10.2390    -0.0940    -0.0700 H     1 <1>   0.1500 
@<TRIPOS>BOND
  1   1   2  2   
  2   2   3  am  
  3   2   4  1   
  4   3   5  1   
  5   3  30  1   
  6   4   6  1   
  7   4  31  1   
  8   4  32  1   
  9   5   7  1   
 10   5   8  1   
 11   5  33  1   
 12   6   9  1   
 13   6  10  1   
 14   7  11  1   
 15   7  12  1   
 16   7  34  1   
 17   8  13  1   
 18   8  35  1   
 19   8  36  1   
 20   9  14  1   
 21   9  37  1   
 22   9  38  1   
 23  10  15  1   
 24  10  39  1   
 25  10  40  1   
 26  11  13  1   
 27  11  41  1   
 28  11  42  1   
 29  12  16  1   
 30  12  43  1   
 31  12  44  1   
 32  14  15  ar  
 33  14  17  ar  
 34  15  18  ar  
 35  16  19  ar  
 36  16  20  ar  
 37  17  21  ar  
 38  17  45  1   
 39  18  22  ar  
 40  18  46  1   
 41  19  23  ar  
 42  19  24  ar  
 43  20  25  ar  
 44  20  47  1   
 45  21  22  ar  
 46  21  48  1   
 47  22  49  1   
 48  23  26  ar  
 49  23  27  ar  
 50  24  28  ar  
 51  24  50  1   
 52  25  26  ar  
 53  25  51  1   
 54  27  29  ar  
 55  27  52  1   
 56  28  29  ar  
 57  28  53  1   
 58  29  54  1   
@<TRIPOS>SUBSTRUCTURE
  1 ****   3 GROUP 4 **** **** 0

# MOE 2024.06 (io_trps.svl 2023.06)
