@<TRIPOS>MOLECULE
NONAME
55 57 1 0 0 
SMALL
USER_CHARGES


@<TRIPOS>ATOM
  1 O       -0.1470    -0.2110     1.3280 O.2   1 <1>  -0.5700 
  2 C       -1.0890     0.5350     1.2000 C.2   1 <1>   0.5690 
  3 N       -2.3740     0.0700     1.1470 N.am  1 <1>  -0.6600 
  4 C       -0.8050     2.0190     1.0810 C.3   1 <1>  -0.0990 
  5 C       -3.5960     0.8830     0.9440 C.3   1 <1>   0.1400 
  6 C       -2.6870    -1.3720     1.1110 C.3   1 <1>   0.1400 
  7 C       -0.6450     2.4300    -0.3870 C.3   1 <1>  -0.0160 
  8 C       -4.7670    -0.1130     0.9670 C.3   1 <1>  -0.0800 
  9 C       -4.1300    -1.4700     0.6110 C.3   1 <1>  -0.0800 
 10 C       -0.5570     3.9420    -0.5030 C.ar  1 <1>  -0.1440 
 11 C       -6.0170     0.2710     0.1150 C.3   1 <1>   0.2800 
 12 C       -4.2130    -1.7360    -0.9000 C.3   1 <1>  -0.1600 
 13 C        0.6590     4.5870    -0.3470 C.ar  1 <1>  -0.1500 
 14 C       -1.6970     4.6870    -0.7590 C.ar  1 <1>  -0.1500 
 15 O       -5.6500     1.0780    -0.9470 O.3   1 <1>  -0.6800 
 16 C       -6.6490    -0.9920    -0.4990 C.3   1 <1>  -0.1600 
 17 C       -7.0750     1.0510     0.9250 C.3   1 <1>  -0.1600 
 18 C       -5.6740    -1.8020    -1.3820 C.3   1 <1>  -0.1600 
 19 C        0.7420     5.9660    -0.4460 C.ar  1 <1>  -0.1430 
 20 C       -1.6270     6.0670    -0.8560 C.ar  1 <1>  -0.1430 
 21 C       -6.6030     2.3890     1.5220 C.3   1 <1>  -0.2400 
 22 C       -0.4050     6.7000    -0.7000 C.ar  1 <1>  -0.1500 
 23 C        2.0770     6.6650    -0.2740 C.3   1 <1>  -0.0970 
 24 C       -2.8800     6.8760    -1.1380 C.3   1 <1>  -0.0970 
 25 H       -1.5940     2.5850     1.5390 H     1 <1>   0.0800 
 26 H        0.1010     2.2420     1.6120 H     1 <1>   0.0800 
 27 H       -3.6990     1.6160     1.7230 H     1 <1>   0.0800 
 28 H       -3.5110     1.3810    -0.0050 H     1 <1>   0.0800 
 29 H       -1.9990    -1.8960     0.4690 H     1 <1>   0.0800 
 30 H       -2.6080    -1.7660     2.1090 H     1 <1>   0.0800 
 31 H       -1.4810     2.0740    -0.9630 H     1 <1>   0.0800 
 32 H        0.2430     1.9760    -0.7930 H     1 <1>   0.0800 
 33 H       -5.0810    -0.1980     1.9910 H     1 <1>   0.0800 
 34 H       -4.6290    -2.2730     1.1270 H     1 <1>   0.0800 
 35 H       -3.7100    -0.9370    -1.4180 H     1 <1>   0.0800 
 36 H       -3.7080    -2.6530    -1.1490 H     1 <1>   0.0800 
 37 H        1.5450     4.0110    -0.1460 H     1 <1>   0.1500 
 38 H       -2.6430     4.1920    -0.8820 H     1 <1>   0.1500 
 39 H       -6.4210     1.2170    -1.5250 H     1 <1>   0.4000 
 40 H       -6.9740    -1.6240     0.3090 H     1 <1>   0.0800 
 41 H       -7.5270    -0.7400    -1.0670 H     1 <1>   0.0800 
 42 H       -7.9270     1.2410     0.2950 H     1 <1>   0.0800 
 43 H       -7.4210     0.4270     1.7310 H     1 <1>   0.0800 
 44 H       -6.0000    -2.8280    -1.4020 H     1 <1>   0.0800 
 45 H       -5.7140    -1.4330    -2.3930 H     1 <1>   0.0800 
 46 H       -6.2020     3.0290     0.7560 H     1 <1>   0.0800 
 47 H       -5.8500     2.2310     2.2720 H     1 <1>   0.0800 
 48 H       -7.4320     2.8950     1.9840 H     1 <1>   0.0800 
 49 H       -0.3460     7.7710    -0.7770 H     1 <1>   0.1500 
 50 H        2.1020     7.5750    -0.8450 H     1 <1>   0.0800 
 51 H        2.8780     6.0320    -0.6100 H     1 <1>   0.0800 
 52 H        2.2310     6.9010     0.7640 H     1 <1>   0.0800 
 53 H       -2.7950     7.8600    -0.7140 H     1 <1>   0.0800 
 54 H       -3.7410     6.3950    -0.7090 H     1 <1>   0.0800 
 55 H       -3.0230     6.9640    -2.1990 H     1 <1>   0.0800 
@<TRIPOS>BOND
  1   1   2  2   
  2   2   3  am  
  3   2   4  1   
  4   3   5  1   
  5   3   6  1   
  6   4   7  1   
  7   4  25  1   
  8   4  26  1   
  9   5   8  1   
 10   5  27  1   
 11   5  28  1   
 12   6   9  1   
 13   6  29  1   
 14   6  30  1   
 15   7  10  1   
 16   7  31  1   
 17   7  32  1   
 18   8   9  1   
 19   8  11  1   
 20   8  33  1   
 21   9  12  1   
 22   9  34  1   
 23  10  13  ar  
 24  10  14  ar  
 25  11  15  1   
 26  11  16  1   
 27  11  17  1   
 28  12  18  1   
 29  12  35  1   
 30  12  36  1   
 31  13  19  ar  
 32  13  37  1   
 33  14  20  ar  
 34  14  38  1   
 35  15  39  1   
 36  16  18  1   
 37  16  40  1   
 38  16  41  1   
 39  17  21  1   
 40  17  42  1   
 41  17  43  1   
 42  18  44  1   
 43  18  45  1   
 44  19  22  ar  
 45  19  23  1   
 46  20  22  ar  
 47  20  24  1   
 48  21  46  1   
 49  21  47  1   
 50  21  48  1   
 51  22  49  1   
 52  23  50  1   
 53  23  51  1   
 54  23  52  1   
 55  24  53  1   
 56  24  54  1   
 57  24  55  1   
@<TRIPOS>SUBSTRUCTURE
  1 ****   5 GROUP 4 **** **** 0

# MOE 2024.06 (io_trps.svl 2023.06)
