@<TRIPOS>MOLECULE
NONAME
47 48 1 0 0 
SMALL
USER_CHARGES


@<TRIPOS>ATOM
  1 O        0.2340    -0.2970    -0.3350 O.3   1 <1>  -0.3630 
  2 C        1.3590     0.4390    -0.1390 C.ar  1 <1>   0.0820 
  3 C        0.1890    -1.6570     0.0150 C.3   1 <1>   0.1200 
  4 C        1.3020     1.7730    -0.5110 C.ar  1 <1>  -0.1500 
  5 C        2.5360    -0.0700     0.4050 C.ar  1 <1>  -0.1500 
  6 C       -1.2100    -2.1660    -0.3280 C.3   1 <1>  -0.1600 
  7 C        2.4000     2.6000    -0.3470 C.ar  1 <1>  -0.1500 
  8 C        3.6330     0.7570     0.5680 C.ar  1 <1>  -0.1500 
  9 C       -1.3530    -3.6380     0.0500 C.3   1 <1>   0.3430 
 10 C        3.5760     2.0910     0.1970 C.ar  1 <1>   0.0820 
 11 N       -2.6810    -4.1610    -0.3760 N.4   1 <1>  -0.9590 
 12 O        4.7010     2.8270     0.3940 O.3   1 <1>  -0.3620 
 13 C       -2.6740    -5.6580    -0.3070 C.3   1 <1>   0.3430 
 14 C       -3.8010    -3.5980     0.4420 C.3   1 <1>   0.3430 
 15 C        4.7440     4.1940     0.0480 C.3   1 <1>   0.0400 
 16 C       -3.9940    -6.2370    -0.8230 C.3   1 <1>  -0.0800 
 17 C       -5.1430    -4.1330    -0.0590 C.3   1 <1>  -0.1600 
 18 C       -5.1710    -5.6610    -0.0250 C.3   1 <1>   0.2000 
 19 C       -3.9580    -7.7690    -0.7630 C.3   1 <1>   0.1200 
 20 O       -5.0390    -6.0480     1.2970 O.3   1 <1>  -0.6800 
 21 O       -2.8330    -8.1960    -1.4480 O.3   1 <1>  -0.6800 
 22 H        0.9450    -2.1750    -0.5500 H     1 <1>   0.0800 
 23 H        0.3860    -1.7370     1.0710 H     1 <1>   0.0800 
 24 H        0.3920     2.1610    -0.9310 H     1 <1>   0.1500 
 25 H        2.6240    -1.0950     0.7060 H     1 <1>   0.1500 
 26 H       -1.9220    -1.5700     0.2120 H     1 <1>   0.0800 
 27 H       -1.3650    -2.0450    -1.3860 H     1 <1>   0.0800 
 28 H        2.3200     3.6270    -0.6460 H     1 <1>   0.1500 
 29 H        4.5460     0.3740     0.9870 H     1 <1>   0.1500 
 30 H       -1.2340    -3.7600     1.1150 H     1 <1>   0.0800 
 31 H       -0.5750    -4.2000    -0.4420 H     1 <1>   0.0800 
 32 H       -2.8290    -3.8980    -1.3590 H     1 <1>   0.4500 
 33 H       -1.8630    -6.0530    -0.8990 H     1 <1>   0.0800 
 34 H       -2.5310    -5.9770     0.7130 H     1 <1>   0.0800 
 35 H       -3.6720    -3.8830     1.4750 H     1 <1>   0.0800 
 36 H       -3.8030    -2.5220     0.3840 H     1 <1>   0.0800 
 37 H        5.7220     4.5680     0.2890 H     1 <1>   0.0800 
 38 H        3.9990     4.7210     0.6170 H     1 <1>   0.0800 
 39 H        4.5650     4.2920    -1.0080 H     1 <1>   0.0800 
 40 H       -4.1140    -5.9630    -1.8550 H     1 <1>   0.0800 
 41 H       -5.3140    -3.7870    -1.0630 H     1 <1>   0.0800 
 42 H       -5.9390    -3.7430     0.5500 H     1 <1>   0.0800 
 43 H       -6.1080    -6.0430    -0.3990 H     1 <1>   0.0800 
 44 H       -4.8280    -8.1940    -1.2360 H     1 <1>   0.0800 
 45 H       -3.8900    -8.1250     0.2520 H     1 <1>   0.0800 
 46 H       -5.8940    -5.9700     1.7710 H     1 <1>   0.4000 
 47 H       -2.8110    -9.1750    -1.5040 H     1 <1>   0.4000 
@<TRIPOS>BOND
  1   1   2  1   
  2   1   3  1   
  3   2   4  ar  
  4   2   5  ar  
  5   3   6  1   
  6   3  22  1   
  7   3  23  1   
  8   4   7  ar  
  9   4  24  1   
 10   5   8  ar  
 11   5  25  1   
 12   6   9  1   
 13   6  26  1   
 14   6  27  1   
 15   7  10  ar  
 16   7  28  1   
 17   8  10  ar  
 18   8  29  1   
 19   9  11  1   
 20   9  30  1   
 21   9  31  1   
 22  10  12  1   
 23  11  13  1   
 24  11  14  1   
 25  11  32  1   
 26  12  15  1   
 27  13  16  1   
 28  13  33  1   
 29  13  34  1   
 30  14  17  1   
 31  14  35  1   
 32  14  36  1   
 33  15  37  1   
 34  15  38  1   
 35  15  39  1   
 36  16  18  1   
 37  16  19  1   
 38  16  40  1   
 39  17  18  1   
 40  17  41  1   
 41  17  42  1   
 42  18  20  1   
 43  18  43  1   
 44  19  21  1   
 45  19  44  1   
 46  19  45  1   
 47  20  46  1   
 48  21  47  1   
@<TRIPOS>SUBSTRUCTURE
  1 ****   6 GROUP 4 **** **** 0

# MOE 2024.06 (io_trps.svl 2023.06)
