@<TRIPOS>MOLECULE
NONAME
46 49 1 0 0 
SMALL
USER_CHARGES


@<TRIPOS>ATOM
  1 F       -1.2280     1.0850     0.8980 F     1 <1>  -0.3400 
  2 C       -1.0050     2.2760     0.3470 C.3   1 <1>   1.1640 
  3 F       -1.8820     3.0910     0.9230 F     1 <1>  -0.3400 
  4 F       -1.3710     2.1410    -0.9230 F     1 <1>  -0.3400 
  5 C        0.4510     2.7240     0.5210 C.ar  1 <1>  -0.1440 
  6 C        0.8420     3.9770    -0.0010 C.ar  1 <1>   0.3100 
  7 C        1.3690     1.9270     1.1710 C.ar  1 <1>  -0.1500 
  8 N       -0.0720     4.7330    -0.6590 N.ar  1 <1>  -0.6200 
  9 C        2.1810     4.4090     0.1700 C.ar  1 <1>   0.0000 
 10 C        2.6910     2.3400     1.3220 C.ar  1 <1>  -0.1500 
 11 C        0.3070     5.8780    -1.1400 C.ar  1 <1>   0.1600 
 12 C        2.5510     5.6830    -0.3390 C.ar  1 <1>   0.1000 
 13 C        3.0850     3.5510     0.8290 C.ar  1 <1>  -0.1500 
 14 C        1.5910     6.3900    -1.0080 C.ar  1 <1>  -0.1500 
 15 N        3.8160     6.2300    -0.1840 N.pl3 1 <1>  -0.8380 
 16 C        4.2360     6.6970     1.1790 C.3   1 <1>   0.2090 
 17 C        4.9070     5.7610    -1.0870 C.3   1 <1>   0.2090 
 18 C        5.1880     7.9300     1.1940 C.3   1 <1>   0.4230 
 19 C        5.8420     6.9190    -1.4810 C.3   1 <1>  -0.0800 
 20 N        5.0510     8.8860     0.0180 N.4   1 <1>  -0.9590 
 21 C        6.6590     7.5170     1.4180 C.3   1 <1>   0.1200 
 22 C        7.2160     6.8570    -0.7950 C.3   1 <1>   0.1200 
 23 C        5.1460     8.2830    -1.3620 C.3   1 <1>   0.3430 
 24 C        3.7530     9.6170     0.1210 C.3   1 <1>   0.2630 
 25 O        7.0870     6.5180     0.5470 O.3   1 <1>  -0.5600 
 26 H        1.0990     0.9660     1.5780 H     1 <1>   0.1500 
 27 H        3.3900     1.6930     1.8260 H     1 <1>   0.1500 
 28 H       -0.4260     6.4620    -1.6710 H     1 <1>   0.1500 
 29 H        4.1080     3.8530     0.9430 H     1 <1>   0.1500 
 30 H        1.8160     7.3460    -1.4360 H     1 <1>   0.1500 
 31 H        3.3510     6.9500     1.7340 H     1 <1>   0.0800 
 32 H        4.7050     5.8840     1.7050 H     1 <1>   0.0800 
 33 H        5.4600     4.9650    -0.6160 H     1 <1>   0.0800 
 34 H        4.4570     5.3520    -1.9770 H     1 <1>   0.0800 
 35 H        4.9290     8.4860     2.0790 H     1 <1>   0.0800 
 36 H        6.0420     6.7880    -2.5290 H     1 <1>   0.0800 
 37 H        5.8140     9.5680     0.1020 H     1 <1>   0.4500 
 38 H        6.7570     7.1110     2.4100 H     1 <1>   0.0800 
 39 H        7.3240     8.3590     1.3410 H     1 <1>   0.0800 
 40 H        7.7630     7.7800    -0.8850 H     1 <1>   0.0800 
 41 H        7.8020     6.0750    -1.2480 H     1 <1>   0.0800 
 42 H        4.1500     8.1570    -1.7530 H     1 <1>   0.0800 
 43 H        5.6510     8.9830    -2.0080 H     1 <1>   0.0800 
 44 H        2.9320     8.9210     0.0410 H     1 <1>   0.0800 
 45 H        3.6670    10.3450    -0.6700 H     1 <1>   0.0800 
 46 H        3.6800    10.1290     1.0680 H     1 <1>   0.0800 
@<TRIPOS>BOND
  1   1   2  1   
  2   2   3  1   
  3   2   4  1   
  4   2   5  1   
  5   5   6  ar  
  6   5   7  ar  
  7   6   8  ar  
  8   6   9  ar  
  9   7  10  ar  
 10   7  26  1   
 11   8  11  ar  
 12   9  12  ar  
 13   9  13  ar  
 14  10  13  ar  
 15  10  27  1   
 16  11  14  ar  
 17  11  28  1   
 18  12  14  ar  
 19  12  15  1   
 20  13  29  1   
 21  14  30  1   
 22  15  16  1   
 23  15  17  1   
 24  16  18  1   
 25  16  31  1   
 26  16  32  1   
 27  17  19  1   
 28  17  33  1   
 29  17  34  1   
 30  18  20  1   
 31  18  21  1   
 32  18  35  1   
 33  19  22  1   
 34  19  23  1   
 35  19  36  1   
 36  20  23  1   
 37  20  24  1   
 38  20  37  1   
 39  21  25  1   
 40  21  38  1   
 41  21  39  1   
 42  22  25  1   
 43  22  40  1   
 44  22  41  1   
 45  23  42  1   
 46  23  43  1   
 47  24  44  1   
 48  24  45  1   
 49  24  46  1   
@<TRIPOS>SUBSTRUCTURE
  1 ****  12 GROUP 4 **** **** 0

# MOE 2024.06 (io_trps.svl 2023.06)
