@<TRIPOS>MOLECULE
NONAME
27 27 1 0 0 
SMALL
USER_CHARGES


@<TRIPOS>ATOM
  1 F       -0.1870    -1.3170     0.9040 F     1 <1>  -0.3400 
  2 C        0.3390    -1.6730    -0.2620 C.3   1 <1>   0.8800 
  3 F       -0.4120    -2.6740    -0.7050 F     1 <1>  -0.3400 
  4 O        1.6340    -2.1720    -0.0320 O.3   1 <1>  -0.3630 
  5 C        2.6630    -1.3400    -0.3050 C.ar  1 <1>   0.0820 
  6 C        2.6330     0.0100     0.0300 C.ar  1 <1>  -0.1500 
  7 C        3.7620    -1.8700    -0.9570 C.ar  1 <1>  -0.1500 
  8 C        3.6790     0.8550    -0.3240 C.ar  1 <1>  -0.1440 
  9 C        4.8120    -1.0430    -1.3090 C.ar  1 <1>  -0.1500 
 10 C        4.7610     0.3050    -1.0020 C.ar  1 <1>  -0.1500 
 11 C        3.7030     2.3710    -0.0080 C.3   1 <1>   0.0370 
 12 C        3.9720     3.1780    -1.3150 C.2   1 <1>   0.9060 
 13 C        4.8090     2.6090     1.0480 C.3   1 <1>  -0.2400 
 14 C        2.3850     2.8650     0.6400 C.3   1 <1>  -0.2400 
 15 O        5.1310     3.5170    -1.6040 O.co2 1 <1>  -0.9000 
 16 O        3.0210     3.4840    -2.0520 O.co2 1 <1>  -0.9000 
 17 H        0.3120    -0.8520    -0.9580 H     1 <1>   0.0800 
 18 H        1.7920     0.3950     0.5700 H     1 <1>   0.1500 
 19 H        3.7880    -2.9170    -1.1950 H     1 <1>   0.1500 
 20 H        5.6670    -1.4390    -1.8280 H     1 <1>   0.1500 
 21 H        5.5790     0.9430    -1.3000 H     1 <1>   0.1500 
 22 H        5.7680     2.3220     0.6550 H     1 <1>   0.0800 
 23 H        4.6170     2.0370     1.9370 H     1 <1>   0.0800 
 24 H        4.8590     3.6530     1.3000 H     1 <1>   0.0800 
 25 H        1.5580     2.6760    -0.0210 H     1 <1>   0.0800 
 26 H        2.4370     3.9280     0.7960 H     1 <1>   0.0800 
 27 H        2.2070     2.3870     1.5860 H     1 <1>   0.0800 
@<TRIPOS>BOND
  1   1   2  1   
  2   2   3  1   
  3   2   4  1   
  4   2  17  1   
  5   4   5  1   
  6   5   6  ar  
  7   5   7  ar  
  8   6   8  ar  
  9   6  18  1   
 10   7   9  ar  
 11   7  19  1   
 12   8  10  ar  
 13   8  11  1   
 14   9  10  ar  
 15   9  20  1   
 16  10  21  1   
 17  11  12  1   
 18  11  13  1   
 19  11  14  1   
 20  12  15  ar  
 21  12  16  ar  
 22  13  22  1   
 23  13  23  1   
 24  13  24  1   
 25  14  25  1   
 26  14  26  1   
 27  14  27  1   
@<TRIPOS>SUBSTRUCTURE
  1 ****   6 GROUP 4 **** **** 0

# MOE 2024.06 (io_trps.svl 2023.06)
