@<TRIPOS>MOLECULE
NONAME
40 41 1 0 0 
SMALL
USER_CHARGES


@<TRIPOS>ATOM
  1 S        0.4180    -0.0370    -1.2350 S.3   1 <1>  -0.4660 
  2 C        1.4830     0.8730    -0.0980 C.3   1 <1>   0.0600 
  3 C       -0.0410    -1.5200    -0.2970 C.3   1 <1>  -0.0200 
  4 C        1.8690     2.1690    -0.8180 C.3   1 <1>   0.3360 
  5 N        2.7810     3.0370     0.0000 N.4   1 <1>  -0.9610 
  6 C        2.8790     4.3930    -0.6370 C.3   1 <1>   0.3360 
  7 C        4.1360     2.4070     0.1650 C.3   1 <1>   0.3360 
  8 C        3.8360     5.3380     0.1270 C.3   1 <1>   0.1590 
  9 C        5.1200     3.3190     0.9370 C.3   1 <1>   0.1590 
 10 N        5.1800     4.7160     0.3820 N.pl3 1 <1>  -0.5970 
 11 C        6.3580     5.3850     0.2010 C.cat 1 <1>   1.0690 
 12 N        7.4840     4.8180    -0.1790 N.pl3 1 <1>  -0.7040 
 13 N        6.6170     6.6900     0.3470 N.pl3 1 <1>  -0.4630 
 14 C        8.4130     5.8090    -0.2730 C.2   1 <1>   0.4790 
 15 N        7.9230     6.9470     0.0360 N.2   1 <1>  -0.2680 
 16 C        5.7860     7.8060     0.8680 C.3   1 <1>   0.2660 
 17 C        9.8390     5.5400    -0.7000 C.3   1 <1>  -0.0820 
 18 H        2.3290     0.2410     0.1040 H     1 <1>   0.0700 
 19 H        0.9090     1.0580     0.7930 H     1 <1>   0.0700 
 20 H       -0.6900    -2.1120    -0.9200 H     1 <1>   0.0700 
 21 H       -0.5520    -1.2090     0.5960 H     1 <1>   0.0700 
 22 H        0.8580    -2.0620    -0.0630 H     1 <1>   0.0700 
 23 H        0.9610     2.7080    -1.0390 H     1 <1>   0.0700 
 24 H        2.3410     1.9210    -1.7540 H     1 <1>   0.0700 
 25 H        2.3410     3.1430     0.9260 H     1 <1>   0.4430 
 26 H        1.8990     4.8420    -0.6800 H     1 <1>   0.0700 
 27 H        3.2310     4.2870    -1.6500 H     1 <1>   0.0700 
 28 H        4.5500     2.1920    -0.8060 H     1 <1>   0.0700 
 29 H        4.0400     1.4720     0.6920 H     1 <1>   0.0700 
 30 H        3.3850     5.6070     1.0670 H     1 <1>   0.0700 
 31 H        3.9490     6.2380    -0.4540 H     1 <1>   0.0700 
 32 H        6.0950     2.8650     0.9280 H     1 <1>   0.0700 
 33 H        4.8050     3.3690     1.9660 H     1 <1>   0.0700 
 34 H        7.6530     3.8440    -0.4030 H     1 <1>   0.4430 
 35 H        5.0470     7.4390     1.5580 H     1 <1>   0.0700 
 36 H        5.3030     8.3150     0.0520 H     1 <1>   0.0700 
 37 H        6.4140     8.5110     1.3880 H     1 <1>   0.0700 
 38 H       10.3080     4.8580    -0.0150 H     1 <1>   0.0700 
 39 H       10.4000     6.4580    -0.7080 H     1 <1>   0.0700 
 40 H        9.8580     5.1200    -1.6890 H     1 <1>   0.0700 
@<TRIPOS>BOND
  1   1   2  1   
  2   1   3  1   
  3   2   4  1   
  4   2  18  1   
  5   2  19  1   
  6   3  20  1   
  7   3  21  1   
  8   3  22  1   
  9   4   5  1   
 10   4  23  1   
 11   4  24  1   
 12   5   6  1   
 13   5   7  1   
 14   5  25  1   
 15   6   8  1   
 16   6  26  1   
 17   6  27  1   
 18   7   9  1   
 19   7  28  1   
 20   7  29  1   
 21   8  10  1   
 22   8  30  1   
 23   8  31  1   
 24   9  10  1   
 25   9  32  1   
 26   9  33  1   
 27  10  11  ar  
 28  11  12  ar  
 29  11  13  ar  
 30  12  14  1   
 31  12  34  1   
 32  13  15  1   
 33  13  16  1   
 34  14  15  2   
 35  14  17  1   
 36  16  35  1   
 37  16  36  1   
 38  16  37  1   
 39  17  38  1   
 40  17  39  1   
 41  17  40  1   
@<TRIPOS>SUBSTRUCTURE
  1 ****  10 GROUP 4 **** **** 0

# MOE 2024.06 (io_trps.svl 2023.06)
