@<TRIPOS>MOLECULE
NONAME
53 55 1 0 0 
SMALL
USER_CHARGES


@<TRIPOS>ATOM
  1 S       -0.7010     0.6050     1.1130 S.o2  1 <1>   1.4470 
  2 O       -1.2690     1.7850     1.7240 O.2   1 <1>  -0.6500 
  3 O       -0.6180    -0.6150     1.8930 O.2   1 <1>  -0.6500 
  4 N       -1.6740     0.1970    -0.2260 N.am  1 <1>  -0.8490 
  5 C        0.9170     0.9680     0.3610 C.ar  1 <1>  -0.0090 
  6 C       -1.4850    -1.1740    -0.7230 C.3   1 <1>   0.1960 
  7 C       -3.0890     0.5760    -0.1120 C.3   1 <1>   0.1960 
  8 C        1.1210     1.9910    -0.5700 C.ar  1 <1>  -0.1440 
  9 C        2.0110     0.1810     0.7110 C.ar  1 <1>  -0.1500 
 10 C       -2.2630    -2.2370     0.1080 C.3   1 <1>   0.4230 
 11 C       -3.8520    -0.4200     0.7730 C.3   1 <1>  -0.1600 
 12 C        2.3760     2.1850    -1.1280 C.ar  1 <1>  -0.1500 
 13 C       -0.0020     2.9280    -1.0010 C.3   1 <1>  -0.0960 
 14 C        3.2640     0.3730     0.1560 C.ar  1 <1>  -0.1430 
 15 N       -2.0060    -3.6790    -0.3150 N.4   1 <1>  -0.9590 
 16 C       -3.7700    -1.8810     0.2500 C.3   1 <1>   0.0000 
 17 C        3.4400     1.3810    -0.7710 C.ar  1 <1>  -0.1500 
 18 C        4.4370    -0.5010     0.5630 C.3   1 <1>  -0.0970 
 19 C       -3.0260    -4.6530     0.1970 C.3   1 <1>   0.3430 
 20 C       -1.7790    -3.8990    -1.7810 C.3   1 <1>   0.2630 
 21 C       -4.4220    -2.8280     1.3000 C.3   1 <1>  -0.1600 
 22 C       -4.4870    -2.0150    -1.1230 C.3   1 <1>   0.1200 
 23 C       -3.6620    -4.1540     1.4940 C.3   1 <1>  -0.1600 
 24 O       -5.7610    -1.4750    -1.0900 O.3   1 <1>  -0.6800 
 25 H       -1.8130    -1.1960    -1.7470 H     1 <1>   0.0800 
 26 H       -0.4330    -1.4070    -0.7110 H     1 <1>   0.0800 
 27 H       -3.1830     1.5720     0.2900 H     1 <1>   0.0800 
 28 H       -3.5310     0.5990    -1.0940 H     1 <1>   0.0800 
 29 H        1.8840    -0.5990     1.4410 H     1 <1>   0.1500 
 30 H       -1.8780    -2.1640     1.1100 H     1 <1>   0.0800 
 31 H       -3.4500    -0.3550     1.7700 H     1 <1>   0.0800 
 32 H       -4.8770    -0.1000     0.8410 H     1 <1>   0.0800 
 33 H        2.5380     2.9700    -1.8470 H     1 <1>   0.1500 
 34 H        0.3680     3.7030    -1.6480 H     1 <1>   0.0800 
 35 H       -0.4450     3.4040    -0.1440 H     1 <1>   0.0800 
 36 H       -0.7610     2.3860    -1.5350 H     1 <1>   0.0800 
 37 H       -1.1270    -3.9260     0.1650 H     1 <1>   0.4500 
 38 H        4.4070     1.5490    -1.2140 H     1 <1>   0.1500 
 39 H        5.0710    -0.6940    -0.2840 H     1 <1>   0.0800 
 40 H        4.0960    -1.4430     0.9540 H     1 <1>   0.0800 
 41 H        5.0150    -0.0020     1.3200 H     1 <1>   0.0800 
 42 H       -3.8060    -4.7850    -0.5350 H     1 <1>   0.0800 
 43 H       -2.5640    -5.6130     0.3640 H     1 <1>   0.0800 
 44 H       -2.6550    -3.6230    -2.3460 H     1 <1>   0.0800 
 45 H       -1.5640    -4.9380    -1.9730 H     1 <1>   0.0800 
 46 H       -0.9440    -3.3130    -2.1290 H     1 <1>   0.0800 
 47 H       -4.4740    -2.3460     2.2620 H     1 <1>   0.0800 
 48 H       -5.4390    -3.0430     1.0210 H     1 <1>   0.0800 
 49 H       -4.5830    -3.0430    -1.4220 H     1 <1>   0.0800 
 50 H       -3.9580    -1.4870    -1.8970 H     1 <1>   0.0800 
 51 H       -4.3440    -4.9000     1.8660 H     1 <1>   0.0800 
 52 H       -2.8930    -4.0340     2.2390 H     1 <1>   0.0800 
 53 H       -6.3430    -1.9330    -0.4510 H     1 <1>   0.4000 
@<TRIPOS>BOND
  1   1   2  2   
  2   1   3  2   
  3   1   4  am  
  4   1   5  1   
  5   4   6  1   
  6   4   7  1   
  7   5   8  ar  
  8   5   9  ar  
  9   6  10  1   
 10   6  25  1   
 11   6  26  1   
 12   7  11  1   
 13   7  27  1   
 14   7  28  1   
 15   8  12  ar  
 16   8  13  1   
 17   9  14  ar  
 18   9  29  1   
 19  10  15  1   
 20  10  16  1   
 21  10  30  1   
 22  11  16  1   
 23  11  31  1   
 24  11  32  1   
 25  12  17  ar  
 26  12  33  1   
 27  13  34  1   
 28  13  35  1   
 29  13  36  1   
 30  14  17  ar  
 31  14  18  1   
 32  15  19  1   
 33  15  20  1   
 34  15  37  1   
 35  16  21  1   
 36  16  22  1   
 37  17  38  1   
 38  18  39  1   
 39  18  40  1   
 40  18  41  1   
 41  19  23  1   
 42  19  42  1   
 43  19  43  1   
 44  20  44  1   
 45  20  45  1   
 46  20  46  1   
 47  21  23  1   
 48  21  47  1   
 49  21  48  1   
 50  22  24  1   
 51  22  49  1   
 52  22  50  1   
 53  23  51  1   
 54  23  52  1   
 55  24  53  1   
@<TRIPOS>SUBSTRUCTURE
  1 ****   6 GROUP 4 **** **** 0

# MOE 2024.06 (io_trps.svl 2023.06)
