@<TRIPOS>MOLECULE
NONAME
47 49 1 0 0 
SMALL
USER_CHARGES


@<TRIPOS>ATOM
  1 CL       2.2290    -0.2220    -1.2480 Cl    1 <1>  -0.1770 
  2 C        3.9270    -0.5210    -0.9670 C.ar  1 <1>   0.1770 
  3 C        4.8110     0.5500    -0.8290 C.ar  1 <1>   0.0860 
  4 C        4.3420    -1.8360    -0.8800 C.ar  1 <1>  -0.1500 
  5 C        4.3510     1.9160    -0.9250 C.2   1 <1>   0.5440 
  6 C        6.1550     0.2550    -0.5860 C.ar  1 <1>  -0.1500 
  7 C        5.6800    -2.0780    -0.6420 C.ar  1 <1>   0.1900 
  8 O        4.5000     2.5100    -1.9770 O.2   1 <1>  -0.5700 
  9 N        3.7720     2.5650     0.1460 N.am  1 <1>  -0.6600 
 10 C        6.5970    -1.0530    -0.4910 C.ar  1 <1>  -0.1500 
 11 F        6.0920    -3.3110    -0.5560 F     1 <1>  -0.1900 
 12 C        3.8250     2.0170     1.5420 C.3   1 <1>   0.1400 
 13 C        3.2210     3.9410     0.0000 C.3   1 <1>   0.1400 
 14 C        4.4400     2.9960     2.5570 C.3   1 <1>   0.1400 
 15 C        4.3360     4.9980     0.0620 C.3   1 <1>  -0.1600 
 16 N        5.5150     3.8260     1.9420 N.am  1 <1>  -0.6600 
 17 C        5.0550     5.1380     1.4130 C.3   1 <1>   0.1400 
 18 C        6.7490     3.2800     1.6620 C.2   1 <1>   0.5440 
 19 O        6.9980     2.1540     2.0510 O.2   1 <1>  -0.5700 
 20 C        7.7510     4.0090     0.9130 C.ar  1 <1>   0.0860 
 21 C        8.7580     4.7170     1.5650 C.ar  1 <1>  -0.1500 
 22 C        7.7450     4.0290    -0.4810 C.ar  1 <1>  -0.1500 
 23 C        9.7130     5.4250     0.8580 C.ar  1 <1>  -0.1500 
 24 C        8.6970     4.7350    -1.1920 C.ar  1 <1>  -0.1500 
 25 C        9.6870     5.4410    -0.5280 C.ar  1 <1>  -0.1430 
 26 C       10.7320     6.2170    -1.3120 C.3   1 <1>   0.2630 
 27 O       11.6210     5.3050    -1.8410 O.3   1 <1>  -0.6800 
 28 H        3.6470    -2.6470    -0.9920 H     1 <1>   0.1500 
 29 H        6.8560     1.0640    -0.4650 H     1 <1>   0.1500 
 30 H        7.6320    -1.2770    -0.3010 H     1 <1>   0.1500 
 31 H        4.4180     1.1210     1.5680 H     1 <1>   0.0800 
 32 H        2.8320     1.7510     1.8570 H     1 <1>   0.0800 
 33 H        2.4850     4.1250     0.7640 H     1 <1>   0.0800 
 34 H        2.7250     4.0130    -0.9540 H     1 <1>   0.0800 
 35 H        4.8450     2.4390     3.3850 H     1 <1>   0.0800 
 36 H        3.6680     3.6340     2.9500 H     1 <1>   0.0800 
 37 H        3.9020     5.9510    -0.1770 H     1 <1>   0.0800 
 38 H        5.0530     4.7930    -0.7090 H     1 <1>   0.0800 
 39 H        4.3890     5.5880     2.1290 H     1 <1>   0.0800 
 40 H        5.8950     5.8020     1.3000 H     1 <1>   0.0800 
 41 H        8.7850     4.7030     2.6410 H     1 <1>   0.1500 
 42 H        6.9820     3.4830    -1.0100 H     1 <1>   0.1500 
 43 H       10.4770     5.9620     1.3940 H     1 <1>   0.1500 
 44 H        8.6700     4.7300    -2.2690 H     1 <1>   0.1500 
 45 H       11.2790     6.8900    -0.6750 H     1 <1>   0.0800 
 46 H       10.2890     6.7690    -2.1230 H     1 <1>   0.0800 
 47 H       11.6860     4.5450    -1.2310 H     1 <1>   0.4000 
@<TRIPOS>BOND
  1   1   2  1   
  2   2   3  ar  
  3   2   4  ar  
  4   3   5  1   
  5   3   6  ar  
  6   4   7  ar  
  7   4  28  1   
  8   5   8  2   
  9   5   9  am  
 10   6  10  ar  
 11   6  29  1   
 12   7  10  ar  
 13   7  11  1   
 14   9  12  1   
 15   9  13  1   
 16  10  30  1   
 17  12  14  1   
 18  12  31  1   
 19  12  32  1   
 20  13  15  1   
 21  13  33  1   
 22  13  34  1   
 23  14  16  1   
 24  14  35  1   
 25  14  36  1   
 26  15  17  1   
 27  15  37  1   
 28  15  38  1   
 29  16  17  1   
 30  16  18  am  
 31  17  39  1   
 32  17  40  1   
 33  18  19  2   
 34  18  20  1   
 35  20  21  ar  
 36  20  22  ar  
 37  21  23  ar  
 38  21  41  1   
 39  22  24  ar  
 40  22  42  1   
 41  23  25  ar  
 42  23  43  1   
 43  24  25  ar  
 44  24  44  1   
 45  25  26  1   
 46  26  27  1   
 47  26  45  1   
 48  26  46  1   
 49  27  47  1   
@<TRIPOS>SUBSTRUCTURE
  1 ****  18 GROUP 4 **** **** 0

# MOE 2024.06 (io_trps.svl 2023.06)
