@<TRIPOS>MOLECULE
NONAME
51 54 1 0 0 
SMALL
USER_CHARGES


@<TRIPOS>ATOM
  1 O        0.6130    -0.0530    -0.9750 O.3   1 <1>  -0.2800 
  2 C        0.8000     1.2250    -0.6460 C.ar  1 <1>   0.1400 
  3 C        1.4700    -0.7780    -0.2590 C.2   1 <1>  -0.0400 
  4 C        1.7990     1.3330     0.3030 C.ar  1 <1>   0.0000 
  5 C        0.1300     2.3360    -1.1370 C.ar  1 <1>  -0.1500 
  6 C        2.2240     0.0070     0.5380 C.2   1 <1>  -0.1810 
  7 C        1.4560    -2.2830    -0.4460 C.3   1 <1>   0.5230 
  8 C        2.1480     2.5940     0.7880 C.ar  1 <1>  -0.1500 
  9 C        0.4820     3.5780    -0.6510 C.ar  1 <1>  -0.1500 
 10 C        3.3280    -0.3430     1.5210 C.3   1 <1>  -0.0590 
 11 N        0.1940    -2.8400     0.1170 N.4   1 <1>  -0.9590 
 12 C        1.4900     3.7110     0.3110 C.ar  1 <1>  -0.1430 
 13 C       -1.0210    -2.4610    -0.6710 C.3   1 <1>   0.3430 
 14 C        0.2040    -4.3290     0.2230 C.3   1 <1>   0.3430 
 15 C        1.8450     5.0970     0.8170 C.3   1 <1>  -0.0970 
 16 C       -2.0110    -3.6070    -0.4620 C.3   1 <1>   0.2000 
 17 C       -1.1060    -4.8360    -0.3940 C.3   1 <1>  -0.0800 
 18 O       -2.6800    -3.4270     0.7440 O.3   1 <1>  -0.6800 
 19 C       -1.6850    -6.0670     0.3310 C.3   1 <1>   0.0210 
 20 C       -0.7050    -7.2260     0.3100 C.2   1 <1>   0.1080 
 21 N        0.5050    -7.1420     0.7760 N.2   1 <1>  -0.7070 
 22 C       -0.9880    -8.4890    -0.1960 C.2   1 <1>  -0.1500 
 23 N        1.0250    -8.3750     0.5880 N.pl3 1 <1>   0.3000 
 24 C        0.1410    -9.2020    -0.0040 C.2   1 <1>  -0.3320 
 25 C        0.4290   -10.6520    -0.3510 C.3   1 <1>  -0.0600 
 26 H       -0.6400     2.2180    -1.8770 H     1 <1>   0.1500 
 27 H        2.3020    -2.7050     0.0710 H     1 <1>   0.0800 
 28 H        1.5410    -2.5190    -1.4930 H     1 <1>   0.0800 
 29 H        2.9250     2.6780     1.5250 H     1 <1>   0.1500 
 30 H       -0.0220     4.4580    -1.0140 H     1 <1>   0.1500 
 31 H        4.2430     0.1390     1.2260 H     1 <1>   0.0800 
 32 H        3.4960    -1.4040     1.5590 H     1 <1>   0.0800 
 33 H        3.0630     0.0010     2.5050 H     1 <1>   0.0800 
 34 H        0.0850    -2.4280     1.0530 H     1 <1>   0.4500 
 35 H       -1.4340    -1.5170    -0.3540 H     1 <1>   0.0800 
 36 H       -0.7700    -2.4000    -1.7170 H     1 <1>   0.0800 
 37 H        1.0430    -4.7640    -0.2970 H     1 <1>   0.0800 
 38 H        0.2600    -4.6270     1.2580 H     1 <1>   0.0800 
 39 H        2.1730     5.7130    -0.0010 H     1 <1>   0.0800 
 40 H        2.6330     5.0510     1.5470 H     1 <1>   0.0800 
 41 H        0.9830     5.5530     1.2720 H     1 <1>   0.0800 
 42 H       -2.7460    -3.6600    -1.2480 H     1 <1>   0.0800 
 43 H       -0.8790    -5.1330    -1.4040 H     1 <1>   0.0800 
 44 H       -2.1110    -3.5830     1.5220 H     1 <1>   0.4000 
 45 H       -2.6020    -6.3680    -0.1440 H     1 <1>   0.0800 
 46 H       -1.9060    -5.8410     1.3590 H     1 <1>   0.0800 
 47 H       -1.9170    -8.8100    -0.6350 H     1 <1>   0.1500 
 48 H        1.9790    -8.6270     0.8770 H     1 <1>   0.2700 
 49 H       -0.4330   -11.1010    -0.8110 H     1 <1>   0.0800 
 50 H        0.6680   -11.2070     0.5390 H     1 <1>   0.0800 
 51 H        1.2550   -10.7160    -1.0360 H     1 <1>   0.0800 
@<TRIPOS>BOND
  1   1   2  1   
  2   1   3  1   
  3   2   4  ar  
  4   2   5  ar  
  5   3   6  2   
  6   3   7  1   
  7   4   6  1   
  8   4   8  ar  
  9   5   9  ar  
 10   5  26  1   
 11   6  10  1   
 12   7  11  1   
 13   7  27  1   
 14   7  28  1   
 15   8  12  ar  
 16   8  29  1   
 17   9  12  ar  
 18   9  30  1   
 19  10  31  1   
 20  10  32  1   
 21  10  33  1   
 22  11  13  1   
 23  11  14  1   
 24  11  34  1   
 25  12  15  1   
 26  13  16  1   
 27  13  35  1   
 28  13  36  1   
 29  14  17  1   
 30  14  37  1   
 31  14  38  1   
 32  15  39  1   
 33  15  40  1   
 34  15  41  1   
 35  16  17  1   
 36  16  18  1   
 37  16  42  1   
 38  17  19  1   
 39  17  43  1   
 40  18  44  1   
 41  19  20  1   
 42  19  45  1   
 43  19  46  1   
 44  20  21  2   
 45  20  22  1   
 46  21  23  1   
 47  22  24  2   
 48  22  47  1   
 49  23  24  1   
 50  23  48  1   
 51  24  25  1   
 52  25  49  1   
 53  25  50  1   
 54  25  51  1   
@<TRIPOS>SUBSTRUCTURE
  1 ****  11 GROUP 4 **** **** 0

# MOE 2024.06 (io_trps.svl 2023.06)
