@<TRIPOS>MOLECULE
NONAME
48 50 1 0 0 
SMALL
USER_CHARGES


@<TRIPOS>ATOM
  1 O        0.4900    -0.4610    -0.9920 O.2   1 <1>  -0.5700 
  2 C       -0.3590     0.3750    -0.8000 C.2   1 <1>   0.5690 
  3 N       -1.6450     0.0320    -0.4870 N.am  1 <1>  -0.6600 
  4 C        0.0410     1.8290    -0.9060 C.3   1 <1>  -0.0990 
  5 C       -2.7700     0.9560    -0.1740 C.3   1 <1>   0.1400 
  6 C       -2.1120    -1.3760    -0.4620 C.3   1 <1>   0.1400 
  7 C        0.4110     2.3670     0.4740 C.3   1 <1>   0.1400 
  8 C       -3.8400     0.0520     0.4370 C.3   1 <1>   0.2000 
  9 C       -3.6330    -1.2890    -0.2790 C.3   1 <1>  -0.0800 
 10 N        0.4910     3.8440     0.4260 N.am  1 <1>  -0.7300 
 11 O       -3.5620    -0.0970     1.7880 O.3   1 <1>  -0.6800 
 12 C       -4.2540    -2.5030     0.4440 C.3   1 <1>  -0.0170 
 13 C       -0.5870     4.6620     0.5010 C.2   1 <1>   0.5690 
 14 C       -4.2190    -3.8450    -0.2990 C.ar  1 <1>  -0.1440 
 15 O       -1.7150     4.2380     0.5620 O.2   1 <1>  -0.5700 
 16 C       -0.3560     6.1490     0.4930 C.3   1 <1>  -0.1790 
 17 C       -4.6080    -5.0290     0.3770 C.ar  1 <1>   0.0000 
 18 C       -3.8390    -3.9770    -1.6060 C.ar  1 <1>  -0.1500 
 19 C       -4.5530    -6.2520    -0.3360 C.ar  1 <1>   0.3100 
 20 C       -5.0570    -5.0720     1.7190 C.ar  1 <1>  -0.1500 
 21 C       -3.8240    -5.2360    -2.2190 C.ar  1 <1>   0.1600 
 22 N       -4.1580    -6.3390    -1.6300 N.ar  1 <1>  -0.6200 
 23 C       -4.9250    -7.4400     0.3140 C.ar  1 <1>  -0.1500 
 24 C       -5.4150    -6.2460     2.3230 C.ar  1 <1>  -0.1500 
 25 C       -5.3480    -7.4480     1.6150 C.ar  1 <1>  -0.1500 
 26 H        0.8850     1.9130    -1.5650 H     1 <1>   0.0800 
 27 H       -0.7730     2.3900    -1.3240 H     1 <1>   0.0800 
 28 H       -2.4830     1.7420     0.5030 H     1 <1>   0.0800 
 29 H       -3.1340     1.3880    -1.0900 H     1 <1>   0.0800 
 30 H       -1.8400    -1.8780    -1.3750 H     1 <1>   0.0800 
 31 H       -1.6510    -1.8830     0.3690 H     1 <1>   0.0800 
 32 H        1.3530     1.9550     0.7940 H     1 <1>   0.0800 
 33 H       -0.3410     2.0840     1.1920 H     1 <1>   0.0800 
 34 H       -4.8360     0.4470     0.3330 H     1 <1>   0.0800 
 35 H       -4.0850    -1.1940    -1.2500 H     1 <1>   0.0800 
 36 H        1.4270     4.2430     0.3410 H     1 <1>   0.3700 
 37 H       -2.6020    -0.2560     1.8940 H     1 <1>   0.4000 
 38 H       -5.2810    -2.2740     0.6680 H     1 <1>   0.0800 
 39 H       -3.7420    -2.6290     1.3820 H     1 <1>   0.0800 
 40 H        0.2810     6.4230     1.3120 H     1 <1>   0.0800 
 41 H       -1.2940     6.6630     0.5950 H     1 <1>   0.0800 
 42 H        0.1020     6.4400    -0.4340 H     1 <1>   0.0800 
 43 H       -3.5430    -3.1460    -2.2140 H     1 <1>   0.1500 
 44 H       -5.1250    -4.1620     2.2860 H     1 <1>   0.1500 
 45 H       -3.5120    -5.2890    -3.2480 H     1 <1>   0.1500 
 46 H       -4.8670    -8.3510    -0.2520 H     1 <1>   0.1500 
 47 H       -5.7530    -6.2600     3.3450 H     1 <1>   0.1500 
 48 H       -5.6310    -8.3660     2.1010 H     1 <1>   0.1500 
@<TRIPOS>BOND
  1   1   2  2   
  2   2   3  am  
  3   2   4  1   
  4   3   5  1   
  5   3   6  1   
  6   4   7  1   
  7   4  26  1   
  8   4  27  1   
  9   5   8  1   
 10   5  28  1   
 11   5  29  1   
 12   6   9  1   
 13   6  30  1   
 14   6  31  1   
 15   7  10  1   
 16   7  32  1   
 17   7  33  1   
 18   8   9  1   
 19   8  11  1   
 20   8  34  1   
 21   9  12  1   
 22   9  35  1   
 23  10  13  am  
 24  10  36  1   
 25  11  37  1   
 26  12  14  1   
 27  12  38  1   
 28  12  39  1   
 29  13  15  2   
 30  13  16  1   
 31  14  17  ar  
 32  14  18  ar  
 33  16  40  1   
 34  16  41  1   
 35  16  42  1   
 36  17  19  ar  
 37  17  20  ar  
 38  18  21  ar  
 39  18  43  1   
 40  19  22  ar  
 41  19  23  ar  
 42  20  24  ar  
 43  20  44  1   
 44  21  22  ar  
 45  21  45  1   
 46  23  25  ar  
 47  23  46  1   
 48  24  25  ar  
 49  24  47  1   
 50  25  48  1   
@<TRIPOS>SUBSTRUCTURE
  1 ****   6 GROUP 4 **** **** 0

# MOE 2024.06 (io_trps.svl 2023.06)
