@<TRIPOS>MOLECULE
NONAME
49 52 1 0 0 
SMALL
USER_CHARGES


@<TRIPOS>ATOM
  1 O       -0.8450     0.9040     2.7040 O.2   1 <1>  -0.5700 
  2 C       -1.8570     1.4770     2.3730 C.2   1 <1>   0.5690 
  3 N       -3.0370     0.7960     2.2070 N.am  1 <1>  -0.6600 
  4 C       -1.7900     2.9840     2.1780 C.3   1 <1>   0.0810 
  5 C       -4.2940     1.3310     1.6370 C.3   1 <1>   0.1400 
  6 C       -3.1770    -0.6510     2.4580 C.3   1 <1>   0.1400 
  7 C       -1.8740     3.3950     0.7200 C.2   1 <1>  -0.0400 
  8 C       -5.0000     0.1250     1.0070 C.3   1 <1>  -0.0800 
  9 C       -4.2170    -1.1390     1.4460 C.3   1 <1>  -0.0800 
 10 O       -2.1420     4.6360     0.4120 O.3   1 <1>  -0.0190 
 11 C       -1.7500     2.7060    -0.4240 C.2   1 <1>  -0.1500 
 12 C       -5.2380     0.2670    -0.5160 C.3   1 <1>   0.4240 
 13 C       -3.5490    -1.9060     0.2880 C.3   1 <1>  -0.1600 
 14 N       -2.2230     4.8100    -0.8760 N.2   1 <1>  -0.4100 
 15 C       -1.9940     3.6610    -1.4050 C.2   1 <1>   0.1080 
 16 O       -4.0540     0.6230    -1.1360 O.3   1 <1>  -0.6800 
 17 C       -6.2970     1.3540    -0.7960 C.ar  1 <1>  -0.1440 
 18 C       -5.5980    -1.1130    -1.0930 C.3   1 <1>  -0.1600 
 19 C       -4.5090    -2.1910    -0.8840 C.3   1 <1>  -0.1600 
 20 C       -2.0100     3.3810    -2.8900 C.3   1 <1>  -0.0590 
 21 C       -5.9330     2.6430    -1.1800 C.ar  1 <1>  -0.1500 
 22 C       -7.6540     1.0830    -0.6430 C.ar  1 <1>  -0.1500 
 23 C       -6.8860     3.6190    -1.4130 C.ar  1 <1>  -0.1500 
 24 C       -8.6110     2.0560    -0.8770 C.ar  1 <1>  -0.1500 
 25 C       -8.2280     3.3260    -1.2630 C.ar  1 <1>  -0.1500 
 26 H       -2.6010     3.4330     2.7190 H     1 <1>   0.0800 
 27 H       -0.8720     3.3550     2.5930 H     1 <1>   0.0800 
 28 H       -4.8970     1.7400     2.4290 H     1 <1>   0.0800 
 29 H       -4.1050     2.1030     0.9140 H     1 <1>   0.0800 
 30 H       -2.2320    -1.1590     2.3480 H     1 <1>   0.0800 
 31 H       -3.5370    -0.7940     3.4620 H     1 <1>   0.0800 
 32 H       -5.9720     0.0660     1.4630 H     1 <1>   0.0800 
 33 H       -4.8890    -1.8200     1.9410 H     1 <1>   0.0800 
 34 H       -1.5330     1.6670    -0.5820 H     1 <1>   0.1500 
 35 H       -2.7060    -1.3400    -0.0690 H     1 <1>   0.0800 
 36 H       -3.1540    -2.8390     0.6550 H     1 <1>   0.0800 
 37 H       -3.4100    -0.0790    -0.9370 H     1 <1>   0.4000 
 38 H       -6.4900    -1.4630    -0.6080 H     1 <1>   0.0800 
 39 H       -5.8280    -1.0150    -2.1400 H     1 <1>   0.0800 
 40 H       -4.9960    -3.1380    -0.7210 H     1 <1>   0.0800 
 41 H       -3.9280    -2.2890    -1.7860 H     1 <1>   0.0800 
 42 H       -2.7250     2.6080    -3.1040 H     1 <1>   0.0800 
 43 H       -1.0360     3.0640    -3.2120 H     1 <1>   0.0800 
 44 H       -2.2860     4.2700    -3.4290 H     1 <1>   0.0800 
 45 H       -4.8970     2.9090    -1.3030 H     1 <1>   0.1500 
 46 H       -7.9920     0.1110    -0.3350 H     1 <1>   0.1500 
 47 H       -6.5770     4.6060    -1.7100 H     1 <1>   0.1500 
 48 H       -9.6550     1.8250    -0.7570 H     1 <1>   0.1500 
 49 H       -8.9700     4.0840    -1.4460 H     1 <1>   0.1500 
@<TRIPOS>BOND
  1   1   2  2   
  2   2   3  am  
  3   2   4  1   
  4   3   5  1   
  5   3   6  1   
  6   4   7  1   
  7   4  26  1   
  8   4  27  1   
  9   5   8  1   
 10   5  28  1   
 11   5  29  1   
 12   6   9  1   
 13   6  30  1   
 14   6  31  1   
 15   7  10  1   
 16   7  11  2   
 17   8   9  1   
 18   8  12  1   
 19   8  32  1   
 20   9  13  1   
 21   9  33  1   
 22  10  14  1   
 23  11  15  1   
 24  11  34  1   
 25  12  16  1   
 26  12  17  1   
 27  12  18  1   
 28  13  19  1   
 29  13  35  1   
 30  13  36  1   
 31  14  15  2   
 32  15  20  1   
 33  16  37  1   
 34  17  21  ar  
 35  17  22  ar  
 36  18  19  1   
 37  18  38  1   
 38  18  39  1   
 39  19  40  1   
 40  19  41  1   
 41  20  42  1   
 42  20  43  1   
 43  20  44  1   
 44  21  23  ar  
 45  21  45  1   
 46  22  24  ar  
 47  22  46  1   
 48  23  25  ar  
 49  23  47  1   
 50  24  25  ar  
 51  24  48  1   
 52  25  49  1   
@<TRIPOS>SUBSTRUCTURE
  1 ****  16 GROUP 4 **** **** 0

# MOE 2024.06 (io_trps.svl 2023.06)
