@<TRIPOS>MOLECULE
NONAME
49 53 1 0 0 
SMALL
USER_CHARGES


@<TRIPOS>ATOM
  1 O       -0.6880     0.9820    -1.3230 O.2   1 <1>  -0.5700 
  2 C       -1.8130     1.2830    -0.9860 C.2   1 <1>   0.5690 
  3 N       -2.9000     0.5930    -1.4820 N.am  1 <1>  -0.6600 
  4 C       -1.9940     2.4740    -0.0130 C.3   1 <1>   0.2610 
  5 C       -2.7360    -0.6230    -2.3250 C.3   1 <1>   0.1400 
  6 C       -4.3170     0.8450    -1.1040 C.3   1 <1>   0.1400 
  7 O       -2.6780     2.1240     1.1700 O.3   1 <1>  -0.5600 
  8 C       -0.7090     3.1440     0.4730 C.3   1 <1>  -0.1600 
  9 C       -3.2130    -1.8370    -1.5270 C.3   1 <1>  -0.1600 
 10 C       -4.8130    -0.3370    -0.2720 C.3   1 <1>  -0.1600 
 11 C       -2.2420     2.8700     2.2650 C.3   1 <1>   0.1200 
 12 C       -1.1540     3.8080     1.7580 C.3   1 <1>  -0.1600 
 13 C       -4.6530    -1.6610    -1.0330 C.3   1 <1>   0.4600 
 14 O       -5.4640    -1.6300    -2.1890 O.3   1 <1>  -0.5600 
 15 C       -5.0590    -2.8460    -0.1650 C.2   1 <1>  -0.3320 
 16 C       -6.8300    -1.9390    -2.0510 C.3   1 <1>   0.1200 
 17 N       -4.4210    -3.2790     0.9650 N.pl3 1 <1>   0.0330 
 18 C       -6.1230    -3.6380    -0.4060 C.2   1 <1>  -0.1810 
 19 C       -7.0280    -3.3920    -1.5870 C.3   1 <1>   0.0210 
 20 C       -5.0990    -4.3760     1.4400 C.ar  1 <1>  -0.1520 
 21 C       -6.1760    -4.6300     0.5950 C.ar  1 <1>   0.0000 
 22 C       -4.8580    -5.1840     2.5550 C.ar  1 <1>  -0.1500 
 23 C       -7.0270    -5.7070     0.8620 C.ar  1 <1>  -0.1500 
 24 C       -5.7030    -6.2400     2.8070 C.ar  1 <1>  -0.1500 
 25 C       -6.7880    -6.5020     1.9600 C.ar  1 <1>  -0.1500 
 26 H       -2.5970     3.2150    -0.5060 H     1 <1>   0.0800 
 27 H       -3.3230    -0.5150    -3.2220 H     1 <1>   0.0800 
 28 H       -1.7080    -0.7560    -2.6130 H     1 <1>   0.0800 
 29 H       -4.4230     1.7570    -0.5450 H     1 <1>   0.0800 
 30 H       -4.9090     0.9370    -1.9990 H     1 <1>   0.0800 
 31 H        0.0350     2.3950     0.6830 H     1 <1>   0.0800 
 32 H       -0.3190     3.8380    -0.2500 H     1 <1>   0.0800 
 33 H       -2.5530    -1.9680    -0.6900 H     1 <1>   0.0800 
 34 H       -3.1530    -2.7220    -2.1320 H     1 <1>   0.0800 
 35 H       -5.8380    -0.1910     0.0080 H     1 <1>   0.0800 
 36 H       -4.2390    -0.3740     0.6350 H     1 <1>   0.0800 
 37 H       -3.0790     3.4050     2.6810 H     1 <1>   0.0800 
 38 H       -1.8490     2.1800     2.9920 H     1 <1>   0.0800 
 39 H       -1.5820     4.7750     1.5550 H     1 <1>   0.0800 
 40 H       -0.3520     3.9170     2.4670 H     1 <1>   0.0800 
 41 H       -7.2650    -1.2590    -1.3400 H     1 <1>   0.0800 
 42 H       -7.2990    -1.7880    -3.0060 H     1 <1>   0.0800 
 43 H       -3.5820    -2.8710     1.3880 H     1 <1>   0.2700 
 44 H       -8.0530    -3.5480    -1.3060 H     1 <1>   0.0800 
 45 H       -6.7800    -4.0700    -2.3830 H     1 <1>   0.0800 
 46 H       -4.0220    -4.9760     3.1990 H     1 <1>   0.1500 
 47 H       -7.8540    -5.8960     0.2040 H     1 <1>   0.1500 
 48 H       -5.5390    -6.8760     3.6580 H     1 <1>   0.1500 
 49 H       -7.4340    -7.3340     2.1790 H     1 <1>   0.1500 
@<TRIPOS>BOND
  1   1   2  2   
  2   2   3  am  
  3   2   4  1   
  4   3   5  1   
  5   3   6  1   
  6   4   7  1   
  7   4   8  1   
  8   4  26  1   
  9   5   9  1   
 10   5  27  1   
 11   5  28  1   
 12   6  10  1   
 13   6  29  1   
 14   6  30  1   
 15   7  11  1   
 16   8  12  1   
 17   8  31  1   
 18   8  32  1   
 19   9  13  1   
 20   9  33  1   
 21   9  34  1   
 22  10  13  1   
 23  10  35  1   
 24  10  36  1   
 25  11  12  1   
 26  11  37  1   
 27  11  38  1   
 28  12  39  1   
 29  12  40  1   
 30  13  14  1   
 31  13  15  1   
 32  14  16  1   
 33  15  17  1   
 34  15  18  2   
 35  16  19  1   
 36  16  41  1   
 37  16  42  1   
 38  17  20  1   
 39  17  43  1   
 40  18  19  1   
 41  18  21  1   
 42  19  44  1   
 43  19  45  1   
 44  20  21  ar  
 45  20  22  ar  
 46  21  23  ar  
 47  22  24  ar  
 48  22  46  1   
 49  23  25  ar  
 50  23  47  1   
 51  24  25  ar  
 52  24  48  1   
 53  25  49  1   
@<TRIPOS>SUBSTRUCTURE
  1 ****  13 GROUP 4 **** **** 0

# MOE 2024.06 (io_trps.svl 2023.06)
