@<TRIPOS>MOLECULE
NONAME
68 70 1 0 0 
SMALL
USER_CHARGES


@<TRIPOS>ATOM
  1 O        0.0670    -2.5570    -2.2540 O.2   1 <1>  -0.5700 
  2 C        0.2510    -2.3060    -1.0860 C.2   1 <1>   0.5690 
  3 N       -0.7830    -2.1360    -0.2240 N.am  1 <1>  -0.7300 
  4 C        1.6890    -2.0580    -0.5940 C.3   1 <1>   0.1710 
  5 C       -2.0990    -1.6500    -0.6510 C.3   1 <1>   0.3640 
  6 N        2.0300    -0.6200    -0.3290 N.3   1 <1>  -0.8100 
  7 C       -2.1260    -0.1260    -0.4380 C.ar  1 <1>  -0.1430 
  8 C       -3.1740    -2.3890     0.1420 C.3   1 <1>  -0.2400 
  9 C        1.4520    -0.1490     0.9330 C.3   1 <1>   0.1100 
 10 C        1.6600     0.1950    -1.4970 C.3   1 <1>   0.1100 
 11 C       -2.1160     0.7660    -1.5110 C.ar  1 <1>  -0.1430 
 12 C       -2.1540     0.3910     0.8540 C.ar  1 <1>  -0.1500 
 13 C        1.8130     1.3110     1.1800 C.3   1 <1>  -0.1600 
 14 C        2.0280     1.6560    -1.2760 C.3   1 <1>  -0.1600 
 15 C       -2.1490     2.1320    -1.2720 C.ar  1 <1>  -0.1500 
 16 C       -2.0880     0.2920    -2.9600 C.3   1 <1>  -0.0970 
 17 C       -2.1810     1.7550     1.0910 C.ar  1 <1>  -0.1430 
 18 C        1.3460     2.1650    -0.0030 C.3   1 <1>   0.4230 
 19 C       -2.1850     2.6270     0.0180 C.ar  1 <1>  -0.1500 
 20 C       -2.2410     2.2680     2.5190 C.3   1 <1>  -0.0970 
 21 N        1.6550     3.6070     0.2320 N.4   1 <1>  -0.9590 
 22 C        1.0210     4.1780     1.4690 C.3   1 <1>   0.3430 
 23 C        1.3500     4.5050    -0.9350 C.3   1 <1>   0.3430 
 24 C        1.5050     5.6220     1.7470 C.3   1 <1>   0.1100 
 25 C        1.7010     5.9850    -0.6420 C.3   1 <1>   0.1100 
 26 N        2.3720     6.1550     0.6660 N.3   1 <1>  -0.8100 
 27 C        2.7320     7.5720     0.8890 C.3   1 <1>   0.1100 
 28 C        3.7370     7.7320     2.0370 C.3   1 <1>   0.1200 
 29 O        4.0460     9.0740     2.1830 O.3   1 <1>  -0.6800 
 30 H       -0.5800    -1.9410     0.7520 H     1 <1>   0.3700 
 31 H        2.3580    -2.4280    -1.3510 H     1 <1>   0.0800 
 32 H        1.8640    -2.6420     0.2920 H     1 <1>   0.0800 
 33 H       -2.2450    -1.8920    -1.6890 H     1 <1>   0.0800 
 34 H       -3.0290    -2.2920     1.2010 H     1 <1>   0.0800 
 35 H       -3.1590    -3.4320    -0.1200 H     1 <1>   0.0800 
 36 H       -4.1400    -1.9920    -0.1120 H     1 <1>   0.0800 
 37 H        1.8260    -0.7530     1.7440 H     1 <1>   0.0800 
 38 H        0.3840    -0.2340     0.9080 H     1 <1>   0.0800 
 39 H        0.6000     0.1320    -1.6760 H     1 <1>   0.0800 
 40 H        2.1710    -0.1780    -2.3700 H     1 <1>   0.0800 
 41 H       -2.1640    -0.2750     1.6980 H     1 <1>   0.1500 
 42 H        2.8780     1.3890     1.3100 H     1 <1>   0.0800 
 43 H        1.3250     1.6020     2.0890 H     1 <1>   0.0800 
 44 H        1.6930     2.1930    -2.1420 H     1 <1>   0.0800 
 45 H        3.0980     1.7380    -1.1990 H     1 <1>   0.0800 
 46 H       -2.1660     2.8200    -2.0990 H     1 <1>   0.1500 
 47 H       -1.2480    -0.3580    -3.1310 H     1 <1>   0.0800 
 48 H       -2.0120     1.1190    -3.6420 H     1 <1>   0.0800 
 49 H       -2.9930    -0.2440    -3.1880 H     1 <1>   0.0800 
 50 H        0.2800     2.0410    -0.1160 H     1 <1>   0.0800 
 51 H       -2.2380     3.6890     0.1770 H     1 <1>   0.1500 
 52 H       -3.1250     1.8880     3.0010 H     1 <1>   0.0800 
 53 H       -2.2820     3.3420     2.5450 H     1 <1>   0.0800 
 54 H       -1.3800     1.9370     3.0710 H     1 <1>   0.0800 
 55 H        2.6680     3.7130     0.3820 H     1 <1>   0.4500 
 56 H        1.2630     3.5760     2.3270 H     1 <1>   0.0800 
 57 H       -0.0500     4.1760     1.3610 H     1 <1>   0.0800 
 58 H        0.3070     4.4320    -1.1940 H     1 <1>   0.0800 
 59 H        1.9210     4.1940    -1.7930 H     1 <1>   0.0800 
 60 H        2.0500     5.6210     2.6750 H     1 <1>   0.0800 
 61 H        0.6470     6.2590     1.8800 H     1 <1>   0.0800 
 62 H        0.7990     6.5740    -0.6700 H     1 <1>   0.0800 
 63 H        2.3450     6.3460    -1.4270 H     1 <1>   0.0800 
 64 H        1.8470     8.1490     1.1020 H     1 <1>   0.0800 
 65 H        3.1880     7.9630    -0.0050 H     1 <1>   0.0800 
 66 H        4.6470     7.1930     1.8340 H     1 <1>   0.0800 
 67 H        3.3160     7.4000     2.9680 H     1 <1>   0.0800 
 68 H        4.6170     9.3870     1.4550 H     1 <1>   0.4000 
@<TRIPOS>BOND
  1   1   2  2   
  2   2   3  am  
  3   2   4  1   
  4   3   5  1   
  5   3  30  1   
  6   4   6  1   
  7   4  31  1   
  8   4  32  1   
  9   5   7  1   
 10   5   8  1   
 11   5  33  1   
 12   6   9  1   
 13   6  10  1   
 14   7  11  ar  
 15   7  12  ar  
 16   8  34  1   
 17   8  35  1   
 18   8  36  1   
 19   9  13  1   
 20   9  37  1   
 21   9  38  1   
 22  10  14  1   
 23  10  39  1   
 24  10  40  1   
 25  11  15  ar  
 26  11  16  1   
 27  12  17  ar  
 28  12  41  1   
 29  13  18  1   
 30  13  42  1   
 31  13  43  1   
 32  14  18  1   
 33  14  44  1   
 34  14  45  1   
 35  15  19  ar  
 36  15  46  1   
 37  16  47  1   
 38  16  48  1   
 39  16  49  1   
 40  17  19  ar  
 41  17  20  1   
 42  18  21  1   
 43  18  50  1   
 44  19  51  1   
 45  20  52  1   
 46  20  53  1   
 47  20  54  1   
 48  21  22  1   
 49  21  23  1   
 50  21  55  1   
 51  22  24  1   
 52  22  56  1   
 53  22  57  1   
 54  23  25  1   
 55  23  58  1   
 56  23  59  1   
 57  24  26  1   
 58  24  60  1   
 59  24  61  1   
 60  25  26  1   
 61  25  62  1   
 62  25  63  1   
 63  26  27  1   
 64  27  28  1   
 65  27  64  1   
 66  27  65  1   
 67  28  29  1   
 68  28  66  1   
 69  28  67  1   
 70  29  68  1   
@<TRIPOS>SUBSTRUCTURE
  1 ****  18 GROUP 4 **** **** 0

# MOE 2024.06 (io_trps.svl 2023.06)
