@<TRIPOS>MOLECULE
NONAME
43 45 1 0 0 
SMALL
USER_CHARGES


@<TRIPOS>ATOM
  1 S       -0.7550     0.0430    -1.0040 S.3   1 <1>  -0.0800 
  2 C       -0.4560    -1.6840    -1.0960 C.2   1 <1>  -0.1100 
  3 C       -1.6280    -0.1490     0.5050 C.2   1 <1>  -0.1100 
  4 C       -0.9980    -2.3230    -0.0430 C.2   1 <1>  -0.1810 
  5 C       -1.6650    -1.4430     0.8720 C.2   1 <1>  -0.1500 
  6 C       -0.9400    -3.8200     0.2040 C.3   1 <1>   0.0210 
  7 C       -2.3240    -4.4530     0.0010 C.3   1 <1>  -0.0990 
  8 C       -2.3200    -5.9650     0.1580 C.2   1 <1>   0.5690 
  9 O       -1.4060    -6.4930     0.7460 O.2   1 <1>  -0.5700 
 10 N       -3.3510    -6.6990    -0.3540 N.am  1 <1>  -0.6600 
 11 C       -4.6150    -6.1850    -0.9430 C.3   1 <1>   0.1400 
 12 C       -3.3990    -8.1810    -0.2640 C.3   1 <1>   0.1400 
 13 C       -5.6200    -7.3100    -0.7060 C.3   1 <1>   0.2000 
 14 C       -4.7670    -8.5750    -0.8330 C.3   1 <1>  -0.0800 
 15 O       -6.0900    -7.1940     0.5940 O.3   1 <1>  -0.6800 
 16 C       -5.3590    -9.8480    -0.2000 C.3   1 <1>   0.0210 
 17 C       -4.4180   -11.0240    -0.3730 C.2   1 <1>   0.1080 
 18 N       -4.0310   -11.4520    -1.5350 N.2   1 <1>  -0.7070 
 19 C       -3.8600   -11.7560     0.6700 C.2   1 <1>  -0.1500 
 20 N       -3.2080   -12.4810    -1.2610 N.pl3 1 <1>   0.3000 
 21 C       -3.0870   -12.6840     0.0680 C.2   1 <1>  -0.3320 
 22 C       -2.2270   -13.7680     0.6910 C.3   1 <1>  -0.0600 
 23 H        0.1020    -2.0410    -1.9430 H     1 <1>   0.1500 
 24 H       -2.0240     0.7390     0.9640 H     1 <1>   0.1500 
 25 H       -2.1370    -1.8210     1.7620 H     1 <1>   0.1500 
 26 H       -0.2410    -4.2710    -0.4790 H     1 <1>   0.0800 
 27 H       -0.5890    -4.0070     1.2050 H     1 <1>   0.0800 
 28 H       -2.6660    -4.2060    -0.9860 H     1 <1>   0.0800 
 29 H       -3.0130    -4.0420     0.7140 H     1 <1>   0.0800 
 30 H       -4.9370    -5.2650    -0.4860 H     1 <1>   0.0800 
 31 H       -4.4730    -6.0370    -1.9990 H     1 <1>   0.0800 
 32 H       -2.5980    -8.6250    -0.8310 H     1 <1>   0.0800 
 33 H       -3.3070    -8.4760     0.7680 H     1 <1>   0.0800 
 34 H       -6.4580    -7.2850    -1.3810 H     1 <1>   0.0800 
 35 H       -4.6260    -8.7670    -1.8830 H     1 <1>   0.0800 
 36 H       -5.3210    -7.1090     1.1940 H     1 <1>   0.4000 
 37 H       -6.2950   -10.0830    -0.6740 H     1 <1>   0.0800 
 38 H       -5.5460    -9.7000     0.8480 H     1 <1>   0.0800 
 39 H       -4.0260   -11.5940     1.7200 H     1 <1>   0.1500 
 40 H       -2.7450   -13.0230    -2.0000 H     1 <1>   0.2700 
 41 H       -2.2970   -13.7250     1.7630 H     1 <1>   0.0800 
 42 H       -1.1970   -13.6330     0.4100 H     1 <1>   0.0800 
 43 H       -2.5570   -14.7380     0.3650 H     1 <1>   0.0800 
@<TRIPOS>BOND
  1   1   2  1   
  2   1   3  1   
  3   2   4  2   
  4   2  23  1   
  5   3   5  2   
  6   3  24  1   
  7   4   5  1   
  8   4   6  1   
  9   5  25  1   
 10   6   7  1   
 11   6  26  1   
 12   6  27  1   
 13   7   8  1   
 14   7  28  1   
 15   7  29  1   
 16   8   9  2   
 17   8  10  am  
 18  10  11  1   
 19  10  12  1   
 20  11  13  1   
 21  11  30  1   
 22  11  31  1   
 23  12  14  1   
 24  12  32  1   
 25  12  33  1   
 26  13  14  1   
 27  13  15  1   
 28  13  34  1   
 29  14  16  1   
 30  14  35  1   
 31  15  36  1   
 32  16  17  1   
 33  16  37  1   
 34  16  38  1   
 35  17  18  2   
 36  17  19  1   
 37  18  20  1   
 38  19  21  2   
 39  19  39  1   
 40  20  21  1   
 41  20  40  1   
 42  21  22  1   
 43  22  41  1   
 44  22  42  1   
 45  22  43  1   
@<TRIPOS>SUBSTRUCTURE
  1 ****  10 GROUP 4 **** **** 0

# MOE 2024.06 (io_trps.svl 2023.06)
