@<TRIPOS>MOLECULE
NONAME
48 51 1 0 0 
SMALL
USER_CHARGES


@<TRIPOS>ATOM
  1 CL      -1.8980     3.0920    -1.7050 Cl    1 <1>  -0.1770 
  2 C       -2.0780     3.4790    -0.0110 C.ar  1 <1>   0.1770 
  3 C       -2.6770     2.5840     0.8600 C.ar  1 <1>   0.0860 
  4 C       -1.6240     4.7040     0.4410 C.ar  1 <1>   0.1600 
  5 C       -3.1680     1.2920     0.4460 C.2   1 <1>   0.5440 
  6 C       -2.7720     3.0240     2.1740 C.ar  1 <1>  -0.1500 
  7 N       -1.7230     5.1250     1.6940 N.ar  1 <1>  -0.6200 
  8 O       -2.3670     0.4090     0.2130 O.2   1 <1>  -0.5700 
  9 N       -4.5190     1.0330     0.3400 N.am  1 <1>  -0.6600 
 10 C       -2.2930     4.2710     2.5310 C.ar  1 <1>   0.1600 
 11 C       -5.5890     2.0680     0.5160 C.3   1 <1>   0.1400 
 12 C       -5.0400    -0.3290     0.0210 C.3   1 <1>   0.1400 
 13 C       -6.4890     2.1600    -0.7310 C.3   1 <1>   0.1430 
 14 C       -5.9420    -0.2770    -1.2180 C.3   1 <1>  -0.1600 
 15 C       -7.5670     3.1890    -0.4520 C.ar  1 <1>   0.1670 
 16 C       -7.0630     0.7670    -1.0650 C.3   1 <1>  -0.1600 
 17 C       -5.7410     2.7830    -1.9400 C.3   1 <1>  -0.1600 
 18 N       -8.5890     3.0170     0.3480 N.ar  1 <1>  -0.6200 
 19 C       -7.3350     4.3520    -1.1220 C.ar  1 <1>  -0.1430 
 20 C       -6.0780     4.2840    -1.9520 C.3   1 <1>  -0.0170 
 21 C       -9.4100     4.0640     0.4570 C.ar  1 <1>   0.7200 
 22 C       -8.2310     5.3760    -0.9480 C.ar  1 <1>   0.1600 
 23 N       -9.2720     5.2420    -0.1600 N.ar  1 <1>  -0.6200 
 24 N      -10.5020     3.9160     1.2890 N.pl3 1 <1>  -0.8380 
 25 C      -11.3220     5.0780     1.7300 C.3   1 <1>   0.1290 
 26 C      -10.9870     2.5790     1.7310 C.3   1 <1>   0.1290 
 27 H       -1.1590     5.3700    -0.2660 H     1 <1>   0.1500 
 28 H       -3.2180     2.3850     2.9150 H     1 <1>   0.1500 
 29 H       -2.3820     4.5860     3.5590 H     1 <1>   0.1500 
 30 H       -5.1670     3.0360     0.7160 H     1 <1>   0.0800 
 31 H       -6.1950     1.7950     1.3630 H     1 <1>   0.0800 
 32 H       -5.6020    -0.6910     0.8650 H     1 <1>   0.0800 
 33 H       -4.2300    -1.0180    -0.1550 H     1 <1>   0.0800 
 34 H       -6.3760    -1.2480    -1.3760 H     1 <1>   0.0800 
 35 H       -5.3360    -0.0500    -2.0770 H     1 <1>   0.0800 
 36 H       -7.6530     0.8140    -1.9630 H     1 <1>   0.0800 
 37 H       -7.7170     0.4590    -0.2670 H     1 <1>   0.0800 
 38 H       -6.1180     2.3540    -2.8520 H     1 <1>   0.0800 
 39 H       -4.6820     2.6080    -1.9050 H     1 <1>   0.0800 
 40 H       -6.2390     4.6450    -2.9530 H     1 <1>   0.0800 
 41 H       -5.2970     4.8540    -1.4770 H     1 <1>   0.0800 
 42 H       -8.0930     6.3140    -1.4570 H     1 <1>   0.1500 
 43 H      -10.7170     5.9670     1.7840 H     1 <1>   0.0800 
 44 H      -11.7360     4.8910     2.7040 H     1 <1>   0.0800 
 45 H      -12.1200     5.2410     1.0270 H     1 <1>   0.0800 
 46 H      -10.6930     1.8180     1.0290 H     1 <1>   0.0800 
 47 H      -12.0610     2.5790     1.7980 H     1 <1>   0.0800 
 48 H      -10.5700     2.3460     2.6950 H     1 <1>   0.0800 
@<TRIPOS>BOND
  1   1   2  1   
  2   2   3  ar  
  3   2   4  ar  
  4   3   5  1   
  5   3   6  ar  
  6   4   7  ar  
  7   4  27  1   
  8   5   8  2   
  9   5   9  am  
 10   6  10  ar  
 11   6  28  1   
 12   7  10  ar  
 13   9  11  1   
 14   9  12  1   
 15  10  29  1   
 16  11  13  1   
 17  11  30  1   
 18  11  31  1   
 19  12  14  1   
 20  12  32  1   
 21  12  33  1   
 22  13  15  1   
 23  13  16  1   
 24  13  17  1   
 25  14  16  1   
 26  14  34  1   
 27  14  35  1   
 28  15  18  ar  
 29  15  19  ar  
 30  16  36  1   
 31  16  37  1   
 32  17  20  1   
 33  17  38  1   
 34  17  39  1   
 35  18  21  ar  
 36  19  20  1   
 37  19  22  ar  
 38  20  40  1   
 39  20  41  1   
 40  21  23  ar  
 41  21  24  1   
 42  22  23  ar  
 43  22  42  1   
 44  24  25  1   
 45  24  26  1   
 46  25  43  1   
 47  25  44  1   
 48  25  45  1   
 49  26  46  1   
 50  26  47  1   
 51  26  48  1   
@<TRIPOS>SUBSTRUCTURE
  1 ****  11 GROUP 4 **** **** 0

# MOE 2024.06 (io_trps.svl 2023.06)
