@<TRIPOS>MOLECULE
NONAME
42 44 1 0 0 
SMALL
USER_CHARGES


@<TRIPOS>ATOM
  1 O        1.0210    -0.4490     2.0200 O.3   1 <1>  -0.0190 
  2 N        1.3610     0.7660     1.7120 N.2   1 <1>  -0.4100 
  3 C        1.3490    -1.1490     0.9620 C.2   1 <1>   0.2980 
  4 C        1.8590     0.7330     0.5390 C.2   1 <1>   0.3350 
  5 N        1.8620    -0.4840     0.0030 N.2   1 <1>  -0.5650 
  6 C        1.1040    -2.6530     0.9730 C.3   1 <1>   0.2900 
  7 C        2.3810     1.9520    -0.2160 C.3   1 <1>   0.3010 
  8 N       -0.3340    -3.0110     0.9660 N.3   1 <1>  -0.8100 
  9 O        3.7830     1.9660    -0.2530 O.3   1 <1>  -0.5600 
 10 C       -1.0380    -2.4990    -0.2180 C.3   1 <1>   0.1100 
 11 C       -0.5510    -4.4670     0.9730 C.3   1 <1>   0.1100 
 12 C        4.3260     3.0480    -0.9380 C.3   1 <1>   0.0400 
 13 C       -2.2940    -3.3570    -0.2980 C.3   1 <1>   0.2000 
 14 C       -1.7920    -4.7440     0.1020 C.3   1 <1>  -0.0800 
 15 O       -3.1590    -2.9210     0.6860 O.3   1 <1>  -0.6800 
 16 C       -1.4550    -5.5870    -1.1430 C.3   1 <1>  -0.0170 
 17 C       -0.9860    -6.9860    -0.7760 C.ar  1 <1>   0.1670 
 18 N        0.3230    -7.1850    -0.7500 N.ar  1 <1>  -0.6200 
 19 C       -1.9260    -7.9670    -0.4930 C.ar  1 <1>  -0.1500 
 20 C        0.7100    -8.4110    -0.4320 C.ar  1 <1>   0.1600 
 21 C       -1.5080    -9.2370    -0.1610 C.ar  1 <1>  -0.1500 
 22 C       -0.1480    -9.4550    -0.1330 C.ar  1 <1>  -0.1500 
 23 H        1.5630    -3.0640     1.8550 H     1 <1>   0.0800 
 24 H        1.5880    -3.0840     0.1140 H     1 <1>   0.0800 
 25 H        2.0450     2.8470     0.2760 H     1 <1>   0.0800 
 26 H        2.0110     1.9310    -1.2250 H     1 <1>   0.0800 
 27 H       -1.2720    -1.4520    -0.1210 H     1 <1>   0.0800 
 28 H       -0.4400    -2.6520    -1.1000 H     1 <1>   0.0800 
 29 H        0.3120    -4.9790     0.5810 H     1 <1>   0.0800 
 30 H       -0.7160    -4.8000     1.9830 H     1 <1>   0.0800 
 31 H        5.3970     2.9600    -0.9030 H     1 <1>   0.0800 
 32 H        4.0220     3.9620    -0.4590 H     1 <1>   0.0800 
 33 H        3.9950     3.0240    -1.9620 H     1 <1>   0.0800 
 34 H       -2.7960    -3.3150    -1.2490 H     1 <1>   0.0800 
 35 H       -2.5400    -5.2660     0.6720 H     1 <1>   0.0800 
 36 H       -2.6090    -2.7520     1.4800 H     1 <1>   0.4000 
 37 H       -0.6930    -5.1010    -1.7260 H     1 <1>   0.0800 
 38 H       -2.3300    -5.6710    -1.7620 H     1 <1>   0.0800 
 39 H       -2.9760    -7.7390    -0.5310 H     1 <1>   0.1500 
 40 H        1.7710    -8.5940    -0.4090 H     1 <1>   0.1500 
 41 H       -2.2100   -10.0210     0.0650 H     1 <1>   0.1500 
 42 H        0.2470   -10.4230     0.1170 H     1 <1>   0.1500 
@<TRIPOS>BOND
  1   1   2  1   
  2   1   3  1   
  3   2   4  2   
  4   3   5  2   
  5   3   6  1   
  6   4   5  1   
  7   4   7  1   
  8   6   8  1   
  9   6  23  1   
 10   6  24  1   
 11   7   9  1   
 12   7  25  1   
 13   7  26  1   
 14   8  10  1   
 15   8  11  1   
 16   9  12  1   
 17  10  13  1   
 18  10  27  1   
 19  10  28  1   
 20  11  14  1   
 21  11  29  1   
 22  11  30  1   
 23  12  31  1   
 24  12  32  1   
 25  12  33  1   
 26  13  14  1   
 27  13  15  1   
 28  13  34  1   
 29  14  16  1   
 30  14  35  1   
 31  15  36  1   
 32  16  17  1   
 33  16  37  1   
 34  16  38  1   
 35  17  18  ar  
 36  17  19  ar  
 37  18  20  ar  
 38  19  21  ar  
 39  19  39  1   
 40  20  22  ar  
 41  20  40  1   
 42  21  22  ar  
 43  21  41  1   
 44  22  42  1   
@<TRIPOS>SUBSTRUCTURE
  1 ****   8 GROUP 4 **** **** 0

# MOE 2024.06 (io_trps.svl 2023.06)
