@<TRIPOS>MOLECULE
NONAME
36 37 1 0 0 
SMALL
USER_CHARGES


@<TRIPOS>ATOM
  1 CL       0.2360     0.3780    -0.6070 Cl    1 <1>  -0.1770 
  2 C       -1.3160     1.0390    -0.1020 C.ar  1 <1>   0.1770 
  3 C       -1.3940     2.3430     0.4670 C.ar  1 <1>   0.4100 
  4 C       -2.4550     0.3160    -0.2870 C.ar  1 <1>   0.2170 
  5 N       -2.5670     2.8810     0.7670 N.ar  1 <1>  -0.6200 
  6 N       -0.2940     3.1010     0.7480 N.pl3 1 <1>  -0.8380 
  7 N       -3.6220     0.9080     0.0780 N.ar  1 <1>  -0.1790 
  8 C       -2.5340    -1.0890    -0.8760 C.3   1 <1>  -0.0970 
  9 C       -3.6480     2.1550     0.5790 C.ar  1 <1>   0.7710 
 10 C       -0.2730     4.5900     0.5720 C.3   1 <1>   0.2090 
 11 C        0.8940     2.5540     1.4740 C.3   1 <1>   0.1290 
 12 N       -4.8050     2.7170     0.9160 N.pl3 1 <1>  -0.9000 
 13 C        0.6780     4.9820    -0.5590 C.3   1 <1>   0.0200 
 14 C        0.8130     6.4810    -0.8130 C.2   1 <1>  -0.1400 
 15 S        1.9240     6.8550    -2.1050 S.3   1 <1>  -0.0800 
 16 C        0.3280     7.6450    -0.3290 C.2   1 <1>   0.0460 
 17 C        1.6210     8.5530    -1.8590 C.2   1 <1>   0.2280 
 18 N        0.7940     8.8040    -0.9280 N.2   1 <1>  -0.5650 
 19 C       -0.6660     7.9070     0.7870 C.3   1 <1>  -0.0590 
 20 H       -4.5150     0.4350    -0.0240 H     1 <1>   0.4570 
 21 H       -1.5610    -1.4770    -1.1150 H     1 <1>   0.0800 
 22 H       -3.1150    -1.0830    -1.7820 H     1 <1>   0.0800 
 23 H       -2.9910    -1.7640    -0.1740 H     1 <1>   0.0800 
 24 H        0.0420     5.0520     1.4910 H     1 <1>   0.0800 
 25 H       -1.2570     4.9520     0.3310 H     1 <1>   0.0800 
 26 H        0.6800     1.5760     1.8700 H     1 <1>   0.0800 
 27 H        1.1550     3.1970     2.2970 H     1 <1>   0.0800 
 28 H        1.7350     2.4820     0.8050 H     1 <1>   0.0800 
 29 H       -5.7510     2.3370     0.8590 H     1 <1>   0.4000 
 30 H       -4.7700     3.6680     1.3000 H     1 <1>   0.4000 
 31 H        0.3360     4.5160    -1.4660 H     1 <1>   0.0800 
 32 H        1.6580     4.5990    -0.3380 H     1 <1>   0.0800 
 33 H        2.1420     9.2440    -2.4960 H     1 <1>   0.1500 
 34 H       -1.0460     7.0110     1.2270 H     1 <1>   0.0800 
 35 H       -1.4930     8.4720     0.3980 H     1 <1>   0.0800 
 36 H       -0.1890     8.4900     1.5540 H     1 <1>   0.0800 
@<TRIPOS>BOND
  1   1   2  1   
  2   2   3  ar  
  3   2   4  ar  
  4   3   5  ar  
  5   3   6  1   
  6   4   7  ar  
  7   4   8  1   
  8   5   9  ar  
  9   6  10  1   
 10   6  11  1   
 11   7   9  ar  
 12   7  20  1   
 13   8  21  1   
 14   8  22  1   
 15   8  23  1   
 16   9  12  1   
 17  10  13  1   
 18  10  24  1   
 19  10  25  1   
 20  11  26  1   
 21  11  27  1   
 22  11  28  1   
 23  12  29  1   
 24  12  30  1   
 25  13  14  1   
 26  13  31  1   
 27  13  32  1   
 28  14  15  1   
 29  14  16  2   
 30  15  17  1   
 31  16  18  1   
 32  16  19  1   
 33  17  18  2   
 34  17  33  1   
 35  19  34  1   
 36  19  35  1   
 37  19  36  1   
@<TRIPOS>SUBSTRUCTURE
  1 ****  10 GROUP 4 **** **** 0

# MOE 2024.06 (io_trps.svl 2023.06)
