@<TRIPOS>MOLECULE
NONAME
59 62 1 0 0 
SMALL
USER_CHARGES


@<TRIPOS>ATOM
  1 O       -0.0370     0.0510     0.8060 O.3   1 <1>  -0.5600 
  2 C        0.7400     0.8670    -0.0050 C.3   1 <1>   0.1200 
  3 C       -1.3710     0.1520     0.4000 C.3   1 <1>   0.1200 
  4 C       -0.1060     2.1310    -0.1130 C.3   1 <1>   0.4230 
  5 C       -1.4730     1.4890    -0.3540 C.3   1 <1>  -0.0800 
  6 N       -0.0810     2.8200     1.2120 N.4   1 <1>  -0.9060 
  7 C       -2.7210     2.3220    -0.0010 C.3   1 <1>  -0.0170 
  8 C        0.8160     3.9970     1.3560 C.3   1 <1>   0.4230 
  9 C       -3.9830     1.5850    -0.4160 C.ar  1 <1>  -0.1430 
 10 C        0.3020     5.1470     0.4790 C.3   1 <1>  -0.1600 
 11 C        2.2790     3.6310     1.0690 C.3   1 <1>  -0.1600 
 12 C       -4.7460     0.8680     0.4860 C.ar  1 <1>  -0.1500 
 13 C       -4.4330     1.5940    -1.7220 C.ar  1 <1>  -0.1500 
 14 C        1.2150     6.3610     0.6120 C.3   1 <1>   0.2090 
 15 C        3.1650     4.8660     1.2020 C.3   1 <1>   0.2090 
 16 C       -5.8820     0.2070     0.0480 C.ar  1 <1>   0.1600 
 17 C       -5.5840     0.9000    -2.0550 C.ar  1 <1>   0.1600 
 18 N        2.5860     5.9020     0.3290 N.pl3 1 <1>  -0.8380 
 19 N       -6.3150     0.2040    -1.2010 N.ar  1 <1>  -0.6200 
 20 C        3.4340     6.6930    -0.4450 C.ar  1 <1>   0.1000 
 21 C        3.9700     7.9120    -0.0070 C.ar  1 <1>  -0.1430 
 22 C        3.7440     6.2330    -1.7170 C.ar  1 <1>  -0.1500 
 23 C        4.7800     8.6540    -0.8650 C.ar  1 <1>  -0.1430 
 24 C        3.6710     8.4340     1.3990 C.3   1 <1>  -0.0970 
 25 C        4.5580     6.9620    -2.5590 C.ar  1 <1>  -0.1500 
 26 C        5.0710     8.1710    -2.1320 C.ar  1 <1>  -0.1500 
 27 C        5.3720    10.0000    -0.4650 C.3   1 <1>  -0.0970 
 28 H        1.7040     1.0150     0.4480 H     1 <1>   0.0800 
 29 H        0.8590     0.3850    -0.9610 H     1 <1>   0.0800 
 30 H       -1.6060    -0.6840    -0.2400 H     1 <1>   0.0800 
 31 H       -1.9920     0.1170     1.2790 H     1 <1>   0.0800 
 32 H        0.2010     2.7800    -0.9170 H     1 <1>   0.0800 
 33 H       -1.5320     1.2500    -1.4030 H     1 <1>   0.0800 
 34 H       -1.0310     3.1040     1.4570 H     1 <1>   0.4500 
 35 H        0.1770     2.0860     1.8890 H     1 <1>   0.4500 
 36 H       -2.6900     3.2670    -0.5170 H     1 <1>   0.0800 
 37 H       -2.7730     2.5200     1.0550 H     1 <1>   0.0800 
 38 H        0.7700     4.3350     2.3790 H     1 <1>   0.0800 
 39 H        0.2890     4.8690    -0.5590 H     1 <1>   0.0800 
 40 H       -0.6910     5.4330     0.7750 H     1 <1>   0.0800 
 41 H        2.6250     2.8860     1.7620 H     1 <1>   0.0800 
 42 H        2.4000     3.2650     0.0660 H     1 <1>   0.0800 
 43 H       -4.4790     0.8100     1.5250 H     1 <1>   0.1500 
 44 H       -3.9070     2.1320    -2.4890 H     1 <1>   0.1500 
 45 H        1.1690     6.7750     1.6050 H     1 <1>   0.0800 
 46 H        0.9350     7.1280    -0.0930 H     1 <1>   0.0800 
 47 H        4.1740     4.6470     0.8900 H     1 <1>   0.0800 
 48 H        3.1900     5.2200     2.2190 H     1 <1>   0.0800 
 49 H       -6.4670    -0.3480     0.7620 H     1 <1>   0.1500 
 50 H       -5.9220     0.9160    -3.0780 H     1 <1>   0.1500 
 51 H        3.3380     5.2970    -2.0450 H     1 <1>   0.1500 
 52 H        4.5240     8.9380     1.8130 H     1 <1>   0.0800 
 53 H        3.4260     7.6350     2.0700 H     1 <1>   0.0800 
 54 H        2.8450     9.1210     1.3600 H     1 <1>   0.0800 
 55 H        4.7910     6.5950    -3.5420 H     1 <1>   0.1500 
 56 H        5.7010     8.7340    -2.7980 H     1 <1>   0.1500 
 57 H        5.8040    10.4990    -1.3130 H     1 <1>   0.0800 
 58 H        6.1420     9.8570     0.2720 H     1 <1>   0.0800 
 59 H        4.6070    10.6370    -0.0600 H     1 <1>   0.0800 
@<TRIPOS>BOND
  1   1   2  1   
  2   1   3  1   
  3   2   4  1   
  4   2  28  1   
  5   2  29  1   
  6   3   5  1   
  7   3  30  1   
  8   3  31  1   
  9   4   5  1   
 10   4   6  1   
 11   4  32  1   
 12   5   7  1   
 13   5  33  1   
 14   6   8  1   
 15   6  34  1   
 16   6  35  1   
 17   7   9  1   
 18   7  36  1   
 19   7  37  1   
 20   8  10  1   
 21   8  11  1   
 22   8  38  1   
 23   9  12  ar  
 24   9  13  ar  
 25  10  14  1   
 26  10  39  1   
 27  10  40  1   
 28  11  15  1   
 29  11  41  1   
 30  11  42  1   
 31  12  16  ar  
 32  12  43  1   
 33  13  17  ar  
 34  13  44  1   
 35  14  18  1   
 36  14  45  1   
 37  14  46  1   
 38  15  18  1   
 39  15  47  1   
 40  15  48  1   
 41  16  19  ar  
 42  16  49  1   
 43  17  19  ar  
 44  17  50  1   
 45  18  20  1   
 46  20  21  ar  
 47  20  22  ar  
 48  21  23  ar  
 49  21  24  1   
 50  22  25  ar  
 51  22  51  1   
 52  23  26  ar  
 53  23  27  1   
 54  24  52  1   
 55  24  53  1   
 56  24  54  1   
 57  25  26  ar  
 58  25  55  1   
 59  26  56  1   
 60  27  57  1   
 61  27  58  1   
 62  27  59  1   
@<TRIPOS>SUBSTRUCTURE
  1 ****  10 GROUP 4 **** **** 0

# MOE 2024.06 (io_trps.svl 2023.06)
