@<TRIPOS>MOLECULE
NONAME
50 53 1 0 0 
SMALL
USER_CHARGES


@<TRIPOS>ATOM
  1 O        0.0220    -0.1550    -1.4800 O.2   1 <1>  -0.5700 
  2 C        0.9340    -0.7990    -1.0110 C.2   1 <1>   0.5690 
  3 N        2.0270    -0.2350    -0.4160 N.am  1 <1>  -0.4930 
  4 C        0.8000    -2.3290    -1.0920 C.3   1 <1>   0.4040 
  5 C        2.2890     1.1410    -0.1960 C.2   1 <1>   0.0630 
  6 N       -0.6370    -2.7870    -1.2300 N.4   1 <1>  -0.9590 
  7 C        3.3660     1.6550     0.4400 C.2   1 <1>  -0.3320 
  8 C        1.5310     2.2550    -0.5630 C.2   1 <1>   0.1390 
  9 C       -1.4220    -2.5150     0.0140 C.3   1 <1>   0.3430 
 10 C       -0.7500    -4.1950    -1.7130 C.3   1 <1>   0.3430 
 11 N        3.2130     3.0040     0.4300 N.pl3 1 <1>   0.3140 
 12 C        4.5610     0.9560     1.0750 C.3   1 <1>  -0.0600 
 13 N        2.0800     3.3690    -0.1880 N.2   1 <1>  -0.7070 
 14 C       -2.8910    -2.8460    -0.2150 C.3   1 <1>  -0.1600 
 15 C       -2.2120    -4.5440    -1.9610 C.3   1 <1>  -0.1600 
 16 C        4.1190     4.0110     0.9960 C.3   1 <1>   0.0160 
 17 C       -3.0780    -4.2750    -0.7280 C.3   1 <1>   0.2820 
 18 C       -2.8780    -5.3290     0.3730 C.ar  1 <1>  -0.1440 
 19 C       -4.5410    -4.5160    -1.0640 C.2   1 <1>  -0.2880 
 20 C       -4.0680    -6.0130     0.5710 C.ar  1 <1>   0.0280 
 21 C       -1.7610    -5.6550     1.1280 C.ar  1 <1>  -0.1500 
 22 C       -5.0580    -5.4950    -0.3180 C.2   1 <1>  -0.1780 
 23 C       -4.1560    -7.0230     1.5160 C.ar  1 <1>  -0.1500 
 24 C       -1.8480    -6.6660     2.0730 C.ar  1 <1>  -0.1500 
 25 C       -3.0400    -7.3470     2.2670 C.ar  1 <1>  -0.1500 
 26 H        2.7780    -0.8310    -0.0710 H     1 <1>   0.3700 
 27 H        1.2390    -2.7690    -0.2130 H     1 <1>   0.0800 
 28 H        1.3610    -2.6570    -1.9500 H     1 <1>   0.0800 
 29 H       -1.0400    -2.1560    -1.9470 H     1 <1>   0.4500 
 30 H        0.5970     2.2140    -1.0960 H     1 <1>   0.1500 
 31 H       -1.3370    -1.4730     0.2840 H     1 <1>   0.0800 
 32 H       -1.0430    -3.1050     0.8310 H     1 <1>   0.0800 
 33 H       -0.3390    -4.8710    -0.9810 H     1 <1>   0.0800 
 34 H       -0.1960    -4.3170    -2.6300 H     1 <1>   0.0800 
 35 H        4.4870    -0.1100     0.9740 H     1 <1>   0.0800 
 36 H        4.6150     1.1950     2.1230 H     1 <1>   0.0800 
 37 H        5.4720     1.2790     0.6010 H     1 <1>   0.0800 
 38 H       -3.3040    -2.1470    -0.9200 H     1 <1>   0.0800 
 39 H       -3.4310    -2.7270     0.7090 H     1 <1>   0.0800 
 40 H       -2.2900    -5.5840    -2.2280 H     1 <1>   0.0800 
 41 H       -2.5760    -3.9700    -2.7940 H     1 <1>   0.0800 
 42 H        5.0780     3.9330     0.5190 H     1 <1>   0.0800 
 43 H        4.2160     3.8460     2.0520 H     1 <1>   0.0800 
 44 H        3.7110     4.9900     0.8220 H     1 <1>   0.0800 
 45 H       -5.0240    -3.9260    -1.8240 H     1 <1>   0.1500 
 46 H       -0.8230    -5.1520     1.0080 H     1 <1>   0.1500 
 47 H       -6.0620    -5.8840    -0.3310 H     1 <1>   0.1500 
 48 H       -5.0850    -7.5460     1.6590 H     1 <1>   0.1500 
 49 H       -0.9880    -6.9290     2.6660 H     1 <1>   0.1500 
 50 H       -3.0980    -8.1300     3.0030 H     1 <1>   0.1500 
@<TRIPOS>BOND
  1   1   2  2   
  2   2   3  am  
  3   2   4  1   
  4   3   5  1   
  5   3  26  1   
  6   4   6  1   
  7   4  27  1   
  8   4  28  1   
  9   5   7  2   
 10   5   8  1   
 11   6   9  1   
 12   6  10  1   
 13   6  29  1   
 14   7  11  1   
 15   7  12  1   
 16   8  13  2   
 17   8  30  1   
 18   9  14  1   
 19   9  31  1   
 20   9  32  1   
 21  10  15  1   
 22  10  33  1   
 23  10  34  1   
 24  11  13  1   
 25  11  16  1   
 26  12  35  1   
 27  12  36  1   
 28  12  37  1   
 29  14  17  1   
 30  14  38  1   
 31  14  39  1   
 32  15  17  1   
 33  15  40  1   
 34  15  41  1   
 35  16  42  1   
 36  16  43  1   
 37  16  44  1   
 38  17  18  1   
 39  17  19  1   
 40  18  20  ar  
 41  18  21  ar  
 42  19  22  2   
 43  19  45  1   
 44  20  22  1   
 45  20  23  ar  
 46  21  24  ar  
 47  21  46  1   
 48  22  47  1   
 49  23  25  ar  
 50  23  48  1   
 51  24  25  ar  
 52  24  49  1   
 53  25  50  1   
@<TRIPOS>SUBSTRUCTURE
  1 ****   9 GROUP 4 **** **** 0

# MOE 2024.06 (io_trps.svl 2023.06)
