@<TRIPOS>MOLECULE
NONAME
46 50 1 0 0 
SMALL
USER_CHARGES


@<TRIPOS>ATOM
  1 S       -0.0250     0.3060    -1.8960 S.3   1 <1>  -0.0800 
  2 C       -0.0590     1.7070    -0.8460 C.2   1 <1>  -0.1400 
  3 C        1.6280     0.6750    -2.3650 C.2   1 <1>  -0.1100 
  4 C        1.1040     2.3700    -0.8590 C.2   1 <1>  -0.1810 
  5 C       -1.2710     2.0920    -0.0420 C.3   1 <1>   0.0200 
  6 C        2.0740     1.7810    -1.7390 C.2   1 <1>  -0.1500 
  7 C        1.3110     3.6210    -0.0010 C.3   1 <1>   0.4610 
  8 C       -1.0890     3.5600     0.3770 C.3   1 <1>   0.1200 
  9 O        0.2080     3.7910     0.8740 O.3   1 <1>  -0.5600 
 10 C        2.5420     3.4520     0.8930 C.3   1 <1>  -0.1600 
 11 C        1.4570     4.8700    -0.8800 C.3   1 <1>  -0.1600 
 12 C        2.8330     4.7140     1.7050 C.3   1 <1>   0.2090 
 13 C        1.7230     6.1170    -0.0410 C.3   1 <1>   0.2090 
 14 N        2.9230     5.8920     0.8010 N.pl3 1 <1>  -0.8380 
 15 C        4.1570     6.3530     0.3640 C.ar  1 <1>   0.4100 
 16 N        5.0320     5.4500    -0.0340 N.ar  1 <1>  -0.3100 
 17 C        4.4290     7.7450     0.3330 C.ar  1 <1>   0.0000 
 18 N        6.2040     5.8240    -0.5320 N.ar  1 <1>  -0.3100 
 19 C        5.6590     8.1350    -0.2150 C.ar  1 <1>   0.0000 
 20 C        3.5610     8.7460     0.8230 C.ar  1 <1>  -0.1500 
 21 C        6.5060     7.0890    -0.6290 C.ar  1 <1>   0.1670 
 22 C        5.9580     9.5160    -0.2990 C.ar  1 <1>  -0.1500 
 23 C        3.8760    10.0740     0.7390 C.ar  1 <1>  -0.1500 
 24 C        7.8680     7.4050    -1.2250 C.3   1 <1>  -0.0970 
 25 C        5.0880    10.4630     0.1640 C.ar  1 <1>  -0.1500 
 26 H        2.0990     0.0140    -3.0710 H     1 <1>   0.1500 
 27 H       -1.3520     1.4630     0.8260 H     1 <1>   0.0800 
 28 H       -2.1630     1.9880    -0.6330 H     1 <1>   0.0800 
 29 H        3.0530     2.2130    -1.8590 H     1 <1>   0.1500 
 30 H       -1.7890     3.8140     1.1530 H     1 <1>   0.0800 
 31 H       -1.2530     4.2120    -0.4630 H     1 <1>   0.0800 
 32 H        3.4020     3.2340     0.2900 H     1 <1>   0.0800 
 33 H        2.3900     2.6180     1.5530 H     1 <1>   0.0800 
 34 H        0.5800     5.0060    -1.4830 H     1 <1>   0.0800 
 35 H        2.2850     4.7320    -1.5510 H     1 <1>   0.0800 
 36 H        3.7580     4.5960     2.2440 H     1 <1>   0.0800 
 37 H        2.0460     4.8800     2.4210 H     1 <1>   0.0800 
 38 H        0.8780     6.3270     0.5930 H     1 <1>   0.0800 
 39 H        1.8810     6.9620    -0.6900 H     1 <1>   0.0800 
 40 H        2.6350     8.4420     1.2780 H     1 <1>   0.1500 
 41 H        6.8890     9.8280    -0.7340 H     1 <1>   0.1500 
 42 H        3.2040    10.8280     1.1120 H     1 <1>   0.1500 
 43 H        8.3890     6.4990    -1.4790 H     1 <1>   0.0800 
 44 H        8.4620     7.9490    -0.5150 H     1 <1>   0.0800 
 45 H        7.7500     7.9900    -2.1190 H     1 <1>   0.0800 
 46 H        5.3230    11.5120     0.0980 H     1 <1>   0.1500 
@<TRIPOS>BOND
  1   1   2  1   
  2   1   3  1   
  3   2   4  2   
  4   2   5  1   
  5   3   6  2   
  6   3  26  1   
  7   4   6  1   
  8   4   7  1   
  9   5   8  1   
 10   5  27  1   
 11   5  28  1   
 12   6  29  1   
 13   7   9  1   
 14   7  10  1   
 15   7  11  1   
 16   8   9  1   
 17   8  30  1   
 18   8  31  1   
 19  10  12  1   
 20  10  32  1   
 21  10  33  1   
 22  11  13  1   
 23  11  34  1   
 24  11  35  1   
 25  12  14  1   
 26  12  36  1   
 27  12  37  1   
 28  13  14  1   
 29  13  38  1   
 30  13  39  1   
 31  14  15  1   
 32  15  16  ar  
 33  15  17  ar  
 34  16  18  ar  
 35  17  19  ar  
 36  17  20  ar  
 37  18  21  ar  
 38  19  21  ar  
 39  19  22  ar  
 40  20  23  ar  
 41  20  40  1   
 42  21  24  1   
 43  22  25  ar  
 44  22  41  1   
 45  23  25  ar  
 46  23  42  1   
 47  24  43  1   
 48  24  44  1   
 49  24  45  1   
 50  25  46  1   
@<TRIPOS>SUBSTRUCTURE
  1 ****  14 GROUP 4 **** **** 0

# MOE 2024.06 (io_trps.svl 2023.06)
