@<TRIPOS>MOLECULE
NONAME
40 42 1 0 0 
SMALL
USER_CHARGES


@<TRIPOS>ATOM
  1 S        0.4240    -0.3290    -1.7790 S.3   1 <1>  -0.0800 
  2 C        1.6700    -0.8670    -0.6490 C.2   1 <1>  -0.0450 
  3 C       -0.2880    -1.9200    -1.8800 C.2   1 <1>  -0.1100 
  4 C        2.6370     0.0930    -0.1910 C.2   1 <1>   0.5940 
  5 C        1.4810    -2.1930    -0.4040 C.2   1 <1>  -0.1500 
  6 C        0.3760    -2.7860    -1.0900 C.2   1 <1>  -0.1810 
  7 O        2.6100     1.2640    -0.4670 O.2   1 <1>  -0.5700 
  8 C        3.7620    -0.3810     0.7030 C.3   1 <1>  -0.1790 
  9 C        0.0240    -4.2510    -0.9240 C.3   1 <1>   0.5240 
 10 N       -0.6010    -4.4350     0.4170 N.4   1 <1>  -0.9590 
 11 C       -0.8200    -5.8600     0.7640 C.3   1 <1>   0.5660 
 12 C       -1.9300    -3.7610     0.5030 C.3   1 <1>   0.3430 
 13 C        0.3620    -6.7320     0.3460 C.ar  1 <1>  -0.1430 
 14 C       -2.1960    -6.1660     0.1850 C.3   1 <1>  -0.1600 
 15 C       -2.9770    -4.8720     0.4110 C.3   1 <1>  -0.1600 
 16 C        0.3800    -7.5100    -0.8090 C.ar  1 <1>  -0.1500 
 17 C        1.4860    -6.7280     1.1630 C.ar  1 <1>  -0.1500 
 18 C        1.5010    -8.2500    -1.1400 C.ar  1 <1>  -0.1500 
 19 C        2.6060    -7.4690     0.8310 C.ar  1 <1>  -0.1500 
 20 C        2.6150    -8.2290    -0.3230 C.ar  1 <1>  -0.1500 
 21 H       -1.1380    -2.0260    -2.5320 H     1 <1>   0.1500 
 22 H        2.1140    -2.7750     0.2440 H     1 <1>   0.1500 
 23 H        4.2700    -1.2100     0.2460 H     1 <1>   0.0800 
 24 H        3.3700    -0.6750     1.6570 H     1 <1>   0.0800 
 25 H        4.4690     0.4150     0.8500 H     1 <1>   0.0800 
 26 H        0.9240    -4.8390    -1.0120 H     1 <1>   0.0800 
 27 H       -0.6610    -4.5580    -1.6980 H     1 <1>   0.0800 
 28 H        0.0440    -4.0220     1.0960 H     1 <1>   0.4500 
 29 H       -0.9110    -5.9320     1.8370 H     1 <1>   0.0800 
 30 H       -2.0570    -3.0460    -0.2950 H     1 <1>   0.0800 
 31 H       -2.0280    -3.2470     1.4460 H     1 <1>   0.0800 
 32 H       -2.6500    -7.0100     0.6750 H     1 <1>   0.0800 
 33 H       -2.1410    -6.3630    -0.8690 H     1 <1>   0.0800 
 34 H       -3.6770    -4.6830    -0.3850 H     1 <1>   0.0800 
 35 H       -3.5230    -4.9170     1.3380 H     1 <1>   0.0800 
 36 H       -0.4620    -7.5680    -1.4750 H     1 <1>   0.1500 
 37 H        1.5090    -6.1520     2.0730 H     1 <1>   0.1500 
 38 H        1.5090    -8.8510    -2.0340 H     1 <1>   0.1500 
 39 H        3.4730    -7.4620     1.4710 H     1 <1>   0.1500 
 40 H        3.4860    -8.8080    -0.5820 H     1 <1>   0.1500 
@<TRIPOS>BOND
  1   1   2  1   
  2   1   3  1   
  3   2   4  1   
  4   2   5  2   
  5   3   6  2   
  6   3  21  1   
  7   4   7  2   
  8   4   8  1   
  9   5   6  1   
 10   5  22  1   
 11   6   9  1   
 12   8  23  1   
 13   8  24  1   
 14   8  25  1   
 15   9  10  1   
 16   9  26  1   
 17   9  27  1   
 18  10  11  1   
 19  10  12  1   
 20  10  28  1   
 21  11  13  1   
 22  11  14  1   
 23  11  29  1   
 24  12  15  1   
 25  12  30  1   
 26  12  31  1   
 27  13  16  ar  
 28  13  17  ar  
 29  14  15  1   
 30  14  32  1   
 31  14  33  1   
 32  15  34  1   
 33  15  35  1   
 34  16  18  ar  
 35  16  36  1   
 36  17  19  ar  
 37  17  37  1   
 38  18  20  ar  
 39  18  38  1   
 40  19  20  ar  
 41  19  39  1   
 42  20  40  1   
@<TRIPOS>SUBSTRUCTURE
  1 ****   9 GROUP 4 **** **** 0

# MOE 2024.06 (io_trps.svl 2023.06)
