@<TRIPOS>MOLECULE
NONAME
45 46 1 0 0 
SMALL
USER_CHARGES


@<TRIPOS>ATOM
  1 S       -0.2030    -0.0460     0.1880 S.o2  1 <1>   1.3330 
  2 O       -0.8710     1.1940     0.5090 O.2   1 <1>  -0.6500 
  3 O        0.0570    -1.0090     1.2340 O.2   1 <1>  -0.6500 
  4 N       -1.0890    -0.8290    -1.0300 N.am  1 <1>  -0.8490 
  5 C        1.3290     0.3590    -0.6520 C.3   1 <1>  -0.0550 
  6 C       -0.7930    -2.2620    -1.1380 C.3   1 <1>   0.1160 
  7 C       -2.5350    -0.6300    -0.8850 C.3   1 <1>   0.1160 
  8 C        2.3110     1.1700     0.2170 C.3   1 <1>  -0.0800 
  9 C        3.4850     1.6680    -0.6090 C.3   1 <1>   0.2200 
 10 C        2.9960     0.3030     1.2840 C.3   1 <1>   0.1200 
 11 N        4.0440     2.8770     0.0300 N.am  1 <1>  -0.7300 
 12 C        4.4740     0.5190    -0.4670 C.3   1 <1>   0.1200 
 13 O        4.2860     0.0250     0.8230 O.3   1 <1>  -0.5600 
 14 C        4.1150     4.1180    -0.5370 C.2   1 <1>   0.7150 
 15 O        3.6540     4.2590    -1.6550 O.2   1 <1>  -0.5700 
 16 C        4.7230     5.2050     0.1980 C.2   1 <1>   0.0550 
 17 O        5.0310     6.3530    -0.3980 O.3   1 <1>  -0.2800 
 18 C        5.0830     5.2980     1.5100 C.2   1 <1>  -0.1500 
 19 C        5.5770     7.1640     0.4810 C.2   1 <1>  -0.0400 
 20 C        5.6340     6.5670     1.6910 C.2   1 <1>  -0.1500 
 21 C        6.0180     8.5450     0.0370 C.3   1 <1>   0.2500 
 22 S        7.6810     8.4260    -0.6860 S.3   1 <1>  -0.4600 
 23 C        7.9190    10.0440    -1.4660 C.3   1 <1>  -0.0100 
 24 H        1.8030    -0.5420    -0.9880 H     1 <1>   0.0800 
 25 H        1.0820     0.9420    -1.5180 H     1 <1>   0.0800 
 26 H       -1.3090    -2.6840    -1.9830 H     1 <1>   0.0800 
 27 H       -1.1020    -2.7790    -0.2440 H     1 <1>   0.0800 
 28 H        0.2640    -2.4150    -1.2750 H     1 <1>   0.0800 
 29 H       -3.0630    -1.1260    -1.6810 H     1 <1>   0.0800 
 30 H       -2.7690     0.4210    -0.9320 H     1 <1>   0.0800 
 31 H       -2.8730    -1.0170     0.0620 H     1 <1>   0.0800 
 32 H        1.7770     1.9920     0.6640 H     1 <1>   0.0800 
 33 H        3.2340     1.8610    -1.6390 H     1 <1>   0.0800 
 34 H        2.4920    -0.6300     1.4660 H     1 <1>   0.0800 
 35 H        3.0910     0.8400     2.2130 H     1 <1>   0.0800 
 36 H        4.5170     2.7070     0.9180 H     1 <1>   0.3700 
 37 H        5.4960     0.8320    -0.5920 H     1 <1>   0.0800 
 38 H        4.2460    -0.2720    -1.1590 H     1 <1>   0.0800 
 39 H        4.9770     4.5590     2.2830 H     1 <1>   0.1500 
 40 H        6.0220     6.9600     2.6140 H     1 <1>   0.1500 
 41 H        6.0850     9.2200     0.8710 H     1 <1>   0.0800 
 42 H        5.3560     8.9380    -0.7130 H     1 <1>   0.0800 
 43 H        8.8970    10.0470    -1.9150 H     1 <1>   0.0800 
 44 H        7.8450    10.7970    -0.7030 H     1 <1>   0.0800 
 45 H        7.1560    10.1680    -2.2130 H     1 <1>   0.0800 
@<TRIPOS>BOND
  1   1   2  2   
  2   1   3  2   
  3   1   4  am  
  4   1   5  1   
  5   4   6  1   
  6   4   7  1   
  7   5   8  1   
  8   5  24  1   
  9   5  25  1   
 10   6  26  1   
 11   6  27  1   
 12   6  28  1   
 13   7  29  1   
 14   7  30  1   
 15   7  31  1   
 16   8   9  1   
 17   8  10  1   
 18   8  32  1   
 19   9  11  1   
 20   9  12  1   
 21   9  33  1   
 22  10  13  1   
 23  10  34  1   
 24  10  35  1   
 25  11  14  am  
 26  11  36  1   
 27  12  13  1   
 28  12  37  1   
 29  12  38  1   
 30  14  15  2   
 31  14  16  1   
 32  16  17  1   
 33  16  18  2   
 34  17  19  1   
 35  18  20  1   
 36  18  39  1   
 37  19  20  2   
 38  19  21  1   
 39  20  40  1   
 40  21  22  1   
 41  21  41  1   
 42  21  42  1   
 43  22  23  1   
 44  23  43  1   
 45  23  44  1   
 46  23  45  1   
@<TRIPOS>SUBSTRUCTURE
  1 ****  11 GROUP 4 **** **** 0

# MOE 2024.06 (io_trps.svl 2023.06)
