@<TRIPOS>MOLECULE
NONAME
47 49 1 0 0 
SMALL
USER_CHARGES


@<TRIPOS>ATOM
  1 S        0.8130    -0.1690    -1.2630 S.o2  1 <1>   1.3330 
  2 O        2.1110    -0.7640    -1.0360 O.2   1 <1>  -0.6500 
  3 O        0.2560    -0.1640    -2.5960 O.2   1 <1>  -0.6500 
  4 N       -0.3080    -0.9720    -0.2690 N.am  1 <1>  -0.8490 
  5 C        0.8090     1.5130    -0.6210 C.3   1 <1>  -0.0550 
  6 C       -1.7020    -0.7870    -0.6900 C.3   1 <1>   0.1160 
  7 C       -0.0170    -2.4050    -0.1480 C.3   1 <1>   0.1160 
  8 C        1.6390     1.7990     0.6510 C.3   1 <1>  -0.0800 
  9 C        3.1490     1.6810     0.4290 C.3   1 <1>   0.2200 
 10 C        1.3760     0.9120     1.8740 C.3   1 <1>   0.1200 
 11 N        3.7800     2.9980     0.6780 N.am  1 <1>  -0.7300 
 12 C        3.5780     0.6720     1.4920 C.3   1 <1>   0.1200 
 13 O        2.6140     0.7710     2.4900 O.3   1 <1>  -0.5600 
 14 C        3.8670     4.0010    -0.2440 C.2   1 <1>   0.5440 
 15 O        3.3980     3.7990    -1.3480 O.2   1 <1>  -0.5700 
 16 C        4.4940     5.2720     0.0790 C.ar  1 <1>   0.0860 
 17 C        4.9940     6.0950    -0.9070 C.ar  1 <1>  -0.1500 
 18 C        4.6140     5.7200     1.4130 C.ar  1 <1>  -0.1500 
 19 C        5.6160     7.3270    -0.6340 C.ar  1 <1>   0.0000 
 20 C        5.2130     6.9110     1.7150 C.ar  1 <1>  -0.1500 
 21 C        5.7330     7.7460     0.7070 C.ar  1 <1>   0.0000 
 22 C        6.1290     8.1600    -1.6490 C.ar  1 <1>  -0.1500 
 23 C        6.3580     8.9780     0.9830 C.ar  1 <1>  -0.1500 
 24 C        6.7320     9.3520    -1.3540 C.ar  1 <1>  -0.1500 
 25 C        6.8480     9.7660    -0.0220 C.ar  1 <1>  -0.1500 
 26 H        1.1840     2.1610    -1.3910 H     1 <1>   0.0800 
 27 H       -0.2050     1.8090    -0.4400 H     1 <1>   0.0800 
 28 H       -2.3680    -1.2340     0.0270 H     1 <1>   0.0800 
 29 H       -1.8680    -1.2420    -1.6540 H     1 <1>   0.0800 
 30 H       -1.9340     0.2620    -0.7610 H     1 <1>   0.0800 
 31 H       -0.7390    -2.8810     0.4920 H     1 <1>   0.0800 
 32 H        0.9600    -2.5480     0.2840 H     1 <1>   0.0800 
 33 H       -0.0370    -2.8730    -1.1180 H     1 <1>   0.0800 
 34 H        1.4070     2.8080     0.9460 H     1 <1>   0.0800 
 35 H        3.4140     1.3360    -0.5560 H     1 <1>   0.0800 
 36 H        1.0390    -0.0740     1.6140 H     1 <1>   0.0800 
 37 H        0.6870     1.3600     2.5690 H     1 <1>   0.0800 
 38 H        4.1000     3.1400     1.6360 H     1 <1>   0.3700 
 39 H        4.5510     0.8760     1.9010 H     1 <1>   0.0800 
 40 H        3.5470    -0.3300     1.0990 H     1 <1>   0.0800 
 41 H        4.9110     5.7900    -1.9350 H     1 <1>   0.1500 
 42 H        4.2180     5.1120     2.2060 H     1 <1>   0.1500 
 43 H        5.2960     7.2370     2.7370 H     1 <1>   0.1500 
 44 H        6.0360     7.8380    -2.6710 H     1 <1>   0.1500 
 45 H        6.4450     9.2920     2.0080 H     1 <1>   0.1500 
 46 H        7.1210     9.9830    -2.1340 H     1 <1>   0.1500 
 47 H        7.3250    10.7060     0.1940 H     1 <1>   0.1500 
@<TRIPOS>BOND
  1   1   2  2   
  2   1   3  2   
  3   1   4  am  
  4   1   5  1   
  5   4   6  1   
  6   4   7  1   
  7   5   8  1   
  8   5  26  1   
  9   5  27  1   
 10   6  28  1   
 11   6  29  1   
 12   6  30  1   
 13   7  31  1   
 14   7  32  1   
 15   7  33  1   
 16   8   9  1   
 17   8  10  1   
 18   8  34  1   
 19   9  11  1   
 20   9  12  1   
 21   9  35  1   
 22  10  13  1   
 23  10  36  1   
 24  10  37  1   
 25  11  14  am  
 26  11  38  1   
 27  12  13  1   
 28  12  39  1   
 29  12  40  1   
 30  14  15  2   
 31  14  16  1   
 32  16  17  ar  
 33  16  18  ar  
 34  17  19  ar  
 35  17  41  1   
 36  18  20  ar  
 37  18  42  1   
 38  19  21  ar  
 39  19  22  ar  
 40  20  21  ar  
 41  20  43  1   
 42  21  23  ar  
 43  22  24  ar  
 44  22  44  1   
 45  23  25  ar  
 46  23  45  1   
 47  24  25  ar  
 48  24  46  1   
 49  25  47  1   
@<TRIPOS>SUBSTRUCTURE
  1 ****  14 GROUP 4 **** **** 0

# MOE 2024.06 (io_trps.svl 2023.06)
