@<TRIPOS>MOLECULE
NONAME
51 53 1 0 0 
SMALL
USER_CHARGES


@<TRIPOS>ATOM
  1 CL      -2.0260    -0.8430     2.5760 Cl    1 <1>  -0.1770 
  2 C       -2.5090    -1.6680     1.1160 C.ar  1 <1>   0.1770 
  3 C       -2.3930    -3.0440     1.0480 C.ar  1 <1>  -0.1500 
  4 C       -3.0000    -0.9340     0.0540 C.ar  1 <1>  -0.1500 
  5 C       -2.7780    -3.7070    -0.1080 C.ar  1 <1>  -0.1440 
  6 C       -3.3830    -1.5940    -1.1010 C.ar  1 <1>  -0.1500 
  7 C       -3.2720    -2.9730    -1.1790 C.ar  1 <1>  -0.1500 
  8 C       -2.6670    -5.2170    -0.2010 C.3   1 <1>   0.2840 
  9 N       -3.9650    -5.7860     0.2030 N.am  1 <1>  -0.7300 
 10 C       -4.3990    -7.0120    -0.1600 C.2   1 <1>   0.5690 
 11 O       -3.7240    -7.7650    -0.8160 O.2   1 <1>  -0.5700 
 12 C       -5.7770    -7.4600     0.2610 C.3   1 <1>  -0.0990 
 13 C       -5.7920    -8.9860     0.3440 C.3   1 <1>   0.3430 
 14 N       -7.1460    -9.5050     0.6920 N.4   1 <1>  -0.9590 
 15 C       -8.1970    -9.3100    -0.3470 C.3   1 <1>   0.3430 
 16 C       -7.1450   -10.9670     1.0030 C.3   1 <1>   0.3430 
 17 C       -9.2760   -10.3240     0.0330 C.3   1 <1>   0.2000 
 18 C       -8.4630   -11.5450     0.4590 C.3   1 <1>  -0.0800 
 19 O       -9.9360    -9.8330     1.1530 O.3   1 <1>  -0.6800 
 20 C       -8.2190   -12.5100    -0.7200 C.3   1 <1>   0.0200 
 21 C       -7.1510   -13.5290    -0.3760 C.2   1 <1>  -0.0400 
 22 O       -7.2020   -14.1650     0.7630 O.3   1 <1>  -0.0190 
 23 C       -6.0540   -13.9400    -1.0300 C.2   1 <1>  -0.1500 
 24 N       -6.1900   -14.9640     0.9160 N.2   1 <1>  -0.4100 
 25 C       -5.4840   -14.8590    -0.1530 C.2   1 <1>   0.1080 
 26 C       -4.2100   -15.6330    -0.4090 C.3   1 <1>  -0.0590 
 27 H       -2.0060    -3.5800     1.8960 H     1 <1>   0.1500 
 28 H       -3.0790     0.1350     0.1320 H     1 <1>   0.1500 
 29 H       -3.7670    -1.0350    -1.9390 H     1 <1>   0.1500 
 30 H       -3.5740    -3.4760    -2.0830 H     1 <1>   0.1500 
 31 H       -1.8940    -5.5800     0.4540 H     1 <1>   0.0800 
 32 H       -2.4290    -5.5170    -1.2080 H     1 <1>   0.0800 
 33 H       -4.5550    -5.1270     0.7140 H     1 <1>   0.3700 
 34 H       -6.0120    -7.0360     1.2200 H     1 <1>   0.0800 
 35 H       -6.4750    -7.1090    -0.4740 H     1 <1>   0.0800 
 36 H       -5.0790    -9.2980     1.0890 H     1 <1>   0.0800 
 37 H       -5.4760    -9.3960    -0.6030 H     1 <1>   0.0800 
 38 H       -7.5100    -9.0390     1.5380 H     1 <1>   0.4500 
 39 H       -8.5890    -8.3070    -0.3470 H     1 <1>   0.0800 
 40 H       -7.8030    -9.5470    -1.3210 H     1 <1>   0.0800 
 41 H       -6.3010   -11.4520     0.5380 H     1 <1>   0.0800 
 42 H       -7.0820   -11.1210     2.0690 H     1 <1>   0.0800 
 43 H       -9.9920   -10.5040    -0.7510 H     1 <1>   0.0800 
 44 H       -8.9650   -12.0950     1.2380 H     1 <1>   0.0800 
 45 H      -10.7170   -10.3830     1.3790 H     1 <1>   0.4000 
 46 H       -7.9100   -11.9750    -1.6010 H     1 <1>   0.0800 
 47 H       -9.1320   -13.0330    -0.9510 H     1 <1>   0.0800 
 48 H       -5.6650   -13.6590    -1.9920 H     1 <1>   0.1500 
 49 H       -3.3940   -14.9530    -0.5750 H     1 <1>   0.0800 
 50 H       -4.3310   -16.2590    -1.2740 H     1 <1>   0.0800 
 51 H       -3.9790   -16.2530     0.4380 H     1 <1>   0.0800 
@<TRIPOS>BOND
  1   1   2  1   
  2   2   3  ar  
  3   2   4  ar  
  4   3   5  ar  
  5   3  27  1   
  6   4   6  ar  
  7   4  28  1   
  8   5   7  ar  
  9   5   8  1   
 10   6   7  ar  
 11   6  29  1   
 12   7  30  1   
 13   8   9  1   
 14   8  31  1   
 15   8  32  1   
 16   9  10  am  
 17   9  33  1   
 18  10  11  2   
 19  10  12  1   
 20  12  13  1   
 21  12  34  1   
 22  12  35  1   
 23  13  14  1   
 24  13  36  1   
 25  13  37  1   
 26  14  15  1   
 27  14  16  1   
 28  14  38  1   
 29  15  17  1   
 30  15  39  1   
 31  15  40  1   
 32  16  18  1   
 33  16  41  1   
 34  16  42  1   
 35  17  18  1   
 36  17  19  1   
 37  17  43  1   
 38  18  20  1   
 39  18  44  1   
 40  19  45  1   
 41  20  21  1   
 42  20  46  1   
 43  20  47  1   
 44  21  22  1   
 45  21  23  2   
 46  22  24  1   
 47  23  25  1   
 48  23  48  1   
 49  24  25  2   
 50  25  26  1   
 51  26  49  1   
 52  26  50  1   
 53  26  51  1   
@<TRIPOS>SUBSTRUCTURE
  1 ****  13 GROUP 4 **** **** 0

# MOE 2024.06 (io_trps.svl 2023.06)
