@<TRIPOS>MOLECULE
NONAME
58 60 1 0 0 
SMALL
USER_CHARGES


@<TRIPOS>ATOM
  1 CL      -2.5750     0.5560    -2.0100 Cl    1 <1>  -0.1770 
  2 C       -3.2590     1.1060    -0.4910 C.ar  1 <1>   0.1770 
  3 C       -3.6940     2.4200    -0.3820 C.ar  1 <1>   0.0820 
  4 C       -3.3650     0.2190     0.5720 C.ar  1 <1>  -0.1440 
  5 O       -3.6960     3.2180    -1.4770 O.3   1 <1>  -0.3630 
  6 C       -4.1890     2.8780     0.8390 C.ar  1 <1>   0.0830 
  7 C       -3.8070     0.7050     1.7970 C.ar  1 <1>  -0.1500 
  8 C       -3.0110    -1.2570     0.4410 C.3   1 <1>   0.4860 
  9 C       -2.6520     4.1660    -1.5580 C.3   1 <1>   0.0400 
 10 O       -4.6960     4.1340     0.9320 O.3   1 <1>  -0.3630 
 11 C       -4.2110     2.0230     1.9320 C.ar  1 <1>  -0.1500 
 12 N       -3.7220    -1.9420    -0.6950 N.4   1 <1>  -0.9590 
 13 C       -4.2710     4.9480     2.0090 C.3   1 <1>   0.0400 
 14 C       -5.2230    -2.0180    -0.7450 C.3   1 <1>   0.4230 
 15 C       -3.1510    -3.3120    -0.8700 C.3   1 <1>   0.2630 
 16 C       -5.7660    -1.0470    -1.7870 C.3   1 <1>  -0.1600 
 17 C       -6.0130    -1.7470     0.5430 C.3   1 <1>  -0.1600 
 18 C       -7.2040    -0.7200    -1.3670 C.3   1 <1>  -0.0800 
 19 C       -7.2490    -0.9090     0.1540 C.3   1 <1>  -0.0800 
 20 C       -7.5680     0.7470    -1.6240 C.3   1 <1>  -0.1600 
 21 C       -7.3070     0.5120     0.7560 C.3   1 <1>  -0.1600 
 22 C       -7.0080     1.4660    -0.4010 C.3   1 <1>   0.4230 
 23 N       -7.5040     2.8570    -0.1990 N.4   1 <1>  -0.9590 
 24 C       -8.9870     3.0010    -0.0390 C.3   1 <1>   0.2630 
 25 C       -7.0130     3.7560    -1.2900 C.3   1 <1>   0.2630 
 26 H       -3.8510     0.0620     2.6620 H     1 <1>   0.1500 
 27 H       -3.2450    -1.7610     1.3650 H     1 <1>   0.0800 
 28 H       -1.9460    -1.3330     0.2910 H     1 <1>   0.0800 
 29 H       -2.7540     4.7050    -2.4830 H     1 <1>   0.0800 
 30 H       -1.7080     3.6510    -1.5380 H     1 <1>   0.0800 
 31 H       -2.7260     4.8470    -0.7280 H     1 <1>   0.0800 
 32 H       -4.5600     2.3700     2.8890 H     1 <1>   0.1500 
 33 H       -3.4500    -1.4020    -1.5320 H     1 <1>   0.4500 
 34 H       -4.5620     5.9620     1.8000 H     1 <1>   0.0800 
 35 H       -3.2000     4.8890     2.0940 H     1 <1>   0.0800 
 36 H       -4.7420     4.6170     2.9170 H     1 <1>   0.0800 
 37 H       -5.5090    -3.0040    -1.0780 H     1 <1>   0.0800 
 38 H       -3.3970    -3.9330    -0.0240 H     1 <1>   0.0800 
 39 H       -2.0780    -3.2650    -0.9640 H     1 <1>   0.0800 
 40 H       -3.5490    -3.7730    -1.7610 H     1 <1>   0.0800 
 41 H       -5.1850    -0.1480    -1.8050 H     1 <1>   0.0800 
 42 H       -5.7520    -1.4880    -2.7690 H     1 <1>   0.0800 
 43 H       -6.3460    -2.6920     0.9350 H     1 <1>   0.0800 
 44 H       -5.4540    -1.2660     1.3150 H     1 <1>   0.0800 
 45 H       -7.8930    -1.3900    -1.8570 H     1 <1>   0.0800 
 46 H       -8.1460    -1.4420     0.4280 H     1 <1>   0.0800 
 47 H       -8.6390     0.8320    -1.6620 H     1 <1>   0.0800 
 48 H       -7.1430     1.1090    -2.5440 H     1 <1>   0.0800 
 49 H       -6.6180     0.6480     1.5670 H     1 <1>   0.0800 
 50 H       -8.3030     0.6680     1.1270 H     1 <1>   0.0800 
 51 H       -5.9390     1.5010    -0.5180 H     1 <1>   0.0800 
 52 H       -7.0490     3.1990     0.6640 H     1 <1>   0.4500 
 53 H       -9.4950     2.6670    -0.9290 H     1 <1>   0.0800 
 54 H       -9.2430     4.0340     0.1330 H     1 <1>   0.0800 
 55 H       -9.3380     2.4220     0.7990 H     1 <1>   0.0800 
 56 H       -7.4210     3.4540    -2.2410 H     1 <1>   0.0800 
 57 H       -5.9380     3.7200    -1.3490 H     1 <1>   0.0800 
 58 H       -7.3040     4.7750    -1.0960 H     1 <1>   0.0800 
@<TRIPOS>BOND
  1   1   2  1   
  2   2   3  ar  
  3   2   4  ar  
  4   3   5  1   
  5   3   6  ar  
  6   4   7  ar  
  7   4   8  1   
  8   5   9  1   
  9   6  10  1   
 10   6  11  ar  
 11   7  11  ar  
 12   7  26  1   
 13   8  12  1   
 14   8  27  1   
 15   8  28  1   
 16   9  29  1   
 17   9  30  1   
 18   9  31  1   
 19  10  13  1   
 20  11  32  1   
 21  12  14  1   
 22  12  15  1   
 23  12  33  1   
 24  13  34  1   
 25  13  35  1   
 26  13  36  1   
 27  14  16  1   
 28  14  17  1   
 29  14  37  1   
 30  15  38  1   
 31  15  39  1   
 32  15  40  1   
 33  16  18  1   
 34  16  41  1   
 35  16  42  1   
 36  17  19  1   
 37  17  43  1   
 38  17  44  1   
 39  18  19  1   
 40  18  20  1   
 41  18  45  1   
 42  19  21  1   
 43  19  46  1   
 44  20  22  1   
 45  20  47  1   
 46  20  48  1   
 47  21  22  1   
 48  21  49  1   
 49  21  50  1   
 50  22  23  1   
 51  22  51  1   
 52  23  24  1   
 53  23  25  1   
 54  23  52  1   
 55  24  53  1   
 56  24  54  1   
 57  24  55  1   
 58  25  56  1   
 59  25  57  1   
 60  25  58  1   
@<TRIPOS>SUBSTRUCTURE
  1 ****   2 GROUP 4 **** **** 0

# MOE 2024.06 (io_trps.svl 2023.06)
