@<TRIPOS>MOLECULE
NONAME
40 41 1 0 0 
SMALL
USER_CHARGES


@<TRIPOS>ATOM
  1 O        1.5360     4.7700    -0.8170 O.2   1 <1>  -0.5760 
  2 C        0.5650     4.4350    -0.1740 C.2   1 <1>   0.5630 
  3 N       -0.6960     4.5270    -0.7040 N.am  1 <1>  -0.6650 
  4 C        0.7930     4.0300     1.2750 C.3   1 <1>  -0.1090 
  5 C       -1.9310     4.3070     0.1070 C.3   1 <1>   0.1310 
  6 C       -0.9140     4.4200    -2.1740 C.3   1 <1>   0.1310 
  7 C       -0.4650     3.5240     1.9900 C.3   1 <1>  -0.1690 
  8 C       -1.6570     4.4010     1.6090 C.3   1 <1>  -0.1690 
  9 C       -1.5640     5.6760    -2.7700 C.3   1 <1>  -0.1690 
 10 C       -0.6440     6.9110    -2.8180 C.3   1 <1>  -0.1090 
 11 C       -0.4380     7.6040    -1.4840 C.2   1 <1>   0.8490 
 12 O       -1.2770     8.3550    -1.0580 O.2   1 <1>  -0.5760 
 13 N        0.7180     7.3940    -0.8190 N.pl3 1 <1>  -0.7340 
 14 C        1.0870     7.9020     0.3500 C.cat 1 <1>   1.0680 
 15 N        0.3760     8.7310     1.0900 N.pl3 1 <1>  -0.7050 
 16 N        2.2440     7.6420     0.9600 N.pl3 1 <1>  -0.7680 
 17 C        1.0830     9.0220     2.2310 C.2   1 <1>   0.1910 
 18 C        2.2430     8.3460     2.1530 C.2   1 <1>   0.1910 
 19 C        3.3810     6.8010     0.4920 C.3   1 <1>   0.2660 
 20 H        1.1650     4.8880     1.8010 H     1 <1>   0.0700 
 21 H        1.5510     3.2680     1.3090 H     1 <1>   0.0700 
 22 H       -2.3210     3.3280    -0.1190 H     1 <1>   0.0700 
 23 H       -2.6770     5.0340    -0.1610 H     1 <1>   0.0700 
 24 H       -1.5530     3.5740    -2.3630 H     1 <1>   0.0700 
 25 H        0.0190     4.2240    -2.6760 H     1 <1>   0.0700 
 26 H       -0.3130     3.5380     3.0560 H     1 <1>   0.0700 
 27 H       -0.6630     2.5080     1.6940 H     1 <1>   0.0700 
 28 H       -2.5310     4.0750     2.1450 H     1 <1>   0.0700 
 29 H       -1.4710     5.4260     1.8800 H     1 <1>   0.0700 
 30 H       -2.4790     5.9100    -2.2550 H     1 <1>   0.0700 
 31 H       -1.8350     5.4370    -3.7840 H     1 <1>   0.0700 
 32 H       -1.0870     7.6320    -3.4820 H     1 <1>   0.0700 
 33 H        0.3060     6.6370    -3.2390 H     1 <1>   0.0700 
 34 H        1.2120     6.5380    -1.0870 H     1 <1>   0.4430 
 35 H       -0.5490     9.0520     0.7800 H     1 <1>   0.4430 
 36 H        0.7150     9.6800     3.0040 H     1 <1>   0.1410 
 37 H        3.0620     8.3180     2.8560 H     1 <1>   0.1410 
 38 H        3.3500     6.6770    -0.5770 H     1 <1>   0.0700 
 39 H        3.3370     5.8310     0.9580 H     1 <1>   0.0700 
 40 H        4.3150     7.2690     0.7530 H     1 <1>   0.0700 
@<TRIPOS>BOND
  1   1   2  2   
  2   2   3  am  
  3   2   4  1   
  4   3   5  1   
  5   3   6  1   
  6   4   7  1   
  7   4  20  1   
  8   4  21  1   
  9   5   8  1   
 10   5  22  1   
 11   5  23  1   
 12   6   9  1   
 13   6  24  1   
 14   6  25  1   
 15   7   8  1   
 16   7  26  1   
 17   7  27  1   
 18   8  28  1   
 19   8  29  1   
 20   9  10  1   
 21   9  30  1   
 22   9  31  1   
 23  10  11  1   
 24  10  32  1   
 25  10  33  1   
 26  11  12  2   
 27  11  13  1   
 28  13  14  ar  
 29  13  34  1   
 30  14  15  ar  
 31  14  16  ar  
 32  15  17  1   
 33  15  35  1   
 34  16  18  1   
 35  16  19  1   
 36  17  18  2   
 37  17  36  1   
 38  18  37  1   
 39  19  38  1   
 40  19  39  1   
 41  19  40  1   
@<TRIPOS>SUBSTRUCTURE
  1 ****  13 GROUP 4 **** **** 0

# MOE 2024.06 (io_trps.svl 2023.06)
