@<TRIPOS>MOLECULE
NONAME
56 58 1 0 0 
SMALL
USER_CHARGES


@<TRIPOS>ATOM
  1 F       -2.2530     1.0080    -3.2990 F     1 <1>  -0.1900 
  2 C       -2.9870     0.9930    -2.2160 C.ar  1 <1>   0.1900 
  3 C       -3.7280     2.1070    -1.8060 C.ar  1 <1>   0.0820 
  4 C       -2.9920    -0.1860    -1.4950 C.ar  1 <1>  -0.1500 
  5 O       -3.8020     3.3200    -2.4260 O.3   1 <1>  -0.3630 
  6 C       -4.4770     1.9890    -0.6460 C.ar  1 <1>  -0.1500 
  7 C       -3.7520    -0.2710    -0.3430 C.ar  1 <1>  -0.1500 
  8 C       -3.0840     3.6280    -3.6010 C.3   1 <1>   0.0400 
  9 C       -4.5130     0.8110     0.1010 C.ar  1 <1>   0.0530 
 10 C       -5.3080     0.7320     1.2990 C.2   1 <1>   0.0870 
 11 O       -5.2090     1.6750     2.2010 O.3   1 <1>  -0.0190 
 12 C       -6.2230    -0.1660     1.7580 C.2   1 <1>  -0.0860 
 13 N       -5.9800     1.4740     3.2350 N.2   1 <1>  -0.4100 
 14 C       -6.5990     0.3730     2.9960 C.2   1 <1>   0.3720 
 15 C       -6.7430    -1.3580     1.1580 C.2   1 <1>   0.7160 
 16 N       -7.5300    -0.1850     3.8870 N.pl3 1 <1>  -0.8210 
 17 O       -6.3770    -1.7280     0.0580 O.2   1 <1>  -0.5700 
 18 N       -7.6880    -2.0980     1.8110 N.am  1 <1>  -0.7300 
 19 C       -8.6690     0.7370     4.1670 C.3   1 <1>   0.1290 
 20 C       -6.8920    -0.6160     5.1650 C.3   1 <1>   0.1290 
 21 C       -8.4760    -3.3100     1.4400 C.3   1 <1>   0.2200 
 22 C       -7.7610    -4.2660     0.4740 C.3   1 <1>   0.3430 
 23 C       -9.7050    -2.8830     0.6430 C.3   1 <1>  -0.1600 
 24 N       -8.0020    -3.6860    -0.8720 N.4   1 <1>  -0.9590 
 25 C       -9.3400    -3.0360    -0.8350 C.3   1 <1>   0.3430 
 26 C       -7.7460    -4.6070    -2.0060 C.3   1 <1>   0.3430 
 27 C       -7.6910    -3.8170    -3.3140 C.3   1 <1>  -0.1600 
 28 C       -7.3440    -4.7310    -4.4950 C.3   1 <1>  -0.2400 
 29 H       -2.4070    -1.0220    -1.8340 H     1 <1>   0.1500 
 30 H       -5.0480     2.8380    -0.3160 H     1 <1>   0.1500 
 31 H       -3.7540    -1.1850     0.2240 H     1 <1>   0.1500 
 32 H       -3.3060     4.6440    -3.8710 H     1 <1>   0.0800 
 33 H       -3.3980     2.9650    -4.3870 H     1 <1>   0.0800 
 34 H       -2.0310     3.5250    -3.4060 H     1 <1>   0.0800 
 35 H       -7.9450    -1.6750     2.7220 H     1 <1>   0.3700 
 36 H       -9.0930     1.0890     3.2420 H     1 <1>   0.0800 
 37 H       -8.3300     1.5890     4.7340 H     1 <1>   0.0800 
 38 H       -9.4330     0.2250     4.7260 H     1 <1>   0.0800 
 39 H       -6.0510    -1.2560     4.9580 H     1 <1>   0.0800 
 40 H       -7.6000    -1.1580     5.7690 H     1 <1>   0.0800 
 41 H       -6.5430     0.2420     5.7150 H     1 <1>   0.0800 
 42 H       -8.7520    -3.8300     2.3420 H     1 <1>   0.0800 
 43 H       -8.2140    -5.2410     0.5360 H     1 <1>   0.0800 
 44 H       -6.7100    -4.3360     0.7000 H     1 <1>   0.0800 
 45 H      -10.0180    -1.8790     0.8720 H     1 <1>   0.0800 
 46 H      -10.5230    -3.5470     0.8590 H     1 <1>   0.0800 
 47 H       -7.3100    -2.9060    -0.9200 H     1 <1>   0.4500 
 48 H       -9.2950    -2.0730    -1.3180 H     1 <1>   0.0800 
 49 H      -10.0740    -3.6490    -1.3340 H     1 <1>   0.0800 
 50 H       -8.5190    -5.3560    -2.0590 H     1 <1>   0.0800 
 51 H       -6.8000    -5.1030    -1.8600 H     1 <1>   0.0800 
 52 H       -6.9390    -3.0490    -3.2410 H     1 <1>   0.0800 
 53 H       -8.6410    -3.3530    -3.5100 H     1 <1>   0.0800 
 54 H       -6.3820    -5.1940    -4.3510 H     1 <1>   0.0800 
 55 H       -7.3050    -4.1560    -5.4050 H     1 <1>   0.0800 
 56 H       -8.0860    -5.5010    -4.6160 H     1 <1>   0.0800 
@<TRIPOS>BOND
  1   1   2  1   
  2   2   3  ar  
  3   2   4  ar  
  4   3   5  1   
  5   3   6  ar  
  6   4   7  ar  
  7   4  29  1   
  8   5   8  1   
  9   6   9  ar  
 10   6  30  1   
 11   7   9  ar  
 12   7  31  1   
 13   8  32  1   
 14   8  33  1   
 15   8  34  1   
 16   9  10  1   
 17  10  11  1   
 18  10  12  2   
 19  11  13  1   
 20  12  14  1   
 21  12  15  1   
 22  13  14  2   
 23  14  16  1   
 24  15  17  2   
 25  15  18  am  
 26  16  19  1   
 27  16  20  1   
 28  18  21  1   
 29  18  35  1   
 30  19  36  1   
 31  19  37  1   
 32  19  38  1   
 33  20  39  1   
 34  20  40  1   
 35  20  41  1   
 36  21  22  1   
 37  21  23  1   
 38  21  42  1   
 39  22  24  1   
 40  22  43  1   
 41  22  44  1   
 42  23  25  1   
 43  23  45  1   
 44  23  46  1   
 45  24  25  1   
 46  24  26  1   
 47  24  47  1   
 48  25  48  1   
 49  25  49  1   
 50  26  27  1   
 51  26  50  1   
 52  26  51  1   
 53  27  28  1   
 54  27  52  1   
 55  27  53  1   
 56  28  54  1   
 57  28  55  1   
 58  28  56  1   
@<TRIPOS>SUBSTRUCTURE
  1 ****  17 GROUP 4 **** **** 0

# MOE 2024.06 (io_trps.svl 2023.06)
