@<TRIPOS>MOLECULE
NONAME
45 47 1 0 0 
SMALL
USER_CHARGES


@<TRIPOS>ATOM
  1 O       -0.4700     0.1080    -0.0780 O.2   1 <1>  -0.5700 
  2 C       -1.5220     0.7220    -0.0440 C.2   1 <1>   0.7150 
  3 N       -2.6910     0.0040     0.0370 N.am  1 <1>  -0.6600 
  4 C       -1.5290     2.1570    -0.1060 C.2   1 <1>  -0.2370 
  5 C       -4.0140     0.5050    -0.4120 C.3   1 <1>   0.1400 
  6 C       -2.6990    -1.4770     0.1240 C.3   1 <1>   0.1400 
  7 N       -0.6140     2.8990    -0.7850 N.pl3 1 <1>   0.3140 
  8 C       -2.3730     3.0680     0.4550 C.2   1 <1>  -0.1500 
  9 C       -4.7830    -0.7440    -0.8380 C.3   1 <1>   0.2000 
 10 C       -4.1620    -1.8920    -0.0450 C.3   1 <1>  -0.0800 
 11 N       -0.8580     4.2140    -0.6940 N.2   1 <1>  -0.7070 
 12 C        0.5380     2.4170    -1.5630 C.3   1 <1>   0.0160 
 13 C       -1.9110     4.3070     0.0560 C.2   1 <1>   0.1080 
 14 O       -6.1340    -0.6380    -0.5470 O.3   1 <1>  -0.6800 
 15 C       -4.3420    -3.2570    -0.7270 C.3   1 <1>  -0.0170 
 16 C       -2.5320     5.6380     0.4340 C.3   1 <1>   0.0210 
 17 C       -3.7100    -4.3680     0.0970 C.ar  1 <1>  -0.1430 
 18 C       -1.8400     6.2410     1.6610 C.3   1 <1>  -0.2400 
 19 C       -4.3730    -4.9470     1.1590 C.ar  1 <1>  -0.1500 
 20 C       -2.4460    -4.8540    -0.1710 C.ar  1 <1>  -0.1500 
 21 C       -3.7570    -5.9530     1.8850 C.ar  1 <1>   0.1600 
 22 C       -1.9200    -5.8640     0.6180 C.ar  1 <1>   0.1600 
 23 N       -2.5450    -6.4250     1.6400 N.ar  1 <1>  -0.6200 
 24 H       -4.5050     0.9900     0.4130 H     1 <1>   0.0800 
 25 H       -3.9050     1.1880    -1.2370 H     1 <1>   0.0800 
 26 H       -2.0920    -1.8770    -0.6700 H     1 <1>   0.0800 
 27 H       -2.3020    -1.8050     1.0710 H     1 <1>   0.0800 
 28 H       -3.2210     2.8880     1.0890 H     1 <1>   0.1500 
 29 H       -4.6740    -0.8950    -1.8990 H     1 <1>   0.0800 
 30 H       -4.5970    -1.9240     0.9390 H     1 <1>   0.0800 
 31 H        0.2070     1.6790    -2.2700 H     1 <1>   0.0800 
 32 H        1.2560     1.9820    -0.8930 H     1 <1>   0.0800 
 33 H        0.9850     3.2430    -2.0840 H     1 <1>   0.0800 
 34 H       -6.2720    -0.5450     0.4150 H     1 <1>   0.4000 
 35 H       -3.9040    -3.2390    -1.7090 H     1 <1>   0.0800 
 36 H       -5.3930    -3.4590    -0.8460 H     1 <1>   0.0800 
 37 H       -2.4390     6.3120    -0.4000 H     1 <1>   0.0800 
 38 H       -3.5780     5.5000     0.6380 H     1 <1>   0.0800 
 39 H       -0.7950     6.3880     1.4520 H     1 <1>   0.0800 
 40 H       -1.9320     5.5780     2.5030 H     1 <1>   0.0800 
 41 H       -2.2820     7.1890     1.9110 H     1 <1>   0.0800 
 42 H       -5.3620    -4.6270     1.4300 H     1 <1>   0.1500 
 43 H       -1.8620    -4.4600    -0.9830 H     1 <1>   0.1500 
 44 H       -4.2890    -6.3940     2.7100 H     1 <1>   0.1500 
 45 H       -0.9320    -6.2300     0.3960 H     1 <1>   0.1500 
@<TRIPOS>BOND
  1   1   2  2   
  2   2   3  am  
  3   2   4  1   
  4   3   5  1   
  5   3   6  1   
  6   4   7  1   
  7   4   8  2   
  8   5   9  1   
  9   5  24  1   
 10   5  25  1   
 11   6  10  1   
 12   6  26  1   
 13   6  27  1   
 14   7  11  1   
 15   7  12  1   
 16   8  13  1   
 17   8  28  1   
 18   9  10  1   
 19   9  14  1   
 20   9  29  1   
 21  10  15  1   
 22  10  30  1   
 23  11  13  2   
 24  12  31  1   
 25  12  32  1   
 26  12  33  1   
 27  13  16  1   
 28  14  34  1   
 29  15  17  1   
 30  15  35  1   
 31  15  36  1   
 32  16  18  1   
 33  16  37  1   
 34  16  38  1   
 35  17  19  ar  
 36  17  20  ar  
 37  18  39  1   
 38  18  40  1   
 39  18  41  1   
 40  19  21  ar  
 41  19  42  1   
 42  20  22  ar  
 43  20  43  1   
 44  21  23  ar  
 45  21  44  1   
 46  22  23  ar  
 47  22  45  1   
@<TRIPOS>SUBSTRUCTURE
  1 ****   3 GROUP 4 **** **** 0

# MOE 2024.06 (io_trps.svl 2023.06)
