@<TRIPOS>MOLECULE
NONAME
39 41 1 0 0 
SMALL
USER_CHARGES


@<TRIPOS>ATOM
  1 N       -0.5820     1.2310     1.5200 N.1   1 <1>  -0.5570 
  2 C       -0.1100     2.0120     0.8440 C.1   1 <1>   0.3570 
  3 C        0.5490     3.0740     0.0410 C.3   1 <1>   0.1200 
  4 C        1.4720     3.8670     0.9860 C.3   1 <1>   0.3430 
  5 C       -0.4770     3.9870    -0.6560 C.3   1 <1>  -0.1600 
  6 N        1.5670     5.3310     0.6500 N.4   1 <1>  -0.9590 
  7 C        0.2210     5.1310    -1.4200 C.3   1 <1>  -0.1600 
  8 C        1.5710     5.5600    -0.8260 C.3   1 <1>   0.3430 
  9 C        2.7530     5.9540     1.3120 C.3   1 <1>   0.4860 
 10 C        2.7410     7.4560     1.0650 C.ar  1 <1>  -0.1430 
 11 C        3.6610     8.0750     0.2060 C.ar  1 <1>  -0.0230 
 12 C        1.7840     8.2200     1.7200 C.ar  1 <1>  -0.1500 
 13 N        4.6910     7.3570    -0.4750 N.pl3 1 <1>   0.5930 
 14 C        3.5670     9.4510     0.0130 C.ar  1 <1>  -0.1500 
 15 C        1.7140     9.5850     1.5190 C.ar  1 <1>  -0.1500 
 16 N        4.4900     6.1640    -1.1010 N.2   1 <1>  -0.7070 
 17 C        5.9880     7.7240    -0.6020 C.2   1 <1>  -0.3020 
 18 C        2.6040    10.2010     0.6610 C.ar  1 <1>  -0.1500 
 19 C        5.6410     5.8380    -1.6060 C.2   1 <1>   0.1390 
 20 C        6.6220     6.7770    -1.3220 C.2   1 <1>  -0.1500 
 21 H        1.1530     2.5890    -0.7050 H     1 <1>   0.0800 
 22 H        2.4530     3.4200     0.9500 H     1 <1>   0.0800 
 23 H        1.1090     3.7680     1.9970 H     1 <1>   0.0800 
 24 H       -1.1360     4.4070     0.0860 H     1 <1>   0.0800 
 25 H       -1.0860     3.4130    -1.3360 H     1 <1>   0.0800 
 26 H        0.7380     5.8200     1.0080 H     1 <1>   0.4500 
 27 H       -0.4350     5.9840    -1.4610 H     1 <1>   0.0800 
 28 H        0.3950     4.8300    -2.4390 H     1 <1>   0.0800 
 29 H        2.3630     4.9830    -1.2760 H     1 <1>   0.0800 
 30 H        1.7520     6.5990    -1.0550 H     1 <1>   0.0800 
 31 H        3.6620     5.5100     0.9430 H     1 <1>   0.0800 
 32 H        2.7110     5.7780     2.3740 H     1 <1>   0.0800 
 33 H        1.0810     7.7690     2.4000 H     1 <1>   0.1500 
 34 H        4.2520     9.9520    -0.6520 H     1 <1>   0.1500 
 35 H        0.9690    10.1740     2.0290 H     1 <1>   0.1500 
 36 H        6.3760     8.6300    -0.1750 H     1 <1>   0.1500 
 37 H        2.5480    11.2650     0.5010 H     1 <1>   0.1500 
 38 H        5.8170     4.9410    -2.1790 H     1 <1>   0.1500 
 39 H        7.6550     6.7300    -1.6260 H     1 <1>   0.1500 
@<TRIPOS>BOND
  1   1   2  3   
  2   2   3  1   
  3   3   4  1   
  4   3   5  1   
  5   3  21  1   
  6   4   6  1   
  7   4  22  1   
  8   4  23  1   
  9   5   7  1   
 10   5  24  1   
 11   5  25  1   
 12   6   8  1   
 13   6   9  1   
 14   6  26  1   
 15   7   8  1   
 16   7  27  1   
 17   7  28  1   
 18   8  29  1   
 19   8  30  1   
 20   9  10  1   
 21   9  31  1   
 22   9  32  1   
 23  10  11  ar  
 24  10  12  ar  
 25  11  13  1   
 26  11  14  ar  
 27  12  15  ar  
 28  12  33  1   
 29  13  16  1   
 30  13  17  1   
 31  14  18  ar  
 32  14  34  1   
 33  15  18  ar  
 34  15  35  1   
 35  16  19  2   
 36  17  20  2   
 37  17  36  1   
 38  18  37  1   
 39  19  20  1   
 40  19  38  1   
 41  20  39  1   
@<TRIPOS>SUBSTRUCTURE
  1 ****   9 GROUP 4 **** **** 0

# MOE 2024.06 (io_trps.svl 2023.06)
