@<TRIPOS>MOLECULE
NONAME
58 60 1 0 0 
SMALL
USER_CHARGES


@<TRIPOS>ATOM
  1 O       -0.3700    -0.4700    -1.1870 O.3   1 <1>  -0.3630 
  2 C       -0.3540    -1.7760    -0.8120 C.ar  1 <1>   0.0830 
  3 C        0.6520     0.1150    -1.9620 C.3   1 <1>   0.0400 
  4 C       -1.3600    -2.2410     0.0360 C.ar  1 <1>  -0.1440 
  5 C        0.6370    -2.6510    -1.2510 C.ar  1 <1>  -0.1500 
  6 C       -1.3470    -3.5760     0.4090 C.ar  1 <1>  -0.1500 
  7 C       -2.4880    -1.3560     0.5890 C.3   1 <1>   0.0640 
  8 C        0.6430    -3.9820    -0.8710 C.ar  1 <1>  -0.1430 
  9 C       -0.3700    -4.4510    -0.0420 C.ar  1 <1>  -0.1430 
 10 C       -3.3940    -0.8110    -0.5220 C.3   1 <1>  -0.2400 
 11 C       -1.9550    -0.2280     1.4800 C.3   1 <1>  -0.2400 
 12 C        1.7710    -4.8770    -1.3740 C.3   1 <1>  -0.0970 
 13 C       -0.4560    -5.9040     0.3870 C.3   1 <1>   0.4860 
 14 N       -0.9940    -6.7020    -0.7480 N.4   1 <1>  -0.9590 
 15 C       -2.4230    -6.3520    -1.0250 C.3   1 <1>   0.3430 
 16 C       -0.9680    -8.1590    -0.4170 C.3   1 <1>   0.3430 
 17 C       -3.2540    -7.3710    -0.2400 C.3   1 <1>   0.2000 
 18 C       -2.4220    -8.6460    -0.3800 C.3   1 <1>  -0.0800 
 19 O       -3.2990    -6.9700     1.0940 O.3   1 <1>  -0.6800 
 20 C       -2.6550    -9.7300     0.6900 C.3   1 <1>   0.0210 
 21 C       -1.8040   -10.9570     0.4210 C.2   1 <1>   0.1080 
 22 N       -0.5080   -10.9200     0.3590 N.2   1 <1>  -0.7070 
 23 C       -2.3040   -12.2380     0.2190 C.2   1 <1>  -0.1500 
 24 N       -0.1430   -12.1990     0.1250 N.pl3 1 <1>   0.3000 
 25 C       -1.2150   -13.0110     0.0310 C.2   1 <1>  -0.3320 
 26 C       -1.1320   -14.5040    -0.2300 C.3   1 <1>  -0.0600 
 27 H        0.4230     1.1580    -2.0840 H     1 <1>   0.0800 
 28 H        0.6800    -0.3660    -2.9240 H     1 <1>   0.0800 
 29 H        1.5890     0.0050    -1.4450 H     1 <1>   0.0800 
 30 H        1.4180    -2.2990    -1.8960 H     1 <1>   0.1500 
 31 H       -2.1170    -3.9430     1.0660 H     1 <1>   0.1500 
 32 H       -3.1150    -1.9640     1.2180 H     1 <1>   0.0800 
 33 H       -2.8650    -0.1140    -1.1440 H     1 <1>   0.0800 
 34 H       -4.2420    -0.3070    -0.0950 H     1 <1>   0.0800 
 35 H       -3.7480    -1.6180    -1.1380 H     1 <1>   0.0800 
 36 H       -1.3940     0.4860     0.9060 H     1 <1>   0.0800 
 37 H       -1.3130    -0.6340     2.2410 H     1 <1>   0.0800 
 38 H       -2.7700     0.2860     1.9560 H     1 <1>   0.0800 
 39 H        2.5850    -4.2820    -1.7500 H     1 <1>   0.0800 
 40 H        1.4240    -5.5060    -2.1720 H     1 <1>   0.0800 
 41 H        2.1610    -5.4860    -0.5790 H     1 <1>   0.0800 
 42 H       -1.1010    -5.9960     1.2460 H     1 <1>   0.0800 
 43 H        0.5240    -6.2560     0.6610 H     1 <1>   0.0800 
 44 H       -0.4180    -6.4800    -1.5680 H     1 <1>   0.4500 
 45 H       -2.6670    -5.3430    -0.7410 H     1 <1>   0.0800 
 46 H       -2.6220    -6.4760    -2.0760 H     1 <1>   0.0800 
 47 H       -0.4070    -8.7200    -1.1480 H     1 <1>   0.0800 
 48 H       -0.5130    -8.3160     0.5490 H     1 <1>   0.0800 
 49 H       -4.2600    -7.4600    -0.6150 H     1 <1>   0.0800 
 50 H       -2.6340    -9.0810    -1.3410 H     1 <1>   0.0800 
 51 H       -3.9870    -7.4620     1.5900 H     1 <1>   0.4000 
 52 H       -3.6910   -10.0170     0.7000 H     1 <1>   0.0800 
 53 H       -2.4010    -9.3610     1.6680 H     1 <1>   0.0800 
 54 H       -3.3400   -12.5310     0.2210 H     1 <1>   0.1500 
 55 H        0.8390   -12.4900     0.0400 H     1 <1>   0.2700 
 56 H       -2.1190   -14.9320    -0.2580 H     1 <1>   0.0800 
 57 H       -0.5720   -14.9890     0.5500 H     1 <1>   0.0800 
 58 H       -0.6520   -14.6930    -1.1740 H     1 <1>   0.0800 
@<TRIPOS>BOND
  1   1   2  1   
  2   1   3  1   
  3   2   4  ar  
  4   2   5  ar  
  5   3  27  1   
  6   3  28  1   
  7   3  29  1   
  8   4   6  ar  
  9   4   7  1   
 10   5   8  ar  
 11   5  30  1   
 12   6   9  ar  
 13   6  31  1   
 14   7  10  1   
 15   7  11  1   
 16   7  32  1   
 17   8   9  ar  
 18   8  12  1   
 19   9  13  1   
 20  10  33  1   
 21  10  34  1   
 22  10  35  1   
 23  11  36  1   
 24  11  37  1   
 25  11  38  1   
 26  12  39  1   
 27  12  40  1   
 28  12  41  1   
 29  13  14  1   
 30  13  42  1   
 31  13  43  1   
 32  14  15  1   
 33  14  16  1   
 34  14  44  1   
 35  15  17  1   
 36  15  45  1   
 37  15  46  1   
 38  16  18  1   
 39  16  47  1   
 40  16  48  1   
 41  17  18  1   
 42  17  19  1   
 43  17  49  1   
 44  18  20  1   
 45  18  50  1   
 46  19  51  1   
 47  20  21  1   
 48  20  52  1   
 49  20  53  1   
 50  21  22  2   
 51  21  23  1   
 52  22  24  1   
 53  23  25  2   
 54  23  54  1   
 55  24  25  1   
 56  24  55  1   
 57  25  26  1   
 58  26  56  1   
 59  26  57  1   
 60  26  58  1   
@<TRIPOS>SUBSTRUCTURE
  1 ****  14 GROUP 4 **** **** 0

# MOE 2024.06 (io_trps.svl 2023.06)
