@<TRIPOS>MOLECULE
NONAME
41 43 1 0 0 
SMALL
USER_CHARGES


@<TRIPOS>ATOM
  1 CL      -0.7150     0.5880    -0.8000 Cl    1 <1>  -0.1770 
  2 C       -1.1660     2.1220    -0.0950 C.ar  1 <1>   0.1770 
  3 C       -0.8380     3.2890    -0.7430 C.ar  1 <1>  -0.1500 
  4 C       -1.8570     2.1170     1.1210 C.ar  1 <1>  -0.1500 
  5 C       -1.2130     4.4940    -0.1540 C.ar  1 <1>   0.2270 
  6 C       -2.2290     3.3080     1.7060 C.ar  1 <1>  -0.1500 
  7 N       -1.0090     5.7680    -0.5880 N.2   1 <1>  -0.5650 
  8 C       -1.8960     4.4960     1.0490 C.ar  1 <1>  -0.1520 
  9 C       -1.5480     6.5090     0.3190 C.2   1 <1>   0.0060 
 10 N       -2.1050     5.8050     1.3380 N.pl3 1 <1>   0.0330 
 11 C       -1.5890     8.0300     0.2920 C.3   1 <1>   0.0200 
 12 C       -0.5510     8.6100    -0.6750 C.3   1 <1>   0.1100 
 13 N       -0.5220    10.0830    -0.5940 N.3   1 <1>  -0.8100 
 14 C        0.8160    10.5990    -0.9950 C.3   1 <1>   0.2900 
 15 C       -1.6070    10.6890    -1.3840 C.3   1 <1>   0.0300 
 16 C        1.0470    12.0790    -0.6920 C.2   1 <1>   0.2980 
 17 O        0.5210    12.9750    -1.4860 O.3   1 <1>  -0.0190 
 18 N        1.7430    12.5460     0.2630 N.2   1 <1>  -0.5650 
 19 N        0.8970    14.1090    -0.9890 N.2   1 <1>  -0.4100 
 20 C        1.6220    13.8690     0.0550 C.2   1 <1>   0.4300 
 21 C        2.2310    14.9040     0.8980 C.2   1 <1>   0.7160 
 22 O        2.9480    14.6400     1.8490 O.2   1 <1>  -0.5700 
 23 N        2.0030    16.2340     0.6230 N.am  1 <1>  -0.7300 
 24 C        2.5340    17.3990     1.3770 C.3   1 <1>   0.0600 
 25 H       -0.3080     3.2940    -1.6760 H     1 <1>   0.1500 
 26 H       -2.0880     1.1730     1.5840 H     1 <1>   0.1500 
 27 H       -2.7620     3.3300     2.6410 H     1 <1>   0.1500 
 28 H       -2.5830     6.1790     2.1610 H     1 <1>   0.2700 
 29 H       -1.3820     8.4060     1.2780 H     1 <1>   0.0800 
 30 H       -2.5750     8.3380     0.0020 H     1 <1>   0.0800 
 31 H       -0.7600     8.2890    -1.6830 H     1 <1>   0.0800 
 32 H        0.4080     8.2080    -0.3940 H     1 <1>   0.0800 
 33 H        0.9740    10.4250    -2.0440 H     1 <1>   0.0800 
 34 H        1.5710    10.0520    -0.4550 H     1 <1>   0.0800 
 35 H       -2.5570    10.2710    -1.1020 H     1 <1>   0.0800 
 36 H       -1.4520    10.5170    -2.4360 H     1 <1>   0.0800 
 37 H       -1.6550    11.7480    -1.2020 H     1 <1>   0.0800 
 38 H        1.4020    16.4410    -0.1800 H     1 <1>   0.3700 
 39 H        3.1480    17.0690     2.1980 H     1 <1>   0.0800 
 40 H        1.7180    17.9810     1.7680 H     1 <1>   0.0800 
 41 H        3.1290    18.0140     0.7250 H     1 <1>   0.0800 
@<TRIPOS>BOND
  1   1   2  1   
  2   2   3  ar  
  3   2   4  ar  
  4   3   5  ar  
  5   3  25  1   
  6   4   6  ar  
  7   4  26  1   
  8   5   7  1   
  9   5   8  ar  
 10   6   8  ar  
 11   6  27  1   
 12   7   9  2   
 13   8  10  1   
 14   9  10  1   
 15   9  11  1   
 16  10  28  1   
 17  11  12  1   
 18  11  29  1   
 19  11  30  1   
 20  12  13  1   
 21  12  31  1   
 22  12  32  1   
 23  13  14  1   
 24  13  15  1   
 25  14  16  1   
 26  14  33  1   
 27  14  34  1   
 28  15  35  1   
 29  15  36  1   
 30  15  37  1   
 31  16  17  1   
 32  16  18  2   
 33  17  19  1   
 34  18  20  1   
 35  19  20  2   
 36  20  21  1   
 37  21  22  2   
 38  21  23  am  
 39  23  24  1   
 40  23  38  1   
 41  24  39  1   
 42  24  40  1   
 43  24  41  1   
@<TRIPOS>SUBSTRUCTURE
  1 ****  12 GROUP 4 **** **** 0

# MOE 2024.06 (io_trps.svl 2023.06)
