@<TRIPOS>MOLECULE
F1913-1126
30 31 1 0 0 
SMALL
USER_CHARGES


@<TRIPOS>ATOM
  1 O        0.0160    -0.1670    -0.0550 O.3   1 <1>  -0.5600 
  2 C        1.1290    -0.6510    -0.7390 C.3   1 <1>   0.2640 
  3 C       -1.1720    -0.8110    -0.3730 C.3   1 <1>   0.2150 
  4 C        2.3720     0.1090    -0.2980 C.ar  1 <1>  -0.1440 
  5 C       -2.2950    -0.1320     0.4090 C.3   1 <1>  -0.1950 
  6 C        2.3450     1.4890    -0.1590 C.ar  1 <1>  -0.1500 
  7 C        3.5530    -0.5720    -0.0420 C.ar  1 <1>  -0.1500 
  8 C       -3.7010    -0.1250    -0.1020 C.3   1 <1>  -0.1950 
  9 C       -2.9050     1.1490    -0.0810 C.3   1 <1>  -0.2000 
 10 C        3.4810     2.1790     0.2280 C.ar  1 <1>  -0.1500 
 11 C        4.6910     0.1160     0.3450 C.ar  1 <1>  -0.1500 
 12 C       -4.8790    -0.3310     0.8480 C.3   1 <1>   0.2150 
 13 C        4.6550     1.4930     0.4800 C.ar  1 <1>  -0.1500 
 14 O       -5.9540     0.3520     0.3220 O.3   1 <1>  -0.6800 
 15 H        1.2330    -1.7000    -0.5210 H     1 <1>   0.0800 
 16 H        0.9730    -0.5110    -1.7940 H     1 <1>   0.0800 
 17 H       -1.3410    -0.7240    -1.4330 H     1 <1>   0.0800 
 18 H       -1.0930    -1.8490    -0.0950 H     1 <1>   0.0800 
 19 H       -2.1540    -0.2330     1.4710 H     1 <1>   0.1000 
 20 H        1.4320     2.0260    -0.3480 H     1 <1>   0.1500 
 21 H        3.5960    -1.6420    -0.1410 H     1 <1>   0.1500 
 22 H       -3.8740    -0.5900    -1.0580 H     1 <1>   0.1000 
 23 H       -3.1210     1.9100     0.6490 H     1 <1>   0.1000 
 24 H       -2.5540     1.5630    -1.0110 H     1 <1>   0.1000 
 25 H        3.4480     3.2490     0.3340 H     1 <1>   0.1500 
 26 H        5.6030    -0.4190     0.5430 H     1 <1>   0.1500 
 27 H       -4.6680     0.0720     1.8240 H     1 <1>   0.0800 
 28 H       -5.1410    -1.3710     0.9330 H     1 <1>   0.0800 
 29 H        5.5380     2.0290     0.7810 H     1 <1>   0.1500 
 30 H       -5.6620     1.2440     0.0530 H     1 <1>   0.4000 
@<TRIPOS>BOND
  1   1   2  1   
  2   1   3  1   
  3   2   4  1   
  4   2  15  1   
  5   2  16  1   
  6   3   5  1   
  7   3  17  1   
  8   3  18  1   
  9   4   6  ar  
 10   4   7  ar  
 11   5   8  1   
 12   5   9  1   
 13   5  19  1   
 14   6  10  ar  
 15   6  20  1   
 16   7  11  ar  
 17   7  21  1   
 18   8   9  1   
 19   8  12  1   
 20   8  22  1   
 21   9  23  1   
 22   9  24  1   
 23  10  13  ar  
 24  10  25  1   
 25  11  13  ar  
 26  11  26  1   
 27  12  14  1   
 28  12  27  1   
 29  12  28  1   
 30  13  29  1   
 31  14  30  1   
@<TRIPOS>SUBSTRUCTURE
  1 ****   1 GROUP 4 **** **** 0

# MOE 2024.06 (io_trps.svl 2023.06)
