@<TRIPOS>MOLECULE
NONAME
53 55 1 0 0 
SMALL
USER_CHARGES


@<TRIPOS>ATOM
  1 S       -0.4270    -1.2270    -0.8040 S.3   1 <1>  -0.0800 
  2 C       -0.6920    -1.8170     0.8040 C.2   1 <1>   0.4420 
  3 C        0.7960    -0.1960    -0.1470 C.2   1 <1>   0.1980 
  4 N        0.0820    -1.2550     1.6600 N.2   1 <1>  -0.3380 
  5 N       -1.6660    -2.7780     0.9520 N.am  1 <1>  -0.4940 
  6 N        0.9280    -0.3320     1.1100 N.2   1 <1>  -0.3380 
  7 C        1.5400     0.7130    -1.1050 C.3   1 <1>   0.0200 
  8 C       -2.0910    -3.4570     2.0570 C.2   1 <1>   0.5690 
  9 C        2.5890     1.5500    -0.3760 C.3   1 <1>   0.1200 
 10 O       -1.5940    -3.3120     3.1460 O.2   1 <1>  -0.5700 
 11 C       -3.2460    -4.4760     1.8920 C.3   1 <1>   0.2510 
 12 O        3.2390     2.3670    -1.3240 O.3   1 <1>  -0.3620 
 13 N       -3.7250    -4.7420     0.4960 N.3   1 <1>  -0.8100 
 14 C       -4.4490    -4.1130     2.7710 C.3   1 <1>  -0.2400 
 15 C        4.2310     3.2240    -0.9620 C.ar  1 <1>   0.0830 
 16 C       -4.4620    -3.6550    -0.2050 C.3   1 <1>   0.1100 
 17 C       -2.7430    -5.4630    -0.3520 C.3   1 <1>   0.1100 
 18 C        4.8200     3.9880    -1.9660 C.ar  1 <1>  -0.1430 
 19 C        4.6690     3.3610     0.3540 C.ar  1 <1>  -0.1500 
 20 C       -4.8910    -4.0710    -1.6220 C.3   1 <1>   0.1200 
 21 C       -3.2970    -5.7560    -1.7550 C.3   1 <1>   0.1200 
 22 C        5.8350     4.8730    -1.6430 C.ar  1 <1>  -0.1500 
 23 C        4.3610     3.8590    -3.4110 C.3   1 <1>  -0.0970 
 24 C        5.6830     4.2490     0.6710 C.ar  1 <1>  -0.1430 
 25 O       -3.8000    -4.5840    -2.3270 O.3   1 <1>  -0.5600 
 26 C        6.2650     5.0030    -0.3340 C.ar  1 <1>  -0.1500 
 27 C        6.1550     4.3900     2.1070 C.3   1 <1>  -0.0970 
 28 H       -2.1510    -3.0610     0.1020 H     1 <1>   0.3700 
 29 H        0.8340     1.3670    -1.5830 H     1 <1>   0.0800 
 30 H        2.0240     0.1100    -1.8520 H     1 <1>   0.0800 
 31 H        3.3230     0.9160     0.0900 H     1 <1>   0.0800 
 32 H        2.1230     2.1840     0.3590 H     1 <1>   0.0800 
 33 H       -2.8660    -5.4080     2.2730 H     1 <1>   0.0800 
 34 H       -4.8060    -3.1250     2.5480 H     1 <1>   0.0800 
 35 H       -4.1520    -4.1280     3.8050 H     1 <1>   0.0800 
 36 H       -5.2400    -4.8290     2.6360 H     1 <1>   0.0800 
 37 H       -3.8680    -2.7650    -0.2830 H     1 <1>   0.0800 
 38 H       -5.3500    -3.4060     0.3490 H     1 <1>   0.0800 
 39 H       -2.4870    -6.3960     0.1200 H     1 <1>   0.0800 
 40 H       -1.8380    -4.8950    -0.4630 H     1 <1>   0.0800 
 41 H        4.2330     2.7840     1.1460 H     1 <1>   0.1500 
 42 H       -5.2640    -3.2210    -2.1640 H     1 <1>   0.0800 
 43 H       -5.6630    -4.8200    -1.5810 H     1 <1>   0.0800 
 44 H       -4.0850    -6.4880    -1.7080 H     1 <1>   0.0800 
 45 H       -2.5170    -6.1280    -2.3950 H     1 <1>   0.0800 
 46 H        6.2990     5.4680    -2.4090 H     1 <1>   0.1500 
 47 H        3.3170     4.1060    -3.4830 H     1 <1>   0.0800 
 48 H        4.5020     2.8480    -3.7470 H     1 <1>   0.0800 
 49 H        4.9160     4.5160    -4.0550 H     1 <1>   0.0800 
 50 H        7.0560     5.6950    -0.1040 H     1 <1>   0.1500 
 51 H        5.3270     4.2850     2.7850 H     1 <1>   0.0800 
 52 H        6.6010     5.3560     2.2650 H     1 <1>   0.0800 
 53 H        6.8840     3.6310     2.3260 H     1 <1>   0.0800 
@<TRIPOS>BOND
  1   1   2  1   
  2   1   3  1   
  3   2   4  2   
  4   2   5  1   
  5   3   6  2   
  6   3   7  1   
  7   4   6  1   
  8   5   8  am  
  9   5  28  1   
 10   7   9  1   
 11   7  29  1   
 12   7  30  1   
 13   8  10  2   
 14   8  11  1   
 15   9  12  1   
 16   9  31  1   
 17   9  32  1   
 18  11  13  1   
 19  11  14  1   
 20  11  33  1   
 21  12  15  1   
 22  13  16  1   
 23  13  17  1   
 24  14  34  1   
 25  14  35  1   
 26  14  36  1   
 27  15  18  ar  
 28  15  19  ar  
 29  16  20  1   
 30  16  37  1   
 31  16  38  1   
 32  17  21  1   
 33  17  39  1   
 34  17  40  1   
 35  18  22  ar  
 36  18  23  1   
 37  19  24  ar  
 38  19  41  1   
 39  20  25  1   
 40  20  42  1   
 41  20  43  1   
 42  21  25  1   
 43  21  44  1   
 44  21  45  1   
 45  22  26  ar  
 46  22  46  1   
 47  23  47  1   
 48  23  48  1   
 49  23  49  1   
 50  24  26  ar  
 51  24  27  1   
 52  26  50  1   
 53  27  51  1   
 54  27  52  1   
 55  27  53  1   
@<TRIPOS>SUBSTRUCTURE
  1 ****   3 GROUP 4 **** **** 0

# MOE 2024.06 (io_trps.svl 2023.06)
