@<TRIPOS>MOLECULE
NONAME
54 57 1 0 0 
SMALL
USER_CHARGES


@<TRIPOS>ATOM
  1 O       -1.3520     0.4840     1.8020 O.2   1 <1>  -0.5700 
  2 C       -2.2090     1.3280     1.6080 C.2   1 <1>   0.5440 
  3 N       -3.5200     0.9100     1.5470 N.am  1 <1>  -0.6600 
  4 C       -1.8350     2.7200     1.4210 C.ar  1 <1>   0.0860 
  5 C       -3.8980    -0.4410     2.0520 C.3   1 <1>   0.1400 
  6 C       -4.4650     1.4320     0.5200 C.3   1 <1>   0.1400 
  7 C       -0.6740     3.0630     0.7320 C.ar  1 <1>  -0.1500 
  8 C       -2.6130     3.7610     1.9280 C.ar  1 <1>  -0.1500 
  9 C       -3.8500    -1.4360     0.8700 C.3   1 <1>   0.4230 
 10 C       -4.4950     0.4510    -0.6620 C.3   1 <1>  -0.1600 
 11 C       -0.2850     4.3820     0.5320 C.ar  1 <1>   0.0000 
 12 C       -2.2500     5.0810     1.7430 C.ar  1 <1>  -0.1500 
 13 N       -4.0830    -2.8700     1.2520 N.4   1 <1>  -0.9590 
 14 C       -4.8540    -0.9980    -0.2210 C.3   1 <1>  -0.1060 
 15 C        0.9280     4.6990    -0.1890 C.ar  1 <1>   0.0000 
 16 C       -1.0940     5.3880     1.0500 C.ar  1 <1>  -0.1500 
 17 C       -3.9040    -3.7870     0.0990 C.3   1 <1>   0.3430 
 18 C       -3.3450    -3.3260     2.4600 C.3   1 <1>   0.2630 
 19 C       -6.2760    -1.0510     0.3720 C.2   1 <1>   0.9060 
 20 C       -4.7320    -1.9360    -1.4450 C.3   1 <1>  -0.1600 
 21 C        0.9090     5.5510    -1.2900 C.ar  1 <1>  -0.1500 
 22 C        2.1520     4.1590     0.1970 C.ar  1 <1>  -0.1500 
 23 C       -4.8590    -3.4130    -1.0370 C.3   1 <1>  -0.1600 
 24 O       -6.5380    -1.9110     1.2280 O.co2 1 <1>  -0.9000 
 25 O       -7.1190    -0.2360     0.0000 O.co2 1 <1>  -0.9000 
 26 C        2.0690     5.8550    -1.9800 C.ar  1 <1>  -0.1500 
 27 C        3.3150     4.4570    -0.4900 C.ar  1 <1>  -0.1500 
 28 C        3.2760     5.3070    -1.5810 C.ar  1 <1>  -0.1500 
 29 H       -3.2040    -0.7300     2.8200 H     1 <1>   0.0800 
 30 H       -4.8820    -0.3970     2.4840 H     1 <1>   0.0800 
 31 H       -5.4500     1.5290     0.9510 H     1 <1>   0.0800 
 32 H       -4.1590     2.4030     0.1720 H     1 <1>   0.0800 
 33 H       -0.0570     2.2740     0.3390 H     1 <1>   0.1500 
 34 H       -3.5100     3.5270     2.4750 H     1 <1>   0.1500 
 35 H       -2.8580    -1.3650     0.4560 H     1 <1>   0.0800 
 36 H       -5.2200     0.8000    -1.3780 H     1 <1>   0.0800 
 37 H       -3.5340     0.4700    -1.1450 H     1 <1>   0.0800 
 38 H       -2.8640     5.8700     2.1410 H     1 <1>   0.1500 
 39 H       -5.1200    -2.8510     1.4580 H     1 <1>   0.4500 
 40 H       -0.8090     6.4170     0.9120 H     1 <1>   0.1500 
 41 H       -2.8870    -3.7280    -0.2520 H     1 <1>   0.0800 
 42 H       -4.1030    -4.8010     0.4060 H     1 <1>   0.0800 
 43 H       -2.2830    -3.2270     2.3070 H     1 <1>   0.0800 
 44 H       -3.5770    -4.3570     2.6670 H     1 <1>   0.0800 
 45 H       -3.6320    -2.7370     3.3150 H     1 <1>   0.0800 
 46 H       -5.5040    -1.6940    -2.1570 H     1 <1>   0.0800 
 47 H       -3.7810    -1.7870    -1.9260 H     1 <1>   0.0800 
 48 H       -0.0250     5.9770    -1.6090 H     1 <1>   0.1500 
 49 H        2.1910     3.5000     1.0470 H     1 <1>   0.1500 
 50 H       -4.6570    -4.0370    -1.8890 H     1 <1>   0.0800 
 51 H       -5.8700    -3.6190    -0.7260 H     1 <1>   0.0800 
 52 H        2.0340     6.5150    -2.8290 H     1 <1>   0.1500 
 53 H        4.2500     4.0290    -0.1750 H     1 <1>   0.1500 
 54 H        4.1790     5.5410    -2.1160 H     1 <1>   0.1500 
@<TRIPOS>BOND
  1   1   2  2   
  2   2   3  am  
  3   2   4  1   
  4   3   5  1   
  5   3   6  1   
  6   4   7  ar  
  7   4   8  ar  
  8   5   9  1   
  9   5  29  1   
 10   5  30  1   
 11   6  10  1   
 12   6  31  1   
 13   6  32  1   
 14   7  11  ar  
 15   7  33  1   
 16   8  12  ar  
 17   8  34  1   
 18   9  13  1   
 19   9  14  1   
 20   9  35  1   
 21  10  14  1   
 22  10  36  1   
 23  10  37  1   
 24  11  15  1   
 25  11  16  ar  
 26  12  16  ar  
 27  12  38  1   
 28  13  17  1   
 29  13  18  1   
 30  13  39  1   
 31  14  19  1   
 32  14  20  1   
 33  15  21  ar  
 34  15  22  ar  
 35  16  40  1   
 36  17  23  1   
 37  17  41  1   
 38  17  42  1   
 39  18  43  1   
 40  18  44  1   
 41  18  45  1   
 42  19  24  ar  
 43  19  25  ar  
 44  20  23  1   
 45  20  46  1   
 46  20  47  1   
 47  21  26  ar  
 48  21  48  1   
 49  22  27  ar  
 50  22  49  1   
 51  23  50  1   
 52  23  51  1   
 53  26  28  ar  
 54  26  52  1   
 55  27  28  ar  
 56  27  53  1   
 57  28  54  1   
@<TRIPOS>SUBSTRUCTURE
  1 ****   2 GROUP 4 **** **** 0

# MOE 2024.06 (io_trps.svl 2023.06)
