@<TRIPOS>MOLECULE
STOCK7S-74076
47 50 1 0 0 
SMALL
USER_CHARGES


@<TRIPOS>ATOM
  1 S        0.9440    -1.7210     0.9390 S.o2  1 <1>   1.0900 
  2 O        1.2210    -0.3490     0.5900 O.2   1 <1>  -0.6500 
  3 O        2.0010    -2.6890     1.1280 O.2   1 <1>  -0.6500 
  4 C       -0.2490    -2.4140    -0.1830 C.3   1 <1>  -0.0550 
  5 C       -0.1240    -1.7520     2.3660 C.3   1 <1>  -0.0550 
  6 C       -1.5550    -2.6240     0.5880 C.3   1 <1>   0.2200 
  7 C       -1.2250    -2.7740     2.0760 C.3   1 <1>  -0.1600 
  8 N       -2.2440    -3.8360     0.1180 N.am  1 <1>  -0.7300 
  9 C       -2.6560    -4.0500    -1.1600 C.2   1 <1>   0.5690 
 10 O       -2.6290    -3.1710    -1.9850 O.2   1 <1>  -0.5700 
 11 C       -3.1430    -5.4310    -1.5690 C.3   1 <1>   0.0820 
 12 C       -2.5500    -6.5510    -0.7170 C.2   1 <1>  -0.1810 
 13 C       -3.1810    -7.5230     0.0090 C.2   1 <1>   0.0870 
 14 C       -1.1900    -6.7520    -0.4990 C.2   1 <1>   0.0620 
 15 O       -2.2740    -8.2550     0.6500 O.3   1 <1>  -0.2800 
 16 C       -4.5790    -7.8370     0.1730 C.ar  1 <1>   0.0530 
 17 O       -0.1240    -6.0690    -0.9690 O.3   1 <1>  -0.1390 
 18 C       -1.0610    -7.8020     0.3480 C.2   1 <1>   0.0550 
 19 C       -5.0970    -8.1390     1.4310 C.ar  1 <1>  -0.1500 
 20 C       -5.4570    -7.8550    -0.9090 C.ar  1 <1>  -0.1500 
 21 C        1.1060    -6.4430    -0.5810 C.2   1 <1>  -0.0620 
 22 C        0.2150    -8.2490     0.7920 C.2   1 <1>   0.6410 
 23 C       -6.4380    -8.4250     1.6070 C.ar  1 <1>  -0.1500 
 24 C       -6.8000    -8.1390    -0.7400 C.ar  1 <1>  -0.1500 
 25 C        1.3020    -7.4890     0.2640 C.2   1 <1>  -0.1360 
 26 C        2.2210    -5.6000    -1.1710 C.3   1 <1>  -0.1020 
 27 O        0.3980    -9.1810     1.5610 O.2   1 <1>  -0.5700 
 28 C       -7.2940    -8.4220     0.5200 C.ar  1 <1>  -0.1500 
 29 H        0.1130    -3.3550    -0.5470 H     1 <1>   0.0800 
 30 H       -0.4170    -1.7610    -1.0180 H     1 <1>   0.0800 
 31 H       -0.5710    -0.7830     2.4930 H     1 <1>   0.0800 
 32 H        0.4200    -2.0000     3.2580 H     1 <1>   0.0800 
 33 H       -2.1930    -1.7660     0.4420 H     1 <1>   0.0800 
 34 H       -2.0900    -2.6000     2.6920 H     1 <1>   0.0800 
 35 H       -0.8350    -3.7600     2.2680 H     1 <1>   0.0800 
 36 H       -2.2650    -4.6250     0.7680 H     1 <1>   0.3700 
 37 H       -2.8770    -5.5950    -2.5970 H     1 <1>   0.0800 
 38 H       -4.2140    -5.4330    -1.4990 H     1 <1>   0.0800 
 39 H       -4.4350    -8.1500     2.2800 H     1 <1>   0.1500 
 40 H       -5.0830    -7.6550    -1.8970 H     1 <1>   0.1500 
 41 H       -6.8160    -8.6520     2.5890 H     1 <1>   0.1500 
 42 H       -7.4620    -8.1460    -1.5890 H     1 <1>   0.1500 
 43 H        2.2800    -7.7990     0.5820 H     1 <1>   0.1500 
 44 H        2.1740    -5.6260    -2.2450 H     1 <1>   0.0800 
 45 H        3.1820    -5.9680    -0.8600 H     1 <1>   0.0800 
 46 H        2.1290    -4.5810    -0.8440 H     1 <1>   0.0800 
 47 H       -8.3390    -8.6440     0.6550 H     1 <1>   0.1500 
@<TRIPOS>BOND
  1   1   2  2   
  2   1   3  2   
  3   1   4  1   
  4   1   5  1   
  5   4   6  1   
  6   4  29  1   
  7   4  30  1   
  8   5   7  1   
  9   5  31  1   
 10   5  32  1   
 11   6   7  1   
 12   6   8  1   
 13   6  33  1   
 14   7  34  1   
 15   7  35  1   
 16   8   9  am  
 17   8  36  1   
 18   9  10  2   
 19   9  11  1   
 20  11  12  1   
 21  11  37  1   
 22  11  38  1   
 23  12  13  2   
 24  12  14  1   
 25  13  15  1   
 26  13  16  1   
 27  14  17  1   
 28  14  18  2   
 29  15  18  1   
 30  16  19  ar  
 31  16  20  ar  
 32  17  21  1   
 33  18  22  1   
 34  19  23  ar  
 35  19  39  1   
 36  20  24  ar  
 37  20  40  1   
 38  21  25  2   
 39  21  26  1   
 40  22  25  1   
 41  22  27  2   
 42  23  28  ar  
 43  23  41  1   
 44  24  28  ar  
 45  24  42  1   
 46  25  43  1   
 47  26  44  1   
 48  26  45  1   
 49  26  46  1   
 50  28  47  1   
@<TRIPOS>SUBSTRUCTURE
  1 ****  14 GROUP 4 **** **** 0

# MOE 2024.06 (io_trps.svl 2023.06)
