@<TRIPOS>MOLECULE
NONAME
49 51 1 0 0 
SMALL
USER_CHARGES


@<TRIPOS>ATOM
  1 O        0.5460     0.0790    -0.5440 O.2   1 <1>  -0.5700 
  2 C        1.7540     0.0350    -0.4620 C.2   1 <1>   0.7150 
  3 N        2.2700    -1.2110    -0.3070 N.am  1 <1>  -0.7300 
  4 C        2.5180     1.2470    -0.5350 C.2   1 <1>  -0.2370 
  5 C        3.5860    -1.7310     0.1580 C.3   1 <1>   0.1400 
  6 N        3.8520     1.3520    -0.7380 N.pl3 1 <1>   0.3140 
  7 C        2.0750     2.5280    -0.4450 C.2   1 <1>  -0.1500 
  8 C        4.7050    -0.6880     0.3030 C.3   1 <1>   0.2000 
  9 N        4.2690     2.6210    -0.7720 N.2   1 <1>  -0.7070 
 10 C        4.8190     0.2570    -0.8900 C.3   1 <1>   0.0960 
 11 C        3.1830     3.3560    -0.5920 C.2   1 <1>   0.2030 
 12 O        5.9090    -1.3680     0.4450 O.3   1 <1>  -0.6800 
 13 C        3.1460     4.8110    -0.5510 C.2   1 <1>   0.7160 
 14 O        2.1110     5.4260    -0.3590 O.2   1 <1>  -0.5700 
 15 N        4.3070     5.5110    -0.7210 N.am  1 <1>  -0.7300 
 16 C        4.4700     6.9820    -0.7050 C.3   1 <1>   0.1400 
 17 C        5.0540     7.4260     0.6350 C.3   1 <1>  -0.0170 
 18 C        5.2640     8.9360     0.6490 C.ar  1 <1>  -0.1430 
 19 C        6.3720     9.5170     0.0340 C.ar  1 <1>   0.0820 
 20 C        4.3320     9.7430     1.2820 C.ar  1 <1>  -0.1500 
 21 O        7.2540     8.6850    -0.5850 O.3   1 <1>  -0.3620 
 22 C        6.5360    10.9000     0.0660 C.ar  1 <1>  -0.1500 
 23 C        4.4980    11.1150     1.3100 C.ar  1 <1>  -0.1500 
 24 C        8.4250     9.1660    -1.2060 C.3   1 <1>   0.0400 
 25 C        5.5970    11.7010     0.7060 C.ar  1 <1>   0.0820 
 26 O        5.6820    13.0540     0.7840 O.3   1 <1>  -0.3620 
 27 C        6.7600    13.7590     0.2130 C.3   1 <1>   0.0400 
 28 H        1.5290    -1.9170    -0.3190 H     1 <1>   0.3700 
 29 H        3.9020    -2.4810    -0.5460 H     1 <1>   0.0800 
 30 H        3.4440    -2.2100     1.1120 H     1 <1>   0.0800 
 31 H        1.0640     2.8650    -0.2910 H     1 <1>   0.1500 
 32 H        4.5670    -0.1210     1.2100 H     1 <1>   0.0800 
 33 H        5.8020     0.6900    -0.9200 H     1 <1>   0.0800 
 34 H        4.6220    -0.2540    -1.8140 H     1 <1>   0.0800 
 35 H        6.1390    -1.8760    -0.3580 H     1 <1>   0.4000 
 36 H        5.1490     4.9430    -0.8520 H     1 <1>   0.3700 
 37 H        3.5160     7.4590    -0.8580 H     1 <1>   0.0800 
 38 H        5.1250     7.2760    -1.5070 H     1 <1>   0.0800 
 39 H        5.9930     6.9300     0.8050 H     1 <1>   0.0800 
 40 H        4.3800     7.1420     1.4240 H     1 <1>   0.0800 
 41 H        3.4690     9.3070     1.7560 H     1 <1>   0.1500 
 42 H        7.3840    11.3500    -0.4040 H     1 <1>   0.1500 
 43 H        3.7760    11.7410     1.8020 H     1 <1>   0.1500 
 44 H        8.9620     8.3240    -1.6040 H     1 <1>   0.0800 
 45 H        9.0280     9.6690    -0.4700 H     1 <1>   0.0800 
 46 H        8.1490     9.8340    -2.0030 H     1 <1>   0.0800 
 47 H        6.6120    14.8070     0.4050 H     1 <1>   0.0800 
 48 H        6.7720    13.5800    -0.8470 H     1 <1>   0.0800 
 49 H        7.6750    13.4290     0.6720 H     1 <1>   0.0800 
@<TRIPOS>BOND
  1   1   2  2   
  2   2   3  am  
  3   2   4  1   
  4   3   5  1   
  5   3  28  1   
  6   4   6  1   
  7   4   7  2   
  8   5   8  1   
  9   5  29  1   
 10   5  30  1   
 11   6   9  1   
 12   6  10  1   
 13   7  11  1   
 14   7  31  1   
 15   8  10  1   
 16   8  12  1   
 17   8  32  1   
 18   9  11  2   
 19  10  33  1   
 20  10  34  1   
 21  11  13  1   
 22  12  35  1   
 23  13  14  2   
 24  13  15  am  
 25  15  16  1   
 26  15  36  1   
 27  16  17  1   
 28  16  37  1   
 29  16  38  1   
 30  17  18  1   
 31  17  39  1   
 32  17  40  1   
 33  18  19  ar  
 34  18  20  ar  
 35  19  21  1   
 36  19  22  ar  
 37  20  23  ar  
 38  20  41  1   
 39  21  24  1   
 40  22  25  ar  
 41  22  42  1   
 42  23  25  ar  
 43  23  43  1   
 44  24  44  1   
 45  24  45  1   
 46  24  46  1   
 47  25  26  1   
 48  26  27  1   
 49  27  47  1   
 50  27  48  1   
 51  27  49  1   
@<TRIPOS>SUBSTRUCTURE
  1 ****  15 GROUP 4 **** **** 0

# MOE 2024.06 (io_trps.svl 2023.06)
