@<TRIPOS>MOLECULE
NONAME
57 61 1 0 0 
SMALL
USER_CHARGES


@<TRIPOS>ATOM
  1 O        0.7870    -0.4390    -1.2490 O.3   1 <1>  -0.5640 
  2 C        1.8110    -0.9970    -0.4640 C.3   1 <1>   0.4190 
  3 C       -0.5290    -0.7610    -0.9120 C.3   1 <1>   0.1140 
  4 C        1.4960    -2.4380    -0.0160 C.ar  1 <1>  -0.1500 
  5 C        2.0350    -0.0640     0.7350 C.3   1 <1>  -0.1660 
  6 C        3.0550    -0.9790    -1.3620 C.3   1 <1>  -0.1660 
  7 C       -0.7460    -2.2550    -1.1260 C.3   1 <1>  -0.0230 
  8 C        0.2830    -3.0380    -0.3360 C.ar  1 <1>  -0.1500 
  9 C        2.4220    -3.1680     0.7240 C.ar  1 <1>  -0.1560 
 10 C        2.4100     1.3550     0.2970 C.3   1 <1>   0.1620 
 11 C        3.4040     0.4440    -1.8010 C.3   1 <1>   0.1620 
 12 C        0.0070    -4.3360     0.0620 C.ar  1 <1>  -0.1560 
 13 C        2.1460    -4.4620     1.1250 C.ar  1 <1>  -0.1560 
 14 N        3.6010     1.3170    -0.6050 N.pl3 1 <1>  -0.5950 
 15 C        0.9420    -5.0580     0.7970 C.ar  1 <1>   0.0760 
 16 C        4.7780     1.9020    -0.3190 C.cat 1 <1>   1.0690 
 17 O        0.7510    -6.3310     1.2250 O.3   1 <1>  -0.3670 
 18 N        5.9440     1.3480    -0.6370 N.pl3 1 <1>  -0.7030 
 19 N        4.9930     3.0710     0.3140 N.pl3 1 <1>  -0.7670 
 20 C       -0.4350    -7.0310     0.9280 C.3   1 <1>   0.0330 
 21 C        6.9660     2.1360    -0.1550 C.ar  1 <1>   0.3040 
 22 C        6.3700     3.2230     0.4560 C.ar  1 <1>   0.3040 
 23 C        4.0350     4.1840     0.5780 C.3   1 <1>   0.3490 
 24 C        8.3480     1.9970    -0.1920 C.ar  1 <1>  -0.1150 
 25 C        7.1500     4.2050     1.0580 C.ar  1 <1>  -0.1150 
 26 C        4.2090     5.3190    -0.4420 C.3   1 <1>   0.1140 
 27 C        9.1220     2.9750     0.4020 C.ar  1 <1>  -0.1560 
 28 C        8.5250     4.0730     1.0250 C.ar  1 <1>  -0.1560 
 29 O        3.2750     6.3020    -0.1640 O.3   1 <1>  -0.6830 
 30 H       -1.1820    -0.1920    -1.5500 H     1 <1>   0.0730 
 31 H       -0.7090    -0.4880     0.1130 H     1 <1>   0.0730 
 32 H        2.8230    -0.4530     1.3530 H     1 <1>   0.0730 
 33 H        1.1490    -0.0390     1.3420 H     1 <1>   0.0730 
 34 H        2.8620    -1.5900    -2.2270 H     1 <1>   0.0730 
 35 H        3.8930    -1.4080    -0.8480 H     1 <1>   0.0730 
 36 H       -0.6550    -2.4870    -2.1730 H     1 <1>   0.0730 
 37 H       -1.7380    -2.5170    -0.8070 H     1 <1>   0.0730 
 38 H        3.3680    -2.7420     0.9990 H     1 <1>   0.1440 
 39 H        2.6180     1.9260     1.1840 H     1 <1>   0.0730 
 40 H        1.5810     1.8110    -0.2220 H     1 <1>   0.0730 
 41 H        2.5990     0.8450    -2.3970 H     1 <1>   0.0730 
 42 H        4.2840     0.4300    -2.4210 H     1 <1>   0.0730 
 43 H       -0.9360    -4.7720    -0.2050 H     1 <1>   0.1440 
 44 H        2.8640    -5.0220     1.6950 H     1 <1>   0.1440 
 45 H        6.0440     0.4400    -1.0790 H     1 <1>   0.4460 
 46 H       -0.3590    -8.0140     1.3580 H     1 <1>   0.0730 
 47 H       -0.5370    -7.1060    -0.1400 H     1 <1>   0.0730 
 48 H       -1.2680    -6.5060     1.3600 H     1 <1>   0.0730 
 49 H        4.2010     4.5660     1.5710 H     1 <1>   0.0730 
 50 H        3.0200     3.8440     0.5120 H     1 <1>   0.0730 
 51 H        8.8000     1.1470    -0.6720 H     1 <1>   0.1440 
 52 H        6.6920     5.0490     1.5430 H     1 <1>   0.1440 
 53 H        4.0310     4.9640    -1.4420 H     1 <1>   0.0730 
 54 H        5.1880     5.7610    -0.3710 H     1 <1>   0.0730 
 55 H       10.1980     2.8960     0.3900 H     1 <1>   0.1440 
 56 H        9.1520     4.8210     1.4850 H     1 <1>   0.1440 
 57 H        3.3490     7.0570    -0.7860 H     1 <1>   0.3950 
@<TRIPOS>BOND
  1   1   2  1   
  2   1   3  1   
  3   2   4  1   
  4   2   5  1   
  5   2   6  1   
  6   3   7  1   
  7   3  30  1   
  8   3  31  1   
  9   4   8  ar  
 10   4   9  ar  
 11   5  10  1   
 12   5  32  1   
 13   5  33  1   
 14   6  11  1   
 15   6  34  1   
 16   6  35  1   
 17   7   8  1   
 18   7  36  1   
 19   7  37  1   
 20   8  12  ar  
 21   9  13  ar  
 22   9  38  1   
 23  10  14  1   
 24  10  39  1   
 25  10  40  1   
 26  11  14  1   
 27  11  41  1   
 28  11  42  1   
 29  12  15  ar  
 30  12  43  1   
 31  13  15  ar  
 32  13  44  1   
 33  14  16  ar  
 34  15  17  1   
 35  16  18  ar  
 36  16  19  ar  
 37  17  20  1   
 38  18  21  1   
 39  18  45  1   
 40  19  22  1   
 41  19  23  1   
 42  20  46  1   
 43  20  47  1   
 44  20  48  1   
 45  21  22  ar  
 46  21  24  ar  
 47  22  25  ar  
 48  23  26  1   
 49  23  49  1   
 50  23  50  1   
 51  24  27  ar  
 52  24  51  1   
 53  25  28  ar  
 54  25  52  1   
 55  26  29  1   
 56  26  53  1   
 57  26  54  1   
 58  27  28  ar  
 59  27  55  1   
 60  28  56  1   
 61  29  57  1   
@<TRIPOS>SUBSTRUCTURE
  1 ****  14 GROUP 4 **** **** 0

# MOE 2024.06 (io_trps.svl 2023.06)
