@<TRIPOS>MOLECULE
NONAME
54 56 1 0 0 
SMALL
USER_CHARGES


@<TRIPOS>ATOM
  1 O        0.2940     0.9240     0.0090 O.2   1 <1>  -0.5700 
  2 C        0.1270     2.0600    -0.3680 C.2   1 <1>   0.5690 
  3 N       -0.2090     3.0750     0.4890 N.am  1 <1>  -0.6600 
  4 C        0.2860     2.3550    -1.8620 C.3   1 <1>   0.1810 
  5 C       -0.4360     4.4700    -0.0140 C.3   1 <1>   0.3640 
  6 C       -0.2770     2.8840     1.9680 C.3   1 <1>   0.0600 
  7 O        0.5780     3.7060    -2.1210 O.3   1 <1>  -0.5600 
  8 C       -1.7400     5.0720     0.5300 C.ar  1 <1>  -0.1430 
  9 C       -0.3590     4.6060    -1.5550 C.3   1 <1>   0.2610 
 10 C       -2.9910     4.4470     0.4810 C.ar  1 <1>  -0.1430 
 11 C       -1.6450     6.3370     1.1000 C.ar  1 <1>  -0.1500 
 12 C       -0.0700     6.0650    -1.9380 C.2   1 <1>   0.5690 
 13 C       -4.0970     5.0950     1.0110 C.ar  1 <1>  -0.1500 
 14 C       -3.2250     3.0660    -0.1230 C.3   1 <1>  -0.0960 
 15 C       -2.7550     6.9730     1.6220 C.ar  1 <1>  -0.1500 
 16 O       -0.9770     6.6660    -2.4680 O.2   1 <1>  -0.5700 
 17 N        1.1350     6.6930    -1.6820 N.am  1 <1>  -0.6600 
 18 C       -3.9850     6.3500     1.5790 C.ar  1 <1>  -0.1500 
 19 C        1.3320     8.1290    -2.0390 C.3   1 <1>   0.1400 
 20 C        2.3820     6.0210    -1.2100 C.3   1 <1>   0.1400 
 21 C        1.8750     8.8910    -0.8290 C.3   1 <1>  -0.1600 
 22 C        2.9390     6.7640     0.0070 C.3   1 <1>  -0.1600 
 23 C        3.1610     8.2420    -0.3180 C.3   1 <1>   0.2200 
 24 N        3.6050     8.9440     0.8970 N.am  1 <1>  -0.7300 
 25 C        4.8000     9.5670     1.0360 C.2   1 <1>   0.5690 
 26 O        5.6260     9.5920     0.1600 O.2   1 <1>  -0.5700 
 27 C        5.0940    10.2520     2.3440 C.3   1 <1>  -0.1790 
 28 H       -0.6170     2.0930    -2.3810 H     1 <1>   0.0800 
 29 H        1.0940     1.7660    -2.2550 H     1 <1>   0.0800 
 30 H        0.3700     5.0540     0.3880 H     1 <1>   0.0800 
 31 H        0.3950     3.5670     2.4560 H     1 <1>   0.0800 
 32 H       -0.0010     1.8790     2.2360 H     1 <1>   0.0800 
 33 H       -1.2790     3.0670     2.3170 H     1 <1>   0.0800 
 34 H       -1.3170     4.3630    -1.9750 H     1 <1>   0.0800 
 35 H       -0.7000     6.8490     1.1400 H     1 <1>   0.1500 
 36 H       -5.0650     4.6260     0.9850 H     1 <1>   0.1500 
 37 H       -4.2730     2.8940    -0.2920 H     1 <1>   0.0800 
 38 H       -2.8670     2.3040     0.5460 H     1 <1>   0.0800 
 39 H       -2.7270     2.9620    -1.0670 H     1 <1>   0.0800 
 40 H       -2.6640     7.9530     2.0570 H     1 <1>   0.1500 
 41 H       -4.8540     6.8390     1.9830 H     1 <1>   0.1500 
 42 H        2.0270     8.1940    -2.8590 H     1 <1>   0.0800 
 43 H        0.4060     8.5800    -2.3550 H     1 <1>   0.0800 
 44 H        2.2080     4.9950    -0.9460 H     1 <1>   0.0800 
 45 H        3.1060     6.0330    -2.0080 H     1 <1>   0.0800 
 46 H        1.1240     8.8970    -0.0600 H     1 <1>   0.0800 
 47 H        2.0780     9.9060    -1.1180 H     1 <1>   0.0800 
 48 H        3.8770     6.3200     0.2890 H     1 <1>   0.0800 
 49 H        2.2510     6.6620     0.8260 H     1 <1>   0.0800 
 50 H        3.9200     8.3230    -1.0800 H     1 <1>   0.0800 
 51 H        2.9360     8.9610     1.6650 H     1 <1>   0.3700 
 52 H        4.9770     9.5580     3.1540 H     1 <1>   0.0800 
 53 H        4.4240    11.0810     2.4770 H     1 <1>   0.0800 
 54 H        6.1040    10.6180     2.3420 H     1 <1>   0.0800 
@<TRIPOS>BOND
  1   1   2  2   
  2   2   3  am  
  3   2   4  1   
  4   3   5  1   
  5   3   6  1   
  6   4   7  1   
  7   4  28  1   
  8   4  29  1   
  9   5   8  1   
 10   5   9  1   
 11   5  30  1   
 12   6  31  1   
 13   6  32  1   
 14   6  33  1   
 15   7   9  1   
 16   8  10  ar  
 17   8  11  ar  
 18   9  12  1   
 19   9  34  1   
 20  10  13  ar  
 21  10  14  1   
 22  11  15  ar  
 23  11  35  1   
 24  12  16  2   
 25  12  17  am  
 26  13  18  ar  
 27  13  36  1   
 28  14  37  1   
 29  14  38  1   
 30  14  39  1   
 31  15  18  ar  
 32  15  40  1   
 33  17  19  1   
 34  17  20  1   
 35  18  41  1   
 36  19  21  1   
 37  19  42  1   
 38  19  43  1   
 39  20  22  1   
 40  20  44  1   
 41  20  45  1   
 42  21  23  1   
 43  21  46  1   
 44  21  47  1   
 45  22  23  1   
 46  22  48  1   
 47  22  49  1   
 48  23  24  1   
 49  23  50  1   
 50  24  25  am  
 51  24  51  1   
 52  25  26  2   
 53  25  27  1   
 54  27  52  1   
 55  27  53  1   
 56  27  54  1   
@<TRIPOS>SUBSTRUCTURE
  1 ****   5 GROUP 4 **** **** 0

# MOE 2024.06 (io_trps.svl 2023.06)
