@<TRIPOS>MOLECULE
NONAME
54 56 1 0 0 
SMALL
USER_CHARGES


@<TRIPOS>ATOM
  1 O       -2.3440     0.8690     2.0100 O.2   1 <1>  -0.5700 
  2 C       -2.3310     1.1700     0.8410 C.2   1 <1>   0.5690 
  3 N       -2.2440     0.2310    -0.1520 N.am  1 <1>  -0.6600 
  4 C       -2.4030     2.6540     0.5140 C.3   1 <1>  -0.0990 
  5 C       -2.0760    -1.2230     0.2030 C.3   1 <1>   0.3640 
  6 C       -2.3520     0.5440    -1.6130 C.3   1 <1>   0.1400 
  7 C       -1.0070     3.2480     0.2650 C.3   1 <1>  -0.1600 
  8 C       -0.6000    -1.6560     0.1850 C.ar  1 <1>  -0.1440 
  9 C       -2.9430    -2.1530    -0.7070 C.3   1 <1>   0.2000 
 10 C       -2.3210    -0.7170    -2.4880 C.3   1 <1>   0.1200 
 11 C       -1.0690     4.7560    -0.0040 C.3   1 <1>  -0.0170 
 12 C        0.4310    -0.8840    -0.3420 C.ar  1 <1>  -0.1500 
 13 C       -0.2790    -2.8880     0.7420 C.ar  1 <1>  -0.1500 
 14 O       -3.2350    -1.6380    -1.9890 O.3   1 <1>  -0.5600 
 15 C       -4.2880    -2.4760    -0.0480 C.3   1 <1>   0.1200 
 16 C        0.3200     5.2890    -0.3130 C.ar  1 <1>  -0.1430 
 17 C        1.7370    -1.3420    -0.3330 C.ar  1 <1>  -0.1500 
 18 C        1.0260    -3.3490     0.7530 C.ar  1 <1>  -0.1500 
 19 O       -4.1020    -3.3550     1.0160 O.3   1 <1>  -0.6800 
 20 C        1.2000     5.5820     0.7180 C.ar  1 <1>  -0.1500 
 21 C        0.7230     5.4830    -1.6260 C.ar  1 <1>  -0.1500 
 22 C        2.0360    -2.5760     0.2110 C.ar  1 <1>  -0.1500 
 23 C        2.4690     6.0620     0.4450 C.ar  1 <1>  -0.1500 
 24 C        1.9910     5.9630    -1.9010 C.ar  1 <1>  -0.1500 
 25 C        2.8720     6.2560    -0.8730 C.ar  1 <1>   0.0820 
 26 O        4.0950     6.7210    -1.2300 O.3   1 <1>  -0.3630 
 27 C        5.0530     7.0780    -0.2590 C.3   1 <1>   0.0400 
 28 H       -3.0410     2.8160    -0.3320 H     1 <1>   0.0800 
 29 H       -2.8520     3.1540     1.3540 H     1 <1>   0.0800 
 30 H       -2.4080    -1.3710     1.2170 H     1 <1>   0.0800 
 31 H       -3.2810     1.0550    -1.7950 H     1 <1>   0.0800 
 32 H       -1.5480     1.1950    -1.9070 H     1 <1>   0.0800 
 33 H       -0.3890     3.0680     1.1280 H     1 <1>   0.0800 
 34 H       -0.5430     2.7590    -0.5730 H     1 <1>   0.0800 
 35 H       -2.4210    -3.0780    -0.8700 H     1 <1>   0.0800 
 36 H       -1.3420    -1.1650    -2.5060 H     1 <1>   0.0800 
 37 H       -2.6090    -0.4780    -3.4970 H     1 <1>   0.0800 
 38 H       -1.4640     5.2650     0.8580 H     1 <1>   0.0800 
 39 H       -1.7250     4.9550    -0.8330 H     1 <1>   0.0800 
 40 H        0.2390     0.0860    -0.7580 H     1 <1>   0.1500 
 41 H       -1.0500    -3.4990     1.1800 H     1 <1>   0.1500 
 42 H       -4.9560    -2.9420    -0.7520 H     1 <1>   0.0800 
 43 H       -4.7380    -1.5770     0.3370 H     1 <1>   0.0800 
 44 H        2.5230    -0.7330    -0.7460 H     1 <1>   0.1500 
 45 H        1.2550    -4.3070     1.1860 H     1 <1>   0.1500 
 46 H       -4.0020    -4.2730     0.6920 H     1 <1>   0.4000 
 47 H        0.8980     5.4330     1.7400 H     1 <1>   0.1500 
 48 H        0.0550     5.2610    -2.4380 H     1 <1>   0.1500 
 49 H        3.0520    -2.9320     0.2190 H     1 <1>   0.1500 
 50 H        3.1250     6.2760     1.2660 H     1 <1>   0.1500 
 51 H        2.3070     6.1150    -2.9170 H     1 <1>   0.1500 
 52 H        5.9310     7.4280    -0.7710 H     1 <1>   0.0800 
 53 H        5.2940     6.2100     0.3280 H     1 <1>   0.0800 
 54 H        4.6510     7.8620     0.3570 H     1 <1>   0.0800 
@<TRIPOS>BOND
  1   1   2  2   
  2   2   3  am  
  3   2   4  1   
  4   3   5  1   
  5   3   6  1   
  6   4   7  1   
  7   4  28  1   
  8   4  29  1   
  9   5   8  1   
 10   5   9  1   
 11   5  30  1   
 12   6  10  1   
 13   6  31  1   
 14   6  32  1   
 15   7  11  1   
 16   7  33  1   
 17   7  34  1   
 18   8  12  ar  
 19   8  13  ar  
 20   9  14  1   
 21   9  15  1   
 22   9  35  1   
 23  10  14  1   
 24  10  36  1   
 25  10  37  1   
 26  11  16  1   
 27  11  38  1   
 28  11  39  1   
 29  12  17  ar  
 30  12  40  1   
 31  13  18  ar  
 32  13  41  1   
 33  15  19  1   
 34  15  42  1   
 35  15  43  1   
 36  16  20  ar  
 37  16  21  ar  
 38  17  22  ar  
 39  17  44  1   
 40  18  22  ar  
 41  18  45  1   
 42  19  46  1   
 43  20  23  ar  
 44  20  47  1   
 45  21  24  ar  
 46  21  48  1   
 47  22  49  1   
 48  23  25  ar  
 49  23  50  1   
 50  24  25  ar  
 51  24  51  1   
 52  25  26  1   
 53  26  27  1   
 54  27  52  1   
 55  27  53  1   
 56  27  54  1   
@<TRIPOS>SUBSTRUCTURE
  1 ****   7 GROUP 4 **** **** 0

# MOE 2024.06 (io_trps.svl 2023.06)
