@<TRIPOS>MOLECULE
NONAME
40 42 1 0 0 
SMALL
USER_CHARGES


@<TRIPOS>ATOM
  1 F       -0.6100     0.0890     1.6040 F     1 <1>  -0.1900 
  2 C       -1.4690     0.8820     1.0240 C.ar  1 <1>   0.1900 
  3 C       -1.4410     2.2270     1.3320 C.ar  1 <1>  -0.1500 
  4 C       -2.3680     0.3510     0.1240 C.ar  1 <1>  -0.1500 
  5 C       -2.3450     3.0820     0.7130 C.ar  1 <1>  -0.1440 
  6 C       -3.2720     1.2040    -0.4840 C.ar  1 <1>  -0.1500 
  7 C       -3.2700     2.5640    -0.1960 C.ar  1 <1>  -0.1430 
  8 C       -2.2860     4.5650     1.0370 C.3   1 <1>   0.4870 
  9 C       -4.2990     3.4480    -0.8910 C.3   1 <1>  -0.0970 
 10 N       -1.0020     5.1140     0.5250 N.4   1 <1>  -0.9590 
 11 C       -0.7060     6.4950     1.0540 C.3   1 <1>   0.3430 
 12 C       -0.8320     4.9090    -0.9540 C.3   1 <1>   0.3430 
 13 C        0.7390     7.0070     0.7940 C.3   1 <1>   0.2200 
 14 C        0.6130     5.0760    -1.4470 C.3   1 <1>  -0.0190 
 15 N        0.9070     7.3840    -0.6290 N.am  1 <1>  -0.7300 
 16 C        1.8400     6.0020     1.2180 C.3   1 <1>   0.1200 
 17 C        0.8700     6.5400    -1.6740 C.2   1 <1>   0.5690 
 18 C        1.7220     4.4280    -0.5880 C.3   1 <1>   0.1200 
 19 O        1.5830     4.6900     0.7840 O.3   1 <1>  -0.5600 
 20 O        1.0060     6.9530    -2.7930 O.2   1 <1>  -0.5700 
 21 H       -0.7160     2.5740     2.0470 H     1 <1>   0.1500 
 22 H       -2.3610    -0.7030    -0.0900 H     1 <1>   0.1500 
 23 H       -3.9810     0.7930    -1.1830 H     1 <1>   0.1500 
 24 H       -2.3440     4.6920     2.1060 H     1 <1>   0.0800 
 25 H       -3.1160     5.0840     0.5880 H     1 <1>   0.0800 
 26 H       -4.9150     2.8680    -1.5570 H     1 <1>   0.0800 
 27 H       -3.8170     4.2120    -1.4730 H     1 <1>   0.0800 
 28 H       -4.9470     3.9070    -0.1660 H     1 <1>   0.0800 
 29 H       -0.2450     4.5220     0.9240 H     1 <1>   0.4500 
 30 H       -1.4020     7.2030     0.6340 H     1 <1>   0.0800 
 31 H       -0.8570     6.4880     2.1210 H     1 <1>   0.0800 
 32 H       -1.1380     3.9050    -1.2030 H     1 <1>   0.0800 
 33 H       -1.4730     5.5850    -1.4960 H     1 <1>   0.0800 
 34 H        0.8790     7.9050     1.3710 H     1 <1>   0.0800 
 35 H        0.6660     4.6160    -2.4180 H     1 <1>   0.0800 
 36 H        1.1400     8.3590    -0.8480 H     1 <1>   0.3700 
 37 H        1.8890     5.9650     2.2930 H     1 <1>   0.0800 
 38 H        2.8070     6.3110     0.8550 H     1 <1>   0.0800 
 39 H        2.6980     4.7570    -0.9070 H     1 <1>   0.0800 
 40 H        1.6820     3.3580    -0.7030 H     1 <1>   0.0800 
@<TRIPOS>BOND
  1   1   2  1   
  2   2   3  ar  
  3   2   4  ar  
  4   3   5  ar  
  5   3  21  1   
  6   4   6  ar  
  7   4  22  1   
  8   5   7  ar  
  9   5   8  1   
 10   6   7  ar  
 11   6  23  1   
 12   7   9  1   
 13   8  10  1   
 14   8  24  1   
 15   8  25  1   
 16   9  26  1   
 17   9  27  1   
 18   9  28  1   
 19  10  11  1   
 20  10  12  1   
 21  10  29  1   
 22  11  13  1   
 23  11  30  1   
 24  11  31  1   
 25  12  14  1   
 26  12  32  1   
 27  12  33  1   
 28  13  15  1   
 29  13  16  1   
 30  13  34  1   
 31  14  17  1   
 32  14  18  1   
 33  14  35  1   
 34  15  17  am  
 35  15  36  1   
 36  16  19  1   
 37  16  37  1   
 38  16  38  1   
 39  17  20  2   
 40  18  19  1   
 41  18  39  1   
 42  18  40  1   
@<TRIPOS>SUBSTRUCTURE
  1 ****  10 GROUP 4 **** **** 0

# MOE 2024.06 (io_trps.svl 2023.06)
