@<TRIPOS>MOLECULE
NONAME
52 54 1 0 0 
SMALL
USER_CHARGES


@<TRIPOS>ATOM
  1 O        2.6430     0.4910     2.2890 O.3   1 <1>  -0.6800 
  2 C        2.0630     0.6210     1.0390 C.3   1 <1>   0.2000 
  3 C        3.0510     0.1020    -0.0400 C.3   1 <1>   0.0000 
  4 C        1.7380     2.1140     0.8810 C.3   1 <1>  -0.1600 
  5 C        4.2810     1.0350    -0.0210 C.3   1 <1>   0.3430 
  6 C        2.3680     0.1370    -1.4330 C.3   1 <1>   0.1200 
  7 C        3.4850    -1.3720     0.2510 C.3   1 <1>  -0.0170 
  8 C        3.0130     2.9590     0.8210 C.3   1 <1>   0.3430 
  9 N        3.9200     2.4680    -0.2620 N.4   1 <1>  -0.9590 
 10 O        3.3300     0.1060    -2.4320 O.3   1 <1>  -0.6800 
 11 C        4.9560    -1.5240     0.6260 C.ar  1 <1>  -0.1440 
 12 C        5.1730     3.2590    -0.3750 C.3   1 <1>   0.3430 
 13 C        5.9040    -1.7450    -0.3620 C.ar  1 <1>  -0.1500 
 14 C        5.3610    -1.4260     1.9480 C.ar  1 <1>  -0.1500 
 15 C        4.8800     4.6480    -0.9410 C.3   1 <1>  -0.1600 
 16 C        7.2430    -1.8580    -0.0320 C.ar  1 <1>  -0.1500 
 17 C        6.7000    -1.5390     2.2790 C.ar  1 <1>  -0.1500 
 18 C        6.1800     5.4300    -1.1790 C.3   1 <1>   0.0960 
 19 C        7.6420    -1.7530     1.2890 C.ar  1 <1>  -0.1500 
 20 N        5.8600     6.7730    -1.6940 N.pl3 1 <1>   0.0480 
 21 C        5.7030     7.9150    -0.9880 C.2   1 <1>   0.0360 
 22 C        5.6150     7.1230    -2.9690 C.2   1 <1>  -0.3020 
 23 N        5.3790     8.9370    -1.7090 N.2   1 <1>  -0.5650 
 24 C        5.3250     8.4420    -2.9590 C.2   1 <1>   0.0770 
 25 H        1.9620     0.4510     2.9930 H     1 <1>   0.4000 
 26 H        1.1610     0.0300     1.0330 H     1 <1>   0.0800 
 27 H        1.1490     2.2910     0.0020 H     1 <1>   0.0800 
 28 H        1.1410     2.4380     1.7150 H     1 <1>   0.0800 
 29 H        4.9760     0.7030    -0.7750 H     1 <1>   0.0800 
 30 H        4.7660     0.9450     0.9380 H     1 <1>   0.0800 
 31 H        1.7890     1.0290    -1.5880 H     1 <1>   0.0800 
 32 H        1.7150    -0.7110    -1.5600 H     1 <1>   0.0800 
 33 H        2.8840    -1.7970     1.0370 H     1 <1>   0.0800 
 34 H        3.3130    -1.9940    -0.6110 H     1 <1>   0.0800 
 35 H        3.5210     2.8900     1.7700 H     1 <1>   0.0800 
 36 H        2.7500     3.9900     0.6500 H     1 <1>   0.0800 
 37 H        3.4380     2.4890    -1.1710 H     1 <1>   0.4500 
 38 H        2.9390    -0.1600    -3.2920 H     1 <1>   0.4000 
 39 H        5.6440     3.3420     0.5920 H     1 <1>   0.0800 
 40 H        5.8550     2.7490    -1.0370 H     1 <1>   0.0800 
 41 H        5.6060    -1.8330    -1.3930 H     1 <1>   0.1500 
 42 H        4.6370    -1.2630     2.7280 H     1 <1>   0.1500 
 43 H        4.2690     5.2050    -0.2530 H     1 <1>   0.0800 
 44 H        4.3620     4.5500    -1.8790 H     1 <1>   0.0800 
 45 H        7.9760    -2.0350    -0.8010 H     1 <1>   0.1500 
 46 H        7.0090    -1.4650     3.3070 H     1 <1>   0.1500 
 47 H        6.8010     4.9280    -1.9000 H     1 <1>   0.0800 
 48 H        6.7340     5.5390    -0.2630 H     1 <1>   0.0800 
 49 H        8.6830    -1.8450     1.5470 H     1 <1>   0.1500 
 50 H        5.8360     7.9550     0.0790 H     1 <1>   0.1500 
 51 H        5.6570     6.4420    -3.7990 H     1 <1>   0.1500 
 52 H        5.0770     9.0730    -3.7970 H     1 <1>   0.1500 
@<TRIPOS>BOND
  1   1   2  1   
  2   1  25  1   
  3   2   3  1   
  4   2   4  1   
  5   2  26  1   
  6   3   5  1   
  7   3   6  1   
  8   3   7  1   
  9   4   8  1   
 10   4  27  1   
 11   4  28  1   
 12   5   9  1   
 13   5  29  1   
 14   5  30  1   
 15   6  10  1   
 16   6  31  1   
 17   6  32  1   
 18   7  11  1   
 19   7  33  1   
 20   7  34  1   
 21   8   9  1   
 22   8  35  1   
 23   8  36  1   
 24   9  12  1   
 25   9  37  1   
 26  10  38  1   
 27  11  13  ar  
 28  11  14  ar  
 29  12  15  1   
 30  12  39  1   
 31  12  40  1   
 32  13  16  ar  
 33  13  41  1   
 34  14  17  ar  
 35  14  42  1   
 36  15  18  1   
 37  15  43  1   
 38  15  44  1   
 39  16  19  ar  
 40  16  45  1   
 41  17  19  ar  
 42  17  46  1   
 43  18  20  1   
 44  18  47  1   
 45  18  48  1   
 46  19  49  1   
 47  20  21  1   
 48  20  22  1   
 49  21  23  2   
 50  21  50  1   
 51  22  24  2   
 52  22  51  1   
 53  23  24  1   
 54  24  52  1   
@<TRIPOS>SUBSTRUCTURE
  1 ****   9 GROUP 4 **** **** 0

# MOE 2024.06 (io_trps.svl 2023.06)
