@<TRIPOS>MOLECULE
NONAME
45 47 1 0 0 
SMALL
USER_CHARGES


@<TRIPOS>ATOM
  1 CL       0.1990     2.0160    -1.7580 Cl    1 <1>  -0.1770 
  2 C        1.5980     2.0400    -0.7120 C.ar  1 <1>   0.1770 
  3 C        2.1040     0.8560    -0.1960 C.ar  1 <1>  -0.1440 
  4 C        2.1750     3.2600    -0.4230 C.ar  1 <1>  -0.1500 
  5 C        3.2140     0.9250     0.6310 C.ar  1 <1>  -0.1500 
  6 C        1.4620    -0.4860    -0.5180 C.3   1 <1>  -0.0960 
  7 C        3.2980     3.3430     0.3980 C.ar  1 <1>   0.0860 
  8 C        3.7950     2.1470     0.9220 C.ar  1 <1>  -0.1500 
  9 C        3.9180     4.6240     0.6920 C.2   1 <1>   0.5440 
 10 O        3.2720     5.6550     0.6610 O.2   1 <1>  -0.5700 
 11 N        5.2620     4.7470     0.9520 N.am  1 <1>  -0.6600 
 12 C        5.7510     5.7980     1.9210 C.3   1 <1>   0.1400 
 13 C        6.2720     4.1640     0.0170 C.3   1 <1>   0.1400 
 14 C        6.2370     7.0960     1.2260 C.3   1 <1>   0.4230 
 15 C        7.0130     5.2010    -0.8670 C.3   1 <1>  -0.0800 
 16 N        5.5600     7.1870    -0.1190 N.4   1 <1>  -0.9590 
 17 C        7.7860     7.1790     1.2190 C.3   1 <1>   0.1200 
 18 C        8.4180     5.5370    -0.3440 C.3   1 <1>   0.1200 
 19 C        6.2550     6.4900    -1.2430 C.3   1 <1>   0.3430 
 20 C        5.2800     8.6360    -0.4920 C.3   1 <1>   0.2370 
 21 O        8.3790     5.9320     0.9830 O.3   1 <1>  -0.5600 
 22 C        6.5240     9.5190    -0.6010 C.2   1 <1>   0.9060 
 23 O        7.1920     9.4540    -1.6370 O.co2 1 <1>  -0.9000 
 24 O        6.8930    10.1160     0.4140 O.co2 1 <1>  -0.9000 
 25 H        1.7460     4.1540    -0.8380 H     1 <1>   0.1500 
 26 H        3.6280     0.0250     1.0540 H     1 <1>   0.1500 
 27 H        1.9840    -1.2920    -0.0360 H     1 <1>   0.0800 
 28 H        1.4790    -0.6560    -1.5800 H     1 <1>   0.0800 
 29 H        0.4400    -0.4930    -0.1840 H     1 <1>   0.0800 
 30 H        4.6510     2.1750     1.5740 H     1 <1>   0.1500 
 31 H        4.9430     6.0610     2.5810 H     1 <1>   0.0800 
 32 H        6.5290     5.3860     2.5400 H     1 <1>   0.0800 
 33 H        6.9890     3.5980     0.5900 H     1 <1>   0.0800 
 34 H        5.7740     3.4670    -0.6360 H     1 <1>   0.0800 
 35 H        5.8990     7.9300     1.8190 H     1 <1>   0.0800 
 36 H        7.1990     4.7080    -1.8030 H     1 <1>   0.0800 
 37 H        4.6570     6.6950     0.0330 H     1 <1>   0.4500 
 38 H        8.1100     7.4880     2.1960 H     1 <1>   0.0800 
 39 H        8.1630     7.9000     0.5150 H     1 <1>   0.0800 
 40 H        8.8870     6.3140    -0.9270 H     1 <1>   0.0800 
 41 H        9.0430     4.6620    -0.3890 H     1 <1>   0.0800 
 42 H        5.5220     6.2540    -1.9960 H     1 <1>   0.0800 
 43 H        6.9610     7.1700    -1.6940 H     1 <1>   0.0800 
 44 H        4.7750     8.6770    -1.4390 H     1 <1>   0.0800 
 45 H        4.6430     9.0830     0.2490 H     1 <1>   0.0800 
@<TRIPOS>BOND
  1   1   2  1   
  2   2   3  ar  
  3   2   4  ar  
  4   3   5  ar  
  5   3   6  1   
  6   4   7  ar  
  7   4  25  1   
  8   5   8  ar  
  9   5  26  1   
 10   6  27  1   
 11   6  28  1   
 12   6  29  1   
 13   7   8  ar  
 14   7   9  1   
 15   8  30  1   
 16   9  10  2   
 17   9  11  am  
 18  11  12  1   
 19  11  13  1   
 20  12  14  1   
 21  12  31  1   
 22  12  32  1   
 23  13  15  1   
 24  13  33  1   
 25  13  34  1   
 26  14  16  1   
 27  14  17  1   
 28  14  35  1   
 29  15  18  1   
 30  15  19  1   
 31  15  36  1   
 32  16  19  1   
 33  16  20  1   
 34  16  37  1   
 35  17  21  1   
 36  17  38  1   
 37  17  39  1   
 38  18  21  1   
 39  18  40  1   
 40  18  41  1   
 41  19  42  1   
 42  19  43  1   
 43  20  22  1   
 44  20  44  1   
 45  20  45  1   
 46  22  23  ar  
 47  22  24  ar  
@<TRIPOS>SUBSTRUCTURE
  1 ****  11 GROUP 4 **** **** 0

# MOE 2024.06 (io_trps.svl 2023.06)
