@<TRIPOS>MOLECULE
NONAME
46 48 1 0 0 
SMALL
USER_CHARGES


@<TRIPOS>ATOM
  1 O       -1.2860     0.2160     2.1240 O.2   1 <1>  -0.5700 
  2 C       -1.9880     0.8210     1.3390 C.2   1 <1>   0.7150 
  3 N       -3.1650     0.2530     0.9220 N.am  1 <1>  -0.6600 
  4 C       -1.5900     2.0990     0.8330 C.2   1 <1>  -0.2370 
  5 C       -3.9980     0.7730    -0.1930 C.3   1 <1>   0.1400 
  6 C       -3.5580    -1.1390     1.2590 C.3   1 <1>   0.1400 
  7 N       -0.4920     2.3370     0.0610 N.pl3 1 <1>   0.3140 
  8 C       -2.2000     3.3070     0.9870 C.2   1 <1>  -0.1500 
  9 C       -5.1030    -0.2690    -0.3760 C.3   1 <1>   0.2000 
 10 C       -4.4820    -1.5780     0.1150 C.3   1 <1>  -0.0800 
 11 N       -0.4100     3.6370    -0.2860 N.2   1 <1>  -0.7070 
 12 C        0.5490     1.3890    -0.4530 C.3   1 <1>   0.1760 
 13 C       -1.4290     4.2070     0.2800 C.2   1 <1>   0.1390 
 14 O       -6.1530     0.0570     0.4680 O.3   1 <1>  -0.6800 
 15 C       -3.6920    -2.2700    -1.0130 C.3   1 <1>   0.0210 
 16 C       -0.0500     0.1350    -1.1100 C.3   1 <1>  -0.2400 
 17 C        1.5680     1.0270     0.6360 C.3   1 <1>  -0.2400 
 18 C       -3.0620    -3.5640    -0.5390 C.2   1 <1>   0.1080 
 19 N       -3.7620    -4.6020    -0.2040 N.2   1 <1>  -0.7070 
 20 C       -1.6950    -3.7850    -0.4010 C.2   1 <1>  -0.1500 
 21 N       -2.8520    -5.5250     0.1580 N.pl3 1 <1>   0.3000 
 22 C       -1.5920    -5.0530     0.0480 C.2   1 <1>  -0.3320 
 23 C       -0.3490    -5.8550     0.3880 C.3   1 <1>  -0.0600 
 24 H       -4.4040     1.7440     0.0340 H     1 <1>   0.0800 
 25 H       -3.3970     0.8350    -1.0830 H     1 <1>   0.0800 
 26 H       -2.6960    -1.7760     1.3630 H     1 <1>   0.0800 
 27 H       -4.0970    -1.1340     2.1900 H     1 <1>   0.0800 
 28 H       -3.0930     3.5310     1.5410 H     1 <1>   0.1500 
 29 H       -5.4830    -0.3140    -1.3820 H     1 <1>   0.0800 
 30 H       -5.2350    -2.2620     0.4670 H     1 <1>   0.0800 
 31 H        1.0810     1.9240    -1.2200 H     1 <1>   0.0800 
 32 H       -1.6350     5.2610     0.1960 H     1 <1>   0.1500 
 33 H       -5.8130     0.1570     1.3790 H     1 <1>   0.4000 
 34 H       -2.9230    -1.6220    -1.3900 H     1 <1>   0.0800 
 35 H       -4.3590    -2.5050    -1.8240 H     1 <1>   0.0800 
 36 H       -0.4700    -0.5280    -0.3760 H     1 <1>   0.0800 
 37 H        0.7230    -0.4000    -1.6300 H     1 <1>   0.0800 
 38 H       -0.8050     0.4140    -1.8230 H     1 <1>   0.0800 
 39 H        1.1160     0.4470     1.4180 H     1 <1>   0.0800 
 40 H        1.9840     1.9240     1.0600 H     1 <1>   0.0800 
 41 H        2.3700     0.4520     0.2100 H     1 <1>   0.0800 
 42 H       -0.9120    -3.0810    -0.6120 H     1 <1>   0.1500 
 43 H       -3.1220    -6.4640     0.4740 H     1 <1>   0.2700 
 44 H        0.5310    -5.2580     0.2240 H     1 <1>   0.0800 
 45 H       -0.2890    -6.7310    -0.2340 H     1 <1>   0.0800 
 46 H       -0.3700    -6.1560     1.4200 H     1 <1>   0.0800 
@<TRIPOS>BOND
  1   1   2  2   
  2   2   3  am  
  3   2   4  1   
  4   3   5  1   
  5   3   6  1   
  6   4   7  1   
  7   4   8  2   
  8   5   9  1   
  9   5  24  1   
 10   5  25  1   
 11   6  10  1   
 12   6  26  1   
 13   6  27  1   
 14   7  11  1   
 15   7  12  1   
 16   8  13  1   
 17   8  28  1   
 18   9  10  1   
 19   9  14  1   
 20   9  29  1   
 21  10  15  1   
 22  10  30  1   
 23  11  13  2   
 24  12  16  1   
 25  12  17  1   
 26  12  31  1   
 27  13  32  1   
 28  14  33  1   
 29  15  18  1   
 30  15  34  1   
 31  15  35  1   
 32  16  36  1   
 33  16  37  1   
 34  16  38  1   
 35  17  39  1   
 36  17  40  1   
 37  17  41  1   
 38  18  19  2   
 39  18  20  1   
 40  19  21  1   
 41  20  22  2   
 42  20  42  1   
 43  21  22  1   
 44  21  43  1   
 45  22  23  1   
 46  23  44  1   
 47  23  45  1   
 48  23  46  1   
@<TRIPOS>SUBSTRUCTURE
  1 ****   3 GROUP 4 **** **** 0

# MOE 2024.06 (io_trps.svl 2023.06)
