@<TRIPOS>MOLECULE
NONAME
34 35 1 0 0 
SMALL
USER_CHARGES


@<TRIPOS>ATOM
  1 S        0.8650     1.0590    -1.1220 S.3   1 <1>  -0.0800 
  2 C        1.9280    -0.3030    -0.8470 C.2   1 <1>   0.1980 
  3 C        1.5840     1.8560     0.2450 C.2   1 <1>  -0.1100 
  4 N        2.7170    -0.1630     0.1400 N.2   1 <1>  -0.5650 
  5 C        1.8060    -1.4800    -1.7860 C.3   1 <1>  -0.0600 
  6 C        2.5290     1.0570     0.7680 C.2   1 <1>   0.0460 
  7 C        3.4100     1.3500     1.9700 C.3   1 <1>   0.0820 
  8 C        3.6930     2.8310     2.1140 C.2   1 <1>   0.5690 
  9 O        3.3780     3.3850     3.1400 O.2   1 <1>  -0.5700 
 10 N        4.2960     3.4710     1.0710 N.am  1 <1>  -0.4930 
 11 C        4.6570     4.8360     0.9530 C.2   1 <1>   0.0630 
 12 C        4.5330     5.8720     1.8800 C.2   1 <1>   0.1390 
 13 C        5.2120     5.4180    -0.1290 C.2   1 <1>  -0.3020 
 14 N        4.9730     7.0040     1.4170 N.2   1 <1>  -0.7070 
 15 N        5.3970     6.7260     0.1690 N.pl3 1 <1>   0.3140 
 16 C        5.9810     7.7770    -0.7080 C.3   1 <1>   0.1760 
 17 C        5.1270     7.9710    -1.9690 C.3   1 <1>  -0.2400 
 18 C        7.4330     7.4380    -1.0730 C.3   1 <1>  -0.2400 
 19 H        1.2200     2.8340     0.5090 H     1 <1>   0.1500 
 20 H        2.0060    -1.1660    -2.7940 H     1 <1>   0.0800 
 21 H        0.8130    -1.8870    -1.7310 H     1 <1>   0.0800 
 22 H        2.5120    -2.2410    -1.5080 H     1 <1>   0.0800 
 23 H        4.3480     0.8390     1.8600 H     1 <1>   0.0800 
 24 H        2.9330     0.9790     2.8570 H     1 <1>   0.0800 
 25 H        4.4790     2.9080     0.2400 H     1 <1>   0.3700 
 26 H        4.1200     5.7530     2.8680 H     1 <1>   0.1500 
 27 H        5.4830     4.9920    -1.0750 H     1 <1>   0.1500 
 28 H        5.9750     8.6960    -0.1460 H     1 <1>   0.0800 
 29 H        5.1220     7.0790    -2.5700 H     1 <1>   0.0800 
 30 H        5.5210     8.7790    -2.5590 H     1 <1>   0.0800 
 31 H        4.1170     8.2180    -1.6910 H     1 <1>   0.0800 
 32 H        7.4810     6.5330    -1.6510 H     1 <1>   0.0800 
 33 H        8.0160     7.3180    -0.1770 H     1 <1>   0.0800 
 34 H        7.8630     8.2360    -1.6500 H     1 <1>   0.0800 
@<TRIPOS>BOND
  1   1   2  1   
  2   1   3  1   
  3   2   4  2   
  4   2   5  1   
  5   3   6  2   
  6   3  19  1   
  7   4   6  1   
  8   5  20  1   
  9   5  21  1   
 10   5  22  1   
 11   6   7  1   
 12   7   8  1   
 13   7  23  1   
 14   7  24  1   
 15   8   9  2   
 16   8  10  am  
 17  10  11  1   
 18  10  25  1   
 19  11  12  1   
 20  11  13  2   
 21  12  14  2   
 22  12  26  1   
 23  13  15  1   
 24  13  27  1   
 25  14  15  1   
 26  15  16  1   
 27  16  17  1   
 28  16  18  1   
 29  16  28  1   
 30  17  29  1   
 31  17  30  1   
 32  17  31  1   
 33  18  32  1   
 34  18  33  1   
 35  18  34  1   
@<TRIPOS>SUBSTRUCTURE
  1 ****  10 GROUP 4 **** **** 0

# MOE 2024.06 (io_trps.svl 2023.06)
