@<TRIPOS>MOLECULE
NONAME
43 44 1 0 0 
SMALL
USER_CHARGES


@<TRIPOS>ATOM
  1 O        0.1070    -0.9840     1.4740 O.co2 1 <1>  -0.9000 
  2 C       -1.0020    -1.3060     1.0110 C.2   1 <1>   0.9790 
  3 O       -1.8970    -0.4440     0.9480 O.co2 1 <1>  -0.9000 
  4 C       -1.2540    -2.6690     0.5610 C.ar  1 <1>  -0.1790 
  5 C       -2.4920    -3.0490     0.0410 C.ar  1 <1>  -0.1500 
  6 C       -0.2710    -3.6590     0.6310 C.ar  1 <1>  -0.1500 
  7 C       -2.7400    -4.3440    -0.3690 C.ar  1 <1>  -0.1500 
  8 C       -0.5190    -4.9560     0.2230 C.ar  1 <1>  -0.1500 
  9 C       -1.7640    -5.3350    -0.2740 C.ar  1 <1>   0.0860 
 10 C       -2.0340    -6.7040    -0.6670 C.2   1 <1>   0.5440 
 11 O       -1.3500    -7.2200    -1.5320 O.2   1 <1>  -0.5700 
 12 N       -3.0450    -7.4370    -0.0810 N.am  1 <1>  -0.6600 
 13 C       -3.4950    -8.7630    -0.6140 C.3   1 <1>   0.1400 
 14 C       -3.7520    -7.0350     1.1690 C.3   1 <1>   0.1400 
 15 C       -5.0130    -8.7410    -0.8630 C.3   1 <1>   0.2000 
 16 C       -5.2620    -6.9820     0.8990 C.3   1 <1>  -0.1600 
 17 O       -5.4150    -9.9850    -1.3180 O.3   1 <1>  -0.6800 
 18 C       -5.8120    -8.3550     0.4140 C.3   1 <1>  -0.1060 
 19 C       -5.6000    -9.4310     1.5070 C.2   1 <1>   0.9060 
 20 C       -7.3430    -8.2540     0.1460 C.3   1 <1>  -0.1600 
 21 O       -5.5250   -10.6260     1.1790 O.co2 1 <1>  -0.9000 
 22 O       -5.5230    -9.0910     2.6940 O.co2 1 <1>  -0.9000 
 23 C       -7.7880    -7.2880    -0.9680 C.3   1 <1>  -0.1600 
 24 C       -9.3120    -7.2950    -1.1130 C.3   1 <1>  -0.2400 
 25 H       -3.2640    -2.3000    -0.0340 H     1 <1>   0.1500 
 26 H        0.6980    -3.3880     1.0180 H     1 <1>   0.1500 
 27 H       -3.7040    -4.6020    -0.7660 H     1 <1>   0.1500 
 28 H        0.2590    -5.6950     0.2880 H     1 <1>   0.1500 
 29 H       -2.9930    -8.9860    -1.5380 H     1 <1>   0.0800 
 30 H       -3.2530    -9.5290     0.1030 H     1 <1>   0.0800 
 31 H       -3.5370    -7.7550     1.9410 H     1 <1>   0.0800 
 32 H       -3.4120    -6.0780     1.5230 H     1 <1>   0.0800 
 33 H       -5.2040    -8.0410    -1.6550 H     1 <1>   0.0800 
 34 H       -5.7630    -6.6950     1.8070 H     1 <1>   0.0800 
 35 H       -5.4420    -6.2150     0.1710 H     1 <1>   0.0800 
 36 H       -5.5010   -10.5460    -0.4870 H     1 <1>   0.4000 
 37 H       -7.7020    -9.2400    -0.0980 H     1 <1>   0.0800 
 38 H       -7.8230    -7.9720     1.0670 H     1 <1>   0.0800 
 39 H       -7.4680    -6.2860    -0.7470 H     1 <1>   0.0800 
 40 H       -7.3530    -7.5870    -1.9060 H     1 <1>   0.0800 
 41 H       -9.7770    -6.9840    -0.1930 H     1 <1>   0.0800 
 42 H       -9.6580    -8.2830    -1.3590 H     1 <1>   0.0800 
 43 H       -9.6110    -6.6210    -1.8960 H     1 <1>   0.0800 
@<TRIPOS>BOND
  1   1   2  ar  
  2   2   3  ar  
  3   2   4  1   
  4   4   5  ar  
  5   4   6  ar  
  6   5   7  ar  
  7   5  25  1   
  8   6   8  ar  
  9   6  26  1   
 10   7   9  ar  
 11   7  27  1   
 12   8   9  ar  
 13   8  28  1   
 14   9  10  1   
 15  10  11  2   
 16  10  12  am  
 17  12  13  1   
 18  12  14  1   
 19  13  15  1   
 20  13  29  1   
 21  13  30  1   
 22  14  16  1   
 23  14  31  1   
 24  14  32  1   
 25  15  17  1   
 26  15  18  1   
 27  15  33  1   
 28  16  18  1   
 29  16  34  1   
 30  16  35  1   
 31  17  36  1   
 32  18  19  1   
 33  18  20  1   
 34  19  21  ar  
 35  19  22  ar  
 36  20  23  1   
 37  20  37  1   
 38  20  38  1   
 39  23  24  1   
 40  23  39  1   
 41  23  40  1   
 42  24  41  1   
 43  24  42  1   
 44  24  43  1   
@<TRIPOS>SUBSTRUCTURE
  1 ****  14 GROUP 4 **** **** 0

# MOE 2024.06 (io_trps.svl 2023.06)
