@<TRIPOS>MOLECULE
NONAME
44 46 1 0 0 
SMALL
USER_CHARGES


@<TRIPOS>ATOM
  1 S        0.3720     0.2520    -0.5400 S.3   1 <1>  -0.0800 
  2 C        1.9340    -0.4030    -0.0430 C.ar  1 <1>   0.0400 
  3 C       -0.2310    -1.3510    -0.9180 C.2   1 <1>  -0.1100 
  4 C        1.9400    -1.7840    -0.1810 C.ar  1 <1>   0.0000 
  5 C        3.0130     0.3260     0.4200 C.ar  1 <1>  -0.1500 
  6 C        0.6880    -2.3170    -0.6780 C.2   1 <1>  -0.0860 
  7 C        3.1100    -2.4560     0.1710 C.ar  1 <1>  -0.1500 
  8 C        4.1610    -0.3650     0.7640 C.ar  1 <1>  -0.1500 
  9 C        0.4890    -3.7350    -0.8860 C.2   1 <1>   0.7160 
 10 C        4.2060    -1.7500     0.6380 C.ar  1 <1>  -0.1500 
 11 O        1.2860    -4.3560    -1.5640 O.2   1 <1>  -0.5700 
 12 N       -0.5950    -4.3920    -0.3470 N.am  1 <1>  -0.6600 
 13 C       -0.9980    -5.7660    -0.7790 C.3   1 <1>   0.1400 
 14 C       -1.4390    -3.8600     0.7580 C.3   1 <1>   0.1400 
 15 C       -2.4690    -5.7540    -1.2240 C.3   1 <1>   0.2000 
 16 C       -2.9070    -3.8320     0.3120 C.3   1 <1>  -0.1600 
 17 O       -2.8250    -7.0330    -1.6150 O.3   1 <1>  -0.6800 
 18 C       -3.4240    -5.2400    -0.1100 C.3   1 <1>  -0.1060 
 19 C       -3.3960    -6.2200     1.0870 C.2   1 <1>   0.9060 
 20 C       -4.8650    -5.1260    -0.6880 C.3   1 <1>  -0.1600 
 21 O       -3.3660    -7.4420     0.8690 O.co2 1 <1>  -0.9000 
 22 O       -3.3910    -5.7810     2.2440 O.co2 1 <1>  -0.9000 
 23 C       -5.9180    -4.5790     0.2920 C.3   1 <1>  -0.1600 
 24 C       -7.3150    -4.6020    -0.3340 C.3   1 <1>  -0.2400 
 25 H       -1.2370    -1.4210    -1.2920 H     1 <1>   0.1500 
 26 H        2.9530     1.3960     0.5060 H     1 <1>   0.1500 
 27 H        3.1570    -3.5270     0.0750 H     1 <1>   0.1500 
 28 H        5.0230     0.1680     1.1280 H     1 <1>   0.1500 
 29 H        5.1050    -2.2780     0.9060 H     1 <1>   0.1500 
 30 H       -0.3870    -6.0990    -1.5990 H     1 <1>   0.0800 
 31 H       -0.8700    -6.4460     0.0450 H     1 <1>   0.0800 
 32 H       -1.3300    -4.5000     1.6190 H     1 <1>   0.0800 
 33 H       -1.1260    -2.8750     1.0530 H     1 <1>   0.0800 
 34 H       -2.5520    -5.1310    -2.0970 H     1 <1>   0.0800 
 35 H       -3.4890    -3.4650     1.1390 H     1 <1>   0.0800 
 36 H       -3.0160    -3.1370    -0.4990 H     1 <1>   0.0800 
 37 H       -3.0650    -7.5080    -0.7600 H     1 <1>   0.4000 
 38 H       -4.8490    -4.5050    -1.5660 H     1 <1>   0.0800 
 39 H       -5.1810    -6.1080    -0.9970 H     1 <1>   0.0800 
 40 H       -5.9250    -5.1790     1.1880 H     1 <1>   0.0800 
 41 H       -5.6800    -3.5700     0.5730 H     1 <1>   0.0800 
 42 H       -7.5900    -5.6100    -0.5910 H     1 <1>   0.0800 
 43 H       -7.3380    -3.9970    -1.2230 H     1 <1>   0.0800 
 44 H       -8.0370    -4.2180     0.3650 H     1 <1>   0.0800 
@<TRIPOS>BOND
  1   1   2  1   
  2   1   3  1   
  3   2   4  ar  
  4   2   5  ar  
  5   3   6  2   
  6   3  25  1   
  7   4   6  1   
  8   4   7  ar  
  9   5   8  ar  
 10   5  26  1   
 11   6   9  1   
 12   7  10  ar  
 13   7  27  1   
 14   8  10  ar  
 15   8  28  1   
 16   9  11  2   
 17   9  12  am  
 18  10  29  1   
 19  12  13  1   
 20  12  14  1   
 21  13  15  1   
 22  13  30  1   
 23  13  31  1   
 24  14  16  1   
 25  14  32  1   
 26  14  33  1   
 27  15  17  1   
 28  15  18  1   
 29  15  34  1   
 30  16  18  1   
 31  16  35  1   
 32  16  36  1   
 33  17  37  1   
 34  18  19  1   
 35  18  20  1   
 36  19  21  ar  
 37  19  22  ar  
 38  20  23  1   
 39  20  38  1   
 40  20  39  1   
 41  23  24  1   
 42  23  40  1   
 43  23  41  1   
 44  24  42  1   
 45  24  43  1   
 46  24  44  1   
@<TRIPOS>SUBSTRUCTURE
  1 ****  12 GROUP 4 **** **** 0

# MOE 2024.06 (io_trps.svl 2023.06)
