@<TRIPOS>MOLECULE
NONAME
52 55 1 0 0 
SMALL
USER_CHARGES


@<TRIPOS>ATOM
  1 O        0.5100    -0.2480    -0.2690 O.2   1 <1>  -0.5700 
  2 C        1.1970    -1.2060    -0.0330 C.2   1 <1>   0.5690 
  3 N        0.7300    -2.2540     0.6750 N.am  1 <1>  -0.7300 
  4 C        2.6270    -1.2760    -0.5220 C.3   1 <1>  -0.0990 
  5 C        1.5460    -3.4290     1.0350 C.3   1 <1>   0.1400 
  6 C        2.9320    -2.6840    -1.0710 C.3   1 <1>  -0.0800 
  7 C        2.4500    -3.8350    -0.1520 C.3   1 <1>  -0.0800 
  8 C        4.4300    -2.9130    -1.3270 C.3   1 <1>  -0.1600 
  9 C        3.7200    -4.5730     0.2880 C.3   1 <1>  -0.1600 
 10 C        4.6990    -4.3400    -0.8610 C.3   1 <1>   0.4230 
 11 N        6.1410    -4.6150    -0.5630 N.4   1 <1>  -0.9590 
 12 C        6.6670    -4.2490     0.7930 C.3   1 <1>   0.4860 
 13 C        6.4510    -6.0470    -0.8520 C.3   1 <1>   0.2630 
 14 C        6.8430    -2.7470     0.9010 C.ar  1 <1>  -0.1440 
 15 C        7.7930    -2.0890     0.1620 C.ar  1 <1>  -0.1500 
 16 C        6.0190    -2.0140     1.7690 C.ar  1 <1>  -0.1500 
 17 C        7.9440    -0.6900     0.2300 C.ar  1 <1>   0.0000 
 18 C        6.1420    -0.6560     1.8510 C.ar  1 <1>  -0.1500 
 19 C        7.0940     0.0430     1.0840 C.ar  1 <1>   0.0000 
 20 C        8.9090     0.0090    -0.5240 C.ar  1 <1>  -0.1500 
 21 C        7.2330     1.4420     1.1410 C.ar  1 <1>  -0.1500 
 22 C        9.0260     1.3690    -0.4490 C.ar  1 <1>  -0.1500 
 23 C        8.1720     2.1030     0.3970 C.ar  1 <1>   0.0820 
 24 O        8.2300     3.4520     0.5180 O.3   1 <1>  -0.3630 
 25 C        9.1830     4.2220    -0.1810 C.3   1 <1>   0.0400 
 26 H       -0.2270    -2.1860     1.0310 H     1 <1>   0.3700 
 27 H        2.7780    -0.5360    -1.2870 H     1 <1>   0.0800 
 28 H        3.2680    -1.0400     0.3070 H     1 <1>   0.0800 
 29 H        2.1400    -3.1670     1.8940 H     1 <1>   0.0800 
 30 H        0.9020    -4.2480     1.3060 H     1 <1>   0.0800 
 31 H        2.4020    -2.7790    -2.0070 H     1 <1>   0.0800 
 32 H        1.8750    -4.5100    -0.7660 H     1 <1>   0.0800 
 33 H        5.0000    -2.1960    -0.7700 H     1 <1>   0.0800 
 34 H        4.6560    -2.7970    -2.3720 H     1 <1>   0.0800 
 35 H        3.5280    -5.6200     0.4450 H     1 <1>   0.0800 
 36 H        4.0720    -4.1260     1.1960 H     1 <1>   0.0800 
 37 H        4.3890    -4.9810    -1.6720 H     1 <1>   0.0800 
 38 H        6.6710    -4.0290    -1.2210 H     1 <1>   0.4500 
 39 H        6.0130    -4.6090     1.5690 H     1 <1>   0.0800 
 40 H        7.6320    -4.7060     0.9400 H     1 <1>   0.0800 
 41 H        5.9100    -6.6920    -0.1790 H     1 <1>   0.0800 
 42 H        7.5070    -6.2360    -0.7370 H     1 <1>   0.0800 
 43 H        6.1710    -6.2940    -1.8640 H     1 <1>   0.0800 
 44 H        8.4590    -2.6200    -0.4950 H     1 <1>   0.1500 
 45 H        5.2850    -2.5140     2.3770 H     1 <1>   0.1500 
 46 H        5.5110    -0.0870     2.5120 H     1 <1>   0.1500 
 47 H        9.5640    -0.5490    -1.1690 H     1 <1>   0.1500 
 48 H        6.5850     2.0040     1.7870 H     1 <1>   0.1500 
 49 H        9.7710     1.8700    -1.0360 H     1 <1>   0.1500 
 50 H        9.0380     5.2530     0.0860 H     1 <1>   0.0800 
 51 H        9.0290     4.0930    -1.2370 H     1 <1>   0.0800 
 52 H       10.1690     3.9050     0.1090 H     1 <1>   0.0800 
@<TRIPOS>BOND
  1   1   2  2   
  2   2   3  am  
  3   2   4  1   
  4   3   5  1   
  5   3  26  1   
  6   4   6  1   
  7   4  27  1   
  8   4  28  1   
  9   5   7  1   
 10   5  29  1   
 11   5  30  1   
 12   6   7  1   
 13   6   8  1   
 14   6  31  1   
 15   7   9  1   
 16   7  32  1   
 17   8  10  1   
 18   8  33  1   
 19   8  34  1   
 20   9  10  1   
 21   9  35  1   
 22   9  36  1   
 23  10  11  1   
 24  10  37  1   
 25  11  12  1   
 26  11  13  1   
 27  11  38  1   
 28  12  14  1   
 29  12  39  1   
 30  12  40  1   
 31  13  41  1   
 32  13  42  1   
 33  13  43  1   
 34  14  15  ar  
 35  14  16  ar  
 36  15  17  ar  
 37  15  44  1   
 38  16  18  ar  
 39  16  45  1   
 40  17  19  ar  
 41  17  20  ar  
 42  18  19  ar  
 43  18  46  1   
 44  19  21  ar  
 45  20  22  ar  
 46  20  47  1   
 47  21  23  ar  
 48  21  48  1   
 49  22  23  ar  
 50  22  49  1   
 51  23  24  1   
 52  24  25  1   
 53  25  50  1   
 54  25  51  1   
 55  25  52  1   
@<TRIPOS>SUBSTRUCTURE
  1 ****  16 GROUP 4 **** **** 0

# MOE 2024.06 (io_trps.svl 2023.06)
