@<TRIPOS>MOLECULE
NONAME
45 46 1 0 0 
SMALL
USER_CHARGES


@<TRIPOS>ATOM
  1 S       -0.6120     0.1750     1.4370 S.o2  1 <1>   1.3330 
  2 O       -1.2600    -0.4200     2.5800 O.2   1 <1>  -0.6500 
  3 O        0.4930     1.0890     1.5800 O.2   1 <1>  -0.6500 
  4 N       -1.7790     1.0100     0.5670 N.am  1 <1>  -0.9140 
  5 C       -0.0970    -1.1280     0.3360 C.3   1 <1>  -0.1350 
  6 C       -2.9310     0.2350     0.1310 C.3   1 <1>   0.1960 
  7 C       -4.0340     1.1860    -0.3300 C.3   1 <1>  -0.0990 
  8 C       -5.2470     0.4370    -0.8560 C.2   1 <1>   0.5690 
  9 O       -5.1130    -0.7350    -1.1210 O.2   1 <1>  -0.5700 
 10 N       -6.4450     1.0840    -1.0300 N.am  1 <1>  -0.6600 
 11 C       -6.6920     2.5380    -0.8160 C.3   1 <1>   0.1400 
 12 C       -7.6670     0.3490    -1.4630 C.3   1 <1>   0.1400 
 13 C       -7.7490     2.7060     0.2770 C.3   1 <1>  -0.1600 
 14 C       -8.7490     0.4960    -0.3910 C.3   1 <1>  -0.1600 
 15 C       -9.0470     1.9670    -0.0790 C.3   1 <1>   0.4180 
 16 O       -9.5860     2.5150    -1.2580 O.3   1 <1>  -0.5600 
 17 C      -10.0580     2.0550     1.0610 C.2   1 <1>  -0.2880 
 18 C      -10.3380     3.6910    -1.1400 C.3   1 <1>   0.1200 
 19 C      -11.2200     2.7080     0.9850 C.2   1 <1>  -0.2760 
 20 C      -11.5900     3.4490    -0.2860 C.3   1 <1>  -0.0220 
 21 C      -12.2490     2.7680     2.1000 C.3   1 <1>  -0.1020 
 22 H       -1.3110     1.4850    -0.2010 H     1 <1>   0.4200 
 23 H        0.7010    -1.6850     0.7850 H     1 <1>   0.0800 
 24 H        0.2520    -0.7190    -0.5910 H     1 <1>   0.0800 
 25 H       -0.9090    -1.8010     0.1420 H     1 <1>   0.0800 
 26 H       -3.3040    -0.3610     0.9500 H     1 <1>   0.0800 
 27 H       -2.6510    -0.4250    -0.6740 H     1 <1>   0.0800 
 28 H       -3.6660     1.8220    -1.1120 H     1 <1>   0.0800 
 29 H       -4.3280     1.7830     0.5130 H     1 <1>   0.0800 
 30 H       -7.0510     2.9690    -1.7360 H     1 <1>   0.0800 
 31 H       -5.7940     3.0580    -0.5400 H     1 <1>   0.0800 
 32 H       -7.4550    -0.6950    -1.6190 H     1 <1>   0.0800 
 33 H       -8.0160     0.7600    -2.3960 H     1 <1>   0.0800 
 34 H       -7.9500     3.7470     0.4420 H     1 <1>   0.0800 
 35 H       -7.3580     2.3090     1.1960 H     1 <1>   0.0800 
 36 H       -8.4160    -0.0030     0.5010 H     1 <1>   0.0800 
 37 H       -9.6530     0.0150    -0.7150 H     1 <1>   0.0800 
 38 H       -9.7390     1.5240     1.9400 H     1 <1>   0.1500 
 39 H      -10.6170     4.0030    -2.1310 H     1 <1>   0.0800 
 40 H       -9.7220     4.4520    -0.6980 H     1 <1>   0.0800 
 41 H      -12.3080     2.8770    -0.8460 H     1 <1>   0.0800 
 42 H      -12.0300     4.4010    -0.0490 H     1 <1>   0.0800 
 43 H      -13.1820     2.3530     1.7630 H     1 <1>   0.0800 
 44 H      -12.4100     3.7860     2.4050 H     1 <1>   0.0800 
 45 H      -11.9130     2.2050     2.9520 H     1 <1>   0.0800 
@<TRIPOS>BOND
  1   1   2  2   
  2   1   3  2   
  3   1   4  am  
  4   1   5  1   
  5   4   6  1   
  6   4  22  1   
  7   5  23  1   
  8   5  24  1   
  9   5  25  1   
 10   6   7  1   
 11   6  26  1   
 12   6  27  1   
 13   7   8  1   
 14   7  28  1   
 15   7  29  1   
 16   8   9  2   
 17   8  10  am  
 18  10  11  1   
 19  10  12  1   
 20  11  13  1   
 21  11  30  1   
 22  11  31  1   
 23  12  14  1   
 24  12  32  1   
 25  12  33  1   
 26  13  15  1   
 27  13  34  1   
 28  13  35  1   
 29  14  15  1   
 30  14  36  1   
 31  14  37  1   
 32  15  16  1   
 33  15  17  1   
 34  16  18  1   
 35  17  19  2   
 36  17  38  1   
 37  18  20  1   
 38  18  39  1   
 39  18  40  1   
 40  19  20  1   
 41  19  21  1   
 42  20  41  1   
 43  20  42  1   
 44  21  43  1   
 45  21  44  1   
 46  21  45  1   
@<TRIPOS>SUBSTRUCTURE
  1 ****  10 GROUP 4 **** **** 0

# MOE 2024.06 (io_trps.svl 2023.06)
