@<TRIPOS>MOLECULE
NONAME
42 44 1 0 0 
SMALL
USER_CHARGES


@<TRIPOS>ATOM
  1 O        0.8790    -1.6020     0.9050 O.3   1 <1>  -0.6800 
  2 C        0.8230    -2.2780    -0.3000 C.3   1 <1>   0.2000 
  3 C        1.7610    -3.4790    -0.2270 C.3   1 <1>  -0.1600 
  4 C        1.4360    -1.3940    -1.3790 C.3   1 <1>  -0.1600 
  5 C        3.1640    -2.9340    -0.5420 C.3   1 <1>  -0.0800 
  6 C        2.9560    -1.6050    -1.2860 C.3   1 <1>  -0.0800 
  7 C        3.9870    -2.6080     0.7170 C.3   1 <1>  -0.1600 
  8 C        3.6640    -0.5190    -0.4590 C.3   1 <1>  -0.1600 
  9 C        4.6080    -1.2280     0.5040 C.3   1 <1>   0.4230 
 10 N        5.9880    -1.3010    -0.0530 N.4   1 <1>  -0.9590 
 11 C        6.9880    -1.7030     0.9700 C.3   1 <1>   0.5240 
 12 C        6.1770    -2.0550    -1.3270 C.3   1 <1>   0.2630 
 13 C        8.3040    -1.0400     0.5870 C.2   1 <1>   0.0460 
 14 N        8.2910     0.2290     0.1200 N.2   1 <1>  -0.5650 
 15 C        9.5660    -1.5310     0.6200 C.2   1 <1>  -0.3320 
 16 C        9.5380     0.4860    -0.1090 C.2   1 <1>   0.0360 
 17 N       10.3650    -0.5410     0.1740 N.pl3 1 <1>   0.0330 
 18 C       10.1100    -2.8830     1.0510 C.3   1 <1>  -0.0600 
 19 H        0.3680    -2.0850     1.5820 H     1 <1>   0.4000 
 20 H       -0.2020    -2.5410    -0.5060 H     1 <1>   0.0800 
 21 H        1.6980    -3.9990     0.7130 H     1 <1>   0.0800 
 22 H        1.4800    -4.1650    -1.0070 H     1 <1>   0.0800 
 23 H        1.0990    -1.7540    -2.3350 H     1 <1>   0.0800 
 24 H        1.1330    -0.3660    -1.2840 H     1 <1>   0.0800 
 25 H        3.6980    -3.6340    -1.1630 H     1 <1>   0.0800 
 26 H        3.3790    -1.6530    -2.2750 H     1 <1>   0.0800 
 27 H        4.7070    -3.3730     0.9380 H     1 <1>   0.0800 
 28 H        3.3240    -2.5260     1.5600 H     1 <1>   0.0800 
 29 H        2.9360     0.0010     0.1390 H     1 <1>   0.0800 
 30 H        4.1620     0.2070    -1.0760 H     1 <1>   0.0800 
 31 H        4.6340    -0.6880     1.4380 H     1 <1>   0.0800 
 32 H        6.3000    -0.3290    -0.2450 H     1 <1>   0.4500 
 33 H        6.6930    -1.3350     1.9380 H     1 <1>   0.0800 
 34 H        7.0940    -2.7730     1.0130 H     1 <1>   0.0800 
 35 H        5.9290    -3.0940    -1.1910 H     1 <1>   0.0800 
 36 H        7.2030    -1.9810    -1.6520 H     1 <1>   0.0800 
 37 H        5.5480    -1.6450    -2.0990 H     1 <1>   0.0800 
 38 H        9.9070     1.4260    -0.4880 H     1 <1>   0.1500 
 39 H       11.3860    -0.5530     0.0720 H     1 <1>   0.2700 
 40 H        9.3180    -3.5310     1.3800 H     1 <1>   0.0800 
 41 H       10.8060    -2.7600     1.8630 H     1 <1>   0.0800 
 42 H       10.6200    -3.3580     0.2310 H     1 <1>   0.0800 
@<TRIPOS>BOND
  1   1   2  1   
  2   1  19  1   
  3   2   3  1   
  4   2   4  1   
  5   2  20  1   
  6   3   5  1   
  7   3  21  1   
  8   3  22  1   
  9   4   6  1   
 10   4  23  1   
 11   4  24  1   
 12   5   6  1   
 13   5   7  1   
 14   5  25  1   
 15   6   8  1   
 16   6  26  1   
 17   7   9  1   
 18   7  27  1   
 19   7  28  1   
 20   8   9  1   
 21   8  29  1   
 22   8  30  1   
 23   9  10  1   
 24   9  31  1   
 25  10  11  1   
 26  10  12  1   
 27  10  32  1   
 28  11  13  1   
 29  11  33  1   
 30  11  34  1   
 31  12  35  1   
 32  12  36  1   
 33  12  37  1   
 34  13  14  1   
 35  13  15  2   
 36  14  16  2   
 37  15  17  1   
 38  15  18  1   
 39  16  17  1   
 40  16  38  1   
 41  17  39  1   
 42  18  40  1   
 43  18  41  1   
 44  18  42  1   
@<TRIPOS>SUBSTRUCTURE
  1 ****  10 GROUP 4 **** **** 0

# MOE 2024.06 (io_trps.svl 2023.06)
