@<TRIPOS>MOLECULE
NONAME
51 52 1 0 0 
SMALL
USER_CHARGES


@<TRIPOS>ATOM
  1 S        0.2590     0.4200     0.7330 S.o2  1 <1>   1.3330 
  2 O        0.3270     0.0570     2.1310 O.2   1 <1>  -0.6500 
  3 O       -0.0030    -0.6020    -0.2560 O.2   1 <1>  -0.6500 
  4 N       -0.9180     1.6290     0.5580 N.am  1 <1>  -0.8490 
  5 C        1.7800     1.2650     0.3140 C.3   1 <1>  -0.0550 
  6 C       -2.1140     1.3520     1.3600 C.3   1 <1>   0.1160 
  7 C       -1.3010     1.8720    -0.8370 C.3   1 <1>   0.1160 
  8 C        3.0190     0.3500     0.3650 C.3   1 <1>  -0.0800 
  9 C        4.3020     0.9790    -0.1570 C.3   1 <1>   0.2200 
 10 C        3.4110    -0.1160     1.7740 C.3   1 <1>   0.1200 
 11 N        4.4300     2.3810     0.3030 N.am  1 <1>  -0.7300 
 12 C        5.3390     0.1310     0.5640 C.3   1 <1>   0.1200 
 13 O        4.8090    -0.0690     1.8370 O.3   1 <1>  -0.5600 
 14 C        4.1240     3.4730    -0.4360 C.2   1 <1>   0.5690 
 15 O        3.6610     3.3790    -1.5460 O.2   1 <1>  -0.5700 
 16 C        4.3600     4.8430     0.1580 C.3   1 <1>  -0.0990 
 17 C        5.7010     5.4200    -0.3060 C.3   1 <1>  -0.0170 
 18 C        5.9600     6.7580     0.3660 C.ar  1 <1>  -0.1440 
 19 C        5.4390     7.9220    -0.1740 C.ar  1 <1>  -0.1500 
 20 C        6.7150     6.8270     1.5270 C.ar  1 <1>  -0.1500 
 21 C        5.6620     9.1490     0.4310 C.ar  1 <1>   0.0820 
 22 C        6.9430     8.0480     2.1400 C.ar  1 <1>  -0.1500 
 23 O        5.1120    10.2350    -0.1680 O.3   1 <1>  -0.3620 
 24 C        6.4200     9.2080     1.5970 C.ar  1 <1>  -0.1500 
 25 C        5.2900    11.5310     0.3590 C.3   1 <1>   0.0400 
 26 H        1.6950     1.6620    -0.6790 H     1 <1>   0.0800 
 27 H        1.9120     2.0920     0.9840 H     1 <1>   0.0800 
 28 H       -2.8330     2.1440     1.2440 H     1 <1>   0.0800 
 29 H       -1.8510     1.2870     2.4030 H     1 <1>   0.0800 
 30 H       -2.5600     0.4190     1.0560 H     1 <1>   0.0800 
 31 H       -1.9920     2.6950    -0.8930 H     1 <1>   0.0800 
 32 H       -1.7650     0.9950    -1.2590 H     1 <1>   0.0800 
 33 H       -0.4340     2.1200    -1.4250 H     1 <1>   0.0800 
 34 H        2.8160    -0.5280    -0.2240 H     1 <1>   0.0800 
 35 H        4.3920     0.9190    -1.2300 H     1 <1>   0.0800 
 36 H        3.0860    -1.1250     1.9670 H     1 <1>   0.0800 
 37 H        3.0270     0.5380     2.5380 H     1 <1>   0.0800 
 38 H        4.7630     2.4710     1.2660 H     1 <1>   0.3700 
 39 H        6.2980     0.6130     0.6380 H     1 <1>   0.0800 
 40 H        5.4450    -0.8310     0.0930 H     1 <1>   0.0800 
 41 H        3.5630     5.4950    -0.1500 H     1 <1>   0.0800 
 42 H        4.3420     4.7800     1.2300 H     1 <1>   0.0800 
 43 H        5.6880     5.5460    -1.3750 H     1 <1>   0.0800 
 44 H        6.4950     4.7340    -0.0690 H     1 <1>   0.0800 
 45 H        4.8510     7.8920    -1.0740 H     1 <1>   0.1500 
 46 H        7.1280     5.9340     1.9610 H     1 <1>   0.1500 
 47 H        7.5300     8.0930     3.0400 H     1 <1>   0.1500 
 48 H        6.6120    10.1400     2.0920 H     1 <1>   0.1500 
 49 H        4.7740    12.2250    -0.2800 H     1 <1>   0.0800 
 50 H        6.3410    11.7600     0.3740 H     1 <1>   0.0800 
 51 H        4.8730    11.5650     1.3490 H     1 <1>   0.0800 
@<TRIPOS>BOND
  1   1   2  2   
  2   1   3  2   
  3   1   4  am  
  4   1   5  1   
  5   4   6  1   
  6   4   7  1   
  7   5   8  1   
  8   5  26  1   
  9   5  27  1   
 10   6  28  1   
 11   6  29  1   
 12   6  30  1   
 13   7  31  1   
 14   7  32  1   
 15   7  33  1   
 16   8   9  1   
 17   8  10  1   
 18   8  34  1   
 19   9  11  1   
 20   9  12  1   
 21   9  35  1   
 22  10  13  1   
 23  10  36  1   
 24  10  37  1   
 25  11  14  am  
 26  11  38  1   
 27  12  13  1   
 28  12  39  1   
 29  12  40  1   
 30  14  15  2   
 31  14  16  1   
 32  16  17  1   
 33  16  41  1   
 34  16  42  1   
 35  17  18  1   
 36  17  43  1   
 37  17  44  1   
 38  18  19  ar  
 39  18  20  ar  
 40  19  21  ar  
 41  19  45  1   
 42  20  22  ar  
 43  20  46  1   
 44  21  23  1   
 45  21  24  ar  
 46  22  24  ar  
 47  22  47  1   
 48  23  25  1   
 49  24  48  1   
 50  25  49  1   
 51  25  50  1   
 52  25  51  1   
@<TRIPOS>SUBSTRUCTURE
  1 ****  14 GROUP 4 **** **** 0

# MOE 2024.06 (io_trps.svl 2023.06)
