@<TRIPOS>MOLECULE
NONAME
53 56 1 0 0 
SMALL
USER_CHARGES


@<TRIPOS>ATOM
  1 O       -1.3680     0.4600    -2.9150 O.2   1 <1>  -0.5700 
  2 C       -1.9770     0.9920    -2.0060 C.2   1 <1>   0.5440 
  3 N       -3.0080     0.3130    -1.3910 N.am  1 <1>  -0.6600 
  4 C       -1.6050     2.3310    -1.5950 C.ar  1 <1>   0.0860 
  5 C       -3.1430    -1.1810    -1.4650 C.3   1 <1>   0.1400 
  6 C       -4.1700     0.9970    -0.7650 C.3   1 <1>   0.1400 
  7 C       -1.4010     2.6480    -0.2500 C.ar  1 <1>  -0.1500 
  8 C       -1.4330     3.3500    -2.5320 C.ar  1 <1>  -0.1500 
  9 C       -3.3240    -1.7850    -0.0540 C.3   1 <1>  -0.1060 
 10 C       -4.3830     0.4640     0.6510 C.3   1 <1>  -0.1600 
 11 C       -1.0620     3.9270     0.1550 C.ar  1 <1>  -0.1440 
 12 C       -1.0930     4.6320    -2.1430 C.ar  1 <1>  -0.1500 
 13 C       -3.7590    -3.2450    -0.1530 C.2   1 <1>   0.9060 
 14 C       -4.5060    -1.0600     0.6280 C.3   1 <1>   0.2000 
 15 C       -2.0050    -1.6650     0.7640 C.3   1 <1>  -0.0170 
 16 C       -0.9070     4.9260    -0.8020 C.ar  1 <1>   0.0820 
 17 C       -0.8610     4.2320     1.6290 C.3   1 <1>  -0.0170 
 18 O       -4.0220    -3.7510    -1.2490 O.co2 1 <1>  -0.9000 
 19 O       -3.9410    -3.8680     0.9070 O.co2 1 <1>  -0.9000 
 20 O       -4.6410    -1.4950     1.9320 O.3   1 <1>  -0.6800 
 21 C       -0.7960    -2.3500     0.1310 C.ar  1 <1>  -0.1440 
 22 O       -0.5850     6.1950    -0.4670 O.3   1 <1>  -0.3630 
 23 C       -0.9630     5.7390     1.8760 C.3   1 <1>  -0.1600 
 24 C        0.1370    -1.6180    -0.5880 C.ar  1 <1>  -0.1500 
 25 C       -0.6130    -3.7160     0.2770 C.ar  1 <1>  -0.1500 
 26 C       -0.1280     6.4930     0.8370 C.3   1 <1>   0.1200 
 27 C        1.2370    -2.2400    -1.1500 C.ar  1 <1>  -0.1500 
 28 C        0.4880    -4.3420    -0.2830 C.ar  1 <1>  -0.1500 
 29 C        1.4160    -3.6040    -0.9960 C.ar  1 <1>  -0.1500 
 30 H       -4.0000    -1.4160    -2.0730 H     1 <1>   0.0800 
 31 H       -2.2860    -1.6210    -1.9470 H     1 <1>   0.0800 
 32 H       -4.0270     2.0620    -0.7410 H     1 <1>   0.0800 
 33 H       -5.0450     0.7940    -1.3600 H     1 <1>   0.0800 
 34 H       -1.5130     1.8660     0.4790 H     1 <1>   0.1500 
 35 H       -1.5690     3.1210    -3.5740 H     1 <1>   0.1500 
 36 H       -5.2860     0.8850     1.0520 H     1 <1>   0.0800 
 37 H       -3.5640     0.7650     1.2760 H     1 <1>   0.0800 
 38 H       -0.9670     5.4120    -2.8720 H     1 <1>   0.1500 
 39 H       -5.4140    -1.3300     0.1140 H     1 <1>   0.0800 
 40 H       -1.7670    -0.6310     0.9170 H     1 <1>   0.0800 
 41 H       -2.1500    -2.0950     1.7400 H     1 <1>   0.0800 
 42 H       -1.5960     3.7160     2.2220 H     1 <1>   0.0800 
 43 H        0.1150     3.8850     1.9210 H     1 <1>   0.0800 
 44 H       -4.5050    -2.4870     1.8990 H     1 <1>   0.4000 
 45 H       -0.6160     5.9730     2.8660 H     1 <1>   0.0800 
 46 H       -1.9880     6.0570     1.7960 H     1 <1>   0.0800 
 47 H        0.0040    -0.5600    -0.7220 H     1 <1>   0.1500 
 48 H       -1.3380    -4.2980     0.8230 H     1 <1>   0.1500 
 49 H        0.9070     6.2050     0.8960 H     1 <1>   0.0800 
 50 H       -0.2080     7.5570     0.9770 H     1 <1>   0.0800 
 51 H        1.9470    -1.6600    -1.7120 H     1 <1>   0.1500 
 52 H        0.6100    -5.4030    -0.1660 H     1 <1>   0.1500 
 53 H        2.2680    -4.0900    -1.4350 H     1 <1>   0.1500 
@<TRIPOS>BOND
  1   1   2  2   
  2   2   3  am  
  3   2   4  1   
  4   3   5  1   
  5   3   6  1   
  6   4   7  ar  
  7   4   8  ar  
  8   5   9  1   
  9   5  30  1   
 10   5  31  1   
 11   6  10  1   
 12   6  32  1   
 13   6  33  1   
 14   7  11  ar  
 15   7  34  1   
 16   8  12  ar  
 17   8  35  1   
 18   9  13  1   
 19   9  14  1   
 20   9  15  1   
 21  10  14  1   
 22  10  36  1   
 23  10  37  1   
 24  11  16  ar  
 25  11  17  1   
 26  12  16  ar  
 27  12  38  1   
 28  13  18  ar  
 29  13  19  ar  
 30  14  20  1   
 31  14  39  1   
 32  15  21  1   
 33  15  40  1   
 34  15  41  1   
 35  16  22  1   
 36  17  23  1   
 37  17  42  1   
 38  17  43  1   
 39  20  44  1   
 40  21  24  ar  
 41  21  25  ar  
 42  22  26  1   
 43  23  26  1   
 44  23  45  1   
 45  23  46  1   
 46  24  27  ar  
 47  24  47  1   
 48  25  28  ar  
 49  25  48  1   
 50  26  49  1   
 51  26  50  1   
 52  27  29  ar  
 53  27  51  1   
 54  28  29  ar  
 55  28  52  1   
 56  29  53  1   
@<TRIPOS>SUBSTRUCTURE
  1 ****   3 GROUP 4 **** **** 0

# MOE 2024.06 (io_trps.svl 2023.06)
