@<TRIPOS>MOLECULE
NONAME
17 17 1 0 0 
SMALL
USER_CHARGES


@<TRIPOS>ATOM
  1 BR      -0.9330     0.3120    -2.2110 Br    1 <1>  -0.0570 
  2 C       -1.4170     1.6730    -0.9240 C.2   1 <1>   0.3460 
  3 N       -1.2440     2.9280    -1.1330 N.2   1 <1>  -0.7070 
  4 C       -1.9770     1.4480     0.3050 C.2   1 <1>   0.3460 
  5 N       -1.7250     3.4460     0.0260 N.pl3 1 <1>   0.5800 
  6 BR      -2.4170    -0.2850     1.0460 Br    1 <1>  -0.0570 
  7 N       -2.1840     2.5500     0.9310 N.2   1 <1>  -0.7070 
  8 C       -1.7540     4.9150     0.3040 C.3   1 <1>   0.1760 
  9 C       -2.6430     5.6530    -0.7100 C.3   1 <1>  -0.2400 
 10 C       -0.3340     5.5050     0.3150 C.3   1 <1>  -0.2400 
 11 H       -2.1810     5.0400     1.2840 H     1 <1>   0.0800 
 12 H       -2.2420     5.5540    -1.7040 H     1 <1>   0.0800 
 13 H       -2.6960     6.6990    -0.4650 H     1 <1>   0.0800 
 14 H       -3.6390     5.2490    -0.6910 H     1 <1>   0.0800 
 15 H        0.1230     5.4030    -0.6540 H     1 <1>   0.0800 
 16 H        0.2700     4.9980     1.0460 H     1 <1>   0.0800 
 17 H       -0.3690     6.5490     0.5690 H     1 <1>   0.0800 
@<TRIPOS>BOND
  1   1   2  1   
  2   2   3  2   
  3   2   4  1   
  4   3   5  1   
  5   4   6  1   
  6   4   7  2   
  7   5   7  1   
  8   5   8  1   
  9   8   9  1   
 10   8  10  1   
 11   8  11  1   
 12   9  12  1   
 13   9  13  1   
 14   9  14  1   
 15  10  15  1   
 16  10  16  1   
 17  10  17  1   
@<TRIPOS>SUBSTRUCTURE
  1 ****   5 GROUP 4 **** **** 0

# MOE 2024.06 (io_trps.svl 2023.06)
