@<TRIPOS>MOLECULE
NONAME
46 48 1 0 0 
SMALL
USER_CHARGES


@<TRIPOS>ATOM
  1 O       -1.1310     0.1740     2.2980 O.2   1 <1>  -0.5700 
  2 C       -1.5590     0.7630     1.3240 C.2   1 <1>   0.5440 
  3 N       -2.2810     0.0540     0.3930 N.am  1 <1>  -0.6600 
  4 C       -1.3400     2.1900     1.1760 C.ar  1 <1>   0.0860 
  5 C       -3.1680     0.6570    -0.6330 C.3   1 <1>   0.1400 
  6 C       -2.5470    -1.4010     0.5120 C.3   1 <1>   0.1400 
  7 C       -0.5630     2.7500     0.1520 C.ar  1 <1>  -0.1440 
  8 C       -1.9500     3.0500     2.0870 C.ar  1 <1>  -0.1500 
  9 C       -4.3210    -0.3370    -0.7520 C.3   1 <1>   0.2000 
 10 C       -3.6500    -1.6950    -0.5130 C.3   1 <1>  -0.0800 
 11 C       -0.4510     4.1340     0.0340 C.ar  1 <1>   0.0820 
 12 C        0.1840     1.8590    -0.8440 C.3   1 <1>  -0.0960 
 13 C       -1.8290     4.4210     1.9810 C.ar  1 <1>  -0.1500 
 14 O       -5.2170    -0.0780     0.2740 O.3   1 <1>  -0.6800 
 15 C       -4.5960    -2.8360    -0.0980 C.3   1 <1>  -0.0170 
 16 O        0.2870     4.6250    -0.9970 O.3   1 <1>  -0.3630 
 17 C       -1.0860     4.9650     0.9530 C.ar  1 <1>  -0.1500 
 18 C       -3.8400    -4.1500     0.0230 C.ar  1 <1>  -0.1430 
 19 C        0.5210     6.0060    -1.1600 C.3   1 <1>   0.0400 
 20 C       -3.3590    -4.6110     1.2320 C.ar  1 <1>  -0.1500 
 21 C       -3.5920    -4.9490    -1.0750 C.ar  1 <1>  -0.1500 
 22 C       -2.6700    -5.8110     1.2830 C.ar  1 <1>   0.1600 
 23 C       -2.8930    -6.1340    -0.9160 C.ar  1 <1>   0.1600 
 24 N       -2.4230    -6.5830     0.2370 N.ar  1 <1>  -0.6200 
 25 H       -3.5130     1.6370    -0.3530 H     1 <1>   0.0800 
 26 H       -2.6340     0.7140    -1.5660 H     1 <1>   0.0800 
 27 H       -1.6550    -1.9680     0.3080 H     1 <1>   0.0800 
 28 H       -2.8820    -1.6160     1.5130 H     1 <1>   0.0800 
 29 H       -2.5280     2.6270     2.8910 H     1 <1>   0.1500 
 30 H       -4.8440    -0.2730    -1.6910 H     1 <1>   0.0800 
 31 H       -3.1620    -1.9800    -1.4290 H     1 <1>   0.0800 
 32 H        0.2930     0.8520    -0.4850 H     1 <1>   0.0800 
 33 H        1.1730     2.2440    -1.0160 H     1 <1>   0.0800 
 34 H       -0.3420     1.8400    -1.7810 H     1 <1>   0.0800 
 35 H       -2.3130     5.0630     2.6980 H     1 <1>   0.1500 
 36 H       -4.7130     0.0080     1.1090 H     1 <1>   0.4000 
 37 H       -5.3760    -2.9390    -0.8330 H     1 <1>   0.0800 
 38 H       -5.0700    -2.6090     0.8410 H     1 <1>   0.0800 
 39 H       -1.0140     6.0340     0.8870 H     1 <1>   0.1500 
 40 H        1.1510     6.1390    -2.0210 H     1 <1>   0.0800 
 41 H        1.0180     6.3820    -0.2830 H     1 <1>   0.0800 
 42 H       -0.4190     6.5040    -1.3170 H     1 <1>   0.0800 
 43 H       -3.5130    -4.0500     2.1360 H     1 <1>   0.1500 
 44 H       -3.9360    -4.6630    -2.0520 H     1 <1>   0.1500 
 45 H       -2.3010    -6.1530     2.2350 H     1 <1>   0.1500 
 46 H       -2.7090    -6.7450    -1.7830 H     1 <1>   0.1500 
@<TRIPOS>BOND
  1   1   2  2   
  2   2   3  am  
  3   2   4  1   
  4   3   5  1   
  5   3   6  1   
  6   4   7  ar  
  7   4   8  ar  
  8   5   9  1   
  9   5  25  1   
 10   5  26  1   
 11   6  10  1   
 12   6  27  1   
 13   6  28  1   
 14   7  11  ar  
 15   7  12  1   
 16   8  13  ar  
 17   8  29  1   
 18   9  10  1   
 19   9  14  1   
 20   9  30  1   
 21  10  15  1   
 22  10  31  1   
 23  11  16  1   
 24  11  17  ar  
 25  12  32  1   
 26  12  33  1   
 27  12  34  1   
 28  13  17  ar  
 29  13  35  1   
 30  14  36  1   
 31  15  18  1   
 32  15  37  1   
 33  15  38  1   
 34  16  19  1   
 35  17  39  1   
 36  18  20  ar  
 37  18  21  ar  
 38  19  40  1   
 39  19  41  1   
 40  19  42  1   
 41  20  22  ar  
 42  20  43  1   
 43  21  23  ar  
 44  21  44  1   
 45  22  24  ar  
 46  22  45  1   
 47  23  24  ar  
 48  23  46  1   
@<TRIPOS>SUBSTRUCTURE
  1 ****   3 GROUP 4 **** **** 0

# MOE 2024.06 (io_trps.svl 2023.06)
