@<TRIPOS>MOLECULE
NONAME
41 44 1 0 0 
SMALL
USER_CHARGES


@<TRIPOS>ATOM
  1 O        0.8160    -0.2140     2.1600 O.3   1 <1>  -0.0190 
  2 N        1.2500     0.9630     1.8280 N.2   1 <1>  -0.4100 
  3 C        1.2700    -0.9990     1.2170 C.2   1 <1>   0.2980 
  4 C        1.9200     0.8420     0.7370 C.2   1 <1>   0.5150 
  5 N        1.9560    -0.4270     0.3140 N.2   1 <1>  -0.5650 
  6 C        0.9460    -2.4870     1.2820 C.3   1 <1>   0.2900 
  7 C        2.5650     1.9320     0.0360 C.2   1 <1>   0.1410 
  8 N       -0.4880    -2.7760     1.0440 N.3   1 <1>  -0.8100 
  9 O        3.2440     1.7300    -1.0900 O.3   1 <1>  -0.2800 
 10 C        2.6140     3.2590     0.3370 C.2   1 <1>  -0.1500 
 11 C       -0.9540    -2.2920    -0.2630 C.3   1 <1>   0.1100 
 12 C       -0.7890    -4.2170     1.0850 C.3   1 <1>   0.1100 
 13 C        3.7200     2.8850    -1.5090 C.2   1 <1>  -0.0100 
 14 C        3.3640     3.8770    -0.6670 C.2   1 <1>  -0.1500 
 15 C       -2.2140    -3.1040    -0.5310 C.3   1 <1>   0.2000 
 16 C       -1.8500    -4.4890     0.0010 C.3   1 <1>  -0.0800 
 17 O       -3.2160    -2.5960     0.2710 O.3   1 <1>  -0.6800 
 18 C       -1.3120    -5.3860    -1.1310 C.3   1 <1>  -0.0170 
 19 C       -0.9740    -6.7860    -0.6420 C.ar  1 <1>   0.1670 
 20 N        0.2980    -7.0300    -0.3630 N.ar  1 <1>  -0.6200 
 21 C       -1.9850    -7.7360    -0.5120 C.ar  1 <1>   0.1600 
 22 C        0.4870    -8.2730     0.0470 C.ar  1 <1>   0.1600 
 23 N       -1.7980    -8.9780    -0.0980 N.ar  1 <1>  -0.6200 
 24 C       -0.5270    -9.2150     0.1750 C.ar  1 <1>   0.1600 
 25 H        1.2230    -2.8550     2.2540 H     1 <1>   0.0800 
 26 H        1.5430    -2.9990     0.5470 H     1 <1>   0.0800 
 27 H        2.1660     3.7530     1.1810 H     1 <1>   0.1500 
 28 H       -1.1550    -1.2330    -0.2490 H     1 <1>   0.0800 
 29 H       -0.2200    -2.5040    -1.0220 H     1 <1>   0.0800 
 30 H        0.1020    -4.7950     0.9070 H     1 <1>   0.0800 
 31 H       -1.1720    -4.4720     2.0590 H     1 <1>   0.0800 
 32 H        4.3010     2.9100    -2.4150 H     1 <1>   0.1500 
 33 H        3.5930     4.9260    -0.7270 H     1 <1>   0.1500 
 34 H       -2.5420    -3.0840    -1.5550 H     1 <1>   0.0800 
 35 H       -2.7130    -4.9660     0.4330 H     1 <1>   0.0800 
 36 H       -2.8050    -2.4010     1.1410 H     1 <1>   0.4000 
 37 H       -0.4350    -4.9440    -1.5710 H     1 <1>   0.0800 
 38 H       -2.0550    -5.4640    -1.9050 H     1 <1>   0.0800 
 39 H       -2.9940    -7.4560    -0.7590 H     1 <1>   0.1500 
 40 H        1.4930    -8.5630     0.2930 H     1 <1>   0.1500 
 41 H       -0.2740   -10.2030     0.5180 H     1 <1>   0.1500 
@<TRIPOS>BOND
  1   1   2  1   
  2   1   3  1   
  3   2   4  2   
  4   3   5  2   
  5   3   6  1   
  6   4   5  1   
  7   4   7  1   
  8   6   8  1   
  9   6  25  1   
 10   6  26  1   
 11   7   9  1   
 12   7  10  2   
 13   8  11  1   
 14   8  12  1   
 15   9  13  1   
 16  10  14  1   
 17  10  27  1   
 18  11  15  1   
 19  11  28  1   
 20  11  29  1   
 21  12  16  1   
 22  12  30  1   
 23  12  31  1   
 24  13  14  2   
 25  13  32  1   
 26  14  33  1   
 27  15  16  1   
 28  15  17  1   
 29  15  34  1   
 30  16  18  1   
 31  16  35  1   
 32  17  36  1   
 33  18  19  1   
 34  18  37  1   
 35  18  38  1   
 36  19  20  ar  
 37  19  21  ar  
 38  20  22  ar  
 39  21  23  ar  
 40  21  39  1   
 41  22  24  ar  
 42  22  40  1   
 43  23  24  ar  
 44  24  41  1   
@<TRIPOS>SUBSTRUCTURE
  1 ****   8 GROUP 4 **** **** 0

# MOE 2024.06 (io_trps.svl 2023.06)
