@<TRIPOS>MOLECULE
NONAME
41 41 1 0 0 
SMALL
USER_CHARGES


@<TRIPOS>ATOM
  1 O       -1.2580    -0.7110    -0.5170 O.2   1 <1>  -0.5700 
  2 C       -2.0240     0.2220    -0.4390 C.2   1 <1>   0.5690 
  3 N       -3.2260     0.0960     0.2080 N.am  1 <1>  -0.6600 
  4 C       -1.5870     1.5310    -1.0840 C.3   1 <1>  -0.0990 
  5 C       -3.5210    -1.1490     0.9780 C.3   1 <1>   0.3200 
  6 C       -4.4030     1.0010     0.0470 C.3   1 <1>   0.1400 
  7 C       -0.7080     2.3600    -0.1340 C.3   1 <1>  -0.1600 
  8 C       -4.0530    -2.2280     0.0520 C.2   1 <1>   0.0060 
  9 C       -4.3950     2.0950     1.1190 C.3   1 <1>   0.1200 
 10 C       -0.3020     3.6970    -0.7720 C.3   1 <1>  -0.1600 
 11 N       -5.2350    -2.7540     0.1140 N.2   1 <1>  -0.5650 
 12 N       -3.2890    -2.7290    -0.9410 N.pl3 1 <1>   0.0330 
 13 O       -5.5020     2.9150     0.9530 O.3   1 <1>  -0.6800 
 14 C        0.4730     4.6190     0.1870 C.3   1 <1>  -0.0800 
 15 C       -5.2400    -3.6480    -0.8940 C.2   1 <1>   0.0770 
 16 C       -4.0590    -3.6470    -1.5510 C.2   1 <1>  -0.3020 
 17 C        0.7000     5.9810    -0.4770 C.3   1 <1>  -0.2400 
 18 C        1.8250     4.0220     0.6000 C.3   1 <1>  -0.2400 
 19 H       -2.4320     2.1080    -1.3980 H     1 <1>   0.0800 
 20 H       -1.0200     1.2920    -1.9650 H     1 <1>   0.0800 
 21 H       -4.2470    -0.9450     1.7450 H     1 <1>   0.0800 
 22 H       -2.6240    -1.5030     1.4580 H     1 <1>   0.0800 
 23 H       -5.3080     0.4230     0.1380 H     1 <1>   0.0800 
 24 H       -4.3980     1.4390    -0.9340 H     1 <1>   0.0800 
 25 H        0.1690     1.7840     0.1050 H     1 <1>   0.0800 
 26 H       -1.2400     2.5450     0.7820 H     1 <1>   0.0800 
 27 H       -3.5140     2.7070     1.0490 H     1 <1>   0.0800 
 28 H       -4.4580     1.6580     2.1010 H     1 <1>   0.0800 
 29 H       -1.1930     4.2100    -1.0910 H     1 <1>   0.0800 
 30 H        0.2960     3.5080    -1.6480 H     1 <1>   0.0800 
 31 H       -2.3300    -2.4190    -1.1540 H     1 <1>   0.2700 
 32 H       -5.4400     3.4380     0.1310 H     1 <1>   0.4000 
 33 H       -0.1180     4.7750     1.0750 H     1 <1>   0.0800 
 34 H       -6.1070    -4.2540    -1.0980 H     1 <1>   0.1500 
 35 H       -3.7340    -4.2300    -2.3930 H     1 <1>   0.1500 
 36 H        1.2920     5.8750    -1.3690 H     1 <1>   0.0800 
 37 H        1.2140     6.6440     0.1970 H     1 <1>   0.0800 
 38 H       -0.2390     6.4340    -0.7400 H     1 <1>   0.0800 
 39 H        2.4210     3.7970    -0.2680 H     1 <1>   0.0800 
 40 H        1.6910     3.1210     1.1700 H     1 <1>   0.0800 
 41 H        2.3680     4.7190     1.2130 H     1 <1>   0.0800 
@<TRIPOS>BOND
  1   1   2  2   
  2   2   3  am  
  3   2   4  1   
  4   3   5  1   
  5   3   6  1   
  6   4   7  1   
  7   4  19  1   
  8   4  20  1   
  9   5   8  1   
 10   5  21  1   
 11   5  22  1   
 12   6   9  1   
 13   6  23  1   
 14   6  24  1   
 15   7  10  1   
 16   7  25  1   
 17   7  26  1   
 18   8  11  2   
 19   8  12  1   
 20   9  13  1   
 21   9  27  1   
 22   9  28  1   
 23  10  14  1   
 24  10  29  1   
 25  10  30  1   
 26  11  15  1   
 27  12  16  1   
 28  12  31  1   
 29  13  32  1   
 30  14  17  1   
 31  14  18  1   
 32  14  33  1   
 33  15  16  2   
 34  15  34  1   
 35  16  35  1   
 36  17  36  1   
 37  17  37  1   
 38  17  38  1   
 39  18  39  1   
 40  18  40  1   
 41  18  41  1   
@<TRIPOS>SUBSTRUCTURE
  1 ****   2 GROUP 4 **** **** 0

# MOE 2024.06 (io_trps.svl 2023.06)
