@<TRIPOS>MOLECULE
NONAME
54 56 1 0 0 
SMALL
USER_CHARGES


@<TRIPOS>ATOM
  1 O        0.7040     0.8900    -1.8260 O.2   1 <1>  -0.5700 
  2 C        1.2040    -0.0010    -1.1840 C.2   1 <1>   0.5690 
  3 N        2.3780     0.2290    -0.4910 N.am  1 <1>  -0.6600 
  4 C        0.4800    -1.3420    -1.2180 C.3   1 <1>   0.1570 
  5 C        3.2700    -0.8130     0.1210 C.3   1 <1>   0.1400 
  6 C        2.7090     1.6290    -0.1000 C.3   1 <1>   0.1400 
  7 N        0.3550    -1.9450     0.1270 N.pl3 1 <1>   0.0480 
  8 C        4.6970    -0.8430    -0.4760 C.3   1 <1>   0.3430 
  9 C        3.6630     2.2620    -1.1140 C.3   1 <1>  -0.1600 
 10 C        0.6530    -3.2120     0.5100 C.2   1 <1>   0.0060 
 11 C        0.0330    -1.3110     1.2710 C.2   1 <1>  -0.3020 
 12 N        5.3490     0.5040    -0.6330 N.4   1 <1>  -0.9590 
 13 C        4.6850     1.2990    -1.7110 C.3   1 <1>   0.3430 
 14 N        0.5730    -3.3990     1.7840 N.2   1 <1>  -0.5650 
 15 C        1.0420    -4.3250    -0.4460 C.3   1 <1>  -0.0600 
 16 C        0.1700    -2.2100     2.2660 C.2   1 <1>   0.0770 
 17 C        6.8160     0.3760    -0.8730 C.3   1 <1>   0.4860 
 18 C        7.4600     1.7370    -0.7170 C.ar  1 <1>  -0.1440 
 19 C        7.6810     2.2610     0.5480 C.ar  1 <1>   0.1600 
 20 C        7.8380     2.4800    -1.8210 C.ar  1 <1>  -0.1500 
 21 N        8.2060     3.4460     0.7950 N.ar  1 <1>  -0.6200 
 22 C        8.3970     3.7150    -1.5780 C.ar  1 <1>  -0.1500 
 23 C        8.5580     4.1550    -0.2730 C.ar  1 <1>   0.3930 
 24 O        9.1050     5.3740    -0.1030 O.3   1 <1>  -0.3620 
 25 C        9.3420     5.8920     1.1880 C.3   1 <1>   0.1200 
 26 C        9.9670     7.2760     1.0390 C.3   1 <1>  -0.2400 
 27 H        1.0070    -2.0090    -1.8710 H     1 <1>   0.0800 
 28 H       -0.5090    -1.1940    -1.6110 H     1 <1>   0.0800 
 29 H        2.8550    -1.7930    -0.0130 H     1 <1>   0.0800 
 30 H        3.3260    -0.6470     1.1830 H     1 <1>   0.0800 
 31 H        3.1510     1.6340     0.8820 H     1 <1>   0.0800 
 32 H        1.8080     2.2200    -0.0400 H     1 <1>   0.0800 
 33 H        4.6500    -1.3270    -1.4380 H     1 <1>   0.0800 
 34 H        5.3040    -1.4650     0.1620 H     1 <1>   0.0800 
 35 H        4.1660     3.0980    -0.6600 H     1 <1>   0.0800 
 36 H        3.0740     2.6610    -1.9220 H     1 <1>   0.0800 
 37 H       -0.2710    -0.2800     1.3180 H     1 <1>   0.1500 
 38 H        5.2290     1.0370     0.2360 H     1 <1>   0.4500 
 39 H        5.4100     1.8720    -2.2670 H     1 <1>   0.0800 
 40 H        4.1860     0.6370    -2.4010 H     1 <1>   0.0800 
 41 H        0.2690    -4.4690    -1.1780 H     1 <1>   0.0800 
 42 H        1.1630    -5.2430     0.1010 H     1 <1>   0.0800 
 43 H        1.9680    -4.0970    -0.9380 H     1 <1>   0.0800 
 44 H       -0.0060    -2.0660     3.3200 H     1 <1>   0.1500 
 45 H        7.0020    -0.0100    -1.8620 H     1 <1>   0.0800 
 46 H        7.2510    -0.3030    -0.1560 H     1 <1>   0.0800 
 47 H        7.4130     1.6830     1.4160 H     1 <1>   0.1500 
 48 H        7.7150     2.1300    -2.8330 H     1 <1>   0.1500 
 49 H        8.7170     4.3520    -2.3820 H     1 <1>   0.1500 
 50 H       10.0070     5.2230     1.7070 H     1 <1>   0.0800 
 51 H        8.4020     5.9500     1.7110 H     1 <1>   0.0800 
 52 H       10.8980     7.2050     0.5060 H     1 <1>   0.0800 
 53 H       10.1590     7.6950     2.0100 H     1 <1>   0.0800 
 54 H        9.2970     7.9300     0.5090 H     1 <1>   0.0800 
@<TRIPOS>BOND
  1   1   2  2   
  2   2   3  am  
  3   2   4  1   
  4   3   5  1   
  5   3   6  1   
  6   4   7  1   
  7   4  27  1   
  8   4  28  1   
  9   5   8  1   
 10   5  29  1   
 11   5  30  1   
 12   6   9  1   
 13   6  31  1   
 14   6  32  1   
 15   7  10  1   
 16   7  11  1   
 17   8  12  1   
 18   8  33  1   
 19   8  34  1   
 20   9  13  1   
 21   9  35  1   
 22   9  36  1   
 23  10  14  2   
 24  10  15  1   
 25  11  16  2   
 26  11  37  1   
 27  12  13  1   
 28  12  17  1   
 29  12  38  1   
 30  13  39  1   
 31  13  40  1   
 32  14  16  1   
 33  15  41  1   
 34  15  42  1   
 35  15  43  1   
 36  16  44  1   
 37  17  18  1   
 38  17  45  1   
 39  17  46  1   
 40  18  19  ar  
 41  18  20  ar  
 42  19  21  ar  
 43  19  47  1   
 44  20  22  ar  
 45  20  48  1   
 46  21  23  ar  
 47  22  23  ar  
 48  22  49  1   
 49  23  24  1   
 50  24  25  1   
 51  25  26  1   
 52  25  50  1   
 53  25  51  1   
 54  26  52  1   
 55  26  53  1   
 56  26  54  1   
@<TRIPOS>SUBSTRUCTURE
  1 ****  12 GROUP 4 **** **** 0

# MOE 2024.06 (io_trps.svl 2023.06)
