@<TRIPOS>MOLECULE
NONAME
47 49 1 0 0 
SMALL
USER_CHARGES


@<TRIPOS>ATOM
  1 O        1.3610     0.3980    -0.9190 O.2   1 <1>  -0.5700 
  2 C        1.8770    -0.4990    -0.2800 C.2   1 <1>   0.5440 
  3 N        2.8180    -0.1700     0.6760 N.am  1 <1>  -0.6600 
  4 C        1.5040    -1.8760    -0.5550 C.ar  1 <1>   0.0860 
  5 C        3.9280    -1.0860     1.0790 C.3   1 <1>   0.1400 
  6 C        2.9780     1.2280     1.1560 C.3   1 <1>   0.1400 
  7 C        1.4140    -2.3440    -1.8650 C.ar  1 <1>  -0.1500 
  8 C        1.2160    -2.7770     0.4710 C.ar  1 <1>  -0.1500 
  9 C        5.2740    -0.5410     0.5850 C.3   1 <1>   0.2000 
 10 C        4.2730     1.8050     0.5830 C.3   1 <1>  -0.1600 
 11 C        1.0700    -3.6550    -2.1420 C.ar  1 <1>  -0.1500 
 12 C        0.8720    -4.0900     0.2030 C.ar  1 <1>  -0.1500 
 13 O        6.2790    -1.3220     1.1410 O.3   1 <1>  -0.6800 
 14 C        5.4800     0.9440     0.9690 C.3   1 <1>   0.2200 
 15 C        0.8010    -4.5310    -1.1060 C.ar  1 <1>  -0.1500 
 16 N        6.6780     1.5190     0.3060 N.am  1 <1>  -0.7300 
 17 C        7.9740     1.3690     0.7210 C.2   1 <1>   0.7160 
 18 O        8.1770     0.5790     1.6270 O.2   1 <1>  -0.5700 
 19 C        9.0400     2.1190     0.0660 C.2   1 <1>   0.2030 
 20 N       10.1300     2.6010     0.6330 N.2   1 <1>  -0.7070 
 21 C        9.0310     2.4490    -1.2970 C.2   1 <1>  -0.1500 
 22 N       10.8110     3.2180    -0.3390 N.pl3 1 <1>   0.3140 
 23 C       10.1630     3.1440    -1.5160 C.2   1 <1>  -0.3020 
 24 C       12.1050     3.8850    -0.0880 C.3   1 <1>   0.0960 
 25 C       13.2750     3.0410    -0.6090 C.3   1 <1>  -0.2400 
 26 H        3.9430    -1.1620     2.1520 H     1 <1>   0.0800 
 27 H        3.7860    -2.0680     0.6660 H     1 <1>   0.0800 
 28 H        2.1400     1.8320     0.8500 H     1 <1>   0.0800 
 29 H        3.0120     1.2310     2.2320 H     1 <1>   0.0800 
 30 H        1.6150    -1.6610    -2.6730 H     1 <1>   0.1500 
 31 H        1.2600    -2.4380     1.4910 H     1 <1>   0.1500 
 32 H        5.3260    -0.6490    -0.4840 H     1 <1>   0.0800 
 33 H        4.4040     2.8030     0.9610 H     1 <1>   0.0800 
 34 H        4.1730     1.8530    -0.4880 H     1 <1>   0.0800 
 35 H        1.0100    -3.9920    -3.1620 H     1 <1>   0.1500 
 36 H        0.6580    -4.7680     1.0110 H     1 <1>   0.1500 
 37 H        7.0820    -0.7600     1.3100 H     1 <1>   0.4000 
 38 H        5.6060     1.0000     2.0380 H     1 <1>   0.0800 
 39 H        0.5330    -5.5520    -1.3190 H     1 <1>   0.1500 
 40 H        6.4860     2.2110    -0.4170 H     1 <1>   0.3700 
 41 H        8.2690     2.1810    -2.0060 H     1 <1>   0.1500 
 42 H       10.5440     3.5780    -2.4220 H     1 <1>   0.1500 
 43 H       12.0930     4.8460    -0.5670 H     1 <1>   0.0800 
 44 H       12.2050     4.0330     0.9730 H     1 <1>   0.0800 
 45 H       13.1940     2.8990    -1.6720 H     1 <1>   0.0800 
 46 H       13.2820     2.0820    -0.1200 H     1 <1>   0.0800 
 47 H       14.2050     3.5380    -0.3990 H     1 <1>   0.0800 
@<TRIPOS>BOND
  1   1   2  2   
  2   2   3  am  
  3   2   4  1   
  4   3   5  1   
  5   3   6  1   
  6   4   7  ar  
  7   4   8  ar  
  8   5   9  1   
  9   5  26  1   
 10   5  27  1   
 11   6  10  1   
 12   6  28  1   
 13   6  29  1   
 14   7  11  ar  
 15   7  30  1   
 16   8  12  ar  
 17   8  31  1   
 18   9  13  1   
 19   9  14  1   
 20   9  32  1   
 21  10  14  1   
 22  10  33  1   
 23  10  34  1   
 24  11  15  ar  
 25  11  35  1   
 26  12  15  ar  
 27  12  36  1   
 28  13  37  1   
 29  14  16  1   
 30  14  38  1   
 31  15  39  1   
 32  16  17  am  
 33  16  40  1   
 34  17  18  2   
 35  17  19  1   
 36  19  20  2   
 37  19  21  1   
 38  20  22  1   
 39  21  23  2   
 40  21  41  1   
 41  22  23  1   
 42  22  24  1   
 43  23  42  1   
 44  24  25  1   
 45  24  43  1   
 46  24  44  1   
 47  25  45  1   
 48  25  46  1   
 49  25  47  1   
@<TRIPOS>SUBSTRUCTURE
  1 ****   9 GROUP 4 **** **** 0

# MOE 2024.06 (io_trps.svl 2023.06)
