@<TRIPOS>MOLECULE
NONAME
45 47 1 0 0 
SMALL
USER_CHARGES


@<TRIPOS>ATOM
  1 O       -1.6390     0.4680     2.5930 O.2   1 <1>  -0.5700 
  2 C       -2.0020     0.9220     1.5250 C.2   1 <1>   0.5440 
  3 N       -2.7640     0.1310     0.6970 N.am  1 <1>  -0.6600 
  4 C       -1.6680     2.2860     1.1580 C.ar  1 <1>   0.0860 
  5 C       -3.5730     0.6290    -0.4390 C.3   1 <1>   0.1400 
  6 C       -3.1390    -1.2670     1.0290 C.3   1 <1>   0.1400 
  7 C       -0.8290     2.6150     0.0840 C.ar  1 <1>  -0.1440 
  8 C       -2.2270     3.3250     1.9010 C.ar  1 <1>  -0.1500 
  9 C       -4.7820    -0.3030    -0.4680 C.3   1 <1>   0.2000 
 10 C       -4.2440    -1.6490     0.0290 C.3   1 <1>  -0.0800 
 11 C       -0.6070     3.9500    -0.2480 C.ar  1 <1>   0.0820 
 12 C       -0.1340     1.5220    -0.7320 C.3   1 <1>  -0.0960 
 13 C       -1.9970     4.6480     1.5820 C.ar  1 <1>  -0.1500 
 14 O       -5.7050     0.1510     0.4580 O.3   1 <1>  -0.6800 
 15 C       -3.7010    -2.4890    -1.1440 C.3   1 <1>  -0.0170 
 16 O        0.1880     4.2140    -1.3200 O.3   1 <1>  -0.3630 
 17 C       -1.1940     4.9630     0.5050 C.ar  1 <1>  -0.1500 
 18 C       -3.3060    -3.8920    -0.7070 C.ar  1 <1>   0.1670 
 19 C        0.5370     5.5300    -1.6890 C.3   1 <1>   0.0400 
 20 N       -2.0260    -4.0950    -0.4430 N.ar  1 <1>  -0.6200 
 21 C       -4.2790    -4.8850    -0.6040 C.ar  1 <1>   0.1600 
 22 C       -1.7860    -5.3410    -0.0700 C.ar  1 <1>   0.1600 
 23 N       -4.0420    -6.1320    -0.2320 N.ar  1 <1>  -0.6200 
 24 C       -2.7610    -6.3260     0.0320 C.ar  1 <1>   0.1600 
 25 H       -3.8660     1.6580    -0.3130 H     1 <1>   0.0800 
 26 H       -3.0040     0.5250    -1.3460 H     1 <1>   0.0800 
 27 H       -2.2770    -1.9070     0.9630 H     1 <1>   0.0800 
 28 H       -3.5170    -1.3000     2.0370 H     1 <1>   0.0800 
 29 H       -2.8530     3.0800     2.7420 H     1 <1>   0.1500 
 30 H       -5.2640    -0.3470    -1.4300 H     1 <1>   0.0800 
 31 H       -5.0210    -2.2100     0.5190 H     1 <1>   0.0800 
 32 H       -0.1170     0.5790    -0.2170 H     1 <1>   0.0800 
 33 H        0.8870     1.7970    -0.9260 H     1 <1>   0.0800 
 34 H       -0.6370     1.3950    -1.6730 H     1 <1>   0.0800 
 35 H       -2.4440     5.4300     2.1720 H     1 <1>   0.1500 
 36 H       -5.2420     0.3110     1.3060 H     1 <1>   0.4000 
 37 H       -2.8490    -2.0030    -1.5880 H     1 <1>   0.0800 
 38 H       -4.4570    -2.5720    -1.9050 H     1 <1>   0.0800 
 39 H       -1.0360     5.9990     0.2730 H     1 <1>   0.1500 
 40 H        1.1950     5.4750    -2.5380 H     1 <1>   0.0800 
 41 H        1.0440     6.0010    -0.8650 H     1 <1>   0.0800 
 42 H       -0.3560     6.0670    -1.9530 H     1 <1>   0.0800 
 43 H       -5.2990    -4.6380    -0.8380 H     1 <1>   0.1500 
 44 H       -0.7680    -5.5960     0.1660 H     1 <1>   0.1500 
 45 H       -2.4670    -7.3130     0.3440 H     1 <1>   0.1500 
@<TRIPOS>BOND
  1   1   2  2   
  2   2   3  am  
  3   2   4  1   
  4   3   5  1   
  5   3   6  1   
  6   4   7  ar  
  7   4   8  ar  
  8   5   9  1   
  9   5  25  1   
 10   5  26  1   
 11   6  10  1   
 12   6  27  1   
 13   6  28  1   
 14   7  11  ar  
 15   7  12  1   
 16   8  13  ar  
 17   8  29  1   
 18   9  10  1   
 19   9  14  1   
 20   9  30  1   
 21  10  15  1   
 22  10  31  1   
 23  11  16  1   
 24  11  17  ar  
 25  12  32  1   
 26  12  33  1   
 27  12  34  1   
 28  13  17  ar  
 29  13  35  1   
 30  14  36  1   
 31  15  18  1   
 32  15  37  1   
 33  15  38  1   
 34  16  19  1   
 35  17  39  1   
 36  18  20  ar  
 37  18  21  ar  
 38  19  40  1   
 39  19  41  1   
 40  19  42  1   
 41  20  22  ar  
 42  21  23  ar  
 43  21  43  1   
 44  22  24  ar  
 45  22  44  1   
 46  23  24  ar  
 47  24  45  1   
@<TRIPOS>SUBSTRUCTURE
  1 ****   3 GROUP 4 **** **** 0

# MOE 2024.06 (io_trps.svl 2023.06)
