@<TRIPOS>MOLECULE
NONAME
48 49 1 0 0 
SMALL
USER_CHARGES


@<TRIPOS>ATOM
  1 S        1.6050     0.5280    -2.2930 S.3   1 <1>  -0.4600 
  2 C        1.7890     1.0980    -0.5860 C.3   1 <1>   0.0700 
  3 C        1.0520    -1.1860    -2.0970 C.3   1 <1>  -0.0100 
  4 C        2.3090     2.5350    -0.6430 C.3   1 <1>  -0.1600 
  5 C        2.4740     3.1780     0.7440 C.3   1 <1>   0.2890 
  6 N        2.8190     4.6150     0.5810 N.pl3 1 <1>  -0.8690 
  7 C        3.4860     2.4820     1.6800 C.3   1 <1>   0.1200 
  8 C        3.8670     5.2550     0.0360 C.ar  1 <1>   0.4100 
  9 O        2.9380     1.3360     2.2480 O.3   1 <1>  -0.6800 
 10 N        3.7450     6.5610     0.0220 N.ar  1 <1>  -0.6200 
 11 C        5.0050     4.6100    -0.4830 C.ar  1 <1>  -0.1500 
 12 C        4.7190     7.2830    -0.5180 C.ar  1 <1>   0.7710 
 13 C        5.9920     5.3590    -1.0300 C.ar  1 <1>   0.2180 
 14 N        5.8170     6.7010    -1.0330 N.ar  1 <1>  -0.1790 
 15 N        4.6170     8.6400    -0.5470 N.pl3 1 <1>  -0.8380 
 16 C        7.2620     4.7770    -1.6250 C.3   1 <1>  -0.0970 
 17 C        5.5450     9.6050    -1.2170 C.3   1 <1>   0.2090 
 18 C        3.5110     9.3640     0.1640 C.3   1 <1>   0.2090 
 19 C        6.2060    10.4840    -0.1520 C.3   1 <1>  -0.1600 
 20 C        4.1170    10.2540     1.2540 C.3   1 <1>  -0.1600 
 21 C        5.1570    11.2300     0.6850 C.3   1 <1>  -0.1600 
 22 H        0.8240     1.0350    -0.1160 H     1 <1>   0.0800 
 23 H        2.4850     0.4320    -0.1050 H     1 <1>   0.0800 
 24 H        0.9230    -1.6020    -3.0810 H     1 <1>   0.0800 
 25 H        0.1210    -1.1760    -1.5600 H     1 <1>   0.0800 
 26 H        1.8100    -1.7200    -1.5520 H     1 <1>   0.0800 
 27 H        3.2440     2.5280    -1.1680 H     1 <1>   0.0800 
 28 H        1.6080     3.1220    -1.2100 H     1 <1>   0.0800 
 29 H        1.5160     3.1500     1.2360 H     1 <1>   0.0800 
 30 H        2.0620     5.2390     0.8780 H     1 <1>   0.4000 
 31 H        3.7710     3.1390     2.4830 H     1 <1>   0.0800 
 32 H        4.3630     2.1810     1.1370 H     1 <1>   0.0800 
 33 H        2.3480     1.5610     2.9960 H     1 <1>   0.4000 
 34 H        5.0730     3.5420    -0.4410 H     1 <1>   0.1500 
 35 H        6.5110     7.3360    -1.4020 H     1 <1>   0.4570 
 36 H        7.2550     3.7030    -1.5510 H     1 <1>   0.0800 
 37 H        8.1270     5.1430    -1.1000 H     1 <1>   0.0800 
 38 H        7.3450     5.0390    -2.6650 H     1 <1>   0.0800 
 39 H        6.2990     9.1100    -1.8000 H     1 <1>   0.0800 
 40 H        4.9760    10.2300    -1.8890 H     1 <1>   0.0800 
 41 H        2.9710     9.9720    -0.5430 H     1 <1>   0.0800 
 42 H        2.8030     8.6900     0.6150 H     1 <1>   0.0800 
 43 H        6.8130     9.8730     0.4930 H     1 <1>   0.0800 
 44 H        6.8530    11.2000    -0.6290 H     1 <1>   0.0800 
 45 H        3.3310    10.8090     1.7350 H     1 <1>   0.0800 
 46 H        4.5740     9.6270     2.0000 H     1 <1>   0.0800 
 47 H        4.6580    11.9570     0.0650 H     1 <1>   0.0800 
 48 H        5.6380    11.7600     1.4900 H     1 <1>   0.0800 
@<TRIPOS>BOND
  1   1   2  1   
  2   1   3  1   
  3   2   4  1   
  4   2  22  1   
  5   2  23  1   
  6   3  24  1   
  7   3  25  1   
  8   3  26  1   
  9   4   5  1   
 10   4  27  1   
 11   4  28  1   
 12   5   6  1   
 13   5   7  1   
 14   5  29  1   
 15   6   8  1   
 16   6  30  1   
 17   7   9  1   
 18   7  31  1   
 19   7  32  1   
 20   8  10  ar  
 21   8  11  ar  
 22   9  33  1   
 23  10  12  ar  
 24  11  13  ar  
 25  11  34  1   
 26  12  14  ar  
 27  12  15  1   
 28  13  14  ar  
 29  13  16  1   
 30  14  35  1   
 31  15  17  1   
 32  15  18  1   
 33  16  36  1   
 34  16  37  1   
 35  16  38  1   
 36  17  19  1   
 37  17  39  1   
 38  17  40  1   
 39  18  20  1   
 40  18  41  1   
 41  18  42  1   
 42  19  21  1   
 43  19  43  1   
 44  19  44  1   
 45  20  21  1   
 46  20  45  1   
 47  20  46  1   
 48  21  47  1   
 49  21  48  1   
@<TRIPOS>SUBSTRUCTURE
  1 ****   8 GROUP 4 **** **** 0

# MOE 2024.06 (io_trps.svl 2023.06)
