@<TRIPOS>MOLECULE
NONAME
45 47 1 0 0 
SMALL
USER_CHARGES


@<TRIPOS>ATOM
  1 F       -1.9950    -0.5280     2.0290 F     1 <1>  -0.1900 
  2 C       -2.0770     0.1470     0.9120 C.ar  1 <1>   0.1900 
  3 C       -1.5490     1.4250     0.8610 C.ar  1 <1>   0.1900 
  4 C       -2.6810    -0.4320    -0.2020 C.ar  1 <1>   0.0860 
  5 F       -0.9930     1.9520     1.9220 F     1 <1>  -0.1900 
  6 C       -1.5910     2.1750    -0.2990 C.ar  1 <1>  -0.1500 
  7 C       -3.2550    -1.7580    -0.1800 C.2   1 <1>   0.5440 
  8 C       -2.7080     0.3360    -1.3710 C.ar  1 <1>  -0.1500 
  9 C       -2.1760     1.6160    -1.4240 C.ar  1 <1>  -0.1500 
 10 O       -2.9020    -2.5710    -1.0140 O.2   1 <1>  -0.5700 
 11 N       -4.2490    -2.1130     0.7000 N.am  1 <1>  -0.6600 
 12 C       -4.7190    -3.5270     0.8500 C.3   1 <1>   0.1400 
 13 C       -5.2400    -1.1360     1.2290 C.3   1 <1>   0.1400 
 14 C       -6.0060    -3.7300     0.0300 C.3   1 <1>   0.2000 
 15 C       -6.5600    -1.2900     0.4560 C.3   1 <1>  -0.1600 
 16 O       -5.6700    -3.5170    -1.3090 O.3   1 <1>  -0.6800 
 17 C       -7.1160    -2.7470     0.4910 C.3   1 <1>  -0.1060 
 18 C       -7.4900    -3.1820     1.9190 C.2   1 <1>   0.9060 
 19 C       -8.3710    -2.8890    -0.4140 C.3   1 <1>  -0.0170 
 20 O       -7.5550    -2.3570     2.8380 O.co2 1 <1>  -0.9000 
 21 O       -7.6940    -4.3840     2.1350 O.co2 1 <1>  -0.9000 
 22 C       -9.4220    -1.7940    -0.2380 C.ar  1 <1>  -0.1430 
 23 C      -10.2070    -1.7410     0.9030 C.ar  1 <1>  -0.1500 
 24 C       -9.6050    -0.8390    -1.2270 C.ar  1 <1>  -0.1500 
 25 C      -11.1610    -0.7490     1.0550 C.ar  1 <1>  -0.1500 
 26 C      -10.5600     0.1540    -1.0800 C.ar  1 <1>  -0.1500 
 27 C      -11.3390     0.1990     0.0630 C.ar  1 <1>  -0.1500 
 28 H       -1.1740     3.1670    -0.3190 H     1 <1>   0.1500 
 29 H       -3.1580    -0.0920    -2.2530 H     1 <1>   0.1500 
 30 H       -2.2160     2.1780    -2.3430 H     1 <1>   0.1500 
 31 H       -3.9640    -4.2190     0.5210 H     1 <1>   0.0800 
 32 H       -4.9130    -3.7300     1.8900 H     1 <1>   0.0800 
 33 H       -5.3970    -1.3240     2.2780 H     1 <1>   0.0800 
 34 H       -4.8840    -0.1270     1.1290 H     1 <1>   0.0800 
 35 H       -6.3450    -4.7480     0.1180 H     1 <1>   0.0800 
 36 H       -7.2820    -0.6220     0.8920 H     1 <1>   0.0800 
 37 H       -6.4080    -0.9830    -0.5620 H     1 <1>   0.0800 
 38 H       -4.7820    -3.0860    -1.3170 H     1 <1>   0.4000 
 39 H       -8.0720    -2.8960    -1.4450 H     1 <1>   0.0800 
 40 H       -8.8310    -3.8440    -0.2250 H     1 <1>   0.0800 
 41 H      -10.0700    -2.4710     1.6850 H     1 <1>   0.1500 
 42 H       -9.0010    -0.8670    -2.1160 H     1 <1>   0.1500 
 43 H      -11.7550    -0.7210     1.9500 H     1 <1>   0.1500 
 44 H      -10.6930     0.8890    -1.8520 H     1 <1>   0.1500 
 45 H      -12.0790     0.9690     0.1830 H     1 <1>   0.1500 
@<TRIPOS>BOND
  1   1   2  1   
  2   2   3  ar  
  3   2   4  ar  
  4   3   5  1   
  5   3   6  ar  
  6   4   7  1   
  7   4   8  ar  
  8   6   9  ar  
  9   6  28  1   
 10   7  10  2   
 11   7  11  am  
 12   8   9  ar  
 13   8  29  1   
 14   9  30  1   
 15  11  12  1   
 16  11  13  1   
 17  12  14  1   
 18  12  31  1   
 19  12  32  1   
 20  13  15  1   
 21  13  33  1   
 22  13  34  1   
 23  14  16  1   
 24  14  17  1   
 25  14  35  1   
 26  15  17  1   
 27  15  36  1   
 28  15  37  1   
 29  16  38  1   
 30  17  18  1   
 31  17  19  1   
 32  18  20  ar  
 33  18  21  ar  
 34  19  22  1   
 35  19  39  1   
 36  19  40  1   
 37  22  23  ar  
 38  22  24  ar  
 39  23  25  ar  
 40  23  41  1   
 41  24  26  ar  
 42  24  42  1   
 43  25  27  ar  
 44  25  43  1   
 45  26  27  ar  
 46  26  44  1   
 47  27  45  1   
@<TRIPOS>SUBSTRUCTURE
  1 ****  15 GROUP 4 **** **** 0

# MOE 2024.06 (io_trps.svl 2023.06)
