@<TRIPOS>MOLECULE
NONAME
51 53 1 0 0 
SMALL
USER_CHARGES


@<TRIPOS>ATOM
  1 S        0.7460     1.3470    -1.7370 S.o2  1 <1>   1.0900 
  2 O        0.1330     0.1480    -1.2100 O.2   1 <1>  -0.6500 
  3 O        0.2400     1.9200    -2.9630 O.2   1 <1>  -0.6500 
  4 C        0.6930     2.5930    -0.4670 C.3   1 <1>  -0.0550 
  5 C        2.4850     1.0250    -1.9430 C.3   1 <1>  -0.0550 
  6 C        1.4990     2.1310     0.7340 C.3   1 <1>   0.2090 
  7 C        3.1140     0.7180    -0.5950 C.3   1 <1>   0.2090 
  8 N        2.8970     1.8910     0.2910 N.pl3 1 <1>  -0.8380 
  9 C        3.9220     2.3450     1.1140 C.ar  1 <1>   0.1000 
 10 C        4.1580     3.7070     1.2190 C.ar  1 <1>  -0.1500 
 11 C        4.7160     1.4720     1.8490 C.ar  1 <1>  -0.1500 
 12 C        5.1640     4.2230     2.0270 C.ar  1 <1>   0.0860 
 13 C        5.7200     1.9570     2.6650 C.ar  1 <1>  -0.1500 
 14 C        5.3850     5.6530     2.1070 C.2   1 <1>   0.5440 
 15 C        5.9400     3.3200     2.7540 C.ar  1 <1>  -0.1500 
 16 O        4.4820     6.3640     2.5060 O.2   1 <1>  -0.5700 
 17 N        6.5880     6.2280     1.7430 N.am  1 <1>  -0.6600 
 18 C        7.6560     5.5030     0.9960 C.3   1 <1>   0.1400 
 19 C        6.8760     7.6670     2.0110 C.3   1 <1>   0.1400 
 20 C        7.9700     6.2340    -0.3100 C.3   1 <1>  -0.1600 
 21 C        7.1870     8.3970     0.7030 C.3   1 <1>  -0.1600 
 22 C        8.3230     7.6980    -0.0500 C.3   1 <1>   0.2000 
 23 O        8.5110     8.3030    -1.2880 O.3   1 <1>  -0.5600 
 24 C        9.3080     9.4410    -1.2880 C.3   1 <1>   0.1200 
 25 C        9.4160     9.9220    -2.7290 C.3   1 <1>  -0.2400 
 26 H       -0.3220     2.7710    -0.1710 H     1 <1>   0.0800 
 27 H        1.1060     3.5150    -0.8280 H     1 <1>   0.0800 
 28 H        2.9760     1.8780    -2.3680 H     1 <1>   0.0800 
 29 H        2.6260     0.1910    -2.6020 H     1 <1>   0.0800 
 30 H        1.0830     1.2230     1.1400 H     1 <1>   0.0800 
 31 H        1.4790     2.8870     1.5020 H     1 <1>   0.0800 
 32 H        4.1690     0.5430    -0.7200 H     1 <1>   0.0800 
 33 H        2.6650    -0.1600    -0.1590 H     1 <1>   0.0800 
 34 H        3.5460     4.3880     0.6570 H     1 <1>   0.1500 
 35 H        4.5380     0.4150     1.7890 H     1 <1>   0.1500 
 36 H        6.3280     1.2740     3.2350 H     1 <1>   0.1500 
 37 H        6.7150     3.6990     3.3970 H     1 <1>   0.1500 
 38 H        7.3510     4.4970     0.7640 H     1 <1>   0.0800 
 39 H        8.5390     5.4530     1.6090 H     1 <1>   0.0800 
 40 H        7.7190     7.7330     2.6760 H     1 <1>   0.0800 
 41 H        6.0390     8.1420     2.4940 H     1 <1>   0.0800 
 42 H        7.1110     6.1800    -0.9560 H     1 <1>   0.0800 
 43 H        8.7950     5.7500    -0.8000 H     1 <1>   0.0800 
 44 H        7.4570     9.4100     0.9320 H     1 <1>   0.0800 
 45 H        6.3000     8.4090     0.0940 H     1 <1>   0.0800 
 46 H        9.2420     7.7490     0.5120 H     1 <1>   0.0800 
 47 H       10.2800     9.1870    -0.9000 H     1 <1>   0.0800 
 48 H        8.8490    10.1960    -0.6740 H     1 <1>   0.0800 
 49 H        9.8630     9.1580    -3.3390 H     1 <1>   0.0800 
 50 H       10.0280    10.8040    -2.7760 H     1 <1>   0.0800 
 51 H        8.4390    10.1590    -3.1110 H     1 <1>   0.0800 
@<TRIPOS>BOND
  1   1   2  2   
  2   1   3  2   
  3   1   4  1   
  4   1   5  1   
  5   4   6  1   
  6   4  26  1   
  7   4  27  1   
  8   5   7  1   
  9   5  28  1   
 10   5  29  1   
 11   6   8  1   
 12   6  30  1   
 13   6  31  1   
 14   7   8  1   
 15   7  32  1   
 16   7  33  1   
 17   8   9  1   
 18   9  10  ar  
 19   9  11  ar  
 20  10  12  ar  
 21  10  34  1   
 22  11  13  ar  
 23  11  35  1   
 24  12  14  1   
 25  12  15  ar  
 26  13  15  ar  
 27  13  36  1   
 28  14  16  2   
 29  14  17  am  
 30  15  37  1   
 31  17  18  1   
 32  17  19  1   
 33  18  20  1   
 34  18  38  1   
 35  18  39  1   
 36  19  21  1   
 37  19  40  1   
 38  19  41  1   
 39  20  22  1   
 40  20  42  1   
 41  20  43  1   
 42  21  22  1   
 43  21  44  1   
 44  21  45  1   
 45  22  23  1   
 46  22  46  1   
 47  23  24  1   
 48  24  25  1   
 49  24  47  1   
 50  24  48  1   
 51  25  49  1   
 52  25  50  1   
 53  25  51  1   
@<TRIPOS>SUBSTRUCTURE
  1 ****  10 GROUP 4 **** **** 0

# MOE 2024.06 (io_trps.svl 2023.06)
