@<TRIPOS>MOLECULE
NONAME
37 39 1 0 0 
SMALL
USER_CHARGES


@<TRIPOS>ATOM
  1 O       -0.2480     1.1830    -1.1810 O.2   1 <1>  -0.5700 
  2 C       -0.4540     2.3570    -0.9760 C.2   1 <1>   0.5690 
  3 N       -1.2680     2.8230     0.0220 N.am  1 <1>  -0.5090 
  4 C        0.2360     3.3790    -1.8710 C.3   1 <1>   0.1810 
  5 C       -1.4950     4.2950     0.2020 C.3   1 <1>   0.3640 
  6 C       -1.7610     1.9420     1.1100 C.3   1 <1>   0.0490 
  7 O        0.6180     4.5070    -1.1290 O.3   1 <1>  -0.5600 
  8 C       -2.9000     4.6700    -0.2720 C.ar  1 <1>  -0.1440 
  9 C       -0.4600     5.2090    -0.5220 C.3   1 <1>   0.2610 
 10 C       -2.6030     0.7590     0.7490 C.3   1 <1>  -0.2000 
 11 C       -3.2150     1.9130     1.4750 C.3   1 <1>  -0.2000 
 12 C       -3.6240     5.6230     0.4330 C.ar  1 <1>   0.1600 
 13 C       -3.4820     4.0960    -1.3890 C.ar  1 <1>  -0.1500 
 14 C        0.0690     6.2550     0.4650 C.2   1 <1>   0.5690 
 15 N       -4.8440     6.0310     0.1240 N.ar  1 <1>  -0.6200 
 16 C       -4.7520     4.5120    -1.7240 C.ar  1 <1>  -0.1500 
 17 O       -0.7220     6.9020     1.1110 O.2   1 <1>  -0.5700 
 18 N        1.4120     6.4270     0.6000 N.am  1 <1>  -0.7300 
 19 C       -5.3800     5.4680    -0.9450 C.ar  1 <1>   0.1600 
 20 C        2.0890     7.3940     1.4990 C.3   1 <1>   0.0600 
 21 H       -0.4190     3.6850    -2.6660 H     1 <1>   0.0800 
 22 H        1.1250     2.9450    -2.2910 H     1 <1>   0.0800 
 23 H       -1.4380     4.4910     1.2590 H     1 <1>   0.0800 
 24 H       -1.0310     1.8140     1.8930 H     1 <1>   0.1000 
 25 H       -0.9590     5.7470    -1.3080 H     1 <1>   0.0800 
 26 H       -2.8460     0.6020    -0.2870 H     1 <1>   0.1000 
 27 H       -2.4470    -0.1630     1.2810 H     1 <1>   0.1000 
 28 H       -3.4870     1.7710     2.5060 H     1 <1>   0.1000 
 29 H       -3.9370     2.5010     0.9400 H     1 <1>   0.1000 
 30 H       -3.1790     6.0820     1.3010 H     1 <1>   0.1500 
 31 H       -2.9840     3.3460    -1.9780 H     1 <1>   0.1500 
 32 H       -5.2560     4.0990    -2.5790 H     1 <1>   0.1500 
 33 H        2.0130     5.8300     0.0180 H     1 <1>   0.3700 
 34 H       -6.3730     5.7850    -1.2140 H     1 <1>   0.1500 
 35 H        1.3610     7.9640     2.0510 H     1 <1>   0.0800 
 36 H        2.6920     8.0700     0.9170 H     1 <1>   0.0800 
 37 H        2.7180     6.8650     2.1940 H     1 <1>   0.0800 
@<TRIPOS>BOND
  1   1   2  2   
  2   2   3  am  
  3   2   4  1   
  4   3   5  1   
  5   3   6  1   
  6   4   7  1   
  7   4  21  1   
  8   4  22  1   
  9   5   8  1   
 10   5   9  1   
 11   5  23  1   
 12   6  10  1   
 13   6  11  1   
 14   6  24  1   
 15   7   9  1   
 16   8  12  ar  
 17   8  13  ar  
 18   9  14  1   
 19   9  25  1   
 20  10  11  1   
 21  10  26  1   
 22  10  27  1   
 23  11  28  1   
 24  11  29  1   
 25  12  15  ar  
 26  12  30  1   
 27  13  16  ar  
 28  13  31  1   
 29  14  17  2   
 30  14  18  am  
 31  15  19  ar  
 32  16  19  ar  
 33  16  32  1   
 34  18  20  1   
 35  18  33  1   
 36  19  34  1   
 37  20  35  1   
 38  20  36  1   
 39  20  37  1   
@<TRIPOS>SUBSTRUCTURE
  1 ****   5 GROUP 4 **** **** 0

# MOE 2024.06 (io_trps.svl 2023.06)
