@<TRIPOS>MOLECULE
NONAME
42 43 1 0 0 
SMALL
USER_CHARGES


@<TRIPOS>ATOM
  1 O        0.2920    -1.0520     1.6060 O.3   1 <1>  -0.3630 
  2 C       -0.0260    -2.2290     1.0150 C.ar  1 <1>   0.0830 
  3 C        0.6110     0.0940     0.8470 C.3   1 <1>   0.0400 
  4 C       -0.1150    -2.4080    -0.3620 C.ar  1 <1>  -0.1500 
  5 C       -0.2690    -3.3020     1.8560 C.ar  1 <1>  -0.1500 
  6 C       -0.4540    -3.6450    -0.8800 C.ar  1 <1>  -0.1500 
  7 C       -0.6070    -4.5390     1.3390 C.ar  1 <1>  -0.1500 
  8 C       -0.7130    -4.7150    -0.0330 C.ar  1 <1>  -0.1430 
  9 C       -1.1140    -6.0650    -0.5890 C.3   1 <1>   0.4860 
 10 N       -2.5920    -6.1940    -0.4460 N.4   1 <1>  -0.9590 
 11 C       -3.0250    -7.6070    -0.5370 C.3   1 <1>   0.5230 
 12 C       -3.3170    -5.2970    -1.4030 C.3   1 <1>   0.3430 
 13 C       -2.4240    -8.3420     0.6350 C.2   1 <1>  -0.3320 
 14 C       -4.7810    -5.0610    -1.0070 C.3   1 <1>   0.1200 
 15 N       -1.8080    -9.5430     0.5560 N.pl3 1 <1>   0.0480 
 16 C       -2.3830    -7.9760     1.9370 C.2   1 <1>   0.0770 
 17 O       -5.4030    -4.4410    -2.0750 O.3   1 <1>  -0.6800 
 18 C       -1.4170    -9.8070     1.8230 C.2   1 <1>   0.0360 
 19 C       -1.6040   -10.4240    -0.6130 C.3   1 <1>   0.0160 
 20 N       -1.7370    -8.8880     2.6730 N.2   1 <1>  -0.5650 
 21 H        0.8450     0.8910     1.5290 H     1 <1>   0.0800 
 22 H       -0.2410     0.3660     0.2490 H     1 <1>   0.0800 
 23 H        1.4650    -0.1210     0.2300 H     1 <1>   0.0800 
 24 H        0.0780    -1.5960    -1.0380 H     1 <1>   0.1500 
 25 H       -0.1860    -3.1560     2.9190 H     1 <1>   0.1500 
 26 H       -0.5110    -3.7580    -1.9500 H     1 <1>   0.1500 
 27 H       -0.7770    -5.3560     2.0230 H     1 <1>   0.1500 
 28 H       -0.6110    -6.8330    -0.0230 H     1 <1>   0.0800 
 29 H       -0.8200    -6.1500    -1.6220 H     1 <1>   0.0800 
 30 H       -2.7850    -5.8710     0.5090 H     1 <1>   0.4500 
 31 H       -2.6890    -8.0380    -1.4670 H     1 <1>   0.0800 
 32 H       -4.0990    -7.6810    -0.4910 H     1 <1>   0.0800 
 33 H       -3.2880    -5.7240    -2.3920 H     1 <1>   0.0800 
 34 H       -2.8320    -4.3350    -1.4380 H     1 <1>   0.0800 
 35 H       -4.8480    -4.4090    -0.1530 H     1 <1>   0.0800 
 36 H       -5.3030    -5.9820    -0.8190 H     1 <1>   0.0800 
 37 H       -2.7850    -7.0950     2.4120 H     1 <1>   0.1500 
 38 H       -6.3270    -4.1870    -1.8640 H     1 <1>   0.4000 
 39 H       -0.8880   -10.7080     2.0860 H     1 <1>   0.1500 
 40 H       -2.5550   -10.6740    -1.0460 H     1 <1>   0.0800 
 41 H       -1.1150   -11.3300    -0.2990 H     1 <1>   0.0800 
 42 H       -0.9880    -9.9270    -1.3400 H     1 <1>   0.0800 
@<TRIPOS>BOND
  1   1   2  1   
  2   1   3  1   
  3   2   4  ar  
  4   2   5  ar  
  5   3  21  1   
  6   3  22  1   
  7   3  23  1   
  8   4   6  ar  
  9   4  24  1   
 10   5   7  ar  
 11   5  25  1   
 12   6   8  ar  
 13   6  26  1   
 14   7   8  ar  
 15   7  27  1   
 16   8   9  1   
 17   9  10  1   
 18   9  28  1   
 19   9  29  1   
 20  10  11  1   
 21  10  12  1   
 22  10  30  1   
 23  11  13  1   
 24  11  31  1   
 25  11  32  1   
 26  12  14  1   
 27  12  33  1   
 28  12  34  1   
 29  13  15  1   
 30  13  16  2   
 31  14  17  1   
 32  14  35  1   
 33  14  36  1   
 34  15  18  1   
 35  15  19  1   
 36  16  20  1   
 37  16  37  1   
 38  17  38  1   
 39  18  20  2   
 40  18  39  1   
 41  19  40  1   
 42  19  41  1   
 43  19  42  1   
@<TRIPOS>SUBSTRUCTURE
  1 ****   9 GROUP 4 **** **** 0

# MOE 2024.06 (io_trps.svl 2023.06)
