@<TRIPOS>MOLECULE
NONAME
49 51 1 0 0 
SMALL
USER_CHARGES


@<TRIPOS>ATOM
  1 S        0.5220     0.5390    -0.8780 S.o2  1 <1>   1.3330 
  2 O        0.4040    -0.4180    -1.9540 O.2   1 <1>  -0.6500 
  3 O        0.2370     0.1270     0.4780 O.2   1 <1>  -0.6500 
  4 N       -0.4690     1.8710    -1.2350 N.am  1 <1>  -0.8490 
  5 C        2.1720     1.2290    -0.9400 C.3   1 <1>  -0.0550 
  6 C       -0.7230     2.7380    -0.0810 C.3   1 <1>   0.1160 
  7 C       -1.7370     1.4690    -1.8490 C.3   1 <1>   0.1160 
  8 C        3.2790     0.1630    -0.8060 C.3   1 <1>  -0.0800 
  9 C        4.7020     0.6890    -0.9240 C.3   1 <1>   0.2200 
 10 C        3.2980    -0.5830     0.5360 C.3   1 <1>   0.1200 
 11 N        4.8620     1.9480    -0.1570 N.am  1 <1>  -0.7300 
 12 C        5.4590    -0.4130    -0.1980 C.3   1 <1>   0.1200 
 13 O        4.6450    -0.7400     0.8850 O.3   1 <1>  -0.5600 
 14 C        4.8540     3.2070    -0.6850 C.2   1 <1>   0.6160 
 15 O        4.6610     3.3130    -1.8800 O.2   1 <1>  -0.5700 
 16 C        5.0370     4.3700     0.1630 C.2   1 <1>   0.0910 
 17 O        4.9100     5.5640    -0.4510 O.3   1 <1>  -0.1590 
 18 C        5.3120     4.3490     1.4950 C.2   1 <1>  -0.1360 
 19 C        5.0390     6.7450     0.1940 C.ar  1 <1>   0.0820 
 20 C        5.4590     5.5320     2.2600 C.2   1 <1>   0.4690 
 21 C        5.3150     6.7800     1.5640 C.ar  1 <1>   0.0860 
 22 C        4.8900     7.9170    -0.5330 C.ar  1 <1>  -0.1500 
 23 O        5.6910     5.4660     3.4520 O.2   1 <1>  -0.5700 
 24 C        5.4340     8.0290     2.1760 C.ar  1 <1>  -0.1500 
 25 C        5.0110     9.1450     0.0900 C.ar  1 <1>  -0.1440 
 26 C        5.2840     9.1940     1.4500 C.ar  1 <1>  -0.1500 
 27 C        4.8500    10.4370    -0.6910 C.3   1 <1>  -0.0970 
 28 H        2.3000     1.7350    -1.8780 H     1 <1>   0.0800 
 29 H        2.2730     1.9580    -0.1610 H     1 <1>   0.0800 
 30 H       -1.2800     3.6070    -0.3870 H     1 <1>   0.0800 
 31 H        0.2070     3.0670     0.3490 H     1 <1>   0.0800 
 32 H       -1.2840     2.2080     0.6730 H     1 <1>   0.0800 
 33 H       -2.3310     2.3360    -2.0810 H     1 <1>   0.0800 
 34 H       -2.2890     0.8270    -1.1830 H     1 <1>   0.0800 
 35 H       -1.5500     0.9360    -2.7670 H     1 <1>   0.0800 
 36 H        3.1320    -0.5700    -1.5810 H     1 <1>   0.0800 
 37 H        5.0250     0.8130    -1.9450 H     1 <1>   0.0800 
 38 H        2.8400    -1.5550     0.4590 H     1 <1>   0.0800 
 39 H        2.8210    -0.0200     1.3200 H     1 <1>   0.0800 
 40 H        4.9540     1.7940     0.8500 H     1 <1>   0.3700 
 41 H        6.4270    -0.0980     0.1530 H     1 <1>   0.0800 
 42 H        5.5580    -1.2870    -0.8190 H     1 <1>   0.0800 
 43 H        5.4330     3.4360     2.0450 H     1 <1>   0.1500 
 44 H        4.6790     7.8540    -1.5860 H     1 <1>   0.1500 
 45 H        5.6470     8.0750     3.2310 H     1 <1>   0.1500 
 46 H        5.3800    10.1460     1.9440 H     1 <1>   0.1500 
 47 H        4.0290    11.0060    -0.2930 H     1 <1>   0.0800 
 48 H        4.6560    10.2380    -1.7300 H     1 <1>   0.0800 
 49 H        5.7480    11.0240    -0.6180 H     1 <1>   0.0800 
@<TRIPOS>BOND
  1   1   2  2   
  2   1   3  2   
  3   1   4  am  
  4   1   5  1   
  5   4   6  1   
  6   4   7  1   
  7   5   8  1   
  8   5  28  1   
  9   5  29  1   
 10   6  30  1   
 11   6  31  1   
 12   6  32  1   
 13   7  33  1   
 14   7  34  1   
 15   7  35  1   
 16   8   9  1   
 17   8  10  1   
 18   8  36  1   
 19   9  11  1   
 20   9  12  1   
 21   9  37  1   
 22  10  13  1   
 23  10  38  1   
 24  10  39  1   
 25  11  14  am  
 26  11  40  1   
 27  12  13  1   
 28  12  41  1   
 29  12  42  1   
 30  14  15  2   
 31  14  16  1   
 32  16  17  1   
 33  16  18  2   
 34  17  19  1   
 35  18  20  1   
 36  18  43  1   
 37  19  21  ar  
 38  19  22  ar  
 39  20  21  1   
 40  20  23  2   
 41  21  24  ar  
 42  22  25  ar  
 43  22  44  1   
 44  24  26  ar  
 45  24  45  1   
 46  25  26  ar  
 47  25  27  1   
 48  26  46  1   
 49  27  47  1   
 50  27  48  1   
 51  27  49  1   
@<TRIPOS>SUBSTRUCTURE
  1 ****  14 GROUP 4 **** **** 0

# MOE 2024.06 (io_trps.svl 2023.06)
