@<TRIPOS>MOLECULE
NONAME
53 56 1 0 0 
SMALL
USER_CHARGES


@<TRIPOS>ATOM
  1 O       -0.9690    -0.3620    -1.0320 O.3   1 <1>  -0.3630 
  2 C       -1.1290    -1.4980    -0.3050 C.ar  1 <1>   0.0820 
  3 C       -1.8050     0.7630    -0.8570 C.3   1 <1>   0.0400 
  4 C       -0.2460    -2.5450    -0.5480 C.ar  1 <1>  -0.1440 
  5 C       -2.1280    -1.6450     0.6520 C.ar  1 <1>  -0.1500 
  6 C       -0.3840    -3.7280     0.1670 C.ar  1 <1>  -0.1500 
  7 C        0.8550    -2.3850    -1.6010 C.3   1 <1>   0.2390 
  8 C       -2.2520    -2.8270     1.3580 C.ar  1 <1>  -0.1500 
  9 C       -1.3820    -3.8780     1.1160 C.ar  1 <1>  -0.1430 
 10 N        2.0980    -3.0780    -1.2070 N.pl3 1 <1>   0.3140 
 11 C       -1.5190    -5.1860     1.8740 C.3   1 <1>   0.4870 
 12 N        2.4310    -4.2990    -1.6260 N.2   1 <1>  -0.7070 
 13 C        3.0420    -2.6450    -0.3670 C.2   1 <1>   0.0360 
 14 N       -1.9570    -6.2390     0.9250 N.4   1 <1>  -0.9590 
 15 C        3.5560    -4.4990    -1.0180 C.2   1 <1>   0.3660 
 16 N        3.9770    -3.5110    -0.2200 N.2   1 <1>  -0.5650 
 17 C       -3.2170    -5.9360     0.1830 C.3   1 <1>   0.3430 
 18 C       -2.0900    -7.6060     1.4750 C.3   1 <1>   0.3430 
 19 C       -3.8340    -7.2940    -0.1740 C.3   1 <1>   0.2000 
 20 C       -2.9220    -8.3670     0.4390 C.3   1 <1>  -0.0800 
 21 O       -5.0980    -7.3940     0.3940 O.3   1 <1>  -0.6800 
 22 C       -2.0680    -9.1110    -0.6200 C.3   1 <1>  -0.0170 
 23 C       -0.8100    -8.4040    -1.1290 C.ar  1 <1>   0.1670 
 24 N       -0.9410    -7.1660    -1.5890 N.ar  1 <1>  -0.6200 
 25 C        0.4070    -9.0850    -1.1060 C.ar  1 <1>   0.1600 
 26 C        0.2040    -6.6820    -2.0550 C.ar  1 <1>   0.1600 
 27 N        1.5520    -8.5860    -1.5320 N.ar  1 <1>  -0.6200 
 28 C        1.4100    -7.3680    -2.0240 C.ar  1 <1>   0.1600 
 29 H       -1.4810     1.5300    -1.5370 H     1 <1>   0.0800 
 30 H       -1.7140     1.1130     0.1560 H     1 <1>   0.0800 
 31 H       -2.8200     0.4840    -1.0800 H     1 <1>   0.0800 
 32 H       -2.8180    -0.8490     0.8620 H     1 <1>   0.1500 
 33 H        0.2940    -4.5460    -0.0140 H     1 <1>   0.1500 
 34 H        1.0950    -1.3500    -1.7550 H     1 <1>   0.0800 
 35 H        0.5200    -2.7930    -2.5370 H     1 <1>   0.0800 
 36 H       -3.0330    -2.9120     2.0960 H     1 <1>   0.1500 
 37 H       -2.2400    -5.0750     2.6670 H     1 <1>   0.0800 
 38 H       -0.5680    -5.4490     2.3070 H     1 <1>   0.0800 
 39 H        3.0010    -1.6860     0.1190 H     1 <1>   0.1500 
 40 H       -1.2480    -6.3040     0.1670 H     1 <1>   0.4500 
 41 H        4.1420    -5.3990    -1.1250 H     1 <1>   0.1500 
 42 H       -3.9000    -5.3720     0.7960 H     1 <1>   0.0800 
 43 H       -2.9920    -5.3770    -0.7110 H     1 <1>   0.0800 
 44 H       -1.1270    -8.0660     1.6300 H     1 <1>   0.0800 
 45 H       -2.6250    -7.5710     2.4100 H     1 <1>   0.0800 
 46 H       -3.9470    -7.3980    -1.2410 H     1 <1>   0.0800 
 47 H       -3.5170    -9.1140     0.9370 H     1 <1>   0.0800 
 48 H       -5.0830    -7.4350     1.3700 H     1 <1>   0.4000 
 49 H       -2.6860    -9.3460    -1.4700 H     1 <1>   0.0800 
 50 H       -1.7750   -10.0550    -0.1970 H     1 <1>   0.0800 
 51 H        0.4430   -10.0900    -0.7220 H     1 <1>   0.1500 
 52 H        0.1980    -5.6940    -2.4830 H     1 <1>   0.1500 
 53 H        2.2870    -6.8880    -2.4240 H     1 <1>   0.1500 
@<TRIPOS>BOND
  1   1   2  1   
  2   1   3  1   
  3   2   4  ar  
  4   2   5  ar  
  5   3  29  1   
  6   3  30  1   
  7   3  31  1   
  8   4   6  ar  
  9   4   7  1   
 10   5   8  ar  
 11   5  32  1   
 12   6   9  ar  
 13   6  33  1   
 14   7  10  1   
 15   7  34  1   
 16   7  35  1   
 17   8   9  ar  
 18   8  36  1   
 19   9  11  1   
 20  10  12  1   
 21  10  13  1   
 22  11  14  1   
 23  11  37  1   
 24  11  38  1   
 25  12  15  2   
 26  13  16  2   
 27  13  39  1   
 28  14  17  1   
 29  14  18  1   
 30  14  40  1   
 31  15  16  1   
 32  15  41  1   
 33  17  19  1   
 34  17  42  1   
 35  17  43  1   
 36  18  20  1   
 37  18  44  1   
 38  18  45  1   
 39  19  20  1   
 40  19  21  1   
 41  19  46  1   
 42  20  22  1   
 43  20  47  1   
 44  21  48  1   
 45  22  23  1   
 46  22  49  1   
 47  22  50  1   
 48  23  24  ar  
 49  23  25  ar  
 50  24  26  ar  
 51  25  27  ar  
 52  25  51  1   
 53  26  28  ar  
 54  26  52  1   
 55  27  28  ar  
 56  28  53  1   
@<TRIPOS>SUBSTRUCTURE
  1 ****   6 GROUP 4 **** **** 0

# MOE 2024.06 (io_trps.svl 2023.06)
