@<TRIPOS>MOLECULE
NONAME
57 61 1 0 0 
SMALL
USER_CHARGES


@<TRIPOS>ATOM
  1 O       -2.0440     0.9230     1.3130 O.2   1 <1>  -0.5700 
  2 C       -1.5440     2.0330     1.2910 C.2   1 <1>   0.6160 
  3 N       -0.2010     2.1590     1.1250 N.am  1 <1>  -0.5470 
  4 C       -2.3290     3.2210     1.3990 C.2   1 <1>  -0.1240 
  5 C        0.4380     3.3920     1.0410 C.ar  1 <1>   0.1170 
  6 C       -1.7460     4.4450     1.3320 C.2   1 <1>  -0.1780 
  7 C       -3.8120     3.0160     1.6120 C.3   1 <1>   0.4810 
  8 C       -0.3310     4.5660     1.1430 C.ar  1 <1>   0.0280 
  9 C        1.8150     3.4790     0.8590 C.ar  1 <1>  -0.1500 
 10 N       -4.5300     3.0450     0.3040 N.4   1 <1>  -0.9590 
 11 C        0.3170     5.8000     1.0580 C.ar  1 <1>  -0.1500 
 12 C        2.4340     4.7070     0.7760 C.ar  1 <1>  -0.1500 
 13 C       -5.9960     3.2990     0.5180 C.3   1 <1>   0.3430 
 14 C       -4.3160     1.7740    -0.4570 C.3   1 <1>   0.3430 
 15 C        1.6820     5.8710     0.8760 C.ar  1 <1>  -0.1500 
 16 C       -6.7690     3.4080    -0.8080 C.3   1 <1>   0.1430 
 17 C       -5.0230     1.8420    -1.8140 C.3   1 <1>  -0.1600 
 18 C       -8.2370     3.5440    -0.4870 C.ar  1 <1>   0.1670 
 19 C       -6.5240     2.1540    -1.6720 C.3   1 <1>  -0.1600 
 20 C       -6.4760     4.7200    -1.5860 C.3   1 <1>  -0.1600 
 21 N       -8.8740     2.8000     0.3790 N.ar  1 <1>  -0.6200 
 22 C       -8.8200     4.5510    -1.1910 C.ar  1 <1>  -0.1430 
 23 C       -7.8330     5.2410    -2.0990 C.3   1 <1>  -0.0170 
 24 C      -10.1710     3.0940     0.5250 C.ar  1 <1>   0.7200 
 25 C      -10.1550     4.7820    -0.9750 C.ar  1 <1>   0.1600 
 26 N      -10.8360     4.0600    -0.1160 N.ar  1 <1>  -0.6200 
 27 N      -10.8820     2.3350     1.4290 N.pl3 1 <1>  -0.8380 
 28 C      -10.4910     0.9430     1.7850 C.3   1 <1>   0.1290 
 29 C      -12.2190     2.7650     1.9270 C.3   1 <1>   0.1290 
 30 H        0.3340     1.2910     1.0740 H     1 <1>   0.3700 
 31 H       -2.3020     5.3630     1.4220 H     1 <1>   0.1500 
 32 H       -4.1790     3.8100     2.2410 H     1 <1>   0.0800 
 33 H       -3.9900     2.0800     2.1190 H     1 <1>   0.0800 
 34 H        2.4000     2.5800     0.7830 H     1 <1>   0.1500 
 35 H       -4.1370     3.8130    -0.2520 H     1 <1>   0.4500 
 36 H       -0.2540     6.7080     1.1360 H     1 <1>   0.1500 
 37 H        3.4990     4.7720     0.6350 H     1 <1>   0.1500 
 38 H       -6.1430     4.2050     1.0810 H     1 <1>   0.0800 
 39 H       -6.4220     2.4870     1.0870 H     1 <1>   0.0800 
 40 H       -4.7010     0.9400     0.1090 H     1 <1>   0.0800 
 41 H       -3.2620     1.6060    -0.6170 H     1 <1>   0.0800 
 42 H        2.1730     6.8270     0.8120 H     1 <1>   0.1500 
 43 H       -4.9080     0.8930    -2.3090 H     1 <1>   0.0800 
 44 H       -4.5400     2.5790    -2.4300 H     1 <1>   0.0800 
 45 H       -6.9710     2.2790    -2.6440 H     1 <1>   0.0800 
 46 H       -7.0090     1.3120    -1.2070 H     1 <1>   0.0800 
 47 H       -5.7840     4.5860    -2.3980 H     1 <1>   0.0800 
 48 H       -6.0740     5.4580    -0.9130 H     1 <1>   0.0800 
 49 H       -8.0040     4.9320    -3.1160 H     1 <1>   0.0800 
 50 H       -7.9060     6.3120    -2.0270 H     1 <1>   0.0800 
 51 H      -10.6710     5.5640    -1.5060 H     1 <1>   0.1500 
 52 H       -9.7720     0.5560     1.0850 H     1 <1>   0.0800 
 53 H      -11.3550     0.3030     1.7680 H     1 <1>   0.0800 
 54 H      -10.0620     0.9320     2.7720 H     1 <1>   0.0800 
 55 H      -12.2730     3.8390     1.9800 H     1 <1>   0.0800 
 56 H      -12.3920     2.3690     2.9120 H     1 <1>   0.0800 
 57 H      -12.9840     2.4100     1.2590 H     1 <1>   0.0800 
@<TRIPOS>BOND
  1   1   2  2   
  2   2   3  am  
  3   2   4  1   
  4   3   5  1   
  5   3  30  1   
  6   4   6  2   
  7   4   7  1   
  8   5   8  ar  
  9   5   9  ar  
 10   6   8  1   
 11   6  31  1   
 12   7  10  1   
 13   7  32  1   
 14   7  33  1   
 15   8  11  ar  
 16   9  12  ar  
 17   9  34  1   
 18  10  13  1   
 19  10  14  1   
 20  10  35  1   
 21  11  15  ar  
 22  11  36  1   
 23  12  15  ar  
 24  12  37  1   
 25  13  16  1   
 26  13  38  1   
 27  13  39  1   
 28  14  17  1   
 29  14  40  1   
 30  14  41  1   
 31  15  42  1   
 32  16  18  1   
 33  16  19  1   
 34  16  20  1   
 35  17  19  1   
 36  17  43  1   
 37  17  44  1   
 38  18  21  ar  
 39  18  22  ar  
 40  19  45  1   
 41  19  46  1   
 42  20  23  1   
 43  20  47  1   
 44  20  48  1   
 45  21  24  ar  
 46  22  23  1   
 47  22  25  ar  
 48  23  49  1   
 49  23  50  1   
 50  24  26  ar  
 51  24  27  1   
 52  25  26  ar  
 53  25  51  1   
 54  27  28  1   
 55  27  29  1   
 56  28  52  1   
 57  28  53  1   
 58  28  54  1   
 59  29  55  1   
 60  29  56  1   
 61  29  57  1   
@<TRIPOS>SUBSTRUCTURE
  1 ****  10 GROUP 4 **** **** 0

# MOE 2024.06 (io_trps.svl 2023.06)
