@<TRIPOS>MOLECULE
NONAME
59 61 1 0 0 
SMALL
USER_CHARGES


@<TRIPOS>ATOM
  1 O        1.0490     0.3580     1.5900 O.2   1 <1>  -0.5700 
  2 C        1.9790    -0.3710     1.3080 C.2   1 <1>   0.5440 
  3 N        3.2170     0.1750     1.1630 N.am  1 <1>  -0.7300 
  4 C        1.7740    -1.7910     1.0960 C.ar  1 <1>   0.0860 
  5 C        3.4430     1.5940     0.8780 C.3   1 <1>   0.4000 
  6 C        0.8520    -2.5060     1.8570 C.ar  1 <1>  -0.1500 
  7 C        2.4790    -2.4940     0.1180 C.ar  1 <1>  -0.1500 
  8 C        3.3670     1.7660    -0.6350 C.2   1 <1>   0.0070 
  9 C        4.8080     1.9830     1.4380 C.3   1 <1>  -0.2400 
 10 C        0.6430    -3.8580     1.6600 C.ar  1 <1>  -0.1500 
 11 C        2.2770    -3.8460    -0.0860 C.ar  1 <1>  -0.1500 
 12 N        4.2550     1.3350    -1.4700 N.2   1 <1>  -0.3380 
 13 N        2.3450     2.3530    -1.2700 N.pl3 1 <1>   0.0480 
 14 C        1.3510    -4.5380     0.6800 C.ar  1 <1>  -0.1430 
 15 N        3.8260     1.6410    -2.6940 N.2   1 <1>  -0.3380 
 16 C        2.6970     2.2420    -2.5520 C.2   1 <1>   0.0360 
 17 C        1.1060     2.9570    -0.7340 C.3   1 <1>   0.0960 
 18 C        1.1080    -6.0170     0.4430 C.3   1 <1>   0.4860 
 19 C        1.3550     4.4110    -0.3120 C.3   1 <1>  -0.1600 
 20 N       -0.2190    -6.1820    -0.2090 N.4   1 <1>  -0.9590 
 21 C        0.0840     5.0420     0.2660 C.3   1 <1>  -0.2400 
 22 C       -0.6530    -7.5990    -0.2260 C.3   1 <1>   0.3430 
 23 C       -0.2450    -5.6010    -1.5810 C.3   1 <1>   0.3430 
 24 C       -2.1260    -7.7070     0.1710 C.3   1 <1>  -0.1600 
 25 C       -1.6610    -5.1720    -1.9700 C.3   1 <1>  -0.1600 
 26 C       -3.0770    -6.6530    -0.4250 C.3   1 <1>  -0.1600 
 27 C       -2.7520    -6.2550    -1.8730 C.3   1 <1>  -0.1600 
 28 H        3.9780    -0.4080     0.8170 H     1 <1>   0.3700 
 29 H        2.6880     2.1870     1.3640 H     1 <1>   0.0800 
 30 H        0.2960    -1.9800     2.6160 H     1 <1>   0.1500 
 31 H        3.1910    -1.9690    -0.4990 H     1 <1>   0.1500 
 32 H        5.5860     1.3930     0.9880 H     1 <1>   0.0800 
 33 H        4.8220     1.8470     2.5040 H     1 <1>   0.0800 
 34 H        5.0010     3.0180     1.2210 H     1 <1>   0.0800 
 35 H       -0.0760    -4.3660     2.2820 H     1 <1>   0.1500 
 36 H        2.8500    -4.3460    -0.8500 H     1 <1>   0.1500 
 37 H        2.0960     2.6140    -3.3610 H     1 <1>   0.1500 
 38 H        0.7660     2.3780     0.1050 H     1 <1>   0.0800 
 39 H        0.3470     2.9200    -1.4940 H     1 <1>   0.0800 
 40 H        1.1210    -6.5320     1.3900 H     1 <1>   0.0800 
 41 H        1.8860    -6.4270    -0.1810 H     1 <1>   0.0800 
 42 H        1.6760     4.9840    -1.1650 H     1 <1>   0.0800 
 43 H        2.1310     4.4460     0.4330 H     1 <1>   0.0800 
 44 H       -0.8980    -5.6500     0.3470 H     1 <1>   0.4500 
 45 H       -0.7050     5.0440    -0.4660 H     1 <1>   0.0800 
 46 H        0.2780     6.0590     0.5590 H     1 <1>   0.0800 
 47 H       -0.2490     4.4970     1.1320 H     1 <1>   0.0800 
 48 H       -0.0630    -8.1860     0.4590 H     1 <1>   0.0800 
 49 H       -0.5180    -8.0080    -1.2150 H     1 <1>   0.0800 
 50 H        0.1280    -6.3200    -2.2920 H     1 <1>   0.0800 
 51 H        0.3900    -4.7310    -1.6250 H     1 <1>   0.0800 
 52 H       -2.2060    -7.6820     1.2440 H     1 <1>   0.0800 
 53 H       -2.4650    -8.6820    -0.1350 H     1 <1>   0.0800 
 54 H       -1.6230    -4.8300    -2.9900 H     1 <1>   0.0800 
 55 H       -1.9440    -4.3190    -1.3770 H     1 <1>   0.0800 
 56 H       -3.0910    -5.7720     0.1950 H     1 <1>   0.0800 
 57 H       -4.0750    -7.0580    -0.3970 H     1 <1>   0.0800 
 58 H       -2.4910    -7.1200    -2.4590 H     1 <1>   0.0800 
 59 H       -3.6500    -5.8460    -2.3080 H     1 <1>   0.0800 
@<TRIPOS>BOND
  1   1   2  2   
  2   2   3  am  
  3   2   4  1   
  4   3   5  1   
  5   3  28  1   
  6   4   6  ar  
  7   4   7  ar  
  8   5   8  1   
  9   5   9  1   
 10   5  29  1   
 11   6  10  ar  
 12   6  30  1   
 13   7  11  ar  
 14   7  31  1   
 15   8  12  2   
 16   8  13  1   
 17   9  32  1   
 18   9  33  1   
 19   9  34  1   
 20  10  14  ar  
 21  10  35  1   
 22  11  14  ar  
 23  11  36  1   
 24  12  15  1   
 25  13  16  1   
 26  13  17  1   
 27  14  18  1   
 28  15  16  2   
 29  16  37  1   
 30  17  19  1   
 31  17  38  1   
 32  17  39  1   
 33  18  20  1   
 34  18  40  1   
 35  18  41  1   
 36  19  21  1   
 37  19  42  1   
 38  19  43  1   
 39  20  22  1   
 40  20  23  1   
 41  20  44  1   
 42  21  45  1   
 43  21  46  1   
 44  21  47  1   
 45  22  24  1   
 46  22  48  1   
 47  22  49  1   
 48  23  25  1   
 49  23  50  1   
 50  23  51  1   
 51  24  26  1   
 52  24  52  1   
 53  24  53  1   
 54  25  27  1   
 55  25  54  1   
 56  25  55  1   
 57  26  27  1   
 58  26  56  1   
 59  26  57  1   
 60  27  58  1   
 61  27  59  1   
@<TRIPOS>SUBSTRUCTURE
  1 ****   4 GROUP 4 **** **** 0

# MOE 2024.06 (io_trps.svl 2023.06)
