@<TRIPOS>MOLECULE
NONAME
46 47 1 0 0 
SMALL
USER_CHARGES


@<TRIPOS>ATOM
  1 S       -1.1240    -0.2600    -1.2190 S.o2  1 <1>   1.3330 
  2 O       -1.8980    -0.8460    -2.2870 O.2   1 <1>  -0.6500 
  3 O       -1.0900     1.1620    -0.9960 O.2   1 <1>  -0.6500 
  4 N       -1.6640    -0.9380     0.2180 N.am  1 <1>  -0.9140 
  5 C        0.5580    -0.8320    -1.3560 C.3   1 <1>  -0.1350 
  6 C       -1.7060    -2.3890     0.2670 C.3   1 <1>   0.1960 
  7 C       -2.5130    -2.8270     1.4810 C.3   1 <1>  -0.0990 
  8 C       -2.7070    -4.3230     1.4150 C.2   1 <1>   0.5690 
  9 O       -1.8800    -5.0150     1.9570 O.2   1 <1>  -0.5700 
 10 N       -3.7570    -4.8550     0.7220 N.am  1 <1>  -0.6600 
 11 C       -4.8180    -4.1190    -0.0180 C.3   1 <1>   0.1400 
 12 C       -3.9630    -6.3140     0.5830 C.3   1 <1>   0.1400 
 13 C       -5.7960    -5.1900    -0.5230 C.3   1 <1>   0.2000 
 14 C       -4.9470    -6.4630    -0.5780 C.3   1 <1>  -0.0800 
 15 O       -6.8260    -5.3720     0.4090 O.3   1 <1>  -0.5600 
 16 C       -5.7430    -7.7780    -0.5330 C.3   1 <1>   0.0200 
 17 C       -7.9110    -4.5100     0.2700 C.3   1 <1>   0.0400 
 18 C       -4.8180    -8.9740    -0.6470 C.2   1 <1>  -0.0400 
 19 O       -4.1260    -9.1650    -1.7390 O.3   1 <1>  -0.0190 
 20 C       -4.5240    -9.9650     0.2070 C.2   1 <1>  -0.1500 
 21 N       -3.3800   -10.2280    -1.6590 N.2   1 <1>  -0.4100 
 22 C       -3.5990   -10.7310    -0.4970 C.2   1 <1>   0.1080 
 23 C       -2.9350   -11.9850     0.0270 C.3   1 <1>  -0.0590 
 24 H       -1.1370    -0.5250     0.9840 H     1 <1>   0.4200 
 25 H        0.5880    -1.9000    -1.4470 H     1 <1>   0.0800 
 26 H        1.1270    -0.5330    -0.4980 H     1 <1>   0.0800 
 27 H        1.0130    -0.4070    -2.2300 H     1 <1>   0.0800 
 28 H       -2.1830    -2.7630    -0.6250 H     1 <1>   0.0800 
 29 H       -0.7110    -2.7990     0.3210 H     1 <1>   0.0800 
 30 H       -3.4630    -2.3300     1.5030 H     1 <1>   0.0800 
 31 H       -1.9800    -2.5860     2.3820 H     1 <1>   0.0800 
 32 H       -5.3110    -3.4060     0.6170 H     1 <1>   0.0800 
 33 H       -4.3720    -3.6140    -0.8570 H     1 <1>   0.0800 
 34 H       -3.0340    -6.8220     0.3860 H     1 <1>   0.0800 
 35 H       -4.3920    -6.6900     1.4960 H     1 <1>   0.0800 
 36 H       -6.2210    -4.9480    -1.4820 H     1 <1>   0.0800 
 37 H       -4.3750    -6.4380    -1.4890 H     1 <1>   0.0800 
 38 H       -6.4500    -7.8020    -1.3430 H     1 <1>   0.0800 
 39 H       -6.2920    -7.8480     0.3900 H     1 <1>   0.0800 
 40 H       -8.6160    -4.7330     1.0520 H     1 <1>   0.0800 
 41 H       -8.3740    -4.6730    -0.6880 H     1 <1>   0.0800 
 42 H       -7.5800    -3.4910     0.3630 H     1 <1>   0.0800 
 43 H       -4.8880   -10.1510     1.2000 H     1 <1>   0.1500 
 44 H       -3.6810   -12.7210     0.2620 H     1 <1>   0.0800 
 45 H       -2.3700   -11.7550     0.9110 H     1 <1>   0.0800 
 46 H       -2.2710   -12.3860    -0.7170 H     1 <1>   0.0800 
@<TRIPOS>BOND
  1   1   2  2   
  2   1   3  2   
  3   1   4  am  
  4   1   5  1   
  5   4   6  1   
  6   4  24  1   
  7   5  25  1   
  8   5  26  1   
  9   5  27  1   
 10   6   7  1   
 11   6  28  1   
 12   6  29  1   
 13   7   8  1   
 14   7  30  1   
 15   7  31  1   
 16   8   9  2   
 17   8  10  am  
 18  10  11  1   
 19  10  12  1   
 20  11  13  1   
 21  11  32  1   
 22  11  33  1   
 23  12  14  1   
 24  12  34  1   
 25  12  35  1   
 26  13  14  1   
 27  13  15  1   
 28  13  36  1   
 29  14  16  1   
 30  14  37  1   
 31  15  17  1   
 32  16  18  1   
 33  16  38  1   
 34  16  39  1   
 35  17  40  1   
 36  17  41  1   
 37  17  42  1   
 38  18  19  1   
 39  18  20  2   
 40  19  21  1   
 41  20  22  1   
 42  20  43  1   
 43  21  22  2   
 44  22  23  1   
 45  23  44  1   
 46  23  45  1   
 47  23  46  1   
@<TRIPOS>SUBSTRUCTURE
  1 ****  10 GROUP 4 **** **** 0

# MOE 2024.06 (io_trps.svl 2023.06)
