@<TRIPOS>MOLECULE
NONAME
46 49 1 0 0 
SMALL
USER_CHARGES


@<TRIPOS>ATOM
  1 F       -0.5090     0.2310    -0.6550 F     1 <1>  -0.1370 
  2 C       -1.7040     0.5870    -0.2550 C.2   1 <1>  -0.0150 
  3 N       -2.0110     1.8750    -0.0950 N.pl3 1 <1>   0.3340 
  4 C       -2.7680    -0.2140     0.0380 C.2   1 <1>   0.1410 
  5 C       -3.3250     1.8260     0.3090 C.2   1 <1>   0.1410 
  6 C       -1.3390     3.0820    -0.2460 C.2   1 <1>  -0.1810 
  7 N       -3.8030     0.6050     0.3960 N.2   1 <1>  -0.5650 
  8 C       -2.8060    -1.6730    -0.0070 C.2   1 <1>   0.7160 
  9 C       -3.9910     3.0520     0.5730 C.2   1 <1>  -0.1050 
 10 C       -1.9830     4.2510     0.0080 C.2   1 <1>  -0.1500 
 11 O       -1.7640    -2.3060    -0.0340 O.2   1 <1>  -0.5700 
 12 N       -3.9800    -2.4060    -0.0290 N.am  1 <1>  -0.6600 
 13 C       -3.3420     4.2420     0.4280 C.2   1 <1>  -0.1380 
 14 C       -5.3530    -1.8600    -0.1730 C.3   1 <1>   0.1400 
 15 C       -4.0030    -3.8890    -0.0320 C.3   1 <1>   0.1400 
 16 C       -4.0210     5.5720     0.7020 C.3   1 <1>  -0.1020 
 17 C       -6.2240    -3.0730    -0.4940 C.3   1 <1>   0.2000 
 18 C       -5.4790    -4.2710     0.0880 C.3   1 <1>  -0.0800 
 19 O       -7.4830    -2.9680     0.0750 O.3   1 <1>  -0.6800 
 20 C       -5.8320    -5.5960    -0.6030 C.3   1 <1>   0.0210 
 21 C       -4.9970    -6.7370    -0.0570 C.2   1 <1>   0.1080 
 22 N       -5.0950    -7.1570     1.1660 N.2   1 <1>  -0.7070 
 23 C       -4.0440    -7.4450    -0.7810 C.2   1 <1>  -0.1500 
 24 N       -4.1980    -8.1570     1.2550 N.pl3 1 <1>   0.3000 
 25 C       -3.5480    -8.3500     0.0890 C.2   1 <1>  -0.3320 
 26 C       -2.4750    -9.4020    -0.1260 C.3   1 <1>  -0.0600 
 27 H       -0.3150     3.0220    -0.5660 H     1 <1>   0.1500 
 28 H       -5.0170     2.9890     0.8890 H     1 <1>   0.1500 
 29 H       -1.4860     5.2010    -0.1010 H     1 <1>   0.1500 
 30 H       -5.6500    -1.4080     0.7570 H     1 <1>   0.0800 
 31 H       -5.3940    -1.1370    -0.9680 H     1 <1>   0.0800 
 32 H       -3.5840    -4.2430    -0.9590 H     1 <1>   0.0800 
 33 H       -3.4280    -4.2840     0.7900 H     1 <1>   0.0800 
 34 H       -3.4990     6.0970     1.4820 H     1 <1>   0.0800 
 35 H       -5.0400     5.4260     1.0100 H     1 <1>   0.0800 
 36 H       -4.0160     6.1770    -0.1880 H     1 <1>   0.0800 
 37 H       -6.3400    -3.1620    -1.5610 H     1 <1>   0.0800 
 38 H       -5.6960    -4.3560     1.1390 H     1 <1>   0.0800 
 39 H       -7.4120    -2.9760     1.0500 H     1 <1>   0.4000 
 40 H       -5.6740    -5.5150    -1.6630 H     1 <1>   0.0800 
 41 H       -6.8710    -5.8200    -0.4370 H     1 <1>   0.0800 
 42 H       -3.7790    -7.2840    -1.8100 H     1 <1>   0.1500 
 43 H       -4.0550    -8.6870     2.1230 H     1 <1>   0.2700 
 44 H       -2.1100    -9.3560    -1.1370 H     1 <1>   0.0800 
 45 H       -2.8770   -10.3840     0.0490 H     1 <1>   0.0800 
 46 H       -1.6500    -9.2340     0.5440 H     1 <1>   0.0800 
@<TRIPOS>BOND
  1   1   2  1   
  2   2   3  1   
  3   2   4  2   
  4   3   5  1   
  5   3   6  1   
  6   4   7  1   
  7   4   8  1   
  8   5   7  2   
  9   5   9  1   
 10   6  10  2   
 11   6  27  1   
 12   8  11  2   
 13   8  12  am  
 14   9  13  2   
 15   9  28  1   
 16  10  13  1   
 17  10  29  1   
 18  12  14  1   
 19  12  15  1   
 20  13  16  1   
 21  14  17  1   
 22  14  30  1   
 23  14  31  1   
 24  15  18  1   
 25  15  32  1   
 26  15  33  1   
 27  16  34  1   
 28  16  35  1   
 29  16  36  1   
 30  17  18  1   
 31  17  19  1   
 32  17  37  1   
 33  18  20  1   
 34  18  38  1   
 35  19  39  1   
 36  20  21  1   
 37  20  40  1   
 38  20  41  1   
 39  21  22  2   
 40  21  23  1   
 41  22  24  1   
 42  23  25  2   
 43  23  42  1   
 44  24  25  1   
 45  24  43  1   
 46  25  26  1   
 47  26  44  1   
 48  26  45  1   
 49  26  46  1   
@<TRIPOS>SUBSTRUCTURE
  1 ****  12 GROUP 4 **** **** 0

# MOE 2024.06 (io_trps.svl 2023.06)
