@<TRIPOS>MOLECULE
NONAME
41 42 1 0 0 
SMALL
USER_CHARGES


@<TRIPOS>ATOM
  1 F        0.1680    -1.5620     1.5620 F     1 <1>  -0.3400 
  2 C       -1.0590    -1.1370     1.2840 C.3   1 <1>   1.0200 
  3 F       -1.7470    -1.2100     2.4180 F     1 <1>  -0.3400 
  4 F       -0.9500     0.1570     1.0060 F     1 <1>  -0.3400 
  5 C       -1.7290    -1.9120     0.1130 C.3   1 <1>   0.1100 
  6 N       -1.7430    -3.4130     0.1380 N.3   1 <1>  -0.8100 
  7 C       -2.5740    -3.9490     1.2440 C.3   1 <1>   0.1100 
  8 C       -2.2530    -3.9380    -1.1510 C.3   1 <1>   0.1100 
  9 C       -2.5890    -5.4890     1.2700 C.3   1 <1>   0.2090 
 10 C       -2.2870    -5.4790    -1.1950 C.3   1 <1>   0.2090 
 11 N       -3.0430    -6.0540    -0.0380 N.pl3 1 <1>  -0.8380 
 12 C       -4.3930    -6.3530    -0.1680 C.ar  1 <1>   0.4100 
 13 N       -5.0800    -5.4800    -0.9040 N.ar  1 <1>  -0.6200 
 14 C       -4.9830    -7.4690     0.4620 C.ar  1 <1>   0.0860 
 15 C       -6.3790    -5.6610    -1.0150 C.ar  1 <1>   0.1670 
 16 C       -4.2300    -8.4550     1.2080 C.2   1 <1>   0.5440 
 17 C       -6.3580    -7.6140     0.3380 C.ar  1 <1>  -0.1500 
 18 C       -7.0720    -6.7020    -0.4070 C.ar  1 <1>  -0.1440 
 19 C       -7.1020    -4.6300    -1.8630 C.3   1 <1>  -0.0960 
 20 O       -4.7340    -9.0990     2.1050 O.2   1 <1>  -0.5700 
 21 N       -2.9340    -8.7310     0.9440 N.am  1 <1>  -0.8000 
 22 C       -8.5810    -6.8690    -0.5360 C.3   1 <1>  -0.0970 
 23 H       -1.2060    -1.6070    -0.7750 H     1 <1>   0.0800 
 24 H       -2.7390    -1.5550     0.0260 H     1 <1>   0.0800 
 25 H       -3.5880    -3.5970     1.1460 H     1 <1>   0.0800 
 26 H       -2.1880    -3.6100     2.1880 H     1 <1>   0.0800 
 27 H       -1.6260    -3.5890    -1.9520 H     1 <1>   0.0800 
 28 H       -3.2500    -3.5700    -1.3260 H     1 <1>   0.0800 
 29 H       -3.2420    -5.8210     2.0580 H     1 <1>   0.0800 
 30 H       -1.5980    -5.8460     1.4880 H     1 <1>   0.0800 
 31 H       -1.2780    -5.8520    -1.1770 H     1 <1>   0.0800 
 32 H       -2.7410    -5.7980    -2.1170 H     1 <1>   0.0800 
 33 H       -6.8480    -8.4420     0.8210 H     1 <1>   0.1500 
 34 H       -6.3970    -4.0700    -2.4500 H     1 <1>   0.0800 
 35 H       -7.6360    -3.9490    -1.2270 H     1 <1>   0.0800 
 36 H       -7.7910    -5.1080    -2.5340 H     1 <1>   0.0800 
 37 H       -2.4220    -9.3860     1.5310 H     1 <1>   0.3700 
 38 H       -2.4000    -8.0690     0.3700 H     1 <1>   0.3700 
 39 H       -9.0810    -5.9540    -0.2720 H     1 <1>   0.0800 
 40 H       -8.9380    -7.6450     0.1160 H     1 <1>   0.0800 
 41 H       -8.8370    -7.1310    -1.5470 H     1 <1>   0.0800 
@<TRIPOS>BOND
  1   1   2  1   
  2   2   3  1   
  3   2   4  1   
  4   2   5  1   
  5   5   6  1   
  6   5  23  1   
  7   5  24  1   
  8   6   7  1   
  9   6   8  1   
 10   7   9  1   
 11   7  25  1   
 12   7  26  1   
 13   8  10  1   
 14   8  27  1   
 15   8  28  1   
 16   9  11  1   
 17   9  29  1   
 18   9  30  1   
 19  10  11  1   
 20  10  31  1   
 21  10  32  1   
 22  11  12  1   
 23  12  13  ar  
 24  12  14  ar  
 25  13  15  ar  
 26  14  16  1   
 27  14  17  ar  
 28  15  18  ar  
 29  15  19  1   
 30  16  20  2   
 31  16  21  am  
 32  17  18  ar  
 33  17  33  1   
 34  18  22  1   
 35  19  34  1   
 36  19  35  1   
 37  19  36  1   
 38  21  37  1   
 39  21  38  1   
 40  22  39  1   
 41  22  40  1   
 42  22  41  1   
@<TRIPOS>SUBSTRUCTURE
  1 ****  11 GROUP 4 **** **** 0

# MOE 2024.06 (io_trps.svl 2023.06)
