@<TRIPOS>MOLECULE
NONAME
48 51 1 0 0 
SMALL
USER_CHARGES


@<TRIPOS>ATOM
  1 S       -0.2440    -1.3400    -0.5630 S.3   1 <1>  -0.1120 
  2 C       -0.7060     0.4010    -0.5030 C.2   1 <1>   0.2420 
  3 C       -1.4550    -2.2550     0.4080 C.2   1 <1>   0.1960 
  4 N       -1.7970     0.8670    -0.0050 N.2   1 <1>  -0.3380 
  5 N        0.0870     1.3460    -1.0070 N.pl3 1 <1>   0.0480 
  6 O       -1.4710    -3.5610     0.2410 O.3   1 <1>  -0.2800 
  7 C       -2.3740    -1.8570     1.3120 C.2   1 <1>  -0.1500 
  8 N       -1.7410     2.1920    -0.1710 N.2   1 <1>  -0.3380 
  9 C       -0.6240     2.4520    -0.7640 C.2   1 <1>   0.0360 
 10 C        1.4030     1.2150    -1.6610 C.3   1 <1>   0.0160 
 11 C       -2.4170    -4.0400     1.0270 C.2   1 <1>  -0.0400 
 12 C       -3.0110    -3.0360     1.7200 C.2   1 <1>  -0.1500 
 13 C       -2.6470    -5.5410     0.9950 C.3   1 <1>   0.5230 
 14 N       -4.0240    -5.8740     1.4780 N.4   1 <1>  -0.9590 
 15 C       -5.0740    -5.3300     0.5470 C.3   1 <1>   0.3430 
 16 C       -4.2150    -7.3530     1.5440 C.3   1 <1>   0.3430 
 17 C       -5.9660    -6.5160     0.1530 C.3   1 <1>   0.2000 
 18 C       -5.0670    -7.7360     0.3290 C.3   1 <1>  -0.0800 
 19 O       -7.0390    -6.6100     1.0320 O.3   1 <1>  -0.6800 
 20 C       -4.2380    -7.9880    -0.9530 C.3   1 <1>  -0.0170 
 21 C       -3.0310    -8.8790    -0.7130 C.ar  1 <1>   0.1670 
 22 N       -1.9440    -8.2730    -0.2550 N.ar  1 <1>  -0.6200 
 23 C       -3.1150   -10.2380    -0.9780 C.ar  1 <1>  -0.1500 
 24 C       -0.8890    -9.0580    -0.0750 C.ar  1 <1>   0.1600 
 25 C       -2.0140   -11.0400    -0.7710 C.ar  1 <1>  -0.1500 
 26 C       -0.8730   -10.4220    -0.3090 C.ar  1 <1>  -0.1500 
 27 H       -2.5970    -0.8670     1.6710 H     1 <1>   0.1500 
 28 H       -0.2920     3.4370    -1.0370 H     1 <1>   0.1500 
 29 H        1.7650     2.1860    -1.9450 H     1 <1>   0.0800 
 30 H        1.3050     0.6000    -2.5380 H     1 <1>   0.0800 
 31 H        2.0970     0.7590    -0.9790 H     1 <1>   0.0800 
 32 H       -3.8050    -3.0630     2.4450 H     1 <1>   0.1500 
 33 H       -1.9040    -6.0290     1.6040 H     1 <1>   0.0800 
 34 H       -2.5220    -5.8890    -0.0170 H     1 <1>   0.0800 
 35 H       -4.1270    -5.4580     2.4110 H     1 <1>   0.4500 
 36 H       -5.6580    -4.5500     1.0080 H     1 <1>   0.0800 
 37 H       -4.6040    -4.9340    -0.3380 H     1 <1>   0.0800 
 38 H       -3.2780    -7.8840     1.5770 H     1 <1>   0.0800 
 39 H       -4.7650    -7.5970     2.4390 H     1 <1>   0.0800 
 40 H       -6.3670    -6.4120    -0.8420 H     1 <1>   0.0800 
 41 H       -5.6390    -8.6240     0.5380 H     1 <1>   0.0800 
 42 H       -6.7800    -6.8360     1.9450 H     1 <1>   0.4000 
 43 H       -3.8830    -7.0620    -1.3710 H     1 <1>   0.0800 
 44 H       -4.8710    -8.4390    -1.6970 H     1 <1>   0.0800 
 45 H       -4.0260   -10.6730    -1.3480 H     1 <1>   0.1500 
 46 H        0.0170    -8.5930     0.2790 H     1 <1>   0.1500 
 47 H       -2.0410   -12.0990    -0.9670 H     1 <1>   0.1500 
 48 H        0.0230   -10.9910    -0.1350 H     1 <1>   0.1500 
@<TRIPOS>BOND
  1   1   2  1   
  2   1   3  1   
  3   2   4  2   
  4   2   5  1   
  5   3   6  1   
  6   3   7  2   
  7   4   8  1   
  8   5   9  1   
  9   5  10  1   
 10   6  11  1   
 11   7  12  1   
 12   7  27  1   
 13   8   9  2   
 14   9  28  1   
 15  10  29  1   
 16  10  30  1   
 17  10  31  1   
 18  11  12  2   
 19  11  13  1   
 20  12  32  1   
 21  13  14  1   
 22  13  33  1   
 23  13  34  1   
 24  14  15  1   
 25  14  16  1   
 26  14  35  1   
 27  15  17  1   
 28  15  36  1   
 29  15  37  1   
 30  16  18  1   
 31  16  38  1   
 32  16  39  1   
 33  17  18  1   
 34  17  19  1   
 35  17  40  1   
 36  18  20  1   
 37  18  41  1   
 38  19  42  1   
 39  20  21  1   
 40  20  43  1   
 41  20  44  1   
 42  21  22  ar  
 43  21  23  ar  
 44  22  24  ar  
 45  23  25  ar  
 46  23  45  1   
 47  24  26  ar  
 48  24  46  1   
 49  25  26  ar  
 50  25  47  1   
 51  26  48  1   
@<TRIPOS>SUBSTRUCTURE
  1 ****  11 GROUP 4 **** **** 0

# MOE 2024.06 (io_trps.svl 2023.06)
