@<TRIPOS>MOLECULE
NONAME
48 51 1 0 0 
SMALL
USER_CHARGES


@<TRIPOS>ATOM
  1 CL      -1.6340    -0.0980    -1.6300 Cl    1 <1>  -0.1770 
  2 C       -2.3890    -1.3050    -0.6180 C.ar  1 <1>   0.1770 
  3 C       -1.7740    -2.5310    -0.4110 C.ar  1 <1>  -0.1440 
  4 C       -3.6060    -1.0020    -0.0400 C.ar  1 <1>  -0.1500 
  5 C       -2.4130    -3.4560     0.3980 C.ar  1 <1>  -0.1500 
  6 C       -0.4330    -2.8590    -1.0490 C.3   1 <1>  -0.0960 
  7 C       -4.2560    -1.9260     0.7680 C.ar  1 <1>  -0.0090 
  8 C       -3.6350    -3.1540     0.9770 C.ar  1 <1>  -0.1500 
  9 S       -5.8590    -1.5320     1.5180 S.o2  1 <1>   1.4470 
 10 O       -6.5070    -2.7410     1.9780 O.2   1 <1>  -0.6500 
 11 O       -5.6880    -0.4190     2.4260 O.2   1 <1>  -0.6500 
 12 N       -6.7560    -0.9630     0.1980 N.am  1 <1>  -0.8490 
 13 C       -7.9610    -0.2370     0.6420 C.3   1 <1>   0.1960 
 14 C       -7.1220    -2.0370    -0.7320 C.3   1 <1>   0.1960 
 15 C       -8.6870     0.4360    -0.5400 C.3   1 <1>   0.1430 
 16 C       -7.7950    -1.4520    -1.9800 C.3   1 <1>  -0.1600 
 17 C       -9.9140     1.1480    -0.0070 C.ar  1 <1>   0.1670 
 18 C       -9.0350    -0.6240    -1.6060 C.3   1 <1>  -0.1600 
 19 C       -7.8500     1.6050    -1.1290 C.3   1 <1>  -0.1600 
 20 N      -11.0170     0.5630     0.4050 N.ar  1 <1>  -0.6200 
 21 C       -9.7400     2.5000     0.0170 C.ar  1 <1>  -0.1430 
 22 C       -8.3780     2.9010    -0.4910 C.3   1 <1>  -0.0170 
 23 C      -11.9520     1.3970     0.8360 C.ar  1 <1>   0.4770 
 24 C      -10.7750     3.2700     0.4860 C.ar  1 <1>   0.1600 
 25 N      -11.8980     2.7220     0.9010 N.ar  1 <1>  -0.6200 
 26 C      -13.2310     0.7570     1.3160 C.3   1 <1>  -0.0970 
 27 H       -4.0520    -0.0400    -0.2210 H     1 <1>   0.1500 
 28 H       -1.9640    -4.4170     0.5830 H     1 <1>   0.1500 
 29 H        0.3110    -2.1540    -0.7230 H     1 <1>   0.0800 
 30 H       -0.5120    -2.8060    -2.1200 H     1 <1>   0.0800 
 31 H       -0.1070    -3.8480    -0.7800 H     1 <1>   0.0800 
 32 H       -4.1180    -3.8860     1.6040 H     1 <1>   0.1500 
 33 H       -7.6900     0.5270     1.3520 H     1 <1>   0.0800 
 34 H       -8.6340    -0.9180     1.1370 H     1 <1>   0.0800 
 35 H       -7.7920    -2.7310    -0.2490 H     1 <1>   0.0800 
 36 H       -6.2390    -2.5780    -1.0330 H     1 <1>   0.0800 
 37 H       -8.0840    -2.2540    -2.6350 H     1 <1>   0.0800 
 38 H       -7.0830    -0.8400    -2.5060 H     1 <1>   0.0800 
 39 H       -9.4540    -0.1560    -2.4790 H     1 <1>   0.0800 
 40 H       -9.7830    -1.2860    -1.2060 H     1 <1>   0.0800 
 41 H       -8.0130     1.6650    -2.1900 H     1 <1>   0.0800 
 42 H       -6.7950     1.4820    -0.9570 H     1 <1>   0.0800 
 43 H       -8.4390     3.7000    -1.2090 H     1 <1>   0.0800 
 44 H       -7.7570     3.1980     0.3370 H     1 <1>   0.0800 
 45 H      -10.6850     4.3420     0.5240 H     1 <1>   0.1500 
 46 H      -13.5350    -0.0060     0.6240 H     1 <1>   0.0800 
 47 H      -14.0120     1.4900     1.3940 H     1 <1>   0.0800 
 48 H      -13.0650     0.3140     2.2800 H     1 <1>   0.0800 
@<TRIPOS>BOND
  1   1   2  1   
  2   2   3  ar  
  3   2   4  ar  
  4   3   5  ar  
  5   3   6  1   
  6   4   7  ar  
  7   4  27  1   
  8   5   8  ar  
  9   5  28  1   
 10   6  29  1   
 11   6  30  1   
 12   6  31  1   
 13   7   8  ar  
 14   7   9  1   
 15   8  32  1   
 16   9  10  2   
 17   9  11  2   
 18   9  12  am  
 19  12  13  1   
 20  12  14  1   
 21  13  15  1   
 22  13  33  1   
 23  13  34  1   
 24  14  16  1   
 25  14  35  1   
 26  14  36  1   
 27  15  17  1   
 28  15  18  1   
 29  15  19  1   
 30  16  18  1   
 31  16  37  1   
 32  16  38  1   
 33  17  20  ar  
 34  17  21  ar  
 35  18  39  1   
 36  18  40  1   
 37  19  22  1   
 38  19  41  1   
 39  19  42  1   
 40  20  23  ar  
 41  21  22  1   
 42  21  24  ar  
 43  22  43  1   
 44  22  44  1   
 45  23  25  ar  
 46  23  26  1   
 47  24  25  ar  
 48  24  45  1   
 49  26  46  1   
 50  26  47  1   
 51  26  48  1   
@<TRIPOS>SUBSTRUCTURE
  1 ****  12 GROUP 4 **** **** 0

# MOE 2024.06 (io_trps.svl 2023.06)
