@<TRIPOS>MOLECULE
NONAME
48 51 1 0 0 
SMALL
USER_CHARGES


@<TRIPOS>ATOM
  1 S       -1.1280    -0.0460    -0.5990 S.3   1 <1>  -0.0800 
  2 C       -0.4470     0.4100     0.9640 C.2   1 <1>   0.0410 
  3 C       -2.0170    -1.3910     0.0930 C.2   1 <1>  -0.1400 
  4 C        0.4330     1.5500     1.0320 C.2   1 <1>   0.2880 
  5 C       -0.9050    -0.4560     1.9030 C.2   1 <1>  -0.1500 
  6 C       -1.7860    -1.4690     1.4160 C.2   1 <1>  -0.1500 
  7 C       -2.8620    -2.2120    -0.8550 C.3   1 <1>   0.5230 
  8 N        0.7220     2.3330     0.0200 N.2   1 <1>  -0.7070 
  9 C        1.0980     1.9780     2.1870 C.2   1 <1>  -0.1500 
 10 N       -4.2750    -1.7830    -0.7220 N.4   1 <1>  -0.9590 
 11 N        1.5650     3.2550     0.5110 N.pl3 1 <1>   0.3000 
 12 C        1.8080     3.0630     1.8210 C.2   1 <1>  -0.3020 
 13 C       -5.2430    -2.7550    -1.3160 C.3   1 <1>   0.3430 
 14 C       -4.5360    -0.3700    -1.1140 C.3   1 <1>   0.3430 
 15 C       -6.6650    -2.5680    -0.7420 C.3   1 <1>   0.1400 
 16 C       -5.3360     0.3240    -0.0080 C.3   1 <1>  -0.1600 
 17 N       -6.6610    -1.7190     0.4950 N.am  1 <1>  -0.6600 
 18 C       -6.7380    -0.2510     0.2380 C.3   1 <1>   0.1400 
 19 C       -6.5190    -2.2240     1.7820 C.2   1 <1>   0.5440 
 20 O       -6.6070    -1.4360     2.7050 O.2   1 <1>  -0.5700 
 21 C       -6.2260    -3.6300     2.0730 C.ar  1 <1>   0.3960 
 22 N       -5.2860    -4.2820     1.3560 N.ar  1 <1>  -0.6200 
 23 C       -6.9190    -4.2560     3.1100 C.ar  1 <1>  -0.1500 
 24 C       -5.0620    -5.5440     1.6870 C.ar  1 <1>   0.1600 
 25 C       -6.6760    -5.5710     3.4360 C.ar  1 <1>  -0.1500 
 26 C       -5.7180    -6.2250     2.6960 C.ar  1 <1>  -0.1500 
 27 H       -0.6460    -0.4120     2.9460 H     1 <1>   0.1500 
 28 H       -2.1990    -2.2000     2.0920 H     1 <1>   0.1500 
 29 H       -2.7740    -3.2520    -0.5830 H     1 <1>   0.0800 
 30 H       -2.5160    -2.0870    -1.8680 H     1 <1>   0.0800 
 31 H        1.0330     1.5130     3.1530 H     1 <1>   0.1500 
 32 H       -4.4840    -1.8110     0.2900 H     1 <1>   0.4500 
 33 H        1.9590     4.0040    -0.0730 H     1 <1>   0.2700 
 34 H        2.4570     3.6950     2.4010 H     1 <1>   0.1500 
 35 H       -4.9260    -3.7580    -1.0790 H     1 <1>   0.0800 
 36 H       -5.2640    -2.6650    -2.3900 H     1 <1>   0.0800 
 37 H       -5.0780    -0.3330    -2.0450 H     1 <1>   0.0800 
 38 H       -3.6070     0.1580    -1.2480 H     1 <1>   0.0800 
 39 H       -7.0930    -3.5320    -0.5280 H     1 <1>   0.0800 
 40 H       -7.2920    -2.1120    -1.4890 H     1 <1>   0.0800 
 41 H       -5.4460     1.3600    -0.2730 H     1 <1>   0.0800 
 42 H       -4.7760     0.3030     0.9120 H     1 <1>   0.0800 
 43 H       -7.3720    -0.0630    -0.6120 H     1 <1>   0.0800 
 44 H       -7.1860     0.2480     1.0820 H     1 <1>   0.0800 
 45 H       -7.6520    -3.6930     3.6620 H     1 <1>   0.1500 
 46 H       -4.3130    -6.0790     1.1260 H     1 <1>   0.1500 
 47 H       -7.2080    -6.0630     4.2340 H     1 <1>   0.1500 
 48 H       -5.4780    -7.2540     2.9030 H     1 <1>   0.1500 
@<TRIPOS>BOND
  1   1   2  1   
  2   1   3  1   
  3   2   4  1   
  4   2   5  2   
  5   3   6  2   
  6   3   7  1   
  7   4   8  2   
  8   4   9  1   
  9   5   6  1   
 10   5  27  1   
 11   6  28  1   
 12   7  10  1   
 13   7  29  1   
 14   7  30  1   
 15   8  11  1   
 16   9  12  2   
 17   9  31  1   
 18  10  13  1   
 19  10  14  1   
 20  10  32  1   
 21  11  12  1   
 22  11  33  1   
 23  12  34  1   
 24  13  15  1   
 25  13  35  1   
 26  13  36  1   
 27  14  16  1   
 28  14  37  1   
 29  14  38  1   
 30  15  17  1   
 31  15  39  1   
 32  15  40  1   
 33  16  18  1   
 34  16  41  1   
 35  16  42  1   
 36  17  18  1   
 37  17  19  am  
 38  18  43  1   
 39  18  44  1   
 40  19  20  2   
 41  19  21  1   
 42  21  22  ar  
 43  21  23  ar  
 44  22  24  ar  
 45  23  25  ar  
 46  23  45  1   
 47  24  26  ar  
 48  24  46  1   
 49  25  26  ar  
 50  25  47  1   
 51  26  48  1   
@<TRIPOS>SUBSTRUCTURE
  1 ****   3 GROUP 4 **** **** 0

# MOE 2024.06 (io_trps.svl 2023.06)
