@<TRIPOS>MOLECULE
NONAME
51 54 1 0 0 
SMALL
USER_CHARGES


@<TRIPOS>ATOM
  1 S       -0.4030     0.2160    -2.0350 S.3   1 <1>  -0.0800 
  2 C        0.7040    -0.6650    -0.9940 C.2   1 <1>  -0.1400 
  3 C       -0.2520     1.6620    -1.0590 C.2   1 <1>  -0.1100 
  4 C        1.1420     0.1330     0.0020 C.2   1 <1>  -0.1500 
  5 C        1.0010    -2.1120    -1.3570 C.3   1 <1>   0.5230 
  6 C        0.5990     1.4640    -0.0340 C.2   1 <1>  -0.1810 
  7 N       -0.1400    -2.9770    -0.9520 N.4   1 <1>  -0.9590 
  8 C        0.9610     2.5180     1.0000 C.3   1 <1>   0.5240 
  9 C        0.1930    -4.4310    -0.8540 C.3   1 <1>   0.3430 
 10 C       -1.3480    -2.8770    -1.8300 C.3   1 <1>   0.3430 
 11 N        2.3500     2.9920     0.7450 N.4   1 <1>  -0.9590 
 12 C       -1.1530    -5.1460    -0.9690 C.3   1 <1>   0.2800 
 13 C       -1.8700    -4.3010    -2.0230 C.3   1 <1>  -0.1600 
 14 C        2.8520     3.8370     1.8720 C.3   1 <1>   0.2630 
 15 C        2.4490     3.7300    -0.5550 C.3   1 <1>   0.2630 
 16 O       -1.8300    -4.9620     0.2650 O.3   1 <1>  -0.3620 
 17 C       -1.0510    -6.6380    -1.3000 C.3   1 <1>  -0.0990 
 18 C       -2.9490    -5.6690     0.5520 C.ar  1 <1>   0.0830 
 19 C       -2.4260    -7.2590    -1.2360 C.2   1 <1>   0.4230 
 20 C       -3.2990    -6.8040    -0.1900 C.ar  1 <1>   0.0860 
 21 C       -3.7480    -5.2290     1.5950 C.ar  1 <1>  -0.1500 
 22 O       -2.7090    -8.0830    -2.0640 O.2   1 <1>  -0.5700 
 23 C       -4.4920    -7.4540     0.1300 C.ar  1 <1>  -0.1500 
 24 C       -4.9190    -5.8960     1.9010 C.ar  1 <1>  -0.1500 
 25 C       -5.2930    -7.0070     1.1630 C.ar  1 <1>  -0.1500 
 26 H       -0.8310     2.5160    -1.3710 H     1 <1>   0.1500 
 27 H        1.8320    -0.1650     0.7750 H     1 <1>   0.1500 
 28 H        1.8890    -2.4220    -0.8310 H     1 <1>   0.0800 
 29 H        1.1860    -2.1980    -2.4150 H     1 <1>   0.0800 
 30 H       -0.4450    -2.6760    -0.0140 H     1 <1>   0.4500 
 31 H        0.8860     2.0900     1.9870 H     1 <1>   0.0800 
 32 H        0.2730     3.3450     0.9350 H     1 <1>   0.0800 
 33 H        0.6850    -4.6760     0.0730 H     1 <1>   0.0800 
 34 H        0.8170    -4.7210    -1.6830 H     1 <1>   0.0800 
 35 H       -1.1010    -2.4420    -2.7850 H     1 <1>   0.0800 
 36 H       -2.0990    -2.2660    -1.3530 H     1 <1>   0.0800 
 37 H        2.9400     2.1510     0.6710 H     1 <1>   0.4500 
 38 H       -1.5990    -4.6300    -3.0110 H     1 <1>   0.0800 
 39 H       -2.9420    -4.3480    -1.9400 H     1 <1>   0.0800 
 40 H        2.2500     4.7250     1.9750 H     1 <1>   0.0800 
 41 H        3.8730     4.1340     1.6900 H     1 <1>   0.0800 
 42 H        2.8190     3.2880     2.8000 H     1 <1>   0.0800 
 43 H        1.8270     4.6100    -0.5380 H     1 <1>   0.0800 
 44 H        2.1300     3.1000    -1.3710 H     1 <1>   0.0800 
 45 H        3.4680     4.0330    -0.7380 H     1 <1>   0.0800 
 46 H       -0.4140    -7.1360    -0.5920 H     1 <1>   0.0800 
 47 H       -0.6380    -6.7830    -2.2820 H     1 <1>   0.0800 
 48 H       -3.4580    -4.3650     2.1660 H     1 <1>   0.1500 
 49 H       -4.7840    -8.3210    -0.4390 H     1 <1>   0.1500 
 50 H       -5.5440    -5.5550     2.7100 H     1 <1>   0.1500 
 51 H       -6.2090    -7.5240     1.3980 H     1 <1>   0.1500 
@<TRIPOS>BOND
  1   1   2  1   
  2   1   3  1   
  3   2   4  2   
  4   2   5  1   
  5   3   6  2   
  6   3  26  1   
  7   4   6  1   
  8   4  27  1   
  9   5   7  1   
 10   5  28  1   
 11   5  29  1   
 12   6   8  1   
 13   7   9  1   
 14   7  10  1   
 15   7  30  1   
 16   8  11  1   
 17   8  31  1   
 18   8  32  1   
 19   9  12  1   
 20   9  33  1   
 21   9  34  1   
 22  10  13  1   
 23  10  35  1   
 24  10  36  1   
 25  11  14  1   
 26  11  15  1   
 27  11  37  1   
 28  12  13  1   
 29  12  16  1   
 30  12  17  1   
 31  13  38  1   
 32  13  39  1   
 33  14  40  1   
 34  14  41  1   
 35  14  42  1   
 36  15  43  1   
 37  15  44  1   
 38  15  45  1   
 39  16  18  1   
 40  17  19  1   
 41  17  46  1   
 42  17  47  1   
 43  18  20  ar  
 44  18  21  ar  
 45  19  20  1   
 46  19  22  2   
 47  20  23  ar  
 48  21  24  ar  
 49  21  48  1   
 50  23  25  ar  
 51  23  49  1   
 52  24  25  ar  
 53  24  50  1   
 54  25  51  1   
@<TRIPOS>SUBSTRUCTURE
  1 ****   7 GROUP 4 **** **** 0

# MOE 2024.06 (io_trps.svl 2023.06)
