@<TRIPOS>MOLECULE
NONAME
59 62 1 0 0 
SMALL
USER_CHARGES


@<TRIPOS>ATOM
  1 O       -0.7660     0.9010    -1.9000 O.2   1 <1>  -0.5700 
  2 C       -1.4660     1.2430    -0.9700 C.2   1 <1>   0.7150 
  3 N       -2.2110     0.2830    -0.3160 N.am  1 <1>  -0.6600 
  4 C       -1.5000     2.6120    -0.5600 C.2   1 <1>  -0.2370 
  5 C       -2.8490     0.4910     1.0200 C.3   1 <1>   0.1400 
  6 C       -2.3130    -1.1140    -0.8350 C.3   1 <1>   0.1400 
  7 N       -0.4030     3.3030    -0.1610 N.pl3 1 <1>   0.3140 
  8 C       -2.5350     3.4940    -0.4680 C.2   1 <1>  -0.1500 
  9 C       -4.3190     0.0150     1.0250 C.3   1 <1>   0.4230 
 10 C       -3.7780    -1.5870    -0.8380 C.3   1 <1>   0.3430 
 11 N       -0.7090     4.5520     0.2180 N.2   1 <1>  -0.7070 
 12 C        0.9990     2.8230    -0.1190 C.3   1 <1>   0.0960 
 13 C       -1.9850     4.6650     0.0170 C.2   1 <1>   0.1080 
 14 N       -4.4590    -1.4040     0.5010 N.4   1 <1>  -0.9590 
 15 C       -5.2120     0.9900     0.2230 C.3   1 <1>   0.1200 
 16 C        1.2440     1.9090     1.0890 C.3   1 <1>  -0.2400 
 17 C       -2.7470     5.9500     0.2910 C.3   1 <1>   0.0210 
 18 C       -5.9130    -1.7720     0.4730 C.3   1 <1>   0.5180 
 19 O       -6.5430     0.5570     0.2340 O.3   1 <1>  -0.5600 
 20 C       -3.3490     6.5710    -0.9850 C.3   1 <1>  -0.0800 
 21 C       -6.0830    -3.1850    -0.0970 C.3   1 <1>  -0.1950 
 22 C       -6.7590    -0.7260    -0.2890 C.3   1 <1>   0.1200 
 23 C       -2.2570     6.9580    -1.9940 C.3   1 <1>  -0.2400 
 24 C       -4.1880     7.8060    -0.6350 C.3   1 <1>  -0.2400 
 25 C       -7.0970    -4.1150     0.4940 C.3   1 <1>  -0.2000 
 26 C       -5.6320    -4.3980     0.6590 C.3   1 <1>  -0.2000 
 27 H       -2.2960    -0.0650     1.7570 H     1 <1>   0.0800 
 28 H       -2.8070     1.5250     1.3140 H     1 <1>   0.0800 
 29 H       -1.9300    -1.1750    -1.8400 H     1 <1>   0.0800 
 30 H       -1.7170    -1.7670    -0.2210 H     1 <1>   0.0800 
 31 H       -3.5680     3.3490    -0.7230 H     1 <1>   0.1500 
 32 H       -4.6640     0.0460     2.0460 H     1 <1>   0.0800 
 33 H       -3.8040    -2.6270    -1.1230 H     1 <1>   0.0800 
 34 H       -4.3070    -1.0290    -1.5930 H     1 <1>   0.0800 
 35 H        1.2170     2.3070    -1.0350 H     1 <1>   0.0800 
 36 H        1.6410     3.6830    -0.0580 H     1 <1>   0.0800 
 37 H       -4.0100    -2.0430     1.1650 H     1 <1>   0.4500 
 38 H       -4.8830     1.0780    -0.7980 H     1 <1>   0.0800 
 39 H       -5.1880     1.9680     0.6730 H     1 <1>   0.0800 
 40 H        0.6430     1.0210     1.0230 H     1 <1>   0.0800 
 41 H        1.0180     2.4340     2.0010 H     1 <1>   0.0800 
 42 H        2.2790     1.6170     1.1130 H     1 <1>   0.0800 
 43 H       -3.5310     5.7350     0.9930 H     1 <1>   0.0800 
 44 H       -2.0800     6.6550     0.7540 H     1 <1>   0.0800 
 45 H       -6.2760    -1.7890     1.4880 H     1 <1>   0.0800 
 46 H       -3.9960     5.8460    -1.4490 H     1 <1>   0.0800 
 47 H       -6.0240    -3.2100    -1.1720 H     1 <1>   0.1000 
 48 H       -7.8060    -0.9510    -0.1780 H     1 <1>   0.0800 
 49 H       -6.5240    -0.7160    -1.3380 H     1 <1>   0.0800 
 50 H       -1.5760     7.6690    -1.5600 H     1 <1>   0.0800 
 51 H       -2.6950     7.3930    -2.8750 H     1 <1>   0.0800 
 52 H       -1.6950     6.0910    -2.2930 H     1 <1>   0.0800 
 53 H       -3.5750     8.5610    -0.1730 H     1 <1>   0.0800 
 54 H       -4.9800     7.5430     0.0440 H     1 <1>   0.0800 
 55 H       -4.6300     8.2210    -1.5230 H     1 <1>   0.0800 
 56 H       -7.6580    -3.8280     1.3680 H     1 <1>   0.1000 
 57 H       -7.6670    -4.7560    -0.1590 H     1 <1>   0.1000 
 58 H       -5.2200    -5.2360     0.1190 H     1 <1>   0.1000 
 59 H       -5.2260    -4.3180     1.6530 H     1 <1>   0.1000 
@<TRIPOS>BOND
  1   1   2  2   
  2   2   3  am  
  3   2   4  1   
  4   3   5  1   
  5   3   6  1   
  6   4   7  1   
  7   4   8  2   
  8   5   9  1   
  9   5  27  1   
 10   5  28  1   
 11   6  10  1   
 12   6  29  1   
 13   6  30  1   
 14   7  11  1   
 15   7  12  1   
 16   8  13  1   
 17   8  31  1   
 18   9  14  1   
 19   9  15  1   
 20   9  32  1   
 21  10  14  1   
 22  10  33  1   
 23  10  34  1   
 24  11  13  2   
 25  12  16  1   
 26  12  35  1   
 27  12  36  1   
 28  13  17  1   
 29  14  18  1   
 30  14  37  1   
 31  15  19  1   
 32  15  38  1   
 33  15  39  1   
 34  16  40  1   
 35  16  41  1   
 36  16  42  1   
 37  17  20  1   
 38  17  43  1   
 39  17  44  1   
 40  18  21  1   
 41  18  22  1   
 42  18  45  1   
 43  19  22  1   
 44  20  23  1   
 45  20  24  1   
 46  20  46  1   
 47  21  25  1   
 48  21  26  1   
 49  21  47  1   
 50  22  48  1   
 51  22  49  1   
 52  23  50  1   
 53  23  51  1   
 54  23  52  1   
 55  24  53  1   
 56  24  54  1   
 57  24  55  1   
 58  25  26  1   
 59  25  56  1   
 60  25  57  1   
 61  26  58  1   
 62  26  59  1   
@<TRIPOS>SUBSTRUCTURE
  1 ****   3 GROUP 4 **** **** 0

# MOE 2024.06 (io_trps.svl 2023.06)
