@<TRIPOS>MOLECULE
NONAME
48 50 1 0 0 
SMALL
USER_CHARGES


@<TRIPOS>ATOM
  1 S        0.3440     0.5550    -1.1610 S.o2  1 <1>   1.4470 
  2 O        0.5660     0.0960    -2.5160 O.2   1 <1>  -0.6500 
  3 O        0.2540     1.9810    -0.9180 O.2   1 <1>  -0.6500 
  4 N        1.6620     0.0260    -0.2150 N.am  1 <1>  -0.8490 
  5 C       -1.1140    -0.3390    -0.4610 C.ar  1 <1>  -0.0090 
  6 C        1.8080     0.6730     1.1050 C.3   1 <1>   0.1960 
  7 C        2.8940    -0.4290    -0.8980 C.3   1 <1>   0.1960 
  8 C       -2.3350     0.3230    -0.2320 C.ar  1 <1>  -0.1440 
  9 C       -1.0430    -1.7060    -0.1320 C.ar  1 <1>  -0.1430 
 10 C        2.7440     1.9130     1.1830 C.3   1 <1>   0.2200 
 11 C        4.0050     0.6190    -1.1250 C.3   1 <1>  -0.0190 
 12 C       -3.3760    -0.3110     0.4410 C.ar  1 <1>  -0.1440 
 13 C       -2.5650     1.7530    -0.7340 C.3   1 <1>  -0.0960 
 14 C       -2.0870    -2.3340     0.5420 C.ar  1 <1>  -0.1430 
 15 C        0.1700    -2.5620    -0.5160 C.3   1 <1>  -0.0970 
 16 N        2.9350     2.6060    -0.1180 N.am  1 <1>  -0.7300 
 17 C        4.1150     1.5450     1.7870 C.3   1 <1>   0.1200 
 18 C        3.4850     2.0350    -1.2080 C.2   1 <1>   0.5690 
 19 C        5.1440     0.5260    -0.0970 C.3   1 <1>   0.1200 
 20 C       -3.2340    -1.6260     0.8290 C.ar  1 <1>  -0.1500 
 21 C       -4.6940     0.3750     0.7860 C.3   1 <1>  -0.0970 
 22 C       -2.0360    -3.7900     0.9930 C.3   1 <1>  -0.0970 
 23 O        4.6670     0.3950     1.2090 O.3   1 <1>  -0.5600 
 24 O        3.5790     2.6460    -2.2420 O.2   1 <1>  -0.5700 
 25 H        0.8330     0.9690     1.4530 H     1 <1>   0.0800 
 26 H        2.1570    -0.0670     1.8050 H     1 <1>   0.0800 
 27 H        3.3080    -1.2410    -0.3250 H     1 <1>   0.0800 
 28 H        2.6320    -0.8480    -1.8540 H     1 <1>   0.0800 
 29 H        2.2930     2.6190     1.8570 H     1 <1>   0.0800 
 30 H        4.4500     0.4030    -2.0780 H     1 <1>   0.0800 
 31 H       -3.6040     1.9840    -0.8630 H     1 <1>   0.0800 
 32 H       -2.1180     1.8930    -1.7020 H     1 <1>   0.0800 
 33 H       -2.1440     2.4610    -0.0430 H     1 <1>   0.0800 
 34 H       -0.1070    -3.5810    -0.7030 H     1 <1>   0.0800 
 35 H        0.8980    -2.5460     0.2750 H     1 <1>   0.0800 
 36 H        0.6230    -2.2180    -1.4250 H     1 <1>   0.0800 
 37 H        2.2960     3.3790    -0.3240 H     1 <1>   0.3700 
 38 H        3.9910     1.3300     2.8330 H     1 <1>   0.0800 
 39 H        4.8110     2.3610     1.6920 H     1 <1>   0.0800 
 40 H        5.7920     1.3850    -0.1530 H     1 <1>   0.0800 
 41 H        5.7320    -0.3520    -0.2980 H     1 <1>   0.0800 
 42 H       -4.0370    -2.1130     1.3530 H     1 <1>   0.1500 
 43 H       -5.2700    -0.2130     1.4780 H     1 <1>   0.0800 
 44 H       -5.2800     0.5140    -0.1050 H     1 <1>   0.0800 
 45 H       -4.5100     1.3300     1.2440 H     1 <1>   0.0800 
 46 H       -2.8260    -4.0090     1.6880 H     1 <1>   0.0800 
 47 H       -1.1030    -3.9990     1.4850 H     1 <1>   0.0800 
 48 H       -2.1440    -4.4420     0.1450 H     1 <1>   0.0800 
@<TRIPOS>BOND
  1   1   2  2   
  2   1   3  2   
  3   1   4  am  
  4   1   5  1   
  5   4   6  1   
  6   4   7  1   
  7   5   8  ar  
  8   5   9  ar  
  9   6  10  1   
 10   6  25  1   
 11   6  26  1   
 12   7  11  1   
 13   7  27  1   
 14   7  28  1   
 15   8  12  ar  
 16   8  13  1   
 17   9  14  ar  
 18   9  15  1   
 19  10  16  1   
 20  10  17  1   
 21  10  29  1   
 22  11  18  1   
 23  11  19  1   
 24  11  30  1   
 25  12  20  ar  
 26  12  21  1   
 27  13  31  1   
 28  13  32  1   
 29  13  33  1   
 30  14  20  ar  
 31  14  22  1   
 32  15  34  1   
 33  15  35  1   
 34  15  36  1   
 35  16  18  am  
 36  16  37  1   
 37  17  23  1   
 38  17  38  1   
 39  17  39  1   
 40  18  24  2   
 41  19  23  1   
 42  19  40  1   
 43  19  41  1   
 44  20  42  1   
 45  21  43  1   
 46  21  44  1   
 47  21  45  1   
 48  22  46  1   
 49  22  47  1   
 50  22  48  1   
@<TRIPOS>SUBSTRUCTURE
  1 ****   4 GROUP 4 **** **** 0

# MOE 2024.06 (io_trps.svl 2023.06)
