@<TRIPOS>MOLECULE
NONAME
49 50 1 0 0 
SMALL
USER_CHARGES


@<TRIPOS>ATOM
  1 S        0.3300    -0.0040    -1.5680 S.o2  1 <1>   1.3330 
  2 O        0.7820     1.2220    -2.1810 O.2   1 <1>  -0.6500 
  3 O       -0.4810    -0.9260    -2.3240 O.2   1 <1>  -0.6500 
  4 N        1.7390    -0.8490    -1.0220 N.am  1 <1>  -0.6930 
  5 C       -0.5060     0.3800    -0.0440 C.3   1 <1>  -0.1350 
  6 C        1.6690    -2.1320    -0.4860 C.ar  1 <1>   0.1990 
  7 C        3.0070    -0.0630    -0.8970 C.3   1 <1>   0.2570 
  8 C        2.0030    -2.3730     0.8430 C.ar  1 <1>  -0.1500 
  9 C        1.2660    -3.2070    -1.2680 C.ar  1 <1>  -0.1500 
 10 C        2.9240     1.1560     0.0420 C.2   1 <1>   0.5690 
 11 C        1.9380    -3.6500     1.3720 C.ar  1 <1>  -0.1500 
 12 C        1.1990    -4.4840    -0.7430 C.ar  1 <1>  -0.1500 
 13 O        2.5700     0.9480     1.1820 O.2   1 <1>  -0.5700 
 14 N        3.2560     2.4250    -0.3700 N.am  1 <1>  -0.6600 
 15 C        1.5340    -4.7140     0.5820 C.ar  1 <1>  -0.1430 
 16 C        3.3620     3.5350     0.6200 C.3   1 <1>   0.3210 
 17 C        3.5340     2.8340    -1.7800 C.3   1 <1>   0.0600 
 18 C        1.4620    -6.1160     1.1590 C.3   1 <1>  -0.0970 
 19 C        4.7450     4.1570     0.5450 C.2   1 <1>  -0.1810 
 20 C        5.0860     5.4190     0.0670 C.2   1 <1>   0.1080 
 21 C        5.9220     3.6090     0.9190 C.2   1 <1>  -0.3020 
 22 N        6.3620     5.6350     0.1290 N.2   1 <1>  -0.7070 
 23 C        4.1290     6.4590    -0.4730 C.3   1 <1>  -0.0590 
 24 N        6.8800     4.5170     0.6600 N.pl3 1 <1>   0.3140 
 25 C        8.3190     4.3740     0.8940 C.3   1 <1>   0.0160 
 26 H       -1.4310     0.8810    -0.2500 H     1 <1>   0.0800 
 27 H        0.0990     1.0180     0.5680 H     1 <1>   0.0800 
 28 H       -0.7160    -0.5210     0.4980 H     1 <1>   0.0800 
 29 H        3.3150     0.2330    -1.8790 H     1 <1>   0.0800 
 30 H        3.7760    -0.7080    -0.5140 H     1 <1>   0.0800 
 31 H        2.3100    -1.5580     1.4710 H     1 <1>   0.1500 
 32 H        1.0030    -3.0380    -2.2970 H     1 <1>   0.1500 
 33 H        2.2030    -3.8110     2.4020 H     1 <1>   0.1500 
 34 H        0.8830    -5.2990    -1.3710 H     1 <1>   0.1500 
 35 H        3.2020     3.1770     1.6220 H     1 <1>   0.0800 
 36 H        2.6070     4.2700     0.4090 H     1 <1>   0.0800 
 37 H        3.0670     2.1740    -2.4870 H     1 <1>   0.0800 
 38 H        4.5960     2.8490    -1.9510 H     1 <1>   0.0800 
 39 H        3.1420     3.8200    -1.9560 H     1 <1>   0.0800 
 40 H        1.2500    -6.0790     2.2120 H     1 <1>   0.0800 
 41 H        2.4010    -6.6190     1.0110 H     1 <1>   0.0800 
 42 H        0.6850    -6.6810     0.6770 H     1 <1>   0.0800 
 43 H        6.1190     2.6420     1.3420 H     1 <1>   0.1500 
 44 H        3.7240     6.1310    -1.4110 H     1 <1>   0.0800 
 45 H        4.6520     7.3860    -0.6260 H     1 <1>   0.0800 
 46 H        3.3320     6.6250     0.2270 H     1 <1>   0.0800 
 47 H        8.4980     3.5320     1.5350 H     1 <1>   0.0800 
 48 H        8.6860     5.2700     1.3580 H     1 <1>   0.0800 
 49 H        8.8110     4.2300    -0.0490 H     1 <1>   0.0800 
@<TRIPOS>BOND
  1   1   2  2   
  2   1   3  2   
  3   1   4  am  
  4   1   5  1   
  5   4   6  1   
  6   4   7  1   
  7   5  26  1   
  8   5  27  1   
  9   5  28  1   
 10   6   8  ar  
 11   6   9  ar  
 12   7  10  1   
 13   7  29  1   
 14   7  30  1   
 15   8  11  ar  
 16   8  31  1   
 17   9  12  ar  
 18   9  32  1   
 19  10  13  2   
 20  10  14  am  
 21  11  15  ar  
 22  11  33  1   
 23  12  15  ar  
 24  12  34  1   
 25  14  16  1   
 26  14  17  1   
 27  15  18  1   
 28  16  19  1   
 29  16  35  1   
 30  16  36  1   
 31  17  37  1   
 32  17  38  1   
 33  17  39  1   
 34  18  40  1   
 35  18  41  1   
 36  18  42  1   
 37  19  20  1   
 38  19  21  2   
 39  20  22  2   
 40  20  23  1   
 41  21  24  1   
 42  21  43  1   
 43  22  24  1   
 44  23  44  1   
 45  23  45  1   
 46  23  46  1   
 47  24  25  1   
 48  25  47  1   
 49  25  48  1   
 50  25  49  1   
@<TRIPOS>SUBSTRUCTURE
  1 ****  10 GROUP 4 **** **** 0

# MOE 2024.06 (io_trps.svl 2023.06)
