@<TRIPOS>MOLECULE
NONAME
39 41 1 0 0 
SMALL
USER_CHARGES


@<TRIPOS>ATOM
  1 CL       3.0990    -0.5460    -2.0240 Cl    1 <1>  -0.1230 
  2 C        2.6970    -0.0760    -0.3780 C.2   1 <1>   0.1230 
  3 C        2.5930     1.1750     0.1100 C.2   1 <1>  -0.3320 
  4 C        2.4230    -0.9390     0.6760 C.2   1 <1>   0.1080 
  5 N        2.2520     1.0220     1.4080 N.pl3 1 <1>   0.3000 
  6 C        2.7740     2.5170    -0.5700 C.3   1 <1>   0.2900 
  7 N        2.1560    -0.2790     1.7620 N.2   1 <1>  -0.7070 
  8 C        2.4190    -2.4510     0.6240 C.3   1 <1>  -0.0590 
  9 N        4.1600     2.9910    -0.4570 N.3   1 <1>  -0.8100 
 10 C        4.5880     3.3090     0.9260 C.3   1 <1>   0.1100 
 11 C        5.1040     2.1770    -1.2420 C.3   1 <1>   0.1100 
 12 C        6.0240     3.8650     1.0730 C.3   1 <1>   0.2200 
 13 C        6.4200     2.8990    -1.6160 C.3   1 <1>  -0.0190 
 14 N        6.3340     4.8310    -0.0280 N.am  1 <1>  -0.6600 
 15 C        7.0610     2.7160     1.2260 C.3   1 <1>   0.1200 
 16 C        6.4530     4.3930    -1.3220 C.2   1 <1>   0.5690 
 17 C        7.6600     2.2020    -1.0280 C.3   1 <1>   0.1200 
 18 C        6.4260     6.2670     0.3410 C.3   1 <1>   0.0600 
 19 O        8.0380     2.6870     0.2270 O.3   1 <1>  -0.5600 
 20 O        6.6130     5.1520    -2.2520 O.2   1 <1>  -0.5700 
 21 H        2.0720     1.7800     2.0780 H     1 <1>   0.2700 
 22 H        2.1090     3.2470    -0.1410 H     1 <1>   0.0800 
 23 H        2.5190     2.4280    -1.6130 H     1 <1>   0.0800 
 24 H        2.8460    -2.8030    -0.2960 H     1 <1>   0.0800 
 25 H        1.4090    -2.8080     0.7040 H     1 <1>   0.0800 
 26 H        2.9910    -2.8400     1.4460 H     1 <1>   0.0800 
 27 H        3.9150     4.0530     1.3150 H     1 <1>   0.0800 
 28 H        4.4950     2.4370     1.5480 H     1 <1>   0.0800 
 29 H        5.3080     1.2600    -0.7160 H     1 <1>   0.0800 
 30 H        4.6250     1.9070    -2.1680 H     1 <1>   0.0800 
 31 H        6.0440     4.4010     2.0040 H     1 <1>   0.0800 
 32 H        6.5110     2.7920    -2.6810 H     1 <1>   0.0800 
 33 H        6.5840     1.7520     1.2640 H     1 <1>   0.0800 
 34 H        7.5820     2.8520     2.1560 H     1 <1>   0.0800 
 35 H        8.4980     2.3800    -1.6790 H     1 <1>   0.0800 
 36 H        7.5160     1.1380    -0.9540 H     1 <1>   0.0800 
 37 H        7.2040     6.4040     1.0700 H     1 <1>   0.0800 
 38 H        5.4870     6.5990     0.7460 H     1 <1>   0.0800 
 39 H        6.6580     6.8650    -0.5240 H     1 <1>   0.0800 
@<TRIPOS>BOND
  1   1   2  1   
  2   2   3  2   
  3   2   4  1   
  4   3   5  1   
  5   3   6  1   
  6   4   7  2   
  7   4   8  1   
  8   5   7  1   
  9   5  21  1   
 10   6   9  1   
 11   6  22  1   
 12   6  23  1   
 13   8  24  1   
 14   8  25  1   
 15   8  26  1   
 16   9  10  1   
 17   9  11  1   
 18  10  12  1   
 19  10  27  1   
 20  10  28  1   
 21  11  13  1   
 22  11  29  1   
 23  11  30  1   
 24  12  14  1   
 25  12  15  1   
 26  12  31  1   
 27  13  16  1   
 28  13  17  1   
 29  13  32  1   
 30  14  16  am  
 31  14  18  1   
 32  15  19  1   
 33  15  33  1   
 34  15  34  1   
 35  16  20  2   
 36  17  19  1   
 37  17  35  1   
 38  17  36  1   
 39  18  37  1   
 40  18  38  1   
 41  18  39  1   
@<TRIPOS>SUBSTRUCTURE
  1 ****   9 GROUP 4 **** **** 0

# MOE 2024.06 (io_trps.svl 2023.06)
