@<TRIPOS>MOLECULE
NONAME
52 55 1 0 0 
SMALL
USER_CHARGES


@<TRIPOS>ATOM
  1 O       -0.4920    -0.1660    -2.7770 O.2   1 <1>  -0.5700 
  2 C       -0.9380     0.7030    -2.0640 C.2   1 <1>   0.5690 
  3 N       -1.8240     0.4130    -1.0600 N.am  1 <1>  -0.6600 
  4 C       -0.4840     2.1490    -2.3190 C.3   1 <1>   0.1710 
  5 C       -2.3810     1.3920    -0.0910 C.3   1 <1>   0.1400 
  6 C       -2.2000    -0.9700    -0.6900 C.3   1 <1>   0.1400 
  7 N        0.2070     2.8050    -1.1710 N.3   1 <1>  -0.8100 
  8 C       -3.2980     0.5640     0.8070 C.3   1 <1>   0.2000 
  9 C       -2.7530    -0.8610     0.7320 C.3   1 <1>  -0.0800 
 10 C        0.4300     4.2350    -1.4350 C.3   1 <1>   0.2530 
 11 C        1.4780     2.1090    -0.8650 C.3   1 <1>   0.1100 
 12 O       -3.2840     1.0150     2.1170 O.3   1 <1>  -0.6800 
 13 C       -3.8050    -1.9280     1.0680 C.3   1 <1>   0.0200 
 14 C        0.5530     5.0130    -0.1360 C.ar  1 <1>  -0.1430 
 15 C        2.1010     2.5270     0.4740 C.3   1 <1>   0.1200 
 16 C       -3.2300    -3.3220     0.9120 C.2   1 <1>  -0.0400 
 17 C        1.6310     4.8080     0.7170 C.ar  1 <1>   0.0820 
 18 C       -0.3980     5.9650     0.2040 C.ar  1 <1>  -0.1500 
 19 O        2.5560     3.8650     0.4500 O.3   1 <1>  -0.3630 
 20 O       -2.2410    -3.7100     1.6720 O.3   1 <1>  -0.0190 
 21 C       -3.5370    -4.3330     0.0860 C.2   1 <1>  -0.1500 
 22 C        1.7760     5.5650     1.8670 C.ar  1 <1>  -0.1500 
 23 C       -0.2640     6.7120     1.3630 C.ar  1 <1>  -0.1500 
 24 N       -1.8660    -4.9260     1.3960 N.2   1 <1>  -0.4100 
 25 C       -2.6310    -5.3270     0.4450 C.2   1 <1>   0.1080 
 26 C        0.8270     6.5170     2.1930 C.ar  1 <1>  -0.1500 
 27 C       -2.5470    -6.6960    -0.1930 C.3   1 <1>  -0.0590 
 28 H       -1.3620     2.7140    -2.5710 H     1 <1>   0.0800 
 29 H        0.1660     2.1540    -3.1770 H     1 <1>   0.0800 
 30 H       -1.5770     1.8250     0.4790 H     1 <1>   0.0800 
 31 H       -2.9300     2.1620    -0.6020 H     1 <1>   0.0800 
 32 H       -2.9540    -1.3200    -1.3750 H     1 <1>   0.0800 
 33 H       -1.3470    -1.6270    -0.7330 H     1 <1>   0.0800 
 34 H       -4.3090     0.6170     0.4410 H     1 <1>   0.0800 
 35 H       -1.9190    -0.9590     1.4040 H     1 <1>   0.0800 
 36 H        1.3190     4.3730    -2.0270 H     1 <1>   0.0800 
 37 H       -0.4000     4.6350    -1.9920 H     1 <1>   0.0800 
 38 H        1.2910     1.0510    -0.8030 H     1 <1>   0.0800 
 39 H        2.1920     2.2630    -1.6570 H     1 <1>   0.0800 
 40 H       -2.3730     1.0080     2.4690 H     1 <1>   0.4000 
 41 H       -4.6570    -1.8220     0.4220 H     1 <1>   0.0800 
 42 H       -4.1380    -1.7980     2.0840 H     1 <1>   0.0800 
 43 H        2.9550     1.9090     0.6800 H     1 <1>   0.0800 
 44 H        1.3910     2.4130     1.2750 H     1 <1>   0.0800 
 45 H       -1.2480     6.1340    -0.4340 H     1 <1>   0.1500 
 46 H       -4.2880    -4.3980    -0.6790 H     1 <1>   0.1500 
 47 H        2.6270     5.4000     2.5020 H     1 <1>   0.1500 
 48 H       -1.0070     7.4470     1.6170 H     1 <1>   0.1500 
 49 H        0.9350     7.1030     3.0890 H     1 <1>   0.1500 
 50 H       -3.4850    -7.2080    -0.0850 H     1 <1>   0.0800 
 51 H       -1.7760    -7.2760     0.2820 H     1 <1>   0.0800 
 52 H       -2.3130    -6.5970    -1.2370 H     1 <1>   0.0800 
@<TRIPOS>BOND
  1   1   2  2   
  2   2   3  am  
  3   2   4  1   
  4   3   5  1   
  5   3   6  1   
  6   4   7  1   
  7   4  28  1   
  8   4  29  1   
  9   5   8  1   
 10   5  30  1   
 11   5  31  1   
 12   6   9  1   
 13   6  32  1   
 14   6  33  1   
 15   7  10  1   
 16   7  11  1   
 17   8   9  1   
 18   8  12  1   
 19   8  34  1   
 20   9  13  1   
 21   9  35  1   
 22  10  14  1   
 23  10  36  1   
 24  10  37  1   
 25  11  15  1   
 26  11  38  1   
 27  11  39  1   
 28  12  40  1   
 29  13  16  1   
 30  13  41  1   
 31  13  42  1   
 32  14  17  ar  
 33  14  18  ar  
 34  15  19  1   
 35  15  43  1   
 36  15  44  1   
 37  16  20  1   
 38  16  21  2   
 39  17  19  1   
 40  17  22  ar  
 41  18  23  ar  
 42  18  45  1   
 43  20  24  1   
 44  21  25  1   
 45  21  46  1   
 46  22  26  ar  
 47  22  47  1   
 48  23  26  ar  
 49  23  48  1   
 50  24  25  2   
 51  25  27  1   
 52  26  49  1   
 53  27  50  1   
 54  27  51  1   
 55  27  52  1   
@<TRIPOS>SUBSTRUCTURE
  1 ****   5 GROUP 4 **** **** 0

# MOE 2024.06 (io_trps.svl 2023.06)
