@<TRIPOS>MOLECULE
NONAME
37 37 1 0 0 
SMALL
USER_CHARGES


@<TRIPOS>ATOM
  1 O       -0.1220    -0.1860     0.4890 O.2   1 <1>  -0.5700 
  2 C       -1.1930     0.1330     0.0150 C.2   1 <1>   0.7800 
  3 O       -2.1040    -0.7590    -0.3610 O.3   1 <1>  -0.4300 
  4 N       -1.5360     1.4220    -0.1650 N.am  1 <1>  -0.7300 
  5 C       -2.0030    -2.1640    -0.2760 C.3   1 <1>   0.2800 
  6 C       -0.7170     2.5640     0.2440 C.3   1 <1>   0.3400 
  7 C       -0.8440    -2.6660    -1.1460 C.3   1 <1>  -0.2400 
  8 C       -3.3220    -2.6950    -0.8380 C.3   1 <1>  -0.2400 
  9 C       -1.8650    -2.5990     1.1880 C.3   1 <1>  -0.2400 
 10 C       -1.6140     3.7390     0.4000 C.1   1 <1>  -0.2000 
 11 C       -2.3410     4.6760     0.5110 C.1   1 <1>  -0.0200 
 12 C       -3.2200     5.7960     0.6320 C.2   1 <1>   0.1600 
 13 O       -4.1440     6.0080    -0.2810 O.3   1 <1>  -0.2800 
 14 C       -3.2960     6.7630     1.5770 C.2   1 <1>  -0.1500 
 15 C       -4.8410     7.0990     0.0290 C.2   1 <1>   0.0550 
 16 C       -4.3380     7.6030     1.1920 C.2   1 <1>  -0.1500 
 17 C       -5.9220     7.5670    -0.8040 C.2   1 <1>   0.8050 
 18 O       -6.2870     7.0210    -1.8270 O.2   1 <1>  -0.5700 
 19 O       -6.5550     8.6800    -0.4090 O.3   1 <1>  -0.4300 
 20 C       -7.6290     9.2280    -1.1510 C.3   1 <1>   0.0400 
 21 H       -2.4580     1.6330    -0.5410 H     1 <1>   0.3700 
 22 H        0.0250     2.7620    -0.5100 H     1 <1>   0.0800 
 23 H       -0.2210     2.3460     1.1750 H     1 <1>   0.0800 
 24 H       -0.9360    -2.2850    -2.1470 H     1 <1>   0.0800 
 25 H       -0.8560    -3.7400    -1.1880 H     1 <1>   0.0800 
 26 H        0.1040    -2.3680    -0.7400 H     1 <1>   0.0800 
 27 H       -3.4480    -2.3790    -1.8580 H     1 <1>   0.0800 
 28 H       -4.1490    -2.3330    -0.2540 H     1 <1>   0.0800 
 29 H       -3.3350    -3.7700    -0.8120 H     1 <1>   0.0800 
 30 H       -0.9160    -2.3020     1.5940 H     1 <1>   0.0800 
 31 H       -1.9270    -3.6690     1.2600 H     1 <1>   0.0800 
 32 H       -2.6530    -2.1710     1.7810 H     1 <1>   0.0800 
 33 H       -2.6830     6.8740     2.4540 H     1 <1>   0.1500 
 34 H       -4.6680     8.4790     1.7240 H     1 <1>   0.1500 
 35 H       -7.9760    10.1120    -0.6470 H     1 <1>   0.0800 
 36 H       -8.4200     8.5000    -1.2090 H     1 <1>   0.0800 
 37 H       -7.2800     9.4770    -2.1380 H     1 <1>   0.0800 
@<TRIPOS>BOND
  1   1   2  2   
  2   2   3  1   
  3   2   4  am  
  4   3   5  1   
  5   4   6  1   
  6   4  21  1   
  7   5   7  1   
  8   5   8  1   
  9   5   9  1   
 10   6  10  1   
 11   6  22  1   
 12   6  23  1   
 13   7  24  1   
 14   7  25  1   
 15   7  26  1   
 16   8  27  1   
 17   8  28  1   
 18   8  29  1   
 19   9  30  1   
 20   9  31  1   
 21   9  32  1   
 22  10  11  3   
 23  11  12  1   
 24  12  13  1   
 25  12  14  2   
 26  13  15  1   
 27  14  16  1   
 28  14  33  1   
 29  15  16  2   
 30  15  17  1   
 31  16  34  1   
 32  17  18  2   
 33  17  19  1   
 34  19  20  1   
 35  20  35  1   
 36  20  36  1   
 37  20  37  1   
@<TRIPOS>SUBSTRUCTURE
  1 ****  11 GROUP 4 **** **** 0

# MOE 2024.06 (io_trps.svl 2023.06)
