@<TRIPOS>MOLECULE
NONAME
47 48 1 0 0 
SMALL
USER_CHARGES


@<TRIPOS>ATOM
  1 S       -0.2610    -0.2660    -0.7900 S.3   1 <1>  -0.0800 
  2 C        1.0320    -0.9510     0.1960 C.2   1 <1>  -0.0050 
  3 C        0.4470     1.3330    -0.7290 C.2   1 <1>  -0.1100 
  4 C        1.9080     0.0340     0.5100 C.2   1 <1>  -0.1500 
  5 C        1.0170    -2.3440     0.5270 C.2   1 <1>  -0.1050 
  6 C        1.5880     1.3240    -0.0100 C.2   1 <1>  -0.1810 
  7 C        0.0980    -3.2740     0.1780 C.2   1 <1>  -0.1360 
  8 C        2.4910     2.5130     0.2730 C.3   1 <1>   0.3010 
  9 C        0.1120    -4.6620     0.5260 C.2   1 <1>   0.6160 
 10 O        2.2600     3.4920    -0.6740 O.3   1 <1>  -0.6800 
 11 O        1.0070    -5.1360     1.1980 O.2   1 <1>  -0.5700 
 12 N       -0.8830    -5.4900     0.0970 N.am  1 <1>  -0.7300 
 13 C       -0.9610    -6.9140     0.4520 C.3   1 <1>   0.2200 
 14 C       -0.1560    -7.7300    -0.5560 C.3   1 <1>  -0.1600 
 15 C       -2.4170    -7.3690     0.4760 C.3   1 <1>  -0.1600 
 16 C       -0.2600    -9.2160    -0.2330 C.3   1 <1>   0.3430 
 17 C       -2.4940    -8.8640     0.7790 C.3   1 <1>   0.3430 
 18 N       -1.6960    -9.6360    -0.2260 N.4   1 <1>  -0.9590 
 19 C       -1.7800   -11.1150     0.0080 C.3   1 <1>   0.3430 
 20 C       -3.1790   -11.6800    -0.2590 C.3   1 <1>   0.0700 
 21 S       -3.0750   -13.4580     0.0390 S.3   1 <1>  -0.4600 
 22 C       -4.7450   -14.0630    -0.3380 C.3   1 <1>  -0.0100 
 23 H       -0.0710     2.1260    -1.2390 H     1 <1>   0.1500 
 24 H        2.7890    -0.1200     1.1080 H     1 <1>   0.1500 
 25 H        1.8550    -2.6540     1.1290 H     1 <1>   0.1500 
 26 H       -0.7440    -2.9840    -0.4180 H     1 <1>   0.1500 
 27 H        3.5270     2.2280     0.2080 H     1 <1>   0.0800 
 28 H        2.2920     2.9270     1.2470 H     1 <1>   0.0800 
 29 H        2.2690     3.0810    -1.5580 H     1 <1>   0.4000 
 30 H       -1.6180    -5.1140    -0.5030 H     1 <1>   0.3700 
 31 H       -0.5350    -7.0490     1.4350 H     1 <1>   0.0800 
 32 H       -0.5020    -7.5470    -1.5570 H     1 <1>   0.0800 
 33 H        0.8790    -7.4370    -0.4980 H     1 <1>   0.0800 
 34 H       -2.9440    -6.8320     1.2460 H     1 <1>   0.0800 
 35 H       -2.8940    -7.1670    -0.4660 H     1 <1>   0.0800 
 36 H        0.1810    -9.4040     0.7330 H     1 <1>   0.0800 
 37 H        0.2880    -9.7810    -0.9700 H     1 <1>   0.0800 
 38 H       -3.5260    -9.1780     0.7560 H     1 <1>   0.0800 
 39 H       -2.1080    -9.0490     1.7690 H     1 <1>   0.0800 
 40 H       -2.0730    -9.4360    -1.1620 H     1 <1>   0.4500 
 41 H       -1.0870   -11.6220    -0.6440 H     1 <1>   0.0800 
 42 H       -1.5000   -11.3410     1.0250 H     1 <1>   0.0800 
 43 H       -3.4790   -11.5480    -1.2840 H     1 <1>   0.0800 
 44 H       -3.9180   -11.2930     0.4190 H     1 <1>   0.0800 
 45 H       -4.7500   -15.1270    -0.1770 H     1 <1>   0.0800 
 46 H       -4.9640   -13.8350    -1.3660 H     1 <1>   0.0800 
 47 H       -5.4390   -13.5770     0.3250 H     1 <1>   0.0800 
@<TRIPOS>BOND
  1   1   2  1   
  2   1   3  1   
  3   2   4  2   
  4   2   5  1   
  5   3   6  2   
  6   3  23  1   
  7   4   6  1   
  8   4  24  1   
  9   5   7  2   
 10   5  25  1   
 11   6   8  1   
 12   7   9  1   
 13   7  26  1   
 14   8  10  1   
 15   8  27  1   
 16   8  28  1   
 17   9  11  2   
 18   9  12  am  
 19  10  29  1   
 20  12  13  1   
 21  12  30  1   
 22  13  14  1   
 23  13  15  1   
 24  13  31  1   
 25  14  16  1   
 26  14  32  1   
 27  14  33  1   
 28  15  17  1   
 29  15  34  1   
 30  15  35  1   
 31  16  18  1   
 32  16  36  1   
 33  16  37  1   
 34  17  18  1   
 35  17  38  1   
 36  17  39  1   
 37  18  19  1   
 38  18  40  1   
 39  19  20  1   
 40  19  41  1   
 41  19  42  1   
 42  20  21  1   
 43  20  43  1   
 44  20  44  1   
 45  21  22  1   
 46  22  45  1   
 47  22  46  1   
 48  22  47  1   
@<TRIPOS>SUBSTRUCTURE
  1 ****  12 GROUP 4 **** **** 0

# MOE 2024.06 (io_trps.svl 2023.06)
