@<TRIPOS>MOLECULE
NONAME
47 50 1 0 0 
SMALL
USER_CHARGES


@<TRIPOS>ATOM
  1 O        0.3000    -0.3550     0.2570 O.3   1 <1>  -0.3630 
  2 C        0.3020    -1.6860     0.3790 C.ar  1 <1>   0.0820 
  3 C       -0.6610     0.1420     1.1880 C.3   1 <1>   0.4000 
  4 C       -0.6040    -2.0710     1.3220 C.ar  1 <1>   0.0820 
  5 C        1.0700    -2.6040    -0.3050 C.ar  1 <1>  -0.1500 
  6 O       -1.2190    -1.0010     1.8370 O.3   1 <1>  -0.3630 
  7 C       -0.7980    -3.3990     1.6400 C.ar  1 <1>  -0.1500 
  8 C        0.8920    -3.9560    -0.0060 C.ar  1 <1>   0.0820 
  9 C       -0.0390    -4.3490     0.9630 C.ar  1 <1>  -0.1440 
 10 O        1.5930    -4.9420    -0.6340 O.3   1 <1>  -0.3630 
 11 C       -0.2280    -5.8190     1.2820 C.3   1 <1>   0.4870 
 12 C        2.7170    -4.6280    -1.4350 C.3   1 <1>   0.0400 
 13 N       -0.6860    -6.5070     0.0490 N.4   1 <1>  -0.9590 
 14 C       -2.0060    -6.0150    -0.4530 C.3   1 <1>   0.3430 
 15 C       -0.7430    -7.9920     0.1740 C.3   1 <1>   0.3430 
 16 C       -2.7580    -7.2640    -0.9150 C.3   1 <1>   0.2000 
 17 C       -2.2010    -8.3970    -0.0620 C.3   1 <1>  -0.0800 
 18 O       -4.1270    -7.1500    -0.7320 O.3   1 <1>  -0.6800 
 19 C       -2.3580    -9.7790    -0.7260 C.3   1 <1>  -0.0170 
 20 C       -1.8360   -10.9050     0.1560 C.ar  1 <1>   0.1670 
 21 N       -0.5410   -10.8840     0.4360 N.ar  1 <1>  -0.6200 
 22 C       -2.7070   -11.8900     0.6200 C.ar  1 <1>   0.1600 
 23 C       -0.1790   -11.9130     1.1890 C.ar  1 <1>   0.1600 
 24 N       -2.3480   -12.9050     1.3850 N.ar  1 <1>  -0.6200 
 25 C       -1.0540   -12.8890     1.6500 C.ar  1 <1>   0.1600 
 26 H       -0.1710     0.7660     1.9150 H     1 <1>   0.0800 
 27 H       -1.4340     0.6740     0.6620 H     1 <1>   0.0800 
 28 H        1.7660    -2.2460    -1.0390 H     1 <1>   0.1500 
 29 H       -1.5190    -3.6550     2.3960 H     1 <1>   0.1500 
 30 H       -0.9490    -5.9420     2.0730 H     1 <1>   0.0800 
 31 H        0.7150    -6.2320     1.6040 H     1 <1>   0.0800 
 32 H        3.1800    -5.5470    -1.7460 H     1 <1>   0.0800 
 33 H        3.4140    -4.0500    -0.8520 H     1 <1>   0.0800 
 34 H        2.3920    -4.0740    -2.2990 H     1 <1>   0.0800 
 35 H        0.0390    -6.2530    -0.6460 H     1 <1>   0.4500 
 36 H       -2.5520    -5.5430     0.3470 H     1 <1>   0.0800 
 37 H       -1.8770    -5.3160    -1.2630 H     1 <1>   0.0800 
 38 H       -0.1190    -8.4430    -0.5810 H     1 <1>   0.0800 
 39 H       -0.4050    -8.3310     1.1410 H     1 <1>   0.0800 
 40 H       -2.5730    -7.4280    -1.9640 H     1 <1>   0.0800 
 41 H       -2.6910    -8.4060     0.8960 H     1 <1>   0.0800 
 42 H       -4.3890    -7.1570     0.2110 H     1 <1>   0.4000 
 43 H       -1.8260    -9.8040    -1.6610 H     1 <1>   0.0800 
 44 H       -3.3990    -9.9460    -0.9460 H     1 <1>   0.0800 
 45 H       -3.7470   -11.8400     0.3490 H     1 <1>   0.1500 
 46 H        0.8600   -11.9910     1.4580 H     1 <1>   0.1500 
 47 H       -0.6670   -13.6870     2.2590 H     1 <1>   0.1500 
@<TRIPOS>BOND
  1   1   2  1   
  2   1   3  1   
  3   2   4  ar  
  4   2   5  ar  
  5   3   6  1   
  6   3  26  1   
  7   3  27  1   
  8   4   6  1   
  9   4   7  ar  
 10   5   8  ar  
 11   5  28  1   
 12   7   9  ar  
 13   7  29  1   
 14   8   9  ar  
 15   8  10  1   
 16   9  11  1   
 17  10  12  1   
 18  11  13  1   
 19  11  30  1   
 20  11  31  1   
 21  12  32  1   
 22  12  33  1   
 23  12  34  1   
 24  13  14  1   
 25  13  15  1   
 26  13  35  1   
 27  14  16  1   
 28  14  36  1   
 29  14  37  1   
 30  15  17  1   
 31  15  38  1   
 32  15  39  1   
 33  16  17  1   
 34  16  18  1   
 35  16  40  1   
 36  17  19  1   
 37  17  41  1   
 38  18  42  1   
 39  19  20  1   
 40  19  43  1   
 41  19  44  1   
 42  20  21  ar  
 43  20  22  ar  
 44  21  23  ar  
 45  22  24  ar  
 46  22  45  1   
 47  23  25  ar  
 48  23  46  1   
 49  24  25  ar  
 50  25  47  1   
@<TRIPOS>SUBSTRUCTURE
  1 ****  13 GROUP 4 **** **** 0

# MOE 2024.06 (io_trps.svl 2023.06)
