@<TRIPOS>MOLECULE
NONAME
24 24 1 0 0 
SMALL
USER_CHARGES


@<TRIPOS>ATOM
  1 F        0.8220     1.5520    -1.5420 F     1 <1>  -0.3400 
  2 C        0.0900     1.6710    -0.4360 C.3   1 <1>   1.0810 
  3 F       -1.1150     1.2040    -0.7580 F     1 <1>  -0.3400 
  4 F        0.5960     0.7930     0.4290 F     1 <1>  -0.3400 
  5 C        0.0800     3.1140     0.1230 C.2   1 <1>   0.4230 
  6 O       -0.9650     3.6300     0.4600 O.2   1 <1>  -0.5700 
  7 C        1.3360     3.8360     0.2280 C.ar  1 <1>   0.0860 
  8 C        1.3190     5.2310     0.3290 C.ar  1 <1>  -0.1500 
  9 C        2.5960     3.2230     0.2430 C.ar  1 <1>  -0.1500 
 10 C        2.4770     5.9840     0.4280 C.ar  1 <1>  -0.1440 
 11 C        3.7590     3.9630     0.3390 C.ar  1 <1>  -0.1500 
 12 C        3.7020     5.3400     0.4290 C.ar  1 <1>  -0.1500 
 13 C        2.4100     7.5000     0.5430 C.3   1 <1>   0.2640 
 14 O        3.1950     8.0650    -0.4600 O.3   1 <1>  -0.5600 
 15 C        3.2100     9.4560    -0.4570 C.3   1 <1>   0.0400 
 16 H        0.3680     5.7360     0.3270 H     1 <1>   0.1500 
 17 H        2.6980     2.1550     0.1830 H     1 <1>   0.1500 
 18 H        4.7170     3.4700     0.3420 H     1 <1>   0.1500 
 19 H        4.6100     5.9160     0.4940 H     1 <1>   0.1500 
 20 H        2.7920     7.8150     1.4990 H     1 <1>   0.0800 
 21 H        1.3990     7.8490     0.4230 H     1 <1>   0.0800 
 22 H        3.8420     9.7840    -1.2630 H     1 <1>   0.0800 
 23 H        3.6080     9.8070     0.4800 H     1 <1>   0.0800 
 24 H        2.2100     9.8240    -0.6090 H     1 <1>   0.0800 
@<TRIPOS>BOND
  1   1   2  1   
  2   2   3  1   
  3   2   4  1   
  4   2   5  1   
  5   5   6  2   
  6   5   7  1   
  7   7   8  ar  
  8   7   9  ar  
  9   8  10  ar  
 10   8  16  1   
 11   9  11  ar  
 12   9  17  1   
 13  10  12  ar  
 14  10  13  1   
 15  11  12  ar  
 16  11  18  1   
 17  12  19  1   
 18  13  14  1   
 19  13  20  1   
 20  13  21  1   
 21  14  15  1   
 22  15  22  1   
 23  15  23  1   
 24  15  24  1   
@<TRIPOS>SUBSTRUCTURE
  1 ****   7 GROUP 4 **** **** 0

# MOE 2024.06 (io_trps.svl 2023.06)
