@<TRIPOS>MOLECULE
NONAME
47 49 1 0 0 
SMALL
USER_CHARGES


@<TRIPOS>ATOM
  1 S        0.1270     0.4040     1.4500 S.o2  1 <1>   1.4470 
  2 O        0.4580     1.7820     1.7480 O.2   1 <1>  -0.6500 
  3 O       -0.2450    -0.4720     2.5400 O.2   1 <1>  -0.6500 
  4 N       -1.1850     0.4570     0.3750 N.am  1 <1>  -0.8490 
  5 C        1.4580    -0.4020     0.4920 C.ar  1 <1>  -0.0090 
  6 C       -2.4570     0.6680     1.0850 C.3   1 <1>   0.1960 
  7 C       -1.0120     1.4870    -0.6550 C.3   1 <1>   0.1960 
  8 C        2.8180    -0.1960     0.7620 C.ar  1 <1>  -0.1440 
  9 C        1.1200    -1.2880    -0.5350 C.ar  1 <1>  -0.1500 
 10 C       -3.6630     0.5040     0.1400 C.3   1 <1>   0.0000 
 11 C       -2.1220     1.3810    -1.7040 C.3   1 <1>  -0.1600 
 12 C        3.7920    -0.8330     0.0040 C.ar  1 <1>  -0.1500 
 13 C        3.2810     0.7180     1.8900 C.3   1 <1>  -0.0970 
 14 C        2.0830    -1.9300    -1.2940 C.ar  1 <1>  -0.1500 
 15 C       -4.9790     0.7010     0.9150 C.3   1 <1>   0.2000 
 16 C       -3.5140     1.4800    -1.0580 C.3   1 <1>  -0.1600 
 17 C       -3.8220    -0.9450    -0.3550 C.3   1 <1>  -0.1600 
 18 C        3.4080    -1.6850    -1.0100 C.ar  1 <1>   0.1900 
 19 O       -5.2810     2.0530     1.0920 O.3   1 <1>  -0.5600 
 20 C       -6.0500    -0.0150     0.0890 C.3   1 <1>  -0.1600 
 21 C       -5.3100    -1.1120    -0.6900 C.3   1 <1>  -0.1600 
 22 F        4.3280    -2.2790    -1.7200 F     1 <1>  -0.1900 
 23 C       -6.2810     2.3160     2.0240 C.3   1 <1>   0.0400 
 24 H       -2.5500    -0.0470     1.8860 H     1 <1>   0.0800 
 25 H       -2.4710     1.6540     1.5220 H     1 <1>   0.0800 
 26 H       -1.0350     2.4670    -0.2030 H     1 <1>   0.0800 
 27 H       -0.0580     1.3650    -1.1400 H     1 <1>   0.0800 
 28 H        0.0820    -1.4840    -0.7460 H     1 <1>   0.1500 
 29 H       -2.0070     2.1730    -2.4210 H     1 <1>   0.0800 
 30 H       -2.0170     0.4510    -2.2320 H     1 <1>   0.0800 
 31 H        4.8390    -0.6810     0.1920 H     1 <1>   0.1500 
 32 H        4.3330     0.5990     2.0790 H     1 <1>   0.0800 
 33 H        2.7560     0.4920     2.8010 H     1 <1>   0.0800 
 34 H        3.1020     1.7470     1.6310 H     1 <1>   0.0800 
 35 H        1.8150    -2.6060    -2.0860 H     1 <1>   0.1500 
 36 H       -4.8930     0.2330     1.8810 H     1 <1>   0.0800 
 37 H       -4.2750     1.3010    -1.7970 H     1 <1>   0.0800 
 38 H       -3.6400     2.4910    -0.7090 H     1 <1>   0.0800 
 39 H       -3.1940    -1.1780    -1.1950 H     1 <1>   0.0800 
 40 H       -3.5710    -1.6230     0.4430 H     1 <1>   0.0800 
 41 H       -6.8060    -0.4360     0.7250 H     1 <1>   0.0800 
 42 H       -6.5000     0.6750    -0.6040 H     1 <1>   0.0800 
 43 H       -5.6550    -2.0930    -0.4120 H     1 <1>   0.0800 
 44 H       -5.4680    -0.9750    -1.7460 H     1 <1>   0.0800 
 45 H       -6.4020     3.3830     2.0890 H     1 <1>   0.0800 
 46 H       -5.9850     1.9280     2.9830 H     1 <1>   0.0800 
 47 H       -7.2030     1.8680     1.6990 H     1 <1>   0.0800 
@<TRIPOS>BOND
  1   1   2  2   
  2   1   3  2   
  3   1   4  am  
  4   1   5  1   
  5   4   6  1   
  6   4   7  1   
  7   5   8  ar  
  8   5   9  ar  
  9   6  10  1   
 10   6  24  1   
 11   6  25  1   
 12   7  11  1   
 13   7  26  1   
 14   7  27  1   
 15   8  12  ar  
 16   8  13  1   
 17   9  14  ar  
 18   9  28  1   
 19  10  15  1   
 20  10  16  1   
 21  10  17  1   
 22  11  16  1   
 23  11  29  1   
 24  11  30  1   
 25  12  18  ar  
 26  12  31  1   
 27  13  32  1   
 28  13  33  1   
 29  13  34  1   
 30  14  18  ar  
 31  14  35  1   
 32  15  19  1   
 33  15  20  1   
 34  15  36  1   
 35  16  37  1   
 36  16  38  1   
 37  17  21  1   
 38  17  39  1   
 39  17  40  1   
 40  18  22  1   
 41  19  23  1   
 42  20  21  1   
 43  20  41  1   
 44  20  42  1   
 45  21  43  1   
 46  21  44  1   
 47  23  45  1   
 48  23  46  1   
 49  23  47  1   
@<TRIPOS>SUBSTRUCTURE
  1 ****   4 GROUP 4 **** **** 0

# MOE 2024.06 (io_trps.svl 2023.06)
