@<TRIPOS>MOLECULE
NONAME
50 52 1 0 0 
SMALL
USER_CHARGES


@<TRIPOS>ATOM
  1 O       -0.2800     0.2650     0.0290 O.2   1 <1>  -0.5700 
  2 C       -1.3460     0.8480     0.0790 C.2   1 <1>   0.5440 
  3 N       -2.5050     0.1090     0.0090 N.am  1 <1>  -0.6600 
  4 C       -1.3750     2.2940     0.1880 C.ar  1 <1>   0.0860 
  5 C       -3.8390     0.6600    -0.3350 C.3   1 <1>   0.1400 
  6 C       -2.4950    -1.3680    -0.1340 C.3   1 <1>   0.1400 
  7 C       -0.6490     3.0930    -0.6880 C.ar  1 <1>  -0.1500 
  8 C       -2.1240     2.9430     1.1660 C.ar  1 <1>  -0.1500 
  9 C       -4.6430    -0.5400    -0.8360 C.3   1 <1>   0.2000 
 10 C       -3.9690    -1.7680    -0.2280 C.3   1 <1>  -0.0800 
 11 C       -0.6880     4.4730    -0.6060 C.ar  1 <1>  -0.1500 
 12 C       -2.1650     4.3230     1.2510 C.ar  1 <1>  -0.1500 
 13 O       -5.9670    -0.4770    -0.4300 O.3   1 <1>  -0.6800 
 14 C       -4.2260    -3.0480    -1.0420 C.3   1 <1>  -0.0170 
 15 C       -1.4490     5.1200     0.3610 C.ar  1 <1>  -0.1430 
 16 C       -3.5980    -4.2670    -0.3860 C.ar  1 <1>   0.1670 
 17 C       -1.4620     6.6640     0.4120 C.3   1 <1>   0.1430 
 18 N       -2.3170    -4.4830    -0.6410 N.ar  1 <1>  -0.6200 
 19 C       -4.3660    -5.0880     0.4380 C.ar  1 <1>   0.1600 
 20 C       -1.9880     7.2180    -0.9210 C.3   1 <1>  -0.2400 
 21 C       -0.0370     7.1820     0.6530 C.3   1 <1>  -0.2400 
 22 C       -2.3550     7.2260     1.5310 C.3   1 <1>  -0.2400 
 23 C       -1.8600    -5.5580    -0.0220 C.ar  1 <1>   0.1600 
 24 N       -3.9110    -6.1640     1.0590 N.ar  1 <1>  -0.6200 
 25 C       -2.6310    -6.3710     0.8010 C.ar  1 <1>   0.1600 
 26 H       -4.2880     1.0790     0.5480 H     1 <1>   0.0800 
 27 H       -3.7530     1.4100    -1.1020 H     1 <1>   0.0800 
 28 H       -1.9640    -1.6300    -1.0350 H     1 <1>   0.0800 
 29 H       -2.0080    -1.8320     0.7070 H     1 <1>   0.0800 
 30 H       -0.0460     2.6170    -1.4420 H     1 <1>   0.1500 
 31 H       -2.6760     2.3520     1.8740 H     1 <1>   0.1500 
 32 H       -4.6170    -0.5720    -1.9130 H     1 <1>   0.0800 
 33 H       -4.3220    -1.9080     0.7780 H     1 <1>   0.0800 
 34 H       -0.1090     5.0420    -1.3110 H     1 <1>   0.1500 
 35 H       -2.7660     4.7550     2.0290 H     1 <1>   0.1500 
 36 H       -6.0230    -0.4410     0.5450 H     1 <1>   0.4000 
 37 H       -3.8260    -2.9390    -2.0360 H     1 <1>   0.0800 
 38 H       -5.2860    -3.2000    -1.1360 H     1 <1>   0.0800 
 39 H       -5.4020    -4.8440     0.5920 H     1 <1>   0.1500 
 40 H       -2.0380     8.2910    -0.8930 H     1 <1>   0.0800 
 41 H       -2.9740     6.8340    -1.1150 H     1 <1>   0.0800 
 42 H       -1.3500     6.9360    -1.7380 H     1 <1>   0.0800 
 43 H       -0.0290     8.2540     0.7270 H     1 <1>   0.0800 
 44 H        0.6200     6.8990    -0.1490 H     1 <1>   0.0800 
 45 H        0.3530     6.7720     1.5670 H     1 <1>   0.0800 
 46 H       -2.3370     8.3010     1.5260 H     1 <1>   0.0800 
 47 H       -2.0090     6.8940     2.4940 H     1 <1>   0.0800 
 48 H       -3.3750     6.9110     1.3960 H     1 <1>   0.0800 
 49 H       -0.8250    -5.8090    -0.1720 H     1 <1>   0.1500 
 50 H       -2.1680    -7.2250     1.2620 H     1 <1>   0.1500 
@<TRIPOS>BOND
  1   1   2  2   
  2   2   3  am  
  3   2   4  1   
  4   3   5  1   
  5   3   6  1   
  6   4   7  ar  
  7   4   8  ar  
  8   5   9  1   
  9   5  26  1   
 10   5  27  1   
 11   6  10  1   
 12   6  28  1   
 13   6  29  1   
 14   7  11  ar  
 15   7  30  1   
 16   8  12  ar  
 17   8  31  1   
 18   9  10  1   
 19   9  13  1   
 20   9  32  1   
 21  10  14  1   
 22  10  33  1   
 23  11  15  ar  
 24  11  34  1   
 25  12  15  ar  
 26  12  35  1   
 27  13  36  1   
 28  14  16  1   
 29  14  37  1   
 30  14  38  1   
 31  15  17  1   
 32  16  18  ar  
 33  16  19  ar  
 34  17  20  1   
 35  17  21  1   
 36  17  22  1   
 37  18  23  ar  
 38  19  24  ar  
 39  19  39  1   
 40  20  40  1   
 41  20  41  1   
 42  20  42  1   
 43  21  43  1   
 44  21  44  1   
 45  21  45  1   
 46  22  46  1   
 47  22  47  1   
 48  22  48  1   
 49  23  25  ar  
 50  23  49  1   
 51  24  25  ar  
 52  25  50  1   
@<TRIPOS>SUBSTRUCTURE
  1 ****   3 GROUP 4 **** **** 0

# MOE 2024.06 (io_trps.svl 2023.06)
