@<TRIPOS>MOLECULE
NONAME
40 41 1 0 0 
SMALL
USER_CHARGES


@<TRIPOS>ATOM
  1 S       -1.0510     0.3230    -0.8490 S.3   1 <1>  -0.0800 
  2 C       -0.8830    -0.8660     0.3990 C.2   1 <1>   0.4420 
  3 C       -0.0280     1.3540     0.0970 C.2   1 <1>   0.1980 
  4 N       -0.1300    -0.4620     1.3580 N.2   1 <1>  -0.3380 
  5 N       -1.5330    -2.0610     0.2030 N.am  1 <1>  -0.4940 
  6 N        0.3520     0.8050     1.1800 N.2   1 <1>  -0.3380 
  7 C        0.2960     2.7520    -0.4240 C.3   1 <1>   0.3800 
  8 C       -1.7780    -3.0910     1.0760 C.2   1 <1>   0.6160 
  9 O       -0.8720     3.4710    -0.6990 O.3   1 <1>  -0.5600 
 10 C        1.1110     2.7140    -1.7160 C.3   1 <1>  -0.2400 
 11 O       -1.7190    -2.8650     2.2680 O.2   1 <1>  -0.5700 
 12 C       -2.1150    -4.4120     0.5930 C.2   1 <1>   0.0290 
 13 C       -1.6230     3.8270     0.4230 C.3   1 <1>   0.0400 
 14 C       -2.9550    -4.5140    -0.5700 C.2   1 <1>   0.6160 
 15 C       -1.6830    -5.5780     1.1920 C.2   1 <1>  -0.1380 
 16 O       -3.2790    -3.5200    -1.2170 O.2   1 <1>  -0.5700 
 17 N       -3.3950    -5.7640    -1.0050 N.am  1 <1>  -0.4690 
 18 C       -2.1180    -6.8220     0.6930 C.2   1 <1>  -0.1500 
 19 C       -0.7370    -5.6170     2.3890 C.3   1 <1>  -0.1020 
 20 C       -2.9540    -6.9090    -0.3770 C.2   1 <1>  -0.0290 
 21 C       -4.3280    -5.8470    -2.1740 C.3   1 <1>   0.0600 
 22 C       -3.3990    -8.2740    -0.8860 C.3   1 <1>  -0.1020 
 23 H       -2.0000    -2.1780    -0.7010 H     1 <1>   0.3700 
 24 H        0.8530     3.2890     0.3260 H     1 <1>   0.0800 
 25 H        0.5520     2.2330    -2.4980 H     1 <1>   0.0800 
 26 H        2.0230     2.1690    -1.5550 H     1 <1>   0.0800 
 27 H        1.3570     3.7150    -2.0190 H     1 <1>   0.0800 
 28 H       -2.4650     4.4080     0.0890 H     1 <1>   0.0800 
 29 H       -1.0170     4.4170     1.0880 H     1 <1>   0.0800 
 30 H       -1.9750     2.9390     0.9210 H     1 <1>   0.0800 
 31 H       -1.7720    -7.7140     1.1850 H     1 <1>   0.1500 
 32 H       -0.1890    -6.5410     2.4200 H     1 <1>   0.0800 
 33 H       -1.3000    -5.5200     3.3010 H     1 <1>   0.0800 
 34 H       -0.0210    -4.8160     2.3430 H     1 <1>   0.0800 
 35 H       -4.7810    -4.8950    -2.3840 H     1 <1>   0.0800 
 36 H       -5.1200    -6.5430    -1.9680 H     1 <1>   0.0800 
 37 H       -3.7840    -6.1700    -3.0440 H     1 <1>   0.0800 
 38 H       -3.1380    -8.3890    -1.9220 H     1 <1>   0.0800 
 39 H       -4.4620    -8.3860    -0.7720 H     1 <1>   0.0800 
 40 H       -2.9220    -9.0630    -0.3330 H     1 <1>   0.0800 
@<TRIPOS>BOND
  1   1   2  1   
  2   1   3  1   
  3   2   4  2   
  4   2   5  1   
  5   3   6  2   
  6   3   7  1   
  7   4   6  1   
  8   5   8  am  
  9   5  23  1   
 10   7   9  1   
 11   7  10  1   
 12   7  24  1   
 13   8  11  2   
 14   8  12  1   
 15   9  13  1   
 16  10  25  1   
 17  10  26  1   
 18  10  27  1   
 19  12  14  1   
 20  12  15  2   
 21  13  28  1   
 22  13  29  1   
 23  13  30  1   
 24  14  16  2   
 25  14  17  am  
 26  15  18  1   
 27  15  19  1   
 28  17  20  1   
 29  17  21  1   
 30  18  20  2   
 31  18  31  1   
 32  19  32  1   
 33  19  33  1   
 34  19  34  1   
 35  20  22  1   
 36  21  35  1   
 37  21  36  1   
 38  21  37  1   
 39  22  38  1   
 40  22  39  1   
 41  22  40  1   
@<TRIPOS>SUBSTRUCTURE
  1 ****   5 GROUP 4 **** **** 0

# MOE 2024.06 (io_trps.svl 2023.06)
