@<TRIPOS>MOLECULE
NONAME
44 47 1 0 0 
SMALL
USER_CHARGES


@<TRIPOS>ATOM
  1 S        1.8690    -0.1370     0.9190 S.3   1 <1>  -0.0800 
  2 C        1.0010     1.3820     0.8460 C.2   1 <1>  -0.1400 
  3 C        3.2990     0.6270     0.2400 C.2   1 <1>  -0.1100 
  4 C        1.7620     2.3690     0.3570 C.2   1 <1>  -0.1810 
  5 C       -0.4320     1.5230     1.2840 C.3   1 <1>   0.0200 
  6 C        3.0820     1.9350     0.0010 C.2   1 <1>  -0.1500 
  7 C        1.2160     3.7920     0.2180 C.3   1 <1>   0.4610 
  8 C       -0.9670     2.8300     0.6760 C.3   1 <1>   0.1200 
  9 O       -0.0510     3.8860     0.8480 O.3   1 <1>  -0.5600 
 10 C        2.1240     4.7850     0.9520 C.3   1 <1>  -0.1600 
 11 C        1.0740     4.1880    -1.2590 C.3   1 <1>  -0.1600 
 12 C        1.6560     6.2290     0.7640 C.3   1 <1>   0.1400 
 13 C        0.5980     5.6330    -1.4130 C.3   1 <1>   0.1400 
 14 N        1.5420     6.5280    -0.6900 N.am  1 <1>  -0.6600 
 15 C        2.2560     7.5170    -1.3430 C.2   1 <1>   0.6160 
 16 O        1.9370     7.8180    -2.4790 O.2   1 <1>  -0.5700 
 17 C        3.3150     8.2490    -0.7140 C.2   1 <1>   0.0290 
 18 C        4.5220     7.5620    -0.3760 C.2   1 <1>   0.6160 
 19 C        3.2220     9.5920    -0.4390 C.2   1 <1>  -0.1500 
 20 O        4.7320     6.3750    -0.5820 O.2   1 <1>  -0.5700 
 21 N        5.5250     8.2680     0.2320 N.am  1 <1>  -0.5390 
 22 C        4.2890    10.2740     0.1840 C.2   1 <1>  -0.1500 
 23 C        5.4290     9.6030     0.5140 C.2   1 <1>  -0.0290 
 24 C        6.6200    10.2590     1.1810 C.3   1 <1>  -0.1020 
 25 H        4.1650     0.0060     0.0880 H     1 <1>   0.1500 
 26 H       -0.4850     1.5610     2.3570 H     1 <1>   0.0800 
 27 H       -1.0160     0.6920     0.9350 H     1 <1>   0.0800 
 28 H        3.8030     2.6190    -0.4150 H     1 <1>   0.1500 
 29 H       -1.8880     3.1130     1.1550 H     1 <1>   0.0800 
 30 H       -1.1500     2.7060    -0.3760 H     1 <1>   0.0800 
 31 H        3.1270     4.6980     0.5800 H     1 <1>   0.0800 
 32 H        2.1440     4.5370     1.9970 H     1 <1>   0.0800 
 33 H        0.4020     3.5200    -1.7620 H     1 <1>   0.0800 
 34 H        2.0300     4.0960    -1.7410 H     1 <1>   0.0800 
 35 H        2.3440     6.8990     1.2480 H     1 <1>   0.0800 
 36 H        0.6900     6.3590     1.2230 H     1 <1>   0.0800 
 37 H       -0.3880     5.7470    -0.9950 H     1 <1>   0.0800 
 38 H        0.5510     5.8860    -2.4580 H     1 <1>   0.0800 
 39 H        2.3350    10.1430    -0.7010 H     1 <1>   0.1500 
 40 H        6.3610     7.7220     0.4420 H     1 <1>   0.3700 
 41 H        4.1780    11.3250     0.3850 H     1 <1>   0.1500 
 42 H        6.8190     9.7870     2.1270 H     1 <1>   0.0800 
 43 H        6.4310    11.3030     1.3540 H     1 <1>   0.0800 
 44 H        7.4890    10.1690     0.5540 H     1 <1>   0.0800 
@<TRIPOS>BOND
  1   1   2  1   
  2   1   3  1   
  3   2   4  2   
  4   2   5  1   
  5   3   6  2   
  6   3  25  1   
  7   4   6  1   
  8   4   7  1   
  9   5   8  1   
 10   5  26  1   
 11   5  27  1   
 12   6  28  1   
 13   7   9  1   
 14   7  10  1   
 15   7  11  1   
 16   8   9  1   
 17   8  29  1   
 18   8  30  1   
 19  10  12  1   
 20  10  31  1   
 21  10  32  1   
 22  11  13  1   
 23  11  33  1   
 24  11  34  1   
 25  12  14  1   
 26  12  35  1   
 27  12  36  1   
 28  13  14  1   
 29  13  37  1   
 30  13  38  1   
 31  14  15  am  
 32  15  16  2   
 33  15  17  1   
 34  17  18  1   
 35  17  19  2   
 36  18  20  2   
 37  18  21  am  
 38  19  22  1   
 39  19  39  1   
 40  21  23  1   
 41  21  40  1   
 42  22  23  2   
 43  22  41  1   
 44  23  24  1   
 45  24  42  1   
 46  24  43  1   
 47  24  44  1   
@<TRIPOS>SUBSTRUCTURE
  1 ****  10 GROUP 4 **** **** 0

# MOE 2024.06 (io_trps.svl 2023.06)
