@<TRIPOS>MOLECULE
Untitled Document
59 62 1 0 0 
SMALL
USER_CHARGES


@<TRIPOS>ATOM
  1 O       -0.2260     3.8810    -2.1680 O.2   1 <1>  -0.5700 
  2 C       -1.0520     4.2490    -1.3590 C.2   1 <1>   0.5690 
  3 N       -0.8610     4.5200    -0.0380 N.am  1 <1>  -0.1110 
  4 C       -2.4740     4.4680    -1.7560 C.3   1 <1>  -0.0990 
  5 N       -2.1130     4.9790     0.6160 N.3   1 <1>  -0.5490 
  6 C        0.3040     4.2480     0.6830 C.2   1 <1>   0.6900 
  7 C       -3.1730     4.7840    -0.4330 C.3   1 <1>   0.3340 
  8 C       -1.9530     6.4370     0.8860 C.3   1 <1>   0.0300 
  9 O        0.3740     4.4720     1.8800 O.2   1 <1>  -0.5700 
 10 N        1.3990     3.7310     0.0600 N.am  1 <1>  -0.7300 
 11 C       -4.1310     3.6600    -0.0450 C.ar  1 <1>  -0.1430 
 12 C        2.6120     3.2340     0.7290 C.3   1 <1>   0.2840 
 13 C       -5.4610     3.7460    -0.4340 C.ar  1 <1>  -0.1500 
 14 C       -3.7140     2.5460     0.6760 C.ar  1 <1>  -0.1500 
 15 C        2.6200     1.7210     0.6430 C.ar  1 <1>  -0.1430 
 16 C       -6.3640     2.7470    -0.1130 C.ar  1 <1>   0.0830 
 17 C       -4.6060     1.5340     0.9870 C.ar  1 <1>  -0.1500 
 18 C        1.8670     0.9750     1.5370 C.ar  1 <1>   0.1600 
 19 C        3.3620     1.0630    -0.3180 C.ar  1 <1>  -0.1500 
 20 O       -7.6510     2.9260    -0.5010 O.3   1 <1>  -0.3630 
 21 C       -5.9270     1.6150     0.5830 C.ar  1 <1>   0.0830 
 22 N        1.8050    -0.3480     1.5560 N.ar  1 <1>  -0.6200 
 23 C        3.3050    -0.3150    -0.3150 C.ar  1 <1>  -0.1500 
 24 C       -8.6290     3.0440     0.5160 C.3   1 <1>   0.2000 
 25 O       -6.7420     0.5740     0.8830 O.3   1 <1>  -0.3630 
 26 C        2.5240    -0.9590     0.6300 C.ar  1 <1>   0.1600 
 27 C       -9.9990     2.9190    -0.1400 C.3   1 <1>  -0.1600 
 28 C       -8.6260     4.4710     1.0580 C.3   1 <1>  -0.1600 
 29 C       -7.2400    -0.1680    -0.2080 C.3   1 <1>   0.0400 
 30 C      -10.3130     4.3070    -0.7110 C.3   1 <1>  -0.1600 
 31 C       -9.4010     5.2960     0.0270 C.3   1 <1>  -0.1600 
 32 H       -2.8770     3.5890    -2.2240 H     1 <1>   0.0800 
 33 H       -2.5420     5.2990    -2.4310 H     1 <1>   0.0800 
 34 H       -3.7480     5.6880    -0.5460 H     1 <1>   0.0800 
 35 H       -1.1870     6.5800     1.6290 H     1 <1>   0.0800 
 36 H       -2.8730     6.8380     1.2740 H     1 <1>   0.0800 
 37 H       -1.6770     6.9680    -0.0080 H     1 <1>   0.0800 
 38 H        1.2870     3.4700    -0.9280 H     1 <1>   0.3700 
 39 H        2.6290     3.5440     1.7610 H     1 <1>   0.0800 
 40 H        3.4800     3.6430     0.2430 H     1 <1>   0.0800 
 41 H       -5.8210     4.5940    -0.9880 H     1 <1>   0.1500 
 42 H       -2.6910     2.4580     1.0020 H     1 <1>   0.1500 
 43 H       -4.2770     0.6740     1.5420 H     1 <1>   0.1500 
 44 H        1.2820     1.4980     2.2770 H     1 <1>   0.1500 
 45 H        3.9580     1.5930    -1.0400 H     1 <1>   0.1500 
 46 H        3.8580    -0.8870    -1.0370 H     1 <1>   0.1500 
 47 H       -8.4630     2.3010     1.2750 H     1 <1>   0.0800 
 48 H        2.4880    -2.0350     0.6220 H     1 <1>   0.1500 
 49 H      -10.7220     2.6810     0.6200 H     1 <1>   0.0800 
 50 H      -10.0160     2.1480    -0.8900 H     1 <1>   0.0800 
 51 H       -7.6330     4.8450     1.2330 H     1 <1>   0.0800 
 52 H       -9.1640     4.4810     1.9900 H     1 <1>   0.0800 
 53 H       -7.7840    -1.0100     0.1780 H     1 <1>   0.0800 
 54 H       -6.4110    -0.5060    -0.8040 H     1 <1>   0.0800 
 55 H       -7.8930     0.4520    -0.7950 H     1 <1>   0.0800 
 56 H      -11.3530     4.5510    -0.5740 H     1 <1>   0.0800 
 57 H      -10.0860     4.3270    -1.7640 H     1 <1>   0.0800 
 58 H       -8.7110     5.7330    -0.6740 H     1 <1>   0.0800 
 59 H       -9.9640     6.0820     0.5000 H     1 <1>   0.0800 
@<TRIPOS>BOND
  1   1   2  2   
  2   2   3  am  
  3   2   4  1   
  4   3   5  1   
  5   3   6  am  
  6   4   7  1   
  7   4  32  1   
  8   4  33  1   
  9   5   7  1   
 10   5   8  1   
 11   6   9  2   
 12   6  10  am  
 13   7  11  1   
 14   7  34  1   
 15   8  35  1   
 16   8  36  1   
 17   8  37  1   
 18  10  12  1   
 19  10  38  1   
 20  11  13  ar  
 21  11  14  ar  
 22  12  15  1   
 23  12  39  1   
 24  12  40  1   
 25  13  16  ar  
 26  13  41  1   
 27  14  17  ar  
 28  14  42  1   
 29  15  18  ar  
 30  15  19  ar  
 31  16  20  1   
 32  16  21  ar  
 33  17  21  ar  
 34  17  43  1   
 35  18  22  ar  
 36  18  44  1   
 37  19  23  ar  
 38  19  45  1   
 39  20  24  1   
 40  21  25  1   
 41  22  26  ar  
 42  23  26  ar  
 43  23  46  1   
 44  24  27  1   
 45  24  28  1   
 46  24  47  1   
 47  25  29  1   
 48  26  48  1   
 49  27  30  1   
 50  27  49  1   
 51  27  50  1   
 52  28  31  1   
 53  28  51  1   
 54  28  52  1   
 55  29  53  1   
 56  29  54  1   
 57  29  55  1   
 58  30  31  1   
 59  30  56  1   
 60  30  57  1   
 61  31  58  1   
 62  31  59  1   
@<TRIPOS>SUBSTRUCTURE
  1 ****  14 GROUP 4 **** **** 0

# MOE 2024.06 (io_trps.svl 2023.06)
