@<TRIPOS>MOLECULE
NONAME
45 48 1 0 0 
SMALL
USER_CHARGES


@<TRIPOS>ATOM
  1 O       -2.1590    -1.3630     1.9680 O.co2 1 <1>  -0.9000 
  2 C       -2.7430    -0.3130     2.3100 C.2   1 <1>   1.0330 
  3 O       -3.6300    -0.4160     3.1760 O.co2 1 <1>  -0.9000 
  4 C       -2.6490     0.8750     1.4470 C.2   1 <1>   0.0560 
  5 N       -2.4500     2.1470     1.7600 N.2   1 <1>  -0.7070 
  6 C       -2.8240     0.7560     0.0590 C.2   1 <1>  -0.1810 
  7 N       -2.4890     2.8190     0.6040 N.pl3 1 <1>   0.3000 
  8 C       -2.7170     2.0040    -0.4430 C.2   1 <1>  -0.3020 
  9 C       -3.0600    -0.5730    -0.6350 C.3   1 <1>   0.5240 
 10 N       -4.5200    -0.8750    -0.7060 N.4   1 <1>  -0.9590 
 11 C       -5.1090    -1.0520     0.6630 C.3   1 <1>   0.3430 
 12 C       -4.7240    -2.0790    -1.5480 C.3   1 <1>   0.3430 
 13 C       -6.6080    -1.3070     0.5580 C.3   1 <1>  -0.1600 
 14 C       -6.2070    -2.4030    -1.6800 C.3   1 <1>  -0.1600 
 15 C       -6.9400    -2.5250    -0.3310 C.3   1 <1>   0.1430 
 16 C       -6.6060    -3.8120     0.4250 C.ar  1 <1>  -0.1430 
 17 C       -8.4660    -2.7050    -0.6100 C.3   1 <1>   0.2000 
 18 C       -7.7540    -4.4880     0.7790 C.ar  1 <1>  -0.1430 
 19 C       -5.3730    -4.3350     0.7950 C.ar  1 <1>  -0.1500 
 20 O       -9.1960    -1.5280    -0.5040 O.3   1 <1>  -0.6800 
 21 C       -9.0040    -3.7640     0.3540 C.3   1 <1>  -0.0170 
 22 C       -7.7070    -5.6880     1.4640 C.ar  1 <1>  -0.1500 
 23 C       -5.3150    -5.5350     1.4850 C.ar  1 <1>  -0.1500 
 24 C       -6.4770    -6.2140     1.8140 C.ar  1 <1>  -0.1500 
 25 H       -2.3530     3.8370     0.5670 H     1 <1>   0.2700 
 26 H       -2.7780     2.3630    -1.4540 H     1 <1>   0.1500 
 27 H       -2.5370    -1.3660    -0.1270 H     1 <1>   0.0800 
 28 H       -2.6580    -0.5070    -1.6310 H     1 <1>   0.0800 
 29 H       -4.9690    -0.0550    -1.1210 H     1 <1>   0.4500 
 30 H       -4.9610    -0.1570     1.2470 H     1 <1>   0.0800 
 31 H       -4.6220    -1.8600     1.1860 H     1 <1>   0.0800 
 32 H       -4.2080    -2.9170    -1.1120 H     1 <1>   0.0800 
 33 H       -4.3100    -1.9130    -2.5300 H     1 <1>   0.0800 
 34 H       -7.0590    -0.4130     0.1680 H     1 <1>   0.0800 
 35 H       -6.9960    -1.4640     1.5490 H     1 <1>   0.0800 
 36 H       -6.3090    -3.3260    -2.2240 H     1 <1>   0.0800 
 37 H       -6.6730    -1.6310    -2.2670 H     1 <1>   0.0800 
 38 H       -8.6040    -3.0730    -1.6130 H     1 <1>   0.0800 
 39 H       -4.4480    -3.8360     0.5840 H     1 <1>   0.1500 
 40 H       -9.2570    -1.2520     0.4320 H     1 <1>   0.4000 
 41 H       -9.6870    -4.4300    -0.1430 H     1 <1>   0.0800 
 42 H       -9.4690    -3.3220     1.2170 H     1 <1>   0.0800 
 43 H       -8.6130    -6.2050     1.7280 H     1 <1>   0.1500 
 44 H       -4.3590    -5.9380     1.7750 H     1 <1>   0.1500 
 45 H       -6.4210    -7.1460     2.3490 H     1 <1>   0.1500 
@<TRIPOS>BOND
  1   1   2  ar  
  2   2   3  ar  
  3   2   4  1   
  4   4   5  2   
  5   4   6  1   
  6   5   7  1   
  7   6   8  2   
  8   6   9  1   
  9   7   8  1   
 10   7  25  1   
 11   8  26  1   
 12   9  10  1   
 13   9  27  1   
 14   9  28  1   
 15  10  11  1   
 16  10  12  1   
 17  10  29  1   
 18  11  13  1   
 19  11  30  1   
 20  11  31  1   
 21  12  14  1   
 22  12  32  1   
 23  12  33  1   
 24  13  15  1   
 25  13  34  1   
 26  13  35  1   
 27  14  15  1   
 28  14  36  1   
 29  14  37  1   
 30  15  16  1   
 31  15  17  1   
 32  16  18  ar  
 33  16  19  ar  
 34  17  20  1   
 35  17  21  1   
 36  17  38  1   
 37  18  21  1   
 38  18  22  ar  
 39  19  23  ar  
 40  19  39  1   
 41  20  40  1   
 42  21  41  1   
 43  21  42  1   
 44  22  24  ar  
 45  22  43  1   
 46  23  24  ar  
 47  23  44  1   
 48  24  45  1   
@<TRIPOS>SUBSTRUCTURE
  1 ****  11 GROUP 4 **** **** 0

# MOE 2024.06 (io_trps.svl 2023.06)
