@<TRIPOS>MOLECULE
NONAME
55 58 1 0 0 
SMALL
USER_CHARGES


@<TRIPOS>ATOM
  1 O       -2.8310    -0.6400     0.6930 O.2   1 <1>  -0.5700 
  2 C       -2.8260     0.4790     1.1910 C.2   1 <1>   0.7160 
  3 N       -3.5120     0.6250     2.3930 N.am  1 <1>  -0.6600 
  4 C       -2.1210     1.5480     0.4760 C.2   1 <1>   0.2030 
  5 C       -4.3150    -0.5070     2.9460 C.3   1 <1>   0.1400 
  6 C       -3.7970     1.9250     3.0580 C.3   1 <1>   0.1400 
  7 N       -2.1910     2.8580     0.6570 N.2   1 <1>  -0.7070 
  8 C       -1.2360     1.2760    -0.5790 C.2   1 <1>  -0.1500 
  9 C       -5.6180    -0.7210     2.1560 C.3   1 <1>   0.1400 
 10 C       -5.0780     2.5680     2.5040 C.3   1 <1>  -0.1600 
 11 N       -1.3730     3.3980    -0.2560 N.pl3 1 <1>   0.3000 
 12 C       -0.7790     2.4650    -1.0210 C.2   1 <1>  -0.3320 
 13 N       -6.2000     0.5460     1.5940 N.am  1 <1>  -0.6600 
 14 C       -6.3300     1.6750     2.5570 C.3   1 <1>   0.1400 
 15 C        0.1990     2.8110    -2.1340 C.3   1 <1>   0.0200 
 16 C       -6.4770     0.7520     0.2610 C.2   1 <1>   0.5690 
 17 C        0.7370     1.5610    -2.8330 C.3   1 <1>  -0.2400 
 18 O       -7.0380     1.7570    -0.1150 O.2   1 <1>  -0.5700 
 19 C       -6.0710    -0.2350    -0.8200 C.3   1 <1>   0.1570 
 20 N       -6.8630    -1.4840    -0.7710 N.pl3 1 <1>   0.0480 
 21 C       -6.3470    -2.7420    -0.6860 C.ar  1 <1>  -0.1520 
 22 C       -8.2170    -1.6530    -0.8220 C.2   1 <1>   0.0070 
 23 C       -7.4380    -3.5900    -0.6790 C.ar  1 <1>   0.2270 
 24 C       -5.0440    -3.2480    -0.6080 C.ar  1 <1>  -0.1500 
 25 N       -8.5950    -2.8810    -0.7650 N.2   1 <1>  -0.5650 
 26 C       -9.2020    -0.5050    -0.9370 C.3   1 <1>  -0.0600 
 27 C       -7.2530    -4.9680    -0.5890 C.ar  1 <1>  -0.1500 
 28 C       -4.8700    -4.6110    -0.5200 C.ar  1 <1>  -0.1500 
 29 C       -5.9730    -5.4730    -0.5100 C.ar  1 <1>  -0.1500 
 30 H       -4.5530    -0.3170     3.9770 H     1 <1>   0.0800 
 31 H       -3.7320    -1.4120     2.9180 H     1 <1>   0.0800 
 32 H       -2.9660     2.5960     2.9440 H     1 <1>   0.0800 
 33 H       -3.9110     1.7620     4.1150 H     1 <1>   0.0800 
 34 H       -0.9990     0.2880    -0.9330 H     1 <1>   0.1500 
 35 H       -6.3460    -1.1940     2.7910 H     1 <1>   0.0800 
 36 H       -5.3950    -1.4140     1.3720 H     1 <1>   0.0800 
 37 H       -4.9100     2.8880     1.4910 H     1 <1>   0.0800 
 38 H       -5.2740     3.4540     3.0790 H     1 <1>   0.0800 
 39 H       -1.2380     4.4140    -0.3380 H     1 <1>   0.2700 
 40 H       -7.1930     2.2640     2.2950 H     1 <1>   0.0800 
 41 H       -6.4840     1.2980     3.5530 H     1 <1>   0.0800 
 42 H        1.0260     3.3640    -1.7210 H     1 <1>   0.0800 
 43 H       -0.2930     3.4360    -2.8590 H     1 <1>   0.0800 
 44 H        1.2480     0.9310    -2.1270 H     1 <1>   0.0800 
 45 H        1.4280     1.8400    -3.6080 H     1 <1>   0.0800 
 46 H       -0.0710     1.0060    -3.2760 H     1 <1>   0.0800 
 47 H       -5.0290    -0.4620    -0.7140 H     1 <1>   0.0800 
 48 H       -6.2160     0.2190    -1.7820 H     1 <1>   0.0800 
 49 H       -4.1950    -2.5860    -0.6140 H     1 <1>   0.1500 
 50 H       -8.9140     0.1590    -1.7310 H     1 <1>   0.0800 
 51 H       -9.2420     0.0410    -0.0130 H     1 <1>   0.0800 
 52 H      -10.1840    -0.8890    -1.1480 H     1 <1>   0.0800 
 53 H       -8.1190    -5.6020    -0.5860 H     1 <1>   0.1500 
 54 H       -3.8790    -5.0260    -0.4580 H     1 <1>   0.1500 
 55 H       -5.8130    -6.5350    -0.4410 H     1 <1>   0.1500 
@<TRIPOS>BOND
  1   1   2  2   
  2   2   3  am  
  3   2   4  1   
  4   3   5  1   
  5   3   6  1   
  6   4   7  2   
  7   4   8  1   
  8   5   9  1   
  9   5  30  1   
 10   5  31  1   
 11   6  10  1   
 12   6  32  1   
 13   6  33  1   
 14   7  11  1   
 15   8  12  2   
 16   8  34  1   
 17   9  13  1   
 18   9  35  1   
 19   9  36  1   
 20  10  14  1   
 21  10  37  1   
 22  10  38  1   
 23  11  12  1   
 24  11  39  1   
 25  12  15  1   
 26  13  14  1   
 27  13  16  am  
 28  14  40  1   
 29  14  41  1   
 30  15  17  1   
 31  15  42  1   
 32  15  43  1   
 33  16  18  2   
 34  16  19  1   
 35  17  44  1   
 36  17  45  1   
 37  17  46  1   
 38  19  20  1   
 39  19  47  1   
 40  19  48  1   
 41  20  21  1   
 42  20  22  1   
 43  21  23  ar  
 44  21  24  ar  
 45  22  25  2   
 46  22  26  1   
 47  23  25  1   
 48  23  27  ar  
 49  24  28  ar  
 50  24  49  1   
 51  26  50  1   
 52  26  51  1   
 53  26  52  1   
 54  27  29  ar  
 55  27  53  1   
 56  28  29  ar  
 57  28  54  1   
 58  29  55  1   
@<TRIPOS>SUBSTRUCTURE
  1 ****  19 GROUP 4 **** **** 0

# MOE 2024.06 (io_trps.svl 2023.06)
