@<TRIPOS>MOLECULE
NONAME
37 38 1 0 0 
SMALL
USER_CHARGES


@<TRIPOS>ATOM
  1 CL      -5.1430    -0.7940     2.5000 Cl    1 <1>  -0.1770 
  2 C       -4.1740     0.1340     1.3770 C.ar  1 <1>   0.1770 
  3 C       -3.6770    -0.4450     0.2170 C.ar  1 <1>  -0.1440 
  4 C       -3.9210     1.4580     1.6880 C.ar  1 <1>  -0.1500 
  5 C       -2.9050     0.3380    -0.6300 C.ar  1 <1>  -0.1500 
  6 C       -3.9560    -1.9000    -0.1350 C.3   1 <1>   0.2540 
  7 C       -3.1510     2.2330     0.8360 C.ar  1 <1>  -0.1440 
  8 C       -2.6460     1.6640    -0.3230 C.ar  1 <1>  -0.1500 
  9 N       -5.3690    -2.1100    -0.5320 N.3   1 <1>  -0.8100 
 10 C       -2.8640     3.6870     1.1630 C.3   1 <1>  -0.0970 
 11 C       -5.6410    -3.5590    -0.7160 C.3   1 <1>   0.2900 
 12 C       -5.7090    -1.3100    -1.7350 C.3   1 <1>   0.1100 
 13 C       -5.4150    -4.3470     0.5650 C.2   1 <1>   0.0060 
 14 C       -7.1990    -1.3400    -2.1230 C.3   1 <1>   0.1200 
 15 N       -4.8120    -5.4920     0.6430 N.2   1 <1>  -0.5650 
 16 N       -5.8410    -3.8800     1.7560 N.pl3 1 <1>   0.0330 
 17 O       -7.5030    -2.4630    -2.8870 O.3   1 <1>  -0.6800 
 18 C       -4.8520    -5.7860     1.9570 C.2   1 <1>   0.0770 
 19 C       -5.4750    -4.8110     2.6540 C.2   1 <1>  -0.3020 
 20 H       -4.3260     1.8700     2.5940 H     1 <1>   0.1500 
 21 H       -2.5000    -0.0800    -1.5350 H     1 <1>   0.1500 
 22 H       -3.7150    -2.4980     0.7280 H     1 <1>   0.0800 
 23 H       -3.3070    -2.2180    -0.9330 H     1 <1>   0.0800 
 24 H       -2.0470     2.2560    -0.9930 H     1 <1>   0.1500 
 25 H       -2.9510     3.8630     2.2210 H     1 <1>   0.0800 
 26 H       -3.5640     4.3210     0.6490 H     1 <1>   0.0800 
 27 H       -1.8670     3.9500     0.8580 H     1 <1>   0.0800 
 28 H       -5.0200    -3.9590    -1.4990 H     1 <1>   0.0800 
 29 H       -6.6680    -3.7110    -0.9900 H     1 <1>   0.0800 
 30 H       -5.1040    -1.6130    -2.5720 H     1 <1>   0.0800 
 31 H       -5.4810    -0.2800    -1.5280 H     1 <1>   0.0800 
 32 H       -7.4440    -0.4740    -2.7120 H     1 <1>   0.0800 
 33 H       -7.8160    -1.3460    -1.2400 H     1 <1>   0.0800 
 34 H       -6.2940    -2.9700     1.9030 H     1 <1>   0.2700 
 35 H       -7.0360    -2.4380    -3.7440 H     1 <1>   0.4000 
 36 H       -4.4210    -6.6970     2.3380 H     1 <1>   0.1500 
 37 H       -5.6700    -4.7270     3.7070 H     1 <1>   0.1500 
@<TRIPOS>BOND
  1   1   2  1   
  2   2   3  ar  
  3   2   4  ar  
  4   3   5  ar  
  5   3   6  1   
  6   4   7  ar  
  7   4  20  1   
  8   5   8  ar  
  9   5  21  1   
 10   6   9  1   
 11   6  22  1   
 12   6  23  1   
 13   7   8  ar  
 14   7  10  1   
 15   8  24  1   
 16   9  11  1   
 17   9  12  1   
 18  10  25  1   
 19  10  26  1   
 20  10  27  1   
 21  11  13  1   
 22  11  28  1   
 23  11  29  1   
 24  12  14  1   
 25  12  30  1   
 26  12  31  1   
 27  13  15  2   
 28  13  16  1   
 29  14  17  1   
 30  14  32  1   
 31  14  33  1   
 32  15  18  1   
 33  16  19  1   
 34  16  34  1   
 35  17  35  1   
 36  18  19  2   
 37  18  36  1   
 38  19  37  1   
@<TRIPOS>SUBSTRUCTURE
  1 ****   6 GROUP 4 **** **** 0

# MOE 2024.06 (io_trps.svl 2023.06)
