@<TRIPOS>MOLECULE
NONAME
42 45 1 0 0 
SMALL
USER_CHARGES


@<TRIPOS>ATOM
  1 S        0.2740    -1.1830    -0.0490 S.3   1 <1>  -0.4600 
  2 C       -1.0380     0.0800    -0.0070 C.3   1 <1>   0.2510 
  3 C       -0.7680    -2.6710    -0.1010 C.3   1 <1>   0.2510 
  4 C       -2.3050    -0.7430    -0.0060 C.2   1 <1>   0.1080 
  5 C       -2.1720    -2.1150    -0.0510 C.2   1 <1>  -0.1810 
  6 N       -3.5390    -0.3540     0.0320 N.2   1 <1>  -0.7070 
  7 C       -3.4340    -2.6030    -0.0430 C.2   1 <1>  -0.0880 
  8 N       -4.2530    -1.5070     0.0040 N.pl3 1 <1>   0.3140 
  9 N       -3.7920    -3.9740    -0.0580 N.am  1 <1>  -0.4940 
 10 C       -5.7180    -1.4460     0.1070 C.3   1 <1>   0.0160 
 11 C       -4.8750    -4.6130    -0.5950 C.2   1 <1>   0.5690 
 12 O       -5.7700    -4.0490    -1.1730 O.2   1 <1>  -0.5700 
 13 C       -4.9560    -6.1170    -0.4540 C.3   1 <1>  -0.0990 
 14 C       -6.2110    -6.5310     0.3260 C.3   1 <1>   0.0200 
 15 C       -6.2320    -8.0270     0.5610 C.2   1 <1>   0.2980 
 16 O       -5.3740    -8.5380     1.4030 O.3   1 <1>  -0.0190 
 17 N       -7.0110    -8.8550     0.0030 N.2   1 <1>  -0.5650 
 18 N       -5.6280    -9.8080     1.3780 N.2   1 <1>  -0.4100 
 19 C       -6.5920   -10.0030     0.5490 C.2   1 <1>   0.4620 
 20 C       -7.2100   -11.2710     0.2170 C.ar  1 <1>   0.0540 
 21 C       -6.5050   -12.4750     0.1570 C.ar  1 <1>   0.1900 
 22 C       -8.5760   -11.3490    -0.0680 C.ar  1 <1>  -0.1500 
 23 F       -5.2180   -12.4880     0.3820 F     1 <1>  -0.1900 
 24 C       -7.0970   -13.6860    -0.1480 C.ar  1 <1>  -0.1500 
 25 C       -9.1890   -12.5520    -0.3780 C.ar  1 <1>  -0.1500 
 26 C       -8.4530   -13.7240    -0.4170 C.ar  1 <1>  -0.1500 
 27 H       -0.9550     0.6910    -0.8860 H     1 <1>   0.0800 
 28 H       -0.9310     0.6570     0.8930 H     1 <1>   0.0800 
 29 H       -0.5320    -3.2730     0.7570 H     1 <1>   0.0800 
 30 H       -0.5660    -3.1880    -1.0210 H     1 <1>   0.0800 
 31 H       -3.0770    -4.5910     0.3250 H     1 <1>   0.3700 
 32 H       -6.0030    -0.5070     0.5430 H     1 <1>   0.0800 
 33 H       -6.0670    -2.2510     0.7240 H     1 <1>   0.0800 
 34 H       -6.1400    -1.5280    -0.8770 H     1 <1>   0.0800 
 35 H       -4.0790    -6.4870     0.0440 H     1 <1>   0.0800 
 36 H       -4.9900    -6.5510    -1.4380 H     1 <1>   0.0800 
 37 H       -7.0900    -6.2490    -0.2280 H     1 <1>   0.0800 
 38 H       -6.2410    -6.0290     1.2770 H     1 <1>   0.0800 
 39 H       -9.1660   -10.4490    -0.0440 H     1 <1>   0.1500 
 40 H       -6.5020   -14.5820    -0.1760 H     1 <1>   0.1500 
 41 H      -10.2440   -12.5760    -0.5910 H     1 <1>   0.1500 
 42 H       -8.9330   -14.6580    -0.6570 H     1 <1>   0.1500 
@<TRIPOS>BOND
  1   1   2  1   
  2   1   3  1   
  3   2   4  1   
  4   2  27  1   
  5   2  28  1   
  6   3   5  1   
  7   3  29  1   
  8   3  30  1   
  9   4   5  1   
 10   4   6  2   
 11   5   7  2   
 12   6   8  1   
 13   7   8  1   
 14   7   9  1   
 15   8  10  1   
 16   9  11  am  
 17   9  31  1   
 18  10  32  1   
 19  10  33  1   
 20  10  34  1   
 21  11  12  2   
 22  11  13  1   
 23  13  14  1   
 24  13  35  1   
 25  13  36  1   
 26  14  15  1   
 27  14  37  1   
 28  14  38  1   
 29  15  16  1   
 30  15  17  2   
 31  16  18  1   
 32  17  19  1   
 33  18  19  2   
 34  19  20  1   
 35  20  21  ar  
 36  20  22  ar  
 37  21  23  1   
 38  21  24  ar  
 39  22  25  ar  
 40  22  39  1   
 41  24  26  ar  
 42  24  40  1   
 43  25  26  ar  
 44  25  41  1   
 45  26  42  1   
@<TRIPOS>SUBSTRUCTURE
  1 ****  13 GROUP 4 **** **** 0

# MOE 2024.06 (io_trps.svl 2023.06)
