@<TRIPOS>MOLECULE
NONAME
43 45 1 0 0 
SMALL
USER_CHARGES


@<TRIPOS>ATOM
  1 S       -0.1090     0.5320     0.6830 S.o2  1 <1>   1.3330 
  2 O       -1.5130     0.3080     0.4490 O.2   1 <1>  -0.6500 
  3 O        0.3400     1.0520     1.9520 O.2   1 <1>  -0.6500 
  4 N        0.3500     1.5800    -0.5370 N.am  1 <1>  -0.9140 
  5 C        0.7810    -0.9580     0.2870 C.3   1 <1>  -0.1350 
  6 C        1.3160     2.6110    -0.1900 C.3   1 <1>   0.2760 
  7 C        1.2950     3.6480    -1.3160 C.3   1 <1>  -0.1600 
  8 C        2.7190     2.0090    -0.0290 C.3   1 <1>  -0.1600 
  9 C        2.3740     4.7050    -1.0970 C.3   1 <1>   0.2090 
 10 C        3.7600     3.1140     0.1490 C.3   1 <1>   0.2090 
 11 N        3.6880     4.0220    -1.0190 N.pl3 1 <1>  -0.8210 
 12 C        4.7890     4.8790    -1.1150 C.2   1 <1>   0.3720 
 13 N        5.7000     4.7200    -2.0090 N.2   1 <1>  -0.4100 
 14 C        5.0660     5.9780    -0.3050 C.2   1 <1>  -0.2330 
 15 O        6.5570     5.6880    -1.8120 O.3   1 <1>  -0.0190 
 16 C        6.2250     6.4700    -0.8100 C.2   1 <1>   0.0870 
 17 C        4.2680     6.4080     0.7930 C.2   1 <1>   1.0330 
 18 C        7.0640     7.5930    -0.4580 C.ar  1 <1>   0.0530 
 19 O        3.4480     7.3320     0.6460 O.co2 1 <1>  -0.9000 
 20 O        4.3540     5.8530     1.9000 O.co2 1 <1>  -0.9000 
 21 C        8.4070     7.6310    -0.8400 C.ar  1 <1>  -0.1500 
 22 C        6.5800     8.6830     0.2660 C.ar  1 <1>  -0.1500 
 23 C        9.2260     8.6970    -0.5140 C.ar  1 <1>  -0.1500 
 24 C        7.3920     9.7520     0.5970 C.ar  1 <1>  -0.1500 
 25 C        8.7200     9.7620     0.2080 C.ar  1 <1>  -0.1500 
 26 H       -0.5200     2.0540    -0.7680 H     1 <1>   0.4200 
 27 H        0.5220    -1.7340     0.9800 H     1 <1>   0.0800 
 28 H        1.8380    -0.7870     0.3390 H     1 <1>   0.0800 
 29 H        0.5320    -1.2820    -0.7040 H     1 <1>   0.0800 
 30 H        1.0290     3.1000     0.7290 H     1 <1>   0.0800 
 31 H        0.3380     4.1360    -1.3490 H     1 <1>   0.0800 
 32 H        1.4770     3.1710    -2.2630 H     1 <1>   0.0800 
 33 H        2.9770     1.4340    -0.9000 H     1 <1>   0.0800 
 34 H        2.7570     1.3770     0.8370 H     1 <1>   0.0800 
 35 H        2.1750     5.2430    -0.1850 H     1 <1>   0.0800 
 36 H        2.3830     5.4100    -1.9130 H     1 <1>   0.0800 
 37 H        4.7480     2.6880     0.2120 H     1 <1>   0.0800 
 38 H        3.5690     3.6610     1.0570 H     1 <1>   0.0800 
 39 H        8.8140     6.8070    -1.3980 H     1 <1>   0.1500 
 40 H        5.5490     8.7010     0.5750 H     1 <1>   0.1500 
 41 H       10.2570     8.6970    -0.8210 H     1 <1>   0.1500 
 42 H        6.9850    10.5740     1.1590 H     1 <1>   0.1500 
 43 H        9.3520    10.5930     0.4660 H     1 <1>   0.1500 
@<TRIPOS>BOND
  1   1   2  2   
  2   1   3  2   
  3   1   4  am  
  4   1   5  1   
  5   4   6  1   
  6   4  26  1   
  7   5  27  1   
  8   5  28  1   
  9   5  29  1   
 10   6   7  1   
 11   6   8  1   
 12   6  30  1   
 13   7   9  1   
 14   7  31  1   
 15   7  32  1   
 16   8  10  1   
 17   8  33  1   
 18   8  34  1   
 19   9  11  1   
 20   9  35  1   
 21   9  36  1   
 22  10  11  1   
 23  10  37  1   
 24  10  38  1   
 25  11  12  1   
 26  12  13  2   
 27  12  14  1   
 28  13  15  1   
 29  14  16  2   
 30  14  17  1   
 31  15  16  1   
 32  16  18  1   
 33  17  19  ar  
 34  17  20  ar  
 35  18  21  ar  
 36  18  22  ar  
 37  21  23  ar  
 38  21  39  1   
 39  22  24  ar  
 40  22  40  1   
 41  23  25  ar  
 42  23  41  1   
 43  24  25  ar  
 44  24  42  1   
 45  25  43  1   
@<TRIPOS>SUBSTRUCTURE
  1 ****  12 GROUP 4 **** **** 0

# MOE 2024.06 (io_trps.svl 2023.06)
