@<TRIPOS>MOLECULE
NONAME
36 38 1 0 0 
SMALL
USER_CHARGES


@<TRIPOS>ATOM
  1 CL      -0.6290     0.3680    -1.1670 Cl    1 <1>  -0.1240 
  2 C       -1.3340    -1.0830    -0.5160 C.2   1 <1>   0.1640 
  3 S       -0.8150    -2.5960    -1.2140 S.3   1 <1>  -0.0800 
  4 C       -2.2370    -1.2670     0.4610 C.2   1 <1>  -0.1500 
  5 C       -1.8770    -3.5180    -0.1340 C.2   1 <1>  -0.0450 
  6 C       -2.5390    -2.6450     0.6760 C.2   1 <1>  -0.1500 
  7 C       -1.8860    -4.9570    -0.2530 C.2   1 <1>   0.7150 
  8 O       -0.9020    -5.5480    -0.6580 O.2   1 <1>  -0.5700 
  9 N       -2.9960    -5.7010     0.0840 N.am  1 <1>  -0.6600 
 10 C       -4.3900    -5.1880     0.0630 C.3   1 <1>   0.1400 
 11 C       -2.9910    -7.1850     0.0100 C.3   1 <1>   0.1400 
 12 C       -5.2450    -6.3980    -0.3050 C.3   1 <1>   0.2000 
 13 C       -4.4510    -7.6110     0.1720 C.3   1 <1>  -0.0800 
 14 O       -6.4830    -6.3590     0.3160 O.3   1 <1>  -0.6800 
 15 C       -4.8040    -8.8990    -0.5860 C.3   1 <1>   0.0200 
 16 C       -3.9300   -10.0510    -0.1310 C.2   1 <1>  -0.0400 
 17 O       -3.9780   -10.4560     1.1100 O.3   1 <1>  -0.0190 
 18 C       -3.0320   -10.8080    -0.7780 C.2   1 <1>  -0.1500 
 19 N       -3.1560   -11.4410     1.3290 N.2   1 <1>  -0.4100 
 20 C       -2.5730   -11.6760     0.2090 C.2   1 <1>   0.1080 
 21 C       -1.5300   -12.7510     0.0020 C.3   1 <1>  -0.0590 
 22 H       -2.6970    -0.4830     1.0360 H     1 <1>   0.1500 
 23 H       -3.2370    -2.9330     1.4420 H     1 <1>   0.1500 
 24 H       -4.6470    -4.8290     1.0440 H     1 <1>   0.0800 
 25 H       -4.5020    -4.4050    -0.6670 H     1 <1>   0.0800 
 26 H       -2.6060    -7.4890    -0.9500 H     1 <1>   0.0800 
 27 H       -2.3710    -7.6030     0.7860 H     1 <1>   0.0800 
 28 H       -5.4000    -6.4220    -1.3710 H     1 <1>   0.0800 
 29 H       -4.6220    -7.7600     1.2250 H     1 <1>   0.0800 
 30 H       -6.3880    -6.4610     1.2830 H     1 <1>   0.4000 
 31 H       -4.6720    -8.7520    -1.6440 H     1 <1>   0.0800 
 32 H       -5.8350    -9.1510    -0.4110 H     1 <1>   0.0800 
 33 H       -2.7130   -10.7810    -1.8040 H     1 <1>   0.1500 
 34 H       -1.8620   -13.4420    -0.7500 H     1 <1>   0.0800 
 35 H       -1.3680   -13.2870     0.9200 H     1 <1>   0.0800 
 36 H       -0.6030   -12.3050    -0.3090 H     1 <1>   0.0800 
@<TRIPOS>BOND
  1   1   2  1   
  2   2   3  1   
  3   2   4  2   
  4   3   5  1   
  5   4   6  1   
  6   4  22  1   
  7   5   6  2   
  8   5   7  1   
  9   6  23  1   
 10   7   8  2   
 11   7   9  am  
 12   9  10  1   
 13   9  11  1   
 14  10  12  1   
 15  10  24  1   
 16  10  25  1   
 17  11  13  1   
 18  11  26  1   
 19  11  27  1   
 20  12  13  1   
 21  12  14  1   
 22  12  28  1   
 23  13  15  1   
 24  13  29  1   
 25  14  30  1   
 26  15  16  1   
 27  15  31  1   
 28  15  32  1   
 29  16  17  1   
 30  16  18  2   
 31  17  19  1   
 32  18  20  1   
 33  18  33  1   
 34  19  20  2   
 35  20  21  1   
 36  21  34  1   
 37  21  35  1   
 38  21  36  1   
@<TRIPOS>SUBSTRUCTURE
  1 ****  11 GROUP 4 **** **** 0

# MOE 2024.06 (io_trps.svl 2023.06)
