@<TRIPOS>MOLECULE
NONAME
46 48 1 0 0 
SMALL
USER_CHARGES


@<TRIPOS>ATOM
  1 S       -0.0700     1.1520     3.1040 S.3   1 <1>  -0.0800 
  2 C       -0.9630     1.7990     1.7370 C.2   1 <1>  -0.1400 
  3 C       -0.2130    -0.4790     2.4800 C.2   1 <1>  -0.1100 
  4 C       -1.3380     0.8020     0.9120 C.2   1 <1>  -0.1500 
  5 C       -1.1790     3.3020     1.6890 C.3   1 <1>   0.2900 
  6 C       -0.9030    -0.5030     1.3220 C.2   1 <1>   0.0190 
  7 N       -0.1350     3.9630     0.8840 N.3   1 <1>  -0.8100 
  8 C       -1.1950    -1.6620     0.5360 C.1   1 <1>  -0.0190 
  9 C        1.2350     4.0450     1.4900 C.3   1 <1>   0.1900 
 10 C       -0.3130     3.8580    -0.5810 C.3   1 <1>   0.1100 
 11 C       -1.4330    -2.6210    -0.1280 C.1   1 <1>  -0.2000 
 12 C        1.9360     5.3500     1.0770 C.3   1 <1>   0.1200 
 13 C        2.1620     2.8300     1.2180 C.3   1 <1>   0.3430 
 14 C        0.9840     3.8910    -1.4100 C.3   1 <1>  -0.0800 
 15 C       -1.7260    -3.8170    -0.9620 C.3   1 <1>   0.3200 
 16 O        2.5690     5.2330    -0.1620 O.3   1 <1>  -0.5600 
 17 N        1.6740     1.9800     0.0910 N.4   1 <1>  -0.9590 
 18 C        1.7390     5.2230    -1.2750 C.3   1 <1>   0.1200 
 19 C        1.9000     2.6670    -1.2130 C.3   1 <1>   0.3430 
 20 O       -2.9910    -3.6590    -1.4850 O.3   1 <1>  -0.6800 
 21 C        2.4100     0.6520     0.1120 C.3   1 <1>   0.2370 
 22 C        3.9300     0.7600    -0.0460 C.2   1 <1>   0.9060 
 23 O        4.6060     0.9200     0.9750 O.co2 1 <1>  -0.9000 
 24 O        4.3920     0.7940    -1.1900 O.co2 1 <1>  -0.9000 
 25 H        0.2400    -1.2710     3.0500 H     1 <1>   0.1500 
 26 H       -1.9140     0.9140     0.0100 H     1 <1>   0.1500 
 27 H       -1.1830     3.7040     2.6880 H     1 <1>   0.0800 
 28 H       -2.1420     3.5090     1.2540 H     1 <1>   0.0800 
 29 H        1.1130     4.1140     2.5560 H     1 <1>   0.0800 
 30 H       -0.8390     2.9490    -0.8170 H     1 <1>   0.0800 
 31 H       -0.9450     4.6720    -0.8950 H     1 <1>   0.0800 
 32 H        2.7090     5.5730     1.7910 H     1 <1>   0.0800 
 33 H        1.2460     6.1750     1.0560 H     1 <1>   0.0800 
 34 H        2.2140     2.2340     2.1130 H     1 <1>   0.0800 
 35 H        3.1650     3.1710     1.0140 H     1 <1>   0.0800 
 36 H        0.6720     3.8560    -2.4380 H     1 <1>   0.0800 
 37 H       -1.7100    -4.7150    -0.3680 H     1 <1>   0.0800 
 38 H       -1.0300    -3.9050    -1.7780 H     1 <1>   0.0800 
 39 H        0.6660     1.8560     0.2590 H     1 <1>   0.4500 
 40 H        1.0640     6.0610    -1.2210 H     1 <1>   0.0800 
 41 H        2.3790     5.3600    -2.1300 H     1 <1>   0.0800 
 42 H        2.9350     2.9640    -1.2920 H     1 <1>   0.0800 
 43 H        1.7100     1.9630    -2.0060 H     1 <1>   0.0800 
 44 H       -3.6030    -3.3960    -0.7720 H     1 <1>   0.4000 
 45 H        2.2250     0.1510     1.0450 H     1 <1>   0.0800 
 46 H        2.0530     0.0250    -0.6840 H     1 <1>   0.0800 
@<TRIPOS>BOND
  1   1   2  1   
  2   1   3  1   
  3   2   4  2   
  4   2   5  1   
  5   3   6  2   
  6   3  25  1   
  7   4   6  1   
  8   4  26  1   
  9   5   7  1   
 10   5  27  1   
 11   5  28  1   
 12   6   8  1   
 13   7   9  1   
 14   7  10  1   
 15   8  11  3   
 16   9  12  1   
 17   9  13  1   
 18   9  29  1   
 19  10  14  1   
 20  10  30  1   
 21  10  31  1   
 22  11  15  1   
 23  12  16  1   
 24  12  32  1   
 25  12  33  1   
 26  13  17  1   
 27  13  34  1   
 28  13  35  1   
 29  14  18  1   
 30  14  19  1   
 31  14  36  1   
 32  15  20  1   
 33  15  37  1   
 34  15  38  1   
 35  16  18  1   
 36  17  19  1   
 37  17  21  1   
 38  17  39  1   
 39  18  40  1   
 40  18  41  1   
 41  19  42  1   
 42  19  43  1   
 43  20  44  1   
 44  21  22  1   
 45  21  45  1   
 46  21  46  1   
 47  22  23  ar  
 48  22  24  ar  
@<TRIPOS>SUBSTRUCTURE
  1 ****  17 GROUP 4 **** **** 0

# MOE 2024.06 (io_trps.svl 2023.06)
