@<TRIPOS>MOLECULE
NONAME
39 40 1 0 0 
SMALL
USER_CHARGES


@<TRIPOS>ATOM
  1 S       -0.2330     0.2000     0.2890 S.o2  1 <1>   1.3330 
  2 O       -0.1400    -0.4820     1.5600 O.2   1 <1>  -0.6500 
  3 O       -0.9190     1.4700     0.2110 O.2   1 <1>  -0.6500 
  4 N       -0.9590    -0.8650    -0.8160 N.am  1 <1>  -0.8490 
  5 C        1.4050     0.4210    -0.4080 C.3   1 <1>  -0.0550 
  6 C       -0.6580    -2.2760    -0.5500 C.3   1 <1>   0.1160 
  7 C       -2.4110    -0.6740    -0.9020 C.3   1 <1>   0.1160 
  8 C        2.2860     1.4170     0.3740 C.3   1 <1>  -0.0800 
  9 C        3.5630     1.7300    -0.3870 C.3   1 <1>   0.2200 
 10 C        2.8340     0.8050     1.6680 C.3   1 <1>   0.1200 
 11 N        4.1080     3.0210     0.0830 N.am  1 <1>  -0.7300 
 12 C        4.4800     0.5970     0.0610 C.3   1 <1>   0.1200 
 13 O        4.0810     0.2560     1.3560 O.3   1 <1>  -0.5600 
 14 C        4.3390     4.1190    -0.6890 C.2   1 <1>   0.7160 
 15 O        4.0340     4.0790    -1.8660 O.2   1 <1>  -0.5700 
 16 C        4.9450     5.2890    -0.0970 C.2   1 <1>  -0.0860 
 17 C        5.3370     5.5160     1.2010 C.2   1 <1>  -0.3020 
 18 C        5.2650     6.4770    -0.7850 C.2   1 <1>  -0.1500 
 19 N        5.8650     6.7560     1.3240 N.pl3 1 <1>   0.0330 
 20 C        5.8190     7.3420     0.1010 C.2   1 <1>  -0.3020 
 21 H        1.8990    -0.5280    -0.4650 H     1 <1>   0.0800 
 22 H        1.2850     0.7880    -1.4100 H     1 <1>   0.0800 
 23 H       -1.0630    -2.8950    -1.3320 H     1 <1>   0.0800 
 24 H       -1.0820    -2.5800     0.3940 H     1 <1>   0.0800 
 25 H        0.4070    -2.4290    -0.5130 H     1 <1>   0.0800 
 26 H       -2.8350    -1.3530    -1.6210 H     1 <1>   0.0800 
 27 H       -2.6320     0.3320    -1.2200 H     1 <1>   0.0800 
 28 H       -2.8680    -0.8410     0.0590 H     1 <1>   0.0800 
 29 H        1.7170     2.3120     0.5670 H     1 <1>   0.0800 
 30 H        3.4290     1.7420    -1.4560 H     1 <1>   0.0800 
 31 H        2.2100     0.0330     2.0830 H     1 <1>   0.0800 
 32 H        2.9920     1.5670     2.4100 H     1 <1>   0.0800 
 33 H        4.4310     3.0360     1.0500 H     1 <1>   0.3700 
 34 H        5.5180     0.8810     0.0640 H     1 <1>   0.0800 
 35 H        4.3440    -0.2700    -0.5600 H     1 <1>   0.0800 
 36 H        5.2600     4.8480     2.0400 H     1 <1>   0.1500 
 37 H        5.0840     6.6310    -1.8360 H     1 <1>   0.1500 
 38 H        6.2350     7.1840     2.1810 H     1 <1>   0.2700 
 39 H        6.1810     8.3400    -0.0750 H     1 <1>   0.1500 
@<TRIPOS>BOND
  1   1   2  2   
  2   1   3  2   
  3   1   4  am  
  4   1   5  1   
  5   4   6  1   
  6   4   7  1   
  7   5   8  1   
  8   5  21  1   
  9   5  22  1   
 10   6  23  1   
 11   6  24  1   
 12   6  25  1   
 13   7  26  1   
 14   7  27  1   
 15   7  28  1   
 16   8   9  1   
 17   8  10  1   
 18   8  29  1   
 19   9  11  1   
 20   9  12  1   
 21   9  30  1   
 22  10  13  1   
 23  10  31  1   
 24  10  32  1   
 25  11  14  am  
 26  11  33  1   
 27  12  13  1   
 28  12  34  1   
 29  12  35  1   
 30  14  15  2   
 31  14  16  1   
 32  16  17  2   
 33  16  18  1   
 34  17  19  1   
 35  17  36  1   
 36  18  20  2   
 37  18  37  1   
 38  19  20  1   
 39  19  38  1   
 40  20  39  1   
@<TRIPOS>SUBSTRUCTURE
  1 ****   8 GROUP 4 **** **** 0

# MOE 2024.06 (io_trps.svl 2023.06)
