@<TRIPOS>MOLECULE
NONAME
43 45 1 0 0 
SMALL
USER_CHARGES


@<TRIPOS>ATOM
  1 F       -1.5910    -1.7490     2.3430 F     1 <1>  -0.1900 
  2 C       -0.5110    -1.6320     1.6140 C.ar  1 <1>   0.1900 
  3 C        0.2670    -2.7560     1.3480 C.ar  1 <1>  -0.1440 
  4 C       -0.2010    -0.3760     1.1300 C.ar  1 <1>  -0.1500 
  5 C        1.4040    -2.5960     0.5630 C.ar  1 <1>  -0.1500 
  6 C       -0.0840    -4.1450     1.8850 C.3   1 <1>   0.0450 
  7 C        0.9320    -0.2640     0.3530 C.ar  1 <1>   0.1900 
  8 C        1.7410    -1.3480     0.0600 C.ar  1 <1>  -0.1500 
  9 C       -0.1370    -5.2140     0.7970 C.2   1 <1>   0.5690 
 10 F        1.2530     0.9070    -0.1250 F     1 <1>  -0.1900 
 11 O        0.7300    -6.0570     0.8340 O.2   1 <1>  -0.5700 
 12 N       -1.1170    -5.2330    -0.1720 N.am  1 <1>  -0.6600 
 13 C       -2.1820    -4.1890    -0.2780 C.3   1 <1>   0.2200 
 14 C       -1.1260    -6.3290    -1.1920 C.3   1 <1>   0.0600 
 15 C       -3.5950    -4.7260    -0.4850 C.3   1 <1>  -0.1600 
 16 C       -1.9690    -3.2350    -1.4490 C.3   1 <1>  -0.1600 
 17 C       -4.3750    -3.5090    -0.9960 C.3   1 <1>  -0.0800 
 18 C       -3.3420    -2.5800    -1.6610 C.3   1 <1>  -0.0800 
 19 C       -5.0260    -2.6940     0.1310 C.3   1 <1>  -0.1600 
 20 C       -3.4720    -1.2110    -0.9750 C.3   1 <1>  -0.1600 
 21 C       -4.8200    -1.2420    -0.2710 C.3   1 <1>   0.2000 
 22 O       -4.7820    -0.4450     0.8520 O.3   1 <1>  -0.6800 
 23 H       -0.8150     0.4780     1.3470 H     1 <1>   0.1500 
 24 H        2.0310    -3.4450     0.3390 H     1 <1>   0.1500 
 25 H       -1.0190    -4.1470     2.4110 H     1 <1>   0.0800 
 26 H        0.6690    -4.4280     2.5990 H     1 <1>   0.0800 
 27 H        2.6170    -1.2160    -0.5500 H     1 <1>   0.1500 
 28 H       -2.2110    -3.6000     0.6180 H     1 <1>   0.0800 
 29 H       -1.3900    -5.9470    -2.1610 H     1 <1>   0.0800 
 30 H       -1.8370    -7.0830    -0.9030 H     1 <1>   0.0800 
 31 H       -0.1560    -6.7880    -1.2700 H     1 <1>   0.0800 
 32 H       -3.6110    -5.4790    -1.2510 H     1 <1>   0.0800 
 33 H       -4.0080    -5.1310     0.4220 H     1 <1>   0.0800 
 34 H       -1.1930    -2.5200    -1.2480 H     1 <1>   0.0800 
 35 H       -1.7110    -3.7850    -2.3350 H     1 <1>   0.0800 
 36 H       -5.1260    -3.8050    -1.7090 H     1 <1>   0.0800 
 37 H       -3.5540    -2.4810    -2.7130 H     1 <1>   0.0800 
 38 H       -4.5290    -2.8860     1.0660 H     1 <1>   0.0800 
 39 H       -6.0720    -2.9250     0.2270 H     1 <1>   0.0800 
 40 H       -3.4310    -0.4110    -1.6910 H     1 <1>   0.0800 
 41 H       -2.6890    -1.0800    -0.2510 H     1 <1>   0.0800 
 42 H       -5.6080    -0.9010    -0.9220 H     1 <1>   0.0800 
 43 H       -4.0840    -0.7580     1.4570 H     1 <1>   0.4000 
@<TRIPOS>BOND
  1   1   2  1   
  2   2   3  ar  
  3   2   4  ar  
  4   3   5  ar  
  5   3   6  1   
  6   4   7  ar  
  7   4  23  1   
  8   5   8  ar  
  9   5  24  1   
 10   6   9  1   
 11   6  25  1   
 12   6  26  1   
 13   7   8  ar  
 14   7  10  1   
 15   8  27  1   
 16   9  11  2   
 17   9  12  am  
 18  12  13  1   
 19  12  14  1   
 20  13  15  1   
 21  13  16  1   
 22  13  28  1   
 23  14  29  1   
 24  14  30  1   
 25  14  31  1   
 26  15  17  1   
 27  15  32  1   
 28  15  33  1   
 29  16  18  1   
 30  16  34  1   
 31  16  35  1   
 32  17  18  1   
 33  17  19  1   
 34  17  36  1   
 35  18  20  1   
 36  18  37  1   
 37  19  21  1   
 38  19  38  1   
 39  19  39  1   
 40  20  21  1   
 41  20  40  1   
 42  20  41  1   
 43  21  22  1   
 44  21  42  1   
 45  22  43  1   
@<TRIPOS>SUBSTRUCTURE
  1 ****  13 GROUP 4 **** **** 0

# MOE 2024.06 (io_trps.svl 2023.06)
