@<TRIPOS>MOLECULE
NONAME
51 53 1 0 0 
SMALL
USER_CHARGES


@<TRIPOS>ATOM
  1 O        2.4970    -0.7830    -1.8410 O.2   1 <1>  -0.5700 
  2 C        2.6080    -0.7060    -0.6330 C.2   1 <1>   0.7160 
  3 N        3.0410     0.4710    -0.0650 N.am  1 <1>  -0.6600 
  4 C        2.3130    -1.8500     0.1850 C.2   1 <1>  -0.0860 
  5 C        3.2730     0.6480     1.4050 C.3   1 <1>   0.1400 
  6 C        3.4470     1.6340    -0.8970 C.3   1 <1>   0.1400 
  7 C        3.0630    -2.9160     0.5260 C.2   1 <1>  -0.0400 
  8 C        1.1370    -2.1160     0.8640 C.2   1 <1>   0.1080 
  9 C        4.7530     0.4850     1.7840 C.3   1 <1>   0.1400 
 10 C        4.8870     1.4820    -1.4100 C.3   1 <1>  -0.1600 
 11 O        2.4310    -3.7270     1.3390 O.3   1 <1>  -0.0190 
 12 C        4.4750    -3.2680     0.1020 C.3   1 <1>  -0.0600 
 13 N        1.2410    -3.2020     1.5310 N.2   1 <1>  -0.4100 
 14 C       -0.1070    -1.2540     0.8280 C.3   1 <1>  -0.0590 
 15 N        5.6410     1.3780     0.9750 N.am  1 <1>  -0.6600 
 16 C        5.8890     0.8870    -0.4100 C.3   1 <1>   0.1400 
 17 C        6.1400     2.5440     1.5060 C.2   1 <1>   0.5690 
 18 O        5.8110     2.9100     2.6120 O.2   1 <1>  -0.5700 
 19 C        7.0840     3.4550     0.7260 C.3   1 <1>   0.0820 
 20 C        8.4270     2.8180     0.3790 C.2   1 <1>  -0.1810 
 21 C        9.0390     2.7990    -0.8750 C.2   1 <1>   0.1080 
 22 C        9.2830     2.1520     1.1870 C.2   1 <1>  -0.3320 
 23 N       10.1640     2.1610    -0.8610 N.2   1 <1>  -0.7070 
 24 C        8.5070     3.4290    -2.1430 C.3   1 <1>  -0.0590 
 25 N       10.3180     1.7660     0.4140 N.pl3 1 <1>   0.3000 
 26 C        9.2040     1.8460     2.6740 C.3   1 <1>  -0.0600 
 27 H        2.6920    -0.0610     1.9680 H     1 <1>   0.0800 
 28 H        2.9460     1.6290     1.7040 H     1 <1>   0.0800 
 29 H        3.3720     2.5330    -0.3090 H     1 <1>   0.0800 
 30 H        2.7740     1.7350    -1.7330 H     1 <1>   0.0800 
 31 H        5.0470    -0.5400     1.6450 H     1 <1>   0.0800 
 32 H        4.8670     0.7050     2.8320 H     1 <1>   0.0800 
 33 H        5.2350     2.4450    -1.7310 H     1 <1>   0.0800 
 34 H        4.8730     0.8550    -2.2830 H     1 <1>   0.0800 
 35 H        4.8580    -2.5350    -0.5840 H     1 <1>   0.0800 
 36 H        4.4760    -4.2280    -0.3830 H     1 <1>   0.0800 
 37 H        5.1160    -3.3130     0.9640 H     1 <1>   0.0800 
 38 H       -0.4500    -1.1550    -0.1860 H     1 <1>   0.0800 
 39 H        0.1060    -0.2800     1.2260 H     1 <1>   0.0800 
 40 H       -0.8860    -1.7080     1.4140 H     1 <1>   0.0800 
 41 H        6.8940     1.1040    -0.7190 H     1 <1>   0.0800 
 42 H        5.7910    -0.1850    -0.4210 H     1 <1>   0.0800 
 43 H        7.2740     4.3340     1.3140 H     1 <1>   0.0800 
 44 H        6.5790     3.7720    -0.1640 H     1 <1>   0.0800 
 45 H        8.1730     4.4300    -1.9470 H     1 <1>   0.0800 
 46 H        7.6940     2.8440    -2.5290 H     1 <1>   0.0800 
 47 H        9.2870     3.4660    -2.8820 H     1 <1>   0.0800 
 48 H       11.1440     1.2410     0.7260 H     1 <1>   0.2700 
 49 H        8.3990     2.3880     3.1340 H     1 <1>   0.0800 
 50 H       10.1190     2.1320     3.1610 H     1 <1>   0.0800 
 51 H        9.0380     0.7940     2.8260 H     1 <1>   0.0800 
@<TRIPOS>BOND
  1   1   2  2   
  2   2   3  am  
  3   2   4  1   
  4   3   5  1   
  5   3   6  1   
  6   4   7  2   
  7   4   8  1   
  8   5   9  1   
  9   5  27  1   
 10   5  28  1   
 11   6  10  1   
 12   6  29  1   
 13   6  30  1   
 14   7  11  1   
 15   7  12  1   
 16   8  13  2   
 17   8  14  1   
 18   9  15  1   
 19   9  31  1   
 20   9  32  1   
 21  10  16  1   
 22  10  33  1   
 23  10  34  1   
 24  11  13  1   
 25  12  35  1   
 26  12  36  1   
 27  12  37  1   
 28  14  38  1   
 29  14  39  1   
 30  14  40  1   
 31  15  16  1   
 32  15  17  am  
 33  16  41  1   
 34  16  42  1   
 35  17  18  2   
 36  17  19  1   
 37  19  20  1   
 38  19  43  1   
 39  19  44  1   
 40  20  21  1   
 41  20  22  2   
 42  21  23  2   
 43  21  24  1   
 44  22  25  1   
 45  22  26  1   
 46  23  25  1   
 47  24  45  1   
 48  24  46  1   
 49  24  47  1   
 50  25  48  1   
 51  26  49  1   
 52  26  50  1   
 53  26  51  1   
@<TRIPOS>SUBSTRUCTURE
  1 ****  16 GROUP 4 **** **** 0

# MOE 2024.06 (io_trps.svl 2023.06)
