@<TRIPOS>MOLECULE
NONAME
46 49 1 0 0 
SMALL
USER_CHARGES


@<TRIPOS>ATOM
  1 O       -1.4320    -0.1480     2.7740 O.2   1 <1>  -0.5700 
  2 C       -1.5830     0.6230     1.8560 C.2   1 <1>   0.5690 
  3 N       -2.0730     0.2000     0.6500 N.am  1 <1>  -0.6600 
  4 C       -1.2260     2.0860     2.0890 C.3   1 <1>   0.0440 
  5 C       -2.2790     1.0230    -0.5700 C.3   1 <1>   0.1400 
  6 C       -2.3420    -1.2300     0.3500 C.3   1 <1>   0.1400 
  7 C       -0.1630     2.6080     1.1250 C.ar  1 <1>  -0.1440 
  8 C       -3.1630     0.1560    -1.4620 C.3   1 <1>   0.2000 
  9 C       -2.6990    -1.2670    -1.1410 C.3   1 <1>  -0.0800 
 10 C       -0.3940     3.7680     0.3910 C.ar  1 <1>  -0.1500 
 11 C        1.0390     1.9160     0.9740 C.ar  1 <1>  -0.1500 
 12 O       -4.4780     0.3200    -1.0480 O.3   1 <1>  -0.6800 
 13 C       -3.6810    -2.3900    -1.5180 C.3   1 <1>   0.0210 
 14 C        0.5870     4.1930    -0.4830 C.ar  1 <1>   0.0820 
 15 C        2.0150     2.3610     0.0920 C.ar  1 <1>  -0.1500 
 16 C       -3.1190    -3.7470    -1.1400 C.2   1 <1>   0.1080 
 17 O        0.5750     5.2630    -1.2840 O.3   1 <1>  -0.3630 
 18 C        1.7580     3.5090    -0.6290 C.ar  1 <1>   0.0820 
 19 N       -2.0110    -4.2110    -1.6290 N.2   1 <1>  -0.7070 
 20 C       -3.7050    -4.6270    -0.2370 C.2   1 <1>  -0.1500 
 21 C        1.8240     5.2710    -1.9730 C.3   1 <1>   0.4000 
 22 O        2.5380     4.1180    -1.5280 O.3   1 <1>  -0.3620 
 23 N       -1.8590    -5.4150    -1.0450 N.pl3 1 <1>   0.3000 
 24 C       -2.8720    -5.6890    -0.1950 C.2   1 <1>  -0.3320 
 25 C       -2.9830    -6.9660     0.6160 C.3   1 <1>  -0.0600 
 26 H       -2.1240     2.6670     2.0100 H     1 <1>   0.0800 
 27 H       -0.8590     2.1930     3.0930 H     1 <1>   0.0800 
 28 H       -2.7410     1.9700    -0.3510 H     1 <1>   0.0800 
 29 H       -1.3270     1.1860    -1.0470 H     1 <1>   0.0800 
 30 H       -1.4760    -1.8360     0.5600 H     1 <1>   0.0800 
 31 H       -3.1650    -1.5680     0.9560 H     1 <1>   0.0800 
 32 H       -3.0940     0.4070    -2.5070 H     1 <1>   0.0800 
 33 H       -1.7820    -1.4380    -1.6780 H     1 <1>   0.0800 
 34 H       -1.3030     4.3340     0.4830 H     1 <1>   0.1500 
 35 H        1.2180     1.0200     1.5460 H     1 <1>   0.1500 
 36 H       -4.5080     0.2140    -0.0760 H     1 <1>   0.4000 
 37 H       -3.8560    -2.3730    -2.5780 H     1 <1>   0.0800 
 38 H       -4.6250    -2.2520    -1.0230 H     1 <1>   0.0800 
 39 H        2.9450     1.8360    -0.0340 H     1 <1>   0.1500 
 40 H       -4.6230    -4.4690     0.3000 H     1 <1>   0.1500 
 41 H        1.6540     5.2040    -3.0320 H     1 <1>   0.0800 
 42 H        2.3740     6.1570    -1.7110 H     1 <1>   0.0800 
 43 H       -1.0560    -6.0220    -1.2450 H     1 <1>   0.2700 
 44 H       -3.8760    -6.9470     1.2150 H     1 <1>   0.0800 
 45 H       -2.1350    -7.0680     1.2690 H     1 <1>   0.0800 
 46 H       -3.0280    -7.8190    -0.0380 H     1 <1>   0.0800 
@<TRIPOS>BOND
  1   1   2  2   
  2   2   3  am  
  3   2   4  1   
  4   3   5  1   
  5   3   6  1   
  6   4   7  1   
  7   4  26  1   
  8   4  27  1   
  9   5   8  1   
 10   5  28  1   
 11   5  29  1   
 12   6   9  1   
 13   6  30  1   
 14   6  31  1   
 15   7  10  ar  
 16   7  11  ar  
 17   8   9  1   
 18   8  12  1   
 19   8  32  1   
 20   9  13  1   
 21   9  33  1   
 22  10  14  ar  
 23  10  34  1   
 24  11  15  ar  
 25  11  35  1   
 26  12  36  1   
 27  13  16  1   
 28  13  37  1   
 29  13  38  1   
 30  14  17  1   
 31  14  18  ar  
 32  15  18  ar  
 33  15  39  1   
 34  16  19  2   
 35  16  20  1   
 36  17  21  1   
 37  18  22  1   
 38  19  23  1   
 39  20  24  2   
 40  20  40  1   
 41  21  22  1   
 42  21  41  1   
 43  21  42  1   
 44  23  24  1   
 45  23  43  1   
 46  24  25  1   
 47  25  44  1   
 48  25  45  1   
 49  25  46  1   
@<TRIPOS>SUBSTRUCTURE
  1 ****   3 GROUP 4 **** **** 0

# MOE 2024.06 (io_trps.svl 2023.06)
