@<TRIPOS>MOLECULE
NONAME
54 56 1 0 0 
SMALL
USER_CHARGES


@<TRIPOS>ATOM
  1 O       -0.6980    -0.8700     0.3070 O.2   1 <1>  -0.5700 
  2 C        0.2730    -1.5720     0.4470 C.2   1 <1>   0.5690 
  3 N        0.3700    -2.5500     1.3990 N.am  1 <1>  -0.6600 
  4 C        1.4600    -1.3730    -0.4730 C.3   1 <1>  -0.0990 
  5 C        1.6040    -3.3610     1.5270 C.3   1 <1>   0.1400 
  6 C       -0.7120    -2.8120     2.3860 C.3   1 <1>   0.0600 
  7 C        1.9800    -2.7320    -0.9770 C.3   1 <1>  -0.0800 
  8 C        2.0930    -3.8050     0.1330 C.3   1 <1>  -0.0800 
  9 C        3.3580    -2.6450    -1.6490 C.3   1 <1>  -0.1600 
 10 C        3.5570    -4.2680     0.1240 C.3   1 <1>  -0.1600 
 11 C        4.0350    -3.9640    -1.2960 C.3   1 <1>   0.4230 
 12 N        5.5190    -3.9210    -1.4640 N.4   1 <1>  -0.9590 
 13 C        6.2350    -3.0130    -0.5140 C.3   1 <1>   0.3430 
 14 C        6.0810    -5.3090    -1.4150 C.3   1 <1>   0.2630 
 15 C        7.6230    -2.6610    -1.0520 C.3   1 <1>  -0.1600 
 16 C        8.3140    -1.6500    -0.1260 C.3   1 <1>  -0.1600 
 17 C        9.7080    -1.2640    -0.6350 C.3   1 <1>  -0.0170 
 18 C       10.3460    -0.2630     0.3130 C.ar  1 <1>  -0.1440 
 19 C       11.1090    -0.7020     1.3840 C.ar  1 <1>  -0.1500 
 20 C       10.1680     1.0980     0.1180 C.ar  1 <1>  -0.1500 
 21 C       11.6850     0.2090     2.2520 C.ar  1 <1>  -0.1500 
 22 C       10.7440     2.0100     0.9850 C.ar  1 <1>  -0.1500 
 23 C       11.5030     1.5660     2.0530 C.ar  1 <1>  -0.1500 
 24 H        1.1660    -0.7560    -1.3040 H     1 <1>   0.0800 
 25 H        2.2160    -0.8520     0.0830 H     1 <1>   0.0800 
 26 H        2.3500    -2.7570     2.0160 H     1 <1>   0.0800 
 27 H        1.4160    -4.2260     2.1400 H     1 <1>   0.0800 
 28 H       -1.0570    -3.8260     2.2890 H     1 <1>   0.0800 
 29 H       -1.5450    -2.1500     2.2190 H     1 <1>   0.0800 
 30 H       -0.3430    -2.6530     3.3840 H     1 <1>   0.0800 
 31 H        1.2670    -3.0980    -1.7000 H     1 <1>   0.0800 
 32 H        1.4780    -4.6390    -0.1640 H     1 <1>   0.0800 
 33 H        3.8980    -1.8090    -1.2460 H     1 <1>   0.0800 
 34 H        3.2560    -2.5250    -2.7140 H     1 <1>   0.0800 
 35 H        3.6290    -5.3160     0.3560 H     1 <1>   0.0800 
 36 H        4.1080    -3.6970     0.8480 H     1 <1>   0.0800 
 37 H        3.6270    -4.7200    -1.9500 H     1 <1>   0.0800 
 38 H        5.6860    -3.5490    -2.4090 H     1 <1>   0.4500 
 39 H        5.6790    -2.0990    -0.3860 H     1 <1>   0.0800 
 40 H        6.3260    -3.4830     0.4520 H     1 <1>   0.0800 
 41 H        5.9530    -5.7300    -0.4310 H     1 <1>   0.0800 
 42 H        7.1320    -5.3000    -1.6510 H     1 <1>   0.0800 
 43 H        5.5780    -5.9420    -2.1290 H     1 <1>   0.0800 
 44 H        8.2360    -3.5430    -1.1140 H     1 <1>   0.0800 
 45 H        7.5320    -2.2260    -2.0330 H     1 <1>   0.0800 
 46 H        7.7170    -0.7550    -0.0480 H     1 <1>   0.0800 
 47 H        8.4130    -2.0650     0.8630 H     1 <1>   0.0800 
 48 H        9.6380    -0.8300    -1.6180 H     1 <1>   0.0800 
 49 H       10.3330    -2.1370    -0.7060 H     1 <1>   0.0800 
 50 H       11.2590    -1.7540     1.5490 H     1 <1>   0.1500 
 51 H        9.5810     1.4570    -0.7090 H     1 <1>   0.1500 
 52 H       12.2760    -0.1380     3.0810 H     1 <1>   0.1500 
 53 H       10.6020     3.0650     0.8290 H     1 <1>   0.1500 
 54 H       11.9520     2.2750     2.7280 H     1 <1>   0.1500 
@<TRIPOS>BOND
  1   1   2  2   
  2   2   3  am  
  3   2   4  1   
  4   3   5  1   
  5   3   6  1   
  6   4   7  1   
  7   4  24  1   
  8   4  25  1   
  9   5   8  1   
 10   5  26  1   
 11   5  27  1   
 12   6  28  1   
 13   6  29  1   
 14   6  30  1   
 15   7   8  1   
 16   7   9  1   
 17   7  31  1   
 18   8  10  1   
 19   8  32  1   
 20   9  11  1   
 21   9  33  1   
 22   9  34  1   
 23  10  11  1   
 24  10  35  1   
 25  10  36  1   
 26  11  12  1   
 27  11  37  1   
 28  12  13  1   
 29  12  14  1   
 30  12  38  1   
 31  13  15  1   
 32  13  39  1   
 33  13  40  1   
 34  14  41  1   
 35  14  42  1   
 36  14  43  1   
 37  15  16  1   
 38  15  44  1   
 39  15  45  1   
 40  16  17  1   
 41  16  46  1   
 42  16  47  1   
 43  17  18  1   
 44  17  48  1   
 45  17  49  1   
 46  18  19  ar  
 47  18  20  ar  
 48  19  21  ar  
 49  19  50  1   
 50  20  22  ar  
 51  20  51  1   
 52  21  23  ar  
 53  21  52  1   
 54  22  23  ar  
 55  22  53  1   
 56  23  54  1   
@<TRIPOS>SUBSTRUCTURE
  1 ****  13 GROUP 4 **** **** 0

# MOE 2024.06 (io_trps.svl 2023.06)
