@<TRIPOS>MOLECULE
NONAME
45 47 1 0 0 
SMALL
USER_CHARGES


@<TRIPOS>ATOM
  1 O       -0.1810     1.1440     1.6220 O.2   1 <1>  -0.5700 
  2 C       -0.0460     2.2990     1.2630 C.2   1 <1>   0.5440 
  3 N       -1.1670     3.0920     1.1150 N.am  1 <1>  -0.6600 
  4 C        1.2890     2.7940     0.9890 C.ar  1 <1>   0.0860 
  5 C       -2.5110     2.6420     1.5880 C.3   1 <1>   0.1400 
  6 C       -1.2080     4.3370     0.3000 C.3   1 <1>   0.1400 
  7 C        2.1490     2.1030     0.1390 C.ar  1 <1>  -0.1500 
  8 C        1.7770     3.9640     1.5660 C.ar  1 <1>  -0.1500 
  9 C       -3.4390     2.3520     0.3930 C.3   1 <1>   0.0000 
 10 C       -2.1140     4.1280    -0.9190 C.3   1 <1>  -0.1600 
 11 C        3.4220     2.5650    -0.1370 C.ar  1 <1>  -0.1500 
 12 C        3.0490     4.4270     1.2890 C.ar  1 <1>  -0.1500 
 13 C       -4.8200     1.8800     0.8900 C.3   1 <1>   0.2000 
 14 C       -3.5090     3.6090    -0.5220 C.3   1 <1>  -0.1600 
 15 C       -2.9800     1.1170    -0.4030 C.3   1 <1>  -0.1600 
 16 C        3.9130     3.7460     0.4280 C.ar  1 <1>   0.0860 
 17 O       -5.6650     2.9250     1.2180 O.3   1 <1>  -0.6800 
 18 C       -5.4250     1.0460    -0.2390 C.3   1 <1>  -0.1600 
 19 C       -4.2380     0.5690    -1.0870 C.3   1 <1>  -0.1600 
 20 C        5.2390     4.2680     0.1610 C.2   1 <1>   0.4230 
 21 O        5.6250     5.3260     0.5830 O.2   1 <1>  -0.5700 
 22 C        6.2200     3.4780    -0.6840 C.3   1 <1>  -0.1790 
 23 H       -2.4190     1.7650     2.2060 H     1 <1>   0.0800 
 24 H       -2.9440     3.4190     2.1950 H     1 <1>   0.0800 
 25 H       -1.5930     5.1380     0.9080 H     1 <1>   0.0800 
 26 H       -0.2250     4.6130    -0.0380 H     1 <1>   0.0800 
 27 H        1.8000     1.1860    -0.3050 H     1 <1>   0.1500 
 28 H        1.1440     4.5120     2.2430 H     1 <1>   0.1500 
 29 H       -2.2180     5.0620    -1.4410 H     1 <1>   0.0800 
 30 H       -1.6370     3.4400    -1.5930 H     1 <1>   0.0800 
 31 H        4.0370     1.9880    -0.8050 H     1 <1>   0.1500 
 32 H        3.3910     5.3380     1.7520 H     1 <1>   0.1500 
 33 H       -4.7030     1.2620     1.7650 H     1 <1>   0.0800 
 34 H       -4.0800     3.4010    -1.4090 H     1 <1>   0.0800 
 35 H       -4.0040     4.4050     0.0060 H     1 <1>   0.0800 
 36 H       -2.1970     1.3260    -1.1080 H     1 <1>   0.0800 
 37 H       -2.6110     0.3720     0.2820 H     1 <1>   0.0800 
 38 H       -5.8320     3.4660     0.4250 H     1 <1>   0.4000 
 39 H       -5.9630     0.2090     0.1700 H     1 <1>   0.0800 
 40 H       -6.0880     1.6350    -0.8480 H     1 <1>   0.0800 
 41 H       -4.2020    -0.5060    -1.1500 H     1 <1>   0.0800 
 42 H       -4.3170     0.9720    -2.0820 H     1 <1>   0.0800 
 43 H        6.3700     2.5020    -0.2610 H     1 <1>   0.0800 
 44 H        7.1670     3.9860    -0.7130 H     1 <1>   0.0800 
 45 H        5.8510     3.3880    -1.6890 H     1 <1>   0.0800 
@<TRIPOS>BOND
  1   1   2  2   
  2   2   3  am  
  3   2   4  1   
  4   3   5  1   
  5   3   6  1   
  6   4   7  ar  
  7   4   8  ar  
  8   5   9  1   
  9   5  23  1   
 10   5  24  1   
 11   6  10  1   
 12   6  25  1   
 13   6  26  1   
 14   7  11  ar  
 15   7  27  1   
 16   8  12  ar  
 17   8  28  1   
 18   9  13  1   
 19   9  14  1   
 20   9  15  1   
 21  10  14  1   
 22  10  29  1   
 23  10  30  1   
 24  11  16  ar  
 25  11  31  1   
 26  12  16  ar  
 27  12  32  1   
 28  13  17  1   
 29  13  18  1   
 30  13  33  1   
 31  14  34  1   
 32  14  35  1   
 33  15  19  1   
 34  15  36  1   
 35  15  37  1   
 36  16  20  1   
 37  17  38  1   
 38  18  19  1   
 39  18  39  1   
 40  18  40  1   
 41  19  41  1   
 42  19  42  1   
 43  20  21  2   
 44  20  22  1   
 45  22  43  1   
 46  22  44  1   
 47  22  45  1   
@<TRIPOS>SUBSTRUCTURE
  1 ****   2 GROUP 4 **** **** 0

# MOE 2024.06 (io_trps.svl 2023.06)
