@<TRIPOS>MOLECULE
NONAME
60 63 1 0 0 
SMALL
USER_CHARGES


@<TRIPOS>ATOM
  1 O       -0.3090     0.2410     0.4880 O.2   1 <1>  -0.5700 
  2 C       -1.3200     0.8640     0.2780 C.2   1 <1>   0.5690 
  3 N       -2.5130     0.2130     0.0840 N.am  1 <1>  -0.6600 
  4 C       -1.1560     2.3890     0.2270 C.3   1 <1>  -0.0190 
  5 C       -3.8710     0.7650    -0.1490 C.3   1 <1>   0.1400 
  6 C       -2.5630    -1.2760     0.0580 C.3   1 <1>   0.1400 
  7 C       -2.0270     3.1830     1.2160 C.3   1 <1>  -0.1600 
  8 C       -1.2830     2.9660    -1.1930 C.3   1 <1>  -0.1600 
  9 C       -4.7330    -0.4370    -0.5300 C.3   1 <1>   0.2000 
 10 C       -4.0480    -1.6440     0.1020 C.3   1 <1>  -0.0800 
 11 C       -1.6830     4.6710     1.1600 C.3   1 <1>   0.3430 
 12 C       -0.9670     4.4610    -1.2050 C.3   1 <1>   0.3430 
 13 O       -6.0240    -0.3060    -0.0450 O.3   1 <1>  -0.6800 
 14 C       -4.3940    -2.9630    -0.6120 C.3   1 <1>  -0.0160 
 15 N       -1.8520     5.1800    -0.2390 N.4   1 <1>  -0.9590 
 16 C       -3.7230    -4.1560     0.0500 C.ar  1 <1>   0.1670 
 17 C       -1.6910     6.6590    -0.3730 C.3   1 <1>   0.4230 
 18 N       -2.4610    -4.3790    -0.2770 N.ar  1 <1>  -0.6200 
 19 C       -4.4350    -4.9470     0.9500 C.ar  1 <1>   0.1600 
 20 C       -0.3480     7.1670     0.1810 C.3   1 <1>  -0.1600 
 21 C       -2.8700     7.3800     0.2930 C.3   1 <1>  -0.1600 
 22 C       -1.9610    -5.4290     0.3530 C.ar  1 <1>   0.1600 
 23 N       -3.9380    -5.9980     1.5810 N.ar  1 <1>  -0.6200 
 24 C       -0.2260     8.6860    -0.0110 C.3   1 <1>  -0.1600 
 25 C       -2.7540     8.9000     0.1040 C.3   1 <1>  -0.1600 
 26 C       -2.6760    -6.2120     1.2510 C.ar  1 <1>   0.1600 
 27 C       -1.4100     9.4230     0.6280 C.3   1 <1>  -0.1600 
 28 H       -0.1360     2.5650     0.5290 H     1 <1>   0.0800 
 29 H       -4.2370     1.1990     0.7630 H     1 <1>   0.0800 
 30 H       -3.8710     1.4850    -0.9450 H     1 <1>   0.0800 
 31 H       -2.1080    -1.6250    -0.8540 H     1 <1>   0.0800 
 32 H       -2.0290    -1.6970     0.8940 H     1 <1>   0.0800 
 33 H       -1.8510     2.8190     2.2130 H     1 <1>   0.0800 
 34 H       -3.0710     3.0640     1.0040 H     1 <1>   0.0800 
 35 H       -2.2650     2.8040    -1.5930 H     1 <1>   0.0800 
 36 H       -0.5860     2.4590    -1.8400 H     1 <1>   0.0800 
 37 H       -4.7780    -0.5280    -1.6020 H     1 <1>   0.0800 
 38 H       -4.3250    -1.7140     1.1390 H     1 <1>   0.0800 
 39 H       -0.6630     4.8140     1.4800 H     1 <1>   0.0800 
 40 H       -2.3270     5.2110     1.8350 H     1 <1>   0.0800 
 41 H       -1.1110     4.8500    -2.2010 H     1 <1>   0.0800 
 42 H        0.0660     4.6090    -0.9320 H     1 <1>   0.0800 
 43 H       -6.0380    -0.3680     0.9300 H     1 <1>   0.4000 
 44 H       -4.0850    -2.9160    -1.6410 H     1 <1>   0.0800 
 45 H       -5.4600    -3.1010    -0.6030 H     1 <1>   0.0800 
 46 H       -2.8190     4.9760    -0.5150 H     1 <1>   0.4500 
 47 H       -1.7220     6.9080    -1.4220 H     1 <1>   0.0800 
 48 H       -5.4610    -4.7000     1.1590 H     1 <1>   0.1500 
 49 H       -0.2690     6.9600     1.2330 H     1 <1>   0.0800 
 50 H        0.4730     6.6940    -0.3270 H     1 <1>   0.0800 
 51 H       -3.7970     7.0500    -0.1420 H     1 <1>   0.0800 
 52 H       -2.8910     7.1760     1.3490 H     1 <1>   0.0800 
 53 H       -0.9360    -5.6830     0.1490 H     1 <1>   0.1500 
 54 H        0.6920     9.0350     0.4320 H     1 <1>   0.0800 
 55 H       -0.1880     8.9190    -1.0620 H     1 <1>   0.0800 
 56 H       -2.8470     9.1460    -0.9410 H     1 <1>   0.0800 
 57 H       -3.5570     9.3940     0.6260 H     1 <1>   0.0800 
 58 H       -2.1820    -7.0470     1.7150 H     1 <1>   0.1500 
 59 H       -1.3300    10.4780     0.4190 H     1 <1>   0.0800 
 60 H       -1.3720     9.3050     1.6990 H     1 <1>   0.0800 
@<TRIPOS>BOND
  1   1   2  2   
  2   2   3  am  
  3   2   4  1   
  4   3   5  1   
  5   3   6  1   
  6   4   7  1   
  7   4   8  1   
  8   4  28  1   
  9   5   9  1   
 10   5  29  1   
 11   5  30  1   
 12   6  10  1   
 13   6  31  1   
 14   6  32  1   
 15   7  11  1   
 16   7  33  1   
 17   7  34  1   
 18   8  12  1   
 19   8  35  1   
 20   8  36  1   
 21   9  10  1   
 22   9  13  1   
 23   9  37  1   
 24  10  14  1   
 25  10  38  1   
 26  11  15  1   
 27  11  39  1   
 28  11  40  1   
 29  12  15  1   
 30  12  41  1   
 31  12  42  1   
 32  13  43  1   
 33  14  16  1   
 34  14  44  1   
 35  14  45  1   
 36  15  17  1   
 37  15  46  1   
 38  16  18  ar  
 39  16  19  ar  
 40  17  20  1   
 41  17  21  1   
 42  17  47  1   
 43  18  22  ar  
 44  19  23  ar  
 45  19  48  1   
 46  20  24  1   
 47  20  49  1   
 48  20  50  1   
 49  21  25  1   
 50  21  51  1   
 51  21  52  1   
 52  22  26  ar  
 53  22  53  1   
 54  23  26  ar  
 55  24  27  1   
 56  24  54  1   
 57  24  55  1   
 58  25  27  1   
 59  25  56  1   
 60  25  57  1   
 61  26  58  1   
 62  27  59  1   
 63  27  60  1   
@<TRIPOS>SUBSTRUCTURE
  1 ****   3 GROUP 4 **** **** 0

# MOE 2024.06 (io_trps.svl 2023.06)
