@<TRIPOS>MOLECULE
NONAME
45 47 1 0 0 
SMALL
USER_CHARGES


@<TRIPOS>ATOM
  1 F        1.4720     1.1470    -1.8740 F     1 <1>  -0.1900 
  2 C        1.8990     1.7090    -0.7760 C.ar  1 <1>   0.1900 
  3 C        1.9180     0.9820     0.4010 C.ar  1 <1>   0.1600 
  4 C        2.3260     3.0150    -0.8170 C.ar  1 <1>  -0.1500 
  5 N        2.3360     1.4810     1.5580 N.ar  1 <1>  -0.6200 
  6 C        2.7790     3.5580     0.3790 C.ar  1 <1>   0.0860 
  7 C        2.7390     2.7460     1.5140 C.ar  1 <1>   0.1600 
  8 C        3.2660     4.9150     0.4800 C.2   1 <1>   0.5440 
  9 O        2.7530     5.6590     1.2910 O.2   1 <1>  -0.5700 
 10 N        4.3060     5.3850    -0.2930 N.am  1 <1>  -0.6600 
 11 C        5.2680     4.5210    -1.0540 C.3   1 <1>   0.1400 
 12 C        4.6380     6.8370    -0.3300 C.3   1 <1>   0.1400 
 13 C        6.5980     4.3260    -0.3090 C.3   1 <1>   0.1400 
 14 C        5.5040     7.2580     0.8660 C.3   1 <1>  -0.1600 
 15 N        7.2300     5.6260     0.0770 N.am  1 <1>  -0.6600 
 16 C        6.6070     6.2700     1.2670 C.3   1 <1>   0.1400 
 17 C        8.2540     6.1560    -0.6640 C.2   1 <1>   0.5690 
 18 O        8.6270     5.6280    -1.6860 O.2   1 <1>  -0.5700 
 19 C        8.9360     7.4400    -0.2140 C.3   1 <1>  -0.0990 
 20 C       10.0940     7.8770    -1.1220 C.3   1 <1>   0.0210 
 21 C       10.7170     9.1570    -0.5990 C.2   1 <1>  -0.1810 
 22 C       10.1750    10.4370    -0.6740 C.2   1 <1>   0.1390 
 23 C       11.8960     9.3220     0.0350 C.2   1 <1>  -0.3020 
 24 N       10.9430    11.3300    -0.1280 N.2   1 <1>  -0.7070 
 25 N       12.0130    10.6370     0.3080 N.pl3 1 <1>   0.3000 
 26 H        1.5760    -0.0390     0.3880 H     1 <1>   0.1500 
 27 H        2.3070     3.5870    -1.7280 H     1 <1>   0.1500 
 28 H        3.0660     3.1820     2.4440 H     1 <1>   0.1500 
 29 H        5.4700     4.9690    -2.0120 H     1 <1>   0.0800 
 30 H        4.8420     3.5530    -1.2420 H     1 <1>   0.0800 
 31 H        3.7270     7.4130    -0.3310 H     1 <1>   0.0800 
 32 H        5.1620     7.0580    -1.2440 H     1 <1>   0.0800 
 33 H        7.2680     3.7680    -0.9400 H     1 <1>   0.0800 
 34 H        6.4300     3.7320     0.5720 H     1 <1>   0.0800 
 35 H        4.8620     7.4070     1.7160 H     1 <1>   0.0800 
 36 H        5.9440     8.2130     0.6460 H     1 <1>   0.0800 
 37 H        6.1730     5.5060     1.8900 H     1 <1>   0.0800 
 38 H        7.3520     6.7720     1.8590 H     1 <1>   0.0800 
 39 H        9.3190     7.2940     0.7780 H     1 <1>   0.0800 
 40 H        8.2040     8.2240    -0.1860 H     1 <1>   0.0800 
 41 H        9.7380     8.0360    -2.1250 H     1 <1>   0.0800 
 42 H       10.8400     7.1020    -1.1540 H     1 <1>   0.0800 
 43 H        9.2280    10.6730    -1.1290 H     1 <1>   0.1500 
 44 H       12.6430     8.5970     0.3020 H     1 <1>   0.1500 
 45 H       12.8010    11.0910     0.7840 H     1 <1>   0.2700 
@<TRIPOS>BOND
  1   1   2  1   
  2   2   3  ar  
  3   2   4  ar  
  4   3   5  ar  
  5   3  26  1   
  6   4   6  ar  
  7   4  27  1   
  8   5   7  ar  
  9   6   7  ar  
 10   6   8  1   
 11   7  28  1   
 12   8   9  2   
 13   8  10  am  
 14  10  11  1   
 15  10  12  1   
 16  11  13  1   
 17  11  29  1   
 18  11  30  1   
 19  12  14  1   
 20  12  31  1   
 21  12  32  1   
 22  13  15  1   
 23  13  33  1   
 24  13  34  1   
 25  14  16  1   
 26  14  35  1   
 27  14  36  1   
 28  15  16  1   
 29  15  17  am  
 30  16  37  1   
 31  16  38  1   
 32  17  18  2   
 33  17  19  1   
 34  19  20  1   
 35  19  39  1   
 36  19  40  1   
 37  20  21  1   
 38  20  41  1   
 39  20  42  1   
 40  21  22  1   
 41  21  23  2   
 42  22  24  2   
 43  22  43  1   
 44  23  25  1   
 45  23  44  1   
 46  24  25  1   
 47  25  45  1   
@<TRIPOS>SUBSTRUCTURE
  1 ****  15 GROUP 4 **** **** 0

# MOE 2024.06 (io_trps.svl 2023.06)
