@<TRIPOS>MOLECULE
NONAME
50 53 1 0 0 
SMALL
USER_CHARGES


@<TRIPOS>ATOM
  1 O       -0.2280     0.4980    -1.2220 O.3   1 <1>  -0.6800 
  2 C        0.7690    -0.4660    -1.2690 C.3   1 <1>   0.2000 
  3 C        0.6160    -1.3510    -0.0260 C.3   1 <1>  -0.0800 
  4 C        2.1150     0.2560    -1.1120 C.3   1 <1>   0.3430 
  5 C        1.4800    -0.6350     1.0120 C.3   1 <1>   0.3430 
  6 C        1.0070    -2.8350    -0.2560 C.3   1 <1>  -0.0170 
  7 N        2.6250    -0.0970     0.2460 N.4   1 <1>  -0.9590 
  8 C        2.4980    -3.1660    -0.3150 C.ar  1 <1>   0.1670 
  9 C        3.4140     0.9660     0.8930 C.3   1 <1>   0.5240 
 10 N        3.2370    -2.5270    -1.1710 N.ar  1 <1>  -0.6200 
 11 C        3.0040    -4.1570     0.5430 C.ar  1 <1>  -0.1500 
 12 C        4.7540     0.9810     0.2030 C.2   1 <1>  -0.1810 
 13 C        4.5550    -2.8510    -1.2540 C.ar  1 <1>   0.3100 
 14 C        4.3210    -4.4960     0.4910 C.ar  1 <1>  -0.1500 
 15 C        5.8640     0.2530     0.4630 C.2   1 <1>  -0.3320 
 16 C        5.0960     1.7760    -0.8850 C.2   1 <1>   0.1390 
 17 C        5.1450    -3.8390    -0.4360 C.ar  1 <1>   0.0000 
 18 C        5.3690    -2.1770    -2.1790 C.ar  1 <1>  -0.1500 
 19 N        6.7920     0.6250    -0.4490 N.pl3 1 <1>   0.3140 
 20 C        6.1130    -0.7900     1.5440 C.3   1 <1>  -0.0600 
 21 N        6.3060     1.5580    -1.2840 N.2   1 <1>  -0.7070 
 22 C        6.5160    -4.1240    -0.5860 C.ar  1 <1>  -0.1500 
 23 C        6.7000    -2.4690    -2.3090 C.ar  1 <1>  -0.1500 
 24 C        8.1780     0.1530    -0.5690 C.3   1 <1>   0.0160 
 25 C        7.2800    -3.4550    -1.5040 C.ar  1 <1>  -0.1500 
 26 H       -1.0820     0.1410    -1.5460 H     1 <1>   0.4000 
 27 H        0.6980    -0.9960    -2.2050 H     1 <1>   0.0800 
 28 H       -0.4100    -1.3480     0.3030 H     1 <1>   0.0800 
 29 H        1.9680     1.3180    -1.2130 H     1 <1>   0.0800 
 30 H        2.8120    -0.0850    -1.8600 H     1 <1>   0.0800 
 31 H        1.8020    -1.3010     1.7960 H     1 <1>   0.0800 
 32 H        0.9160     0.1800     1.4370 H     1 <1>   0.0800 
 33 H        0.5550    -3.1800    -1.1690 H     1 <1>   0.0800 
 34 H        0.5640    -3.4140     0.5340 H     1 <1>   0.0800 
 35 H        3.2750    -0.8860     0.0610 H     1 <1>   0.4500 
 36 H        2.9220     1.9210     0.8040 H     1 <1>   0.0800 
 37 H        3.5580     0.7390     1.9360 H     1 <1>   0.0800 
 38 H        2.3460    -4.6560     1.2330 H     1 <1>   0.1500 
 39 H        4.7390    -5.2560     1.1290 H     1 <1>   0.1500 
 40 H        4.4500     2.4950    -1.3610 H     1 <1>   0.1500 
 41 H        4.9170    -1.4200    -2.7930 H     1 <1>   0.1500 
 42 H        5.2270    -0.9630     2.1260 H     1 <1>   0.0800 
 43 H        6.8940    -0.4560     2.2040 H     1 <1>   0.0800 
 44 H        6.4140    -1.7210     1.1000 H     1 <1>   0.0800 
 45 H        6.9560    -4.8870     0.0330 H     1 <1>   0.1500 
 46 H        7.3090    -1.9480    -3.0290 H     1 <1>   0.1500 
 47 H        8.2150    -0.9050    -0.3960 H     1 <1>   0.0800 
 48 H        8.7850     0.6650     0.1530 H     1 <1>   0.0800 
 49 H        8.5370     0.3690    -1.5580 H     1 <1>   0.0800 
 50 H        8.3270    -3.6800    -1.6220 H     1 <1>   0.1500 
@<TRIPOS>BOND
  1   1   2  1   
  2   1  26  1   
  3   2   3  1   
  4   2   4  1   
  5   2  27  1   
  6   3   5  1   
  7   3   6  1   
  8   3  28  1   
  9   4   7  1   
 10   4  29  1   
 11   4  30  1   
 12   5   7  1   
 13   5  31  1   
 14   5  32  1   
 15   6   8  1   
 16   6  33  1   
 17   6  34  1   
 18   7   9  1   
 19   7  35  1   
 20   8  10  ar  
 21   8  11  ar  
 22   9  12  1   
 23   9  36  1   
 24   9  37  1   
 25  10  13  ar  
 26  11  14  ar  
 27  11  38  1   
 28  12  15  2   
 29  12  16  1   
 30  13  17  ar  
 31  13  18  ar  
 32  14  17  ar  
 33  14  39  1   
 34  15  19  1   
 35  15  20  1   
 36  16  21  2   
 37  16  40  1   
 38  17  22  ar  
 39  18  23  ar  
 40  18  41  1   
 41  19  21  1   
 42  19  24  1   
 43  20  42  1   
 44  20  43  1   
 45  20  44  1   
 46  22  25  ar  
 47  22  45  1   
 48  23  25  ar  
 49  23  46  1   
 50  24  47  1   
 51  24  48  1   
 52  24  49  1   
 53  25  50  1   
@<TRIPOS>SUBSTRUCTURE
  1 ****  10 GROUP 4 **** **** 0

# MOE 2024.06 (io_trps.svl 2023.06)
