@<TRIPOS>MOLECULE
NONAME
42 43 1 0 0 
SMALL
USER_CHARGES


@<TRIPOS>ATOM
  1 S        1.5720    -0.6520    -1.8450 S.3   1 <1>  -0.0800 
  2 C        1.6250    -1.5030    -0.3250 C.2   1 <1>  -0.1400 
  3 C        2.1600     0.7790    -1.0280 C.2   1 <1>   0.2280 
  4 C        2.0630    -0.6620     0.6270 C.2   1 <1>   0.0460 
  5 C        1.1930    -2.9500    -0.3170 C.3   1 <1>   0.5230 
  6 N        2.3600     0.6240     0.2190 N.2   1 <1>  -0.5650 
  7 C        2.2630    -0.9560     2.1000 C.3   1 <1>  -0.0590 
  8 N       -0.2610    -3.0260    -0.5600 N.4   1 <1>  -0.9590 
  9 C       -0.7000    -4.4500    -0.7480 C.3   1 <1>   0.3430 
 10 C       -1.0370    -2.3360     0.5220 C.3   1 <1>   0.3430 
 11 C       -2.1990    -4.4920    -1.1060 C.3   1 <1>   0.2000 
 12 C       -2.5440    -2.4050     0.2420 C.3   1 <1>  -0.1600 
 13 O       -2.3680    -3.7550    -2.2810 O.3   1 <1>  -0.6800 
 14 C       -3.0120    -3.8780     0.0600 C.3   1 <1>  -0.1060 
 15 C       -2.6140    -4.7020     1.3030 C.2   1 <1>   0.9060 
 16 C       -4.5550    -3.9880    -0.1050 C.3   1 <1>  -0.1600 
 17 O       -2.3680    -4.1230     2.3640 O.co2 1 <1>  -0.9000 
 18 O       -2.3880    -5.9070     1.1590 O.co2 1 <1>  -0.9000 
 19 C       -5.2210    -3.2050    -1.2520 C.3   1 <1>  -0.1600 
 20 C       -6.7460    -3.2970    -1.1490 C.3   1 <1>  -0.2400 
 21 H        2.3050     1.6640    -1.6240 H     1 <1>   0.1500 
 22 H        1.4230    -3.3960     0.6370 H     1 <1>   0.0800 
 23 H        1.7270    -3.4870    -1.0840 H     1 <1>   0.0800 
 24 H        1.9960    -1.9680     2.3390 H     1 <1>   0.0800 
 25 H        1.6550    -0.2900     2.6860 H     1 <1>   0.0800 
 26 H        3.2930    -0.7950     2.3620 H     1 <1>   0.0800 
 27 H       -0.4990    -2.5550    -1.4440 H     1 <1>   0.4500 
 28 H       -0.1460    -4.9140    -1.5450 H     1 <1>   0.0800 
 29 H       -0.5250    -5.0170     0.1530 H     1 <1>   0.0800 
 30 H       -0.8280    -2.8020     1.4720 H     1 <1>   0.0800 
 31 H       -0.7390    -1.3020     0.5890 H     1 <1>   0.0800 
 32 H       -2.5070    -5.5080    -1.2940 H     1 <1>   0.0800 
 33 H       -3.0630    -1.9700     1.0790 H     1 <1>   0.0800 
 34 H       -2.7690    -1.8060    -0.6200 H     1 <1>   0.0800 
 35 H       -3.3240    -3.7160    -2.4840 H     1 <1>   0.4000 
 36 H       -4.8100    -5.0300    -0.2050 H     1 <1>   0.0800 
 37 H       -4.9950    -3.6580     0.8220 H     1 <1>   0.0800 
 38 H       -4.9390    -2.1680    -1.2160 H     1 <1>   0.0800 
 39 H       -4.9320    -3.6100    -2.2040 H     1 <1>   0.0800 
 40 H       -7.0870    -2.8720    -0.2210 H     1 <1>   0.0800 
 41 H       -7.0660    -4.3230    -1.1960 H     1 <1>   0.0800 
 42 H       -7.2050    -2.7580    -1.9590 H     1 <1>   0.0800 
@<TRIPOS>BOND
  1   1   2  1   
  2   1   3  1   
  3   2   4  2   
  4   2   5  1   
  5   3   6  2   
  6   3  21  1   
  7   4   6  1   
  8   4   7  1   
  9   5   8  1   
 10   5  22  1   
 11   5  23  1   
 12   7  24  1   
 13   7  25  1   
 14   7  26  1   
 15   8   9  1   
 16   8  10  1   
 17   8  27  1   
 18   9  11  1   
 19   9  28  1   
 20   9  29  1   
 21  10  12  1   
 22  10  30  1   
 23  10  31  1   
 24  11  13  1   
 25  11  14  1   
 26  11  32  1   
 27  12  14  1   
 28  12  33  1   
 29  12  34  1   
 30  13  35  1   
 31  14  15  1   
 32  14  16  1   
 33  15  17  ar  
 34  15  18  ar  
 35  16  19  1   
 36  16  36  1   
 37  16  37  1   
 38  19  20  1   
 39  19  38  1   
 40  19  39  1   
 41  20  40  1   
 42  20  41  1   
 43  20  42  1   
@<TRIPOS>SUBSTRUCTURE
  1 ****  10 GROUP 4 **** **** 0

# MOE 2024.06 (io_trps.svl 2023.06)
