@<TRIPOS>MOLECULE
NONAME
57 60 1 0 0 
SMALL
USER_CHARGES


@<TRIPOS>ATOM
  1 O       -4.1060     3.4990    -1.0070 O.2   1 <1>  -0.5700 
  2 C       -3.5970     2.6660    -0.2830 C.2   1 <1>   0.5440 
  3 N       -4.1810     1.4220    -0.1700 N.am  1 <1>  -0.6600 
  4 C       -2.3920     2.9830     0.4370 C.ar  1 <1>   0.0860 
  5 C       -3.6370     0.3070     0.6680 C.3   1 <1>   0.1400 
  6 C       -5.4110     1.0350    -0.9270 C.3   1 <1>   0.1400 
  7 C       -1.1270     2.6540    -0.0710 C.ar  1 <1>   0.0000 
  8 C       -2.3880     3.5780     1.6810 C.ar  1 <1>  -0.1500 
  9 C       -3.5220    -0.9940    -0.1480 C.3   1 <1>   0.3440 
 10 C       -5.2060    -0.3110    -1.6600 C.3   1 <1>   0.2000 
 11 C       -0.0150     2.8800     0.7100 C.ar  1 <1>   0.1050 
 12 C       -0.6090     2.0910    -1.2520 C.2   1 <1>   0.1080 
 13 C       -1.1930     3.7860     2.3790 C.ar  1 <1>   0.1660 
 14 O       -4.7490    -1.2880    -0.7620 O.3   1 <1>  -0.5600 
 15 C       -3.1020    -2.1500     0.7540 C.ar  1 <1>  -0.1440 
 16 C       -6.4760    -0.8590    -2.3530 C.3   1 <1>  -0.0800 
 17 N       -0.0120     3.4420     1.9320 N.ar  1 <1>  -0.5670 
 18 N        1.0480     2.4260    -0.0110 N.pl3 1 <1>   0.3140 
 19 N        0.6710     1.9370    -1.2150 N.2   1 <1>  -0.7070 
 20 C       -1.4290     1.7190    -2.4680 C.3   1 <1>  -0.0590 
 21 C       -1.2300     4.4410     3.7440 C.3   1 <1>  -0.0970 
 22 C       -1.7520    -2.4300     0.9190 C.ar  1 <1>  -0.1500 
 23 C       -4.0380    -2.9220     1.4280 C.ar  1 <1>  -0.1500 
 24 C       -6.9760     0.0810    -3.4610 C.3   1 <1>  -0.2400 
 25 C       -7.6270    -1.1670    -1.3800 C.3   1 <1>  -0.2400 
 26 C        2.4530     2.4660     0.4130 C.3   1 <1>   0.0160 
 27 C       -1.3460    -3.4640     1.7460 C.ar  1 <1>  -0.1500 
 28 C       -3.6330    -3.9560     2.2540 C.ar  1 <1>  -0.1500 
 29 C       -2.2860    -4.2270     2.4140 C.ar  1 <1>  -0.1500 
 30 H       -2.6690     0.5510     1.0640 H     1 <1>   0.0800 
 31 H       -4.2980     0.1360     1.4990 H     1 <1>   0.0800 
 32 H       -6.2290     0.9530    -0.2360 H     1 <1>   0.0800 
 33 H       -5.6620     1.7960    -1.6440 H     1 <1>   0.0800 
 34 H       -3.3220     3.8790     2.1190 H     1 <1>   0.1500 
 35 H       -2.7870    -0.8730    -0.9230 H     1 <1>   0.0800 
 36 H       -4.4460    -0.1800    -2.4110 H     1 <1>   0.0800 
 37 H       -6.1910    -1.7840    -2.8260 H     1 <1>   0.0800 
 38 H       -2.0160     2.5620    -2.7850 H     1 <1>   0.0800 
 39 H       -2.0830     0.9010    -2.2400 H     1 <1>   0.0800 
 40 H       -0.7790     1.4300    -3.2740 H     1 <1>   0.0800 
 41 H       -2.2340     4.7000     4.0270 H     1 <1>   0.0800 
 42 H       -0.6330     5.3350     3.7290 H     1 <1>   0.0800 
 43 H       -0.8250     3.7680     4.4770 H     1 <1>   0.0800 
 44 H       -1.0080    -1.8460     0.4060 H     1 <1>   0.1500 
 45 H       -5.0890    -2.7210     1.3060 H     1 <1>   0.1500 
 46 H       -7.3420     1.0060    -3.0520 H     1 <1>   0.0800 
 47 H       -7.7770    -0.3860    -4.0060 H     1 <1>   0.0800 
 48 H       -6.1830     0.3000    -4.1550 H     1 <1>   0.0800 
 49 H       -8.0070    -0.2700    -0.9250 H     1 <1>   0.0800 
 50 H       -7.2920    -1.8320    -0.6030 H     1 <1>   0.0800 
 51 H       -8.4340    -1.6480    -1.9040 H     1 <1>   0.0800 
 52 H        2.5380     2.0270     1.3880 H     1 <1>   0.0800 
 53 H        2.7770     3.4890     0.4460 H     1 <1>   0.0800 
 54 H        3.0510     1.9170    -0.2900 H     1 <1>   0.0800 
 55 H       -0.2980    -3.6740     1.8680 H     1 <1>   0.1500 
 56 H       -4.3670    -4.5500     2.7700 H     1 <1>   0.1500 
 57 H       -1.9700    -5.0310     3.0560 H     1 <1>   0.1500 
@<TRIPOS>BOND
  1   1   2  2   
  2   2   3  am  
  3   2   4  1   
  4   3   5  1   
  5   3   6  1   
  6   4   7  ar  
  7   4   8  ar  
  8   5   9  1   
  9   5  30  1   
 10   5  31  1   
 11   6  10  1   
 12   6  32  1   
 13   6  33  1   
 14   7  11  ar  
 15   7  12  1   
 16   8  13  ar  
 17   8  34  1   
 18   9  14  1   
 19   9  15  1   
 20   9  35  1   
 21  10  14  1   
 22  10  16  1   
 23  10  36  1   
 24  11  17  ar  
 25  11  18  1   
 26  12  19  2   
 27  12  20  1   
 28  13  17  ar  
 29  13  21  1   
 30  15  22  ar  
 31  15  23  ar  
 32  16  24  1   
 33  16  25  1   
 34  16  37  1   
 35  18  19  1   
 36  18  26  1   
 37  20  38  1   
 38  20  39  1   
 39  20  40  1   
 40  21  41  1   
 41  21  42  1   
 42  21  43  1   
 43  22  27  ar  
 44  22  44  1   
 45  23  28  ar  
 46  23  45  1   
 47  24  46  1   
 48  24  47  1   
 49  24  48  1   
 50  25  49  1   
 51  25  50  1   
 52  25  51  1   
 53  26  52  1   
 54  26  53  1   
 55  26  54  1   
 56  27  29  ar  
 57  27  55  1   
 58  28  29  ar  
 59  28  56  1   
 60  29  57  1   
@<TRIPOS>SUBSTRUCTURE
  1 ****   5 GROUP 4 **** **** 0

# MOE 2024.06 (io_trps.svl 2023.06)
