@<TRIPOS>MOLECULE
NONAME
44 46 1 0 0 
SMALL
USER_CHARGES


@<TRIPOS>ATOM
  1 O       -2.1250     0.5110    -2.0770 O.2   1 <1>  -0.5700 
  2 C       -2.0080     0.6600    -0.8770 C.2   1 <1>   0.5440 
  3 N       -2.0360    -0.4490    -0.0840 N.am  1 <1>  -0.7300 
  4 C       -1.8650     1.9730    -0.2830 C.ar  1 <1>   0.0860 
  5 C       -2.1210    -1.8490    -0.5660 C.3   1 <1>   0.2200 
  6 C       -0.9330     2.9190    -0.7310 C.ar  1 <1>   0.1660 
  7 C       -2.6730     2.3400     0.7870 C.ar  1 <1>  -0.1500 
  8 C       -3.5180    -2.4220    -0.3630 C.3   1 <1>  -0.0800 
  9 C       -1.3180    -2.7390     0.3710 C.3   1 <1>   0.1200 
 10 N       -0.7720     4.1250    -0.2080 N.ar  1 <1>  -0.6200 
 11 C       -0.0010     2.6100    -1.8910 C.3   1 <1>  -0.0970 
 12 C       -2.5090     3.5920     1.3340 C.ar  1 <1>  -0.1500 
 13 C       -3.4860    -2.9070     1.0910 C.3   1 <1>   0.1200 
 14 C       -4.6880    -1.4770    -0.6940 C.3   1 <1>  -0.0170 
 15 O       -2.1420    -2.9310     1.4800 O.3   1 <1>  -0.5600 
 16 C       -1.5540     4.4430     0.8070 C.ar  1 <1>   0.1670 
 17 C       -6.0200    -2.1970    -0.5560 C.ar  1 <1>  -0.1430 
 18 C       -1.3540     5.8270     1.3860 C.3   1 <1>  -0.0970 
 19 C       -6.7980    -2.0940     0.5800 C.ar  1 <1>  -0.1500 
 20 C       -6.5190    -2.9950    -1.5650 C.ar  1 <1>  -0.1500 
 21 C       -8.0000    -2.7800     0.6510 C.ar  1 <1>   0.1600 
 22 C       -7.7340    -3.6380    -1.3940 C.ar  1 <1>   0.1600 
 23 N       -8.4850    -3.5520    -0.3080 N.ar  1 <1>  -0.6200 
 24 H       -1.9280    -0.3670     0.9300 H     1 <1>   0.3700 
 25 H       -1.7850    -1.9220    -1.5870 H     1 <1>   0.0800 
 26 H       -3.4130     1.6630     1.1740 H     1 <1>   0.1500 
 27 H       -3.6060    -3.2930    -0.9890 H     1 <1>   0.0800 
 28 H       -0.3880    -2.2940     0.6790 H     1 <1>   0.0800 
 29 H       -1.1360    -3.7010    -0.0760 H     1 <1>   0.0800 
 30 H        0.3990     1.6170    -1.8050 H     1 <1>   0.0800 
 31 H        0.8200     3.3040    -1.9100 H     1 <1>   0.0800 
 32 H       -0.5410     2.6920    -2.8170 H     1 <1>   0.0800 
 33 H       -3.1190     3.9060     2.1610 H     1 <1>   0.1500 
 34 H       -3.8980    -3.8960     1.1890 H     1 <1>   0.0800 
 35 H       -4.0020    -2.2300     1.7490 H     1 <1>   0.0800 
 36 H       -4.5800    -1.1160    -1.7020 H     1 <1>   0.0800 
 37 H       -4.6770    -0.6210    -0.0430 H     1 <1>   0.0800 
 38 H       -2.0250     6.0080     2.2050 H     1 <1>   0.0800 
 39 H       -1.5280     6.5630     0.6230 H     1 <1>   0.0800 
 40 H       -0.3430     5.9260     1.7360 H     1 <1>   0.0800 
 41 H       -6.4840    -1.4890     1.4100 H     1 <1>   0.1500 
 42 H       -5.9760    -3.1210    -2.4830 H     1 <1>   0.1500 
 43 H       -8.5930    -2.6890     1.5450 H     1 <1>   0.1500 
 44 H       -8.1070    -4.2560    -2.1920 H     1 <1>   0.1500 
@<TRIPOS>BOND
  1   1   2  2   
  2   2   3  am  
  3   2   4  1   
  4   3   5  1   
  5   3  24  1   
  6   4   6  ar  
  7   4   7  ar  
  8   5   8  1   
  9   5   9  1   
 10   5  25  1   
 11   6  10  ar  
 12   6  11  1   
 13   7  12  ar  
 14   7  26  1   
 15   8  13  1   
 16   8  14  1   
 17   8  27  1   
 18   9  15  1   
 19   9  28  1   
 20   9  29  1   
 21  10  16  ar  
 22  11  30  1   
 23  11  31  1   
 24  11  32  1   
 25  12  16  ar  
 26  12  33  1   
 27  13  15  1   
 28  13  34  1   
 29  13  35  1   
 30  14  17  1   
 31  14  36  1   
 32  14  37  1   
 33  16  18  1   
 34  17  19  ar  
 35  17  20  ar  
 36  18  38  1   
 37  18  39  1   
 38  18  40  1   
 39  19  21  ar  
 40  19  41  1   
 41  20  22  ar  
 42  20  42  1   
 43  21  23  ar  
 44  21  43  1   
 45  22  23  ar  
 46  22  44  1   
@<TRIPOS>SUBSTRUCTURE
  1 ****   3 GROUP 4 **** **** 0

# MOE 2024.06 (io_trps.svl 2023.06)
