@<TRIPOS>MOLECULE
NONAME
56 59 1 0 0 
SMALL
USER_CHARGES


@<TRIPOS>ATOM
  1 O        0.2280    -0.4980    -0.8370 O.2   1 <1>  -0.5700 
  2 C        1.1480    -1.2530    -0.5840 C.2   1 <1>   0.5440 
  3 N        2.2130    -0.7860     0.1560 N.am  1 <1>  -0.6600 
  4 C        1.0840    -2.6200    -1.0630 C.ar  1 <1>   0.0860 
  5 C        3.1660    -1.6970     0.8630 C.3   1 <1>   0.1400 
  6 C        2.3330     0.6760     0.4400 C.3   1 <1>   0.1400 
  7 C       -0.0370    -3.4070    -0.8840 C.ar  1 <1>  -0.1500 
  8 C        2.1290    -3.2340    -1.7420 C.ar  1 <1>  -0.1500 
  9 C        3.5890    -1.0960     2.2070 C.3   1 <1>  -0.1600 
 10 C        3.7750     1.0410     0.8090 C.3   1 <1>  -0.1600 
 11 C       -0.0750    -4.7150    -1.3450 C.ar  1 <1>   0.4100 
 12 C        2.0060    -4.5420    -2.1640 C.ar  1 <1>   0.1600 
 13 C        4.2740     0.2730     2.0460 C.3   1 <1>  -0.1600 
 14 N        0.9370    -5.2950    -1.9760 N.ar  1 <1>  -0.6200 
 15 N       -1.2090    -5.4620    -1.1450 N.pl3 1 <1>  -0.8690 
 16 C       -1.4440    -6.7140    -1.8870 C.3   1 <1>   0.3040 
 17 C       -2.7630    -7.3250    -1.4040 C.3   1 <1>  -0.1900 
 18 C       -3.5480    -8.1590    -2.3730 C.3   1 <1>  -0.2000 
 19 C       -4.0380    -6.7890    -1.9800 C.3   1 <1>  -0.2000 
 20 C       -2.6750    -7.6940     0.1000 C.3   1 <1>   0.1910 
 21 N       -3.8350    -8.4540     0.6280 N.pl3 1 <1>   0.3140 
 22 N       -4.9030    -7.8280     1.1680 N.2   1 <1>  -0.7070 
 23 C       -3.9740    -9.8000     0.7010 C.2   1 <1>  -0.3320 
 24 C       -5.6930    -8.7800     1.5480 C.2   1 <1>   0.1080 
 25 C       -5.1680   -10.0380     1.2830 C.2   1 <1>  -0.1500 
 26 C       -2.9530   -10.8150     0.2130 C.3   1 <1>  -0.0600 
 27 C       -7.0260    -8.5090     2.2040 C.3   1 <1>  -0.0590 
 28 H        4.0350    -1.8430     0.2460 H     1 <1>   0.0800 
 29 H        2.7020    -2.6530     1.0350 H     1 <1>   0.0800 
 30 H        1.6700     0.9300     1.2490 H     1 <1>   0.0800 
 31 H        2.0290     1.2360    -0.4290 H     1 <1>   0.0800 
 32 H       -0.8920    -2.9990    -0.3800 H     1 <1>   0.1500 
 33 H        3.0290    -2.6830    -1.9420 H     1 <1>   0.1500 
 34 H        4.2520    -1.7730     2.7160 H     1 <1>   0.0800 
 35 H        2.7090    -0.9880     2.8170 H     1 <1>   0.0800 
 36 H        3.8440     2.1000     0.9890 H     1 <1>   0.0800 
 37 H        4.4030     0.8160    -0.0350 H     1 <1>   0.0800 
 38 H        2.8310    -4.9970    -2.6860 H     1 <1>   0.1500 
 39 H        5.3390     0.1390     1.9610 H     1 <1>   0.0800 
 40 H        4.0890     0.8560     2.9320 H     1 <1>   0.0800 
 41 H       -2.0700    -4.9250    -1.0210 H     1 <1>   0.4000 
 42 H       -0.6290    -7.3990    -1.7160 H     1 <1>   0.0800 
 43 H       -1.4890    -6.4970    -2.9420 H     1 <1>   0.0800 
 44 H       -4.1380    -8.9960    -2.0400 H     1 <1>   0.1000 
 45 H       -3.1820    -8.2980    -3.3750 H     1 <1>   0.1000 
 46 H       -3.9980    -6.0000    -2.7110 H     1 <1>   0.1000 
 47 H       -4.9140    -6.7210    -1.3560 H     1 <1>   0.1000 
 48 H       -2.5880    -6.7960     0.6830 H     1 <1>   0.0800 
 49 H       -1.7920    -8.2780     0.2750 H     1 <1>   0.0800 
 50 H       -5.6350   -10.9790     1.5100 H     1 <1>   0.1500 
 51 H       -2.7500   -10.6720    -0.8330 H     1 <1>   0.0800 
 52 H       -3.3290   -11.8130     0.3540 H     1 <1>   0.0800 
 53 H       -2.0370   -10.7160     0.7660 H     1 <1>   0.0800 
 54 H       -7.6420    -7.9350     1.5380 H     1 <1>   0.0800 
 55 H       -6.8710    -7.9480     3.1070 H     1 <1>   0.0800 
 56 H       -7.5220    -9.4310     2.4400 H     1 <1>   0.0800 
@<TRIPOS>BOND
  1   1   2  2   
  2   2   3  am  
  3   2   4  1   
  4   3   5  1   
  5   3   6  1   
  6   4   7  ar  
  7   4   8  ar  
  8   5   9  1   
  9   5  28  1   
 10   5  29  1   
 11   6  10  1   
 12   6  30  1   
 13   6  31  1   
 14   7  11  ar  
 15   7  32  1   
 16   8  12  ar  
 17   8  33  1   
 18   9  13  1   
 19   9  34  1   
 20   9  35  1   
 21  10  13  1   
 22  10  36  1   
 23  10  37  1   
 24  11  14  ar  
 25  11  15  1   
 26  12  14  ar  
 27  12  38  1   
 28  13  39  1   
 29  13  40  1   
 30  15  16  1   
 31  15  41  1   
 32  16  17  1   
 33  16  42  1   
 34  16  43  1   
 35  17  18  1   
 36  17  19  1   
 37  17  20  1   
 38  18  19  1   
 39  18  44  1   
 40  18  45  1   
 41  19  46  1   
 42  19  47  1   
 43  20  21  1   
 44  20  48  1   
 45  20  49  1   
 46  21  22  1   
 47  21  23  1   
 48  22  24  2   
 49  23  25  2   
 50  23  26  1   
 51  24  25  1   
 52  24  27  1   
 53  25  50  1   
 54  26  51  1   
 55  26  52  1   
 56  26  53  1   
 57  27  54  1   
 58  27  55  1   
 59  27  56  1   
@<TRIPOS>SUBSTRUCTURE
  1 ****  15 GROUP 4 **** **** 0

# MOE 2024.06 (io_trps.svl 2023.06)
