@<TRIPOS>MOLECULE
NONAME
55 57 1 0 0 
SMALL
USER_CHARGES


@<TRIPOS>ATOM
  1 O       -2.3460     0.7190    -1.8890 O.2   1 <1>  -0.5700 
  2 C       -2.0620     0.5910    -0.7240 C.2   1 <1>   0.5690 
  3 N       -1.9610    -0.6290    -0.1440 N.am  1 <1>  -0.7300 
  4 C       -1.8120     1.8450     0.1100 C.3   1 <1>  -0.0190 
  5 C       -2.0950    -1.9200    -0.8620 C.3   1 <1>   0.2200 
  6 C       -3.0590     2.7500     0.1230 C.3   1 <1>  -0.1600 
  7 C       -0.5940     2.6180    -0.4320 C.3   1 <1>  -0.1600 
  8 C       -3.4030    -2.6180    -0.5110 C.3   1 <1>  -0.0800 
  9 C       -1.0940    -2.9040    -0.2730 C.3   1 <1>   0.1200 
 10 C       -2.7970     4.0900     0.8090 C.3   1 <1>   0.3430 
 11 C       -0.3990     3.9610     0.2690 C.3   1 <1>   0.3430 
 12 C       -3.0650    -3.3650     0.7860 C.3   1 <1>   0.1200 
 13 C       -4.6460    -1.7140    -0.4190 C.3   1 <1>  -0.0170 
 14 O       -1.6740    -3.3130     0.9270 O.3   1 <1>  -0.5600 
 15 N       -1.6470     4.7690     0.1480 N.4   1 <1>  -0.9590 
 16 C       -5.9000    -2.5410    -0.1810 C.ar  1 <1>  -0.1440 
 17 C       -1.4830     6.1550     0.7010 C.3   1 <1>   0.3430 
 18 C       -6.5620    -3.1650    -1.2180 C.ar  1 <1>  -0.1500 
 19 C       -6.4420    -2.7120     1.0770 C.ar  1 <1>  -0.1500 
 20 C       -0.5290     7.0240    -0.1280 C.3   1 <1>   0.1200 
 21 C       -7.6970    -3.9150    -0.9550 C.ar  1 <1>   0.1600 
 22 C       -7.5820    -3.4830     1.2330 C.ar  1 <1>   0.1600 
 23 O       -0.4920     8.2730     0.4730 O.3   1 <1>  -0.5600 
 24 N       -8.2220    -4.0910     0.2470 N.ar  1 <1>  -0.6200 
 25 C        0.3200     9.2030    -0.1730 C.3   1 <1>   0.0400 
 26 H       -1.7400    -0.7500     0.8470 H     1 <1>   0.3700 
 27 H       -1.6010     1.5430     1.1210 H     1 <1>   0.0800 
 28 H       -1.9640    -1.7880    -1.9230 H     1 <1>   0.0800 
 29 H       -3.8610     2.2440     0.6330 H     1 <1>   0.0800 
 30 H       -3.3920     2.9340    -0.8850 H     1 <1>   0.0800 
 31 H       -0.7080     2.7880    -1.4890 H     1 <1>   0.0800 
 32 H        0.2920     2.0200    -0.3020 H     1 <1>   0.0800 
 33 H       -3.5890    -3.3610    -1.2670 H     1 <1>   0.0800 
 34 H       -0.1310    -2.4630    -0.0830 H     1 <1>   0.0800 
 35 H       -0.9850    -3.7690    -0.9040 H     1 <1>   0.0800 
 36 H       -2.5770     3.9280     1.8520 H     1 <1>   0.0800 
 37 H       -3.6800     4.7050     0.7400 H     1 <1>   0.0800 
 38 H        0.4290     4.4800    -0.1870 H     1 <1>   0.0800 
 39 H       -0.1660     3.7990     1.3090 H     1 <1>   0.0800 
 40 H       -3.3730    -4.3960     0.7420 H     1 <1>   0.0800 
 41 H       -3.4980    -2.8930     1.6500 H     1 <1>   0.0800 
 42 H       -4.7530    -1.1620    -1.3370 H     1 <1>   0.0800 
 43 H       -4.5350    -1.0000     0.3770 H     1 <1>   0.0800 
 44 H       -1.8790     4.8420    -0.8530 H     1 <1>   0.4500 
 45 H       -2.4420     6.6480     0.7190 H     1 <1>   0.0800 
 46 H       -1.1140     6.1030     1.7120 H     1 <1>   0.0800 
 47 H       -6.2070    -3.0770    -2.2290 H     1 <1>   0.1500 
 48 H       -5.9910    -2.2560     1.9390 H     1 <1>   0.1500 
 49 H       -0.8930     7.1420    -1.1340 H     1 <1>   0.0800 
 50 H        0.4690     6.6220    -0.1270 H     1 <1>   0.0800 
 51 H       -8.2000    -4.3950    -1.7770 H     1 <1>   0.1500 
 52 H       -7.9900    -3.6070     2.2210 H     1 <1>   0.1500 
 53 H        0.2720    10.1280     0.3760 H     1 <1>   0.0800 
 54 H       -0.0410     9.3620    -1.1750 H     1 <1>   0.0800 
 55 H        1.3360     8.8460    -0.1870 H     1 <1>   0.0800 
@<TRIPOS>BOND
  1   1   2  2   
  2   2   3  am  
  3   2   4  1   
  4   3   5  1   
  5   3  26  1   
  6   4   6  1   
  7   4   7  1   
  8   4  27  1   
  9   5   8  1   
 10   5   9  1   
 11   5  28  1   
 12   6  10  1   
 13   6  29  1   
 14   6  30  1   
 15   7  11  1   
 16   7  31  1   
 17   7  32  1   
 18   8  12  1   
 19   8  13  1   
 20   8  33  1   
 21   9  14  1   
 22   9  34  1   
 23   9  35  1   
 24  10  15  1   
 25  10  36  1   
 26  10  37  1   
 27  11  15  1   
 28  11  38  1   
 29  11  39  1   
 30  12  14  1   
 31  12  40  1   
 32  12  41  1   
 33  13  16  1   
 34  13  42  1   
 35  13  43  1   
 36  15  17  1   
 37  15  44  1   
 38  16  18  ar  
 39  16  19  ar  
 40  17  20  1   
 41  17  45  1   
 42  17  46  1   
 43  18  21  ar  
 44  18  47  1   
 45  19  22  ar  
 46  19  48  1   
 47  20  23  1   
 48  20  49  1   
 49  20  50  1   
 50  21  24  ar  
 51  21  51  1   
 52  22  24  ar  
 53  22  52  1   
 54  23  25  1   
 55  25  53  1   
 56  25  54  1   
 57  25  55  1   
@<TRIPOS>SUBSTRUCTURE
  1 ****   2 GROUP 4 **** **** 0

# MOE 2024.06 (io_trps.svl 2023.06)
