@<TRIPOS>MOLECULE
NONAME
59 61 1 0 0 
SMALL
USER_CHARGES


@<TRIPOS>ATOM
  1 O       -0.1100     1.2120     1.1860 O.2   1 <1>  -0.5700 
  2 C       -0.3040     2.3320     0.7770 C.2   1 <1>   0.5690 
  3 N       -1.3500     3.1020     1.2070 N.am  1 <1>  -0.6600 
  4 C        0.6500     2.8900    -0.2790 C.3   1 <1>   0.1810 
  5 C       -1.5980     4.4700     0.6400 C.3   1 <1>   0.3640 
  6 C       -2.2770     2.6600     2.2890 C.3   1 <1>   0.0600 
  7 O        0.6850     4.2950    -0.2810 O.3   1 <1>  -0.5600 
  8 C       -3.0500     4.6070     0.1520 C.ar  1 <1>  -0.1430 
  9 C       -0.5860     4.9090    -0.4530 C.3   1 <1>   0.2610 
 10 C       -3.6860     3.7200    -0.7240 C.ar  1 <1>  -0.1430 
 11 C       -3.7650     5.7010     0.6280 C.ar  1 <1>  -0.1500 
 12 C       -0.4350     6.4340    -0.4230 C.2   1 <1>   0.5690 
 13 C       -5.0080     3.9460    -1.0840 C.ar  1 <1>  -0.1500 
 14 C       -3.0140     2.4870    -1.3180 C.3   1 <1>  -0.0960 
 15 C       -5.0790     5.9170     0.2610 C.ar  1 <1>  -0.1500 
 16 O       -1.3190     7.1340    -0.8540 O.2   1 <1>  -0.5700 
 17 N        0.7040     6.9680     0.0940 N.am  1 <1>  -0.7300 
 18 C       -5.7030     5.0360    -0.5970 C.ar  1 <1>  -0.1500 
 19 C        1.0710     8.4060     0.1040 C.3   1 <1>   0.1400 
 20 C        2.4140     8.6980    -0.6020 C.3   1 <1>   0.0000 
 21 C        3.6140     7.8330    -0.1020 C.3   1 <1>   0.0000 
 22 C        2.5820     8.0110    -1.9950 C.3   1 <1>   0.0000 
 23 C        2.7450    10.2130    -0.6750 C.3   1 <1>  -0.1600 
 24 C        4.0290     7.6320    -1.5830 C.3   1 <1>   0.0000 
 25 C        2.8290    10.9320     0.6920 C.3   1 <1>  -0.0800 
 26 C        1.5100    11.6330     1.0510 C.3   1 <1>  -0.2400 
 27 C        3.9490    11.9800     0.6730 C.3   1 <1>  -0.2400 
 28 H        0.3550     2.5500    -1.2550 H     1 <1>   0.0800 
 29 H        1.6460     2.5390    -0.0760 H     1 <1>   0.0800 
 30 H       -1.4650     5.1530     1.4610 H     1 <1>   0.0800 
 31 H       -2.3110     3.4020     3.0670 H     1 <1>   0.0800 
 32 H       -1.9470     1.7290     2.7160 H     1 <1>   0.0800 
 33 H       -3.2670     2.5220     1.8910 H     1 <1>   0.0800 
 34 H       -0.9530     4.6390    -1.4250 H     1 <1>   0.0800 
 35 H       -3.2990     6.4100     1.2910 H     1 <1>   0.1500 
 36 H       -5.5120     3.2710    -1.7530 H     1 <1>   0.1500 
 37 H       -3.6000     2.0790    -2.1220 H     1 <1>   0.0800 
 38 H       -2.9100     1.7260    -0.5660 H     1 <1>   0.0800 
 39 H       -2.0480     2.7260    -1.7140 H     1 <1>   0.0800 
 40 H       -5.6110     6.7720     0.6390 H     1 <1>   0.1500 
 41 H        1.4470     6.3070     0.3480 H     1 <1>   0.3700 
 42 H       -6.7270     5.1980    -0.8880 H     1 <1>   0.1500 
 43 H        0.2920     8.9750    -0.3750 H     1 <1>   0.0800 
 44 H        1.1310     8.7240     1.1300 H     1 <1>   0.0800 
 45 H        4.3460     8.3720     0.4720 H     1 <1>   0.0000 
 46 H        3.3270     6.9050     0.3590 H     1 <1>   0.0000 
 47 H        1.9750     7.1370    -2.1450 H     1 <1>   0.0000 
 48 H        2.5430     8.6880    -2.8300 H     1 <1>   0.0000 
 49 H        3.6850    10.3290    -1.1850 H     1 <1>   0.0800 
 50 H        2.0110    10.7030    -1.2920 H     1 <1>   0.0800 
 51 H        4.2930     6.6160    -1.8220 H     1 <1>   0.0000 
 52 H        4.7600     8.3500    -1.9130 H     1 <1>   0.0000 
 53 H        3.0660    10.2180     1.4630 H     1 <1>   0.0800 
 54 H        1.2750    12.3900     0.3230 H     1 <1>   0.0800 
 55 H        1.5920    12.1050     2.0140 H     1 <1>   0.0800 
 56 H        0.6910    10.9410     1.0920 H     1 <1>   0.0800 
 57 H        3.7690    12.7140    -0.0930 H     1 <1>   0.0800 
 58 H        4.8980    11.5090     0.4830 H     1 <1>   0.0800 
 59 H        4.0100    12.4810     1.6230 H     1 <1>   0.0800 
@<TRIPOS>BOND
  1   1   2  2   
  2   2   3  am  
  3   2   4  1   
  4   3   5  1   
  5   3   6  1   
  6   4   7  1   
  7   4  28  1   
  8   4  29  1   
  9   5   8  1   
 10   5   9  1   
 11   5  30  1   
 12   6  31  1   
 13   6  32  1   
 14   6  33  1   
 15   7   9  1   
 16   8  10  ar  
 17   8  11  ar  
 18   9  12  1   
 19   9  34  1   
 20  10  13  ar  
 21  10  14  1   
 22  11  15  ar  
 23  11  35  1   
 24  12  16  2   
 25  12  17  am  
 26  13  18  ar  
 27  13  36  1   
 28  14  37  1   
 29  14  38  1   
 30  14  39  1   
 31  15  18  ar  
 32  15  40  1   
 33  17  19  1   
 34  17  41  1   
 35  18  42  1   
 36  19  20  1   
 37  19  43  1   
 38  19  44  1   
 39  20  21  1   
 40  20  22  1   
 41  20  23  1   
 42  21  24  1   
 43  21  45  1   
 44  21  46  1   
 45  22  24  1   
 46  22  47  1   
 47  22  48  1   
 48  23  25  1   
 49  23  49  1   
 50  23  50  1   
 51  24  51  1   
 52  24  52  1   
 53  25  26  1   
 54  25  27  1   
 55  25  53  1   
 56  26  54  1   
 57  26  55  1   
 58  26  56  1   
 59  27  57  1   
 60  27  58  1   
 61  27  59  1   
@<TRIPOS>SUBSTRUCTURE
  1 ****  12 GROUP 4 **** **** 0

# MOE 2024.06 (io_trps.svl 2023.06)
