@<TRIPOS>MOLECULE
NONAME
50 51 1 0 0 
SMALL
USER_CHARGES


@<TRIPOS>ATOM
  1 O        0.8580     0.8680    -1.2320 O.2   1 <1>  -0.5700 
  2 C        1.6000     0.3980    -0.3890 C.2   1 <1>   0.5440 
  3 N        1.0860    -0.5060     0.5230 N.am  1 <1>  -0.6600 
  4 C        2.9970     0.7940    -0.3780 C.ar  1 <1>   0.0860 
  5 C        1.9260    -1.4470     1.3130 C.3   1 <1>   0.0600 
  6 C       -0.3800    -0.7330     0.6480 C.3   1 <1>   0.0600 
  7 C        3.7560     0.7690    -1.5470 C.ar  1 <1>  -0.1500 
  8 C        3.6300     1.2220     0.7880 C.ar  1 <1>  -0.1500 
  9 C        5.0890     1.1370    -1.5520 C.ar  1 <1>  -0.1500 
 10 C        4.9630     1.5910     0.7910 C.ar  1 <1>  -0.1500 
 11 C        5.7030     1.5490    -0.3790 C.ar  1 <1>  -0.1440 
 12 C        7.1610     1.9680    -0.3720 C.3   1 <1>   0.2840 
 13 N        7.2020     3.4380    -0.4110 N.am  1 <1>  -0.7300 
 14 C        8.0220     4.2120     0.3390 C.2   1 <1>   0.5690 
 15 O        8.8650     3.7320     1.0570 O.2   1 <1>  -0.5700 
 16 C        7.8650     5.7300     0.2880 C.3   1 <1>  -0.0190 
 17 C        6.4430     6.1750     0.6820 C.3   1 <1>  -0.1600 
 18 C        8.2770     6.3070    -1.0880 C.3   1 <1>  -0.1600 
 19 C        6.3210     7.7100     0.7850 C.3   1 <1>   0.2000 
 20 C        7.6630     7.6900    -1.3880 C.3   1 <1>  -0.1600 
 21 O        5.0210     8.0690     0.3870 O.3   1 <1>  -0.5600 
 22 C        7.3510     8.4590    -0.1020 C.3   1 <1>   0.2000 
 23 C        4.0360     7.9090     1.3610 C.3   1 <1>   0.0400 
 24 O        6.8350     9.6890    -0.4550 O.3   1 <1>  -0.6800 
 25 H        1.5300    -2.4440     1.2320 H     1 <1>   0.0800 
 26 H        1.9260    -1.1520     2.3470 H     1 <1>   0.0800 
 27 H        2.9390    -1.4590     0.9490 H     1 <1>   0.0800 
 28 H       -0.6510    -0.8170     1.6860 H     1 <1>   0.0800 
 29 H       -0.6520    -1.6380     0.1330 H     1 <1>   0.0800 
 30 H       -0.9290     0.0870     0.2180 H     1 <1>   0.0800 
 31 H        3.2800     0.4570    -2.4620 H     1 <1>   0.1500 
 32 H        3.0610     1.2680     1.7010 H     1 <1>   0.1500 
 33 H        5.6430     1.1030    -2.4740 H     1 <1>   0.1500 
 34 H        5.4260     1.9200     1.7070 H     1 <1>   0.1500 
 35 H        7.6740     1.5720    -1.2310 H     1 <1>   0.0800 
 36 H        7.6500     1.6040     0.5160 H     1 <1>   0.0800 
 37 H        6.4590     3.8670    -0.9660 H     1 <1>   0.3700 
 38 H        8.5400     6.1310     1.0260 H     1 <1>   0.0800 
 39 H        6.1820     5.7360     1.6290 H     1 <1>   0.0800 
 40 H        5.7510     5.8150    -0.0600 H     1 <1>   0.0800 
 41 H        9.3510     6.3810    -1.1130 H     1 <1>   0.0800 
 42 H        7.9890     5.6350    -1.8780 H     1 <1>   0.0800 
 43 H        6.4740     8.0280     1.8030 H     1 <1>   0.0800 
 44 H        6.7450     7.5550    -1.9340 H     1 <1>   0.0800 
 45 H        8.3400     8.2600    -2.0000 H     1 <1>   0.0800 
 46 H        8.2630     8.6280     0.4440 H     1 <1>   0.0800 
 47 H        3.0970     8.2250     0.9410 H     1 <1>   0.0800 
 48 H        4.2750     8.5230     2.2120 H     1 <1>   0.0800 
 49 H        3.9720     6.8730     1.6440 H     1 <1>   0.0800 
 50 H        5.8590     9.5670    -0.4940 H     1 <1>   0.4000 
@<TRIPOS>BOND
  1   1   2  2   
  2   2   3  am  
  3   2   4  1   
  4   3   5  1   
  5   3   6  1   
  6   4   7  ar  
  7   4   8  ar  
  8   5  25  1   
  9   5  26  1   
 10   5  27  1   
 11   6  28  1   
 12   6  29  1   
 13   6  30  1   
 14   7   9  ar  
 15   7  31  1   
 16   8  10  ar  
 17   8  32  1   
 18   9  11  ar  
 19   9  33  1   
 20  10  11  ar  
 21  10  34  1   
 22  11  12  1   
 23  12  13  1   
 24  12  35  1   
 25  12  36  1   
 26  13  14  am  
 27  13  37  1   
 28  14  15  2   
 29  14  16  1   
 30  16  17  1   
 31  16  18  1   
 32  16  38  1   
 33  17  19  1   
 34  17  39  1   
 35  17  40  1   
 36  18  20  1   
 37  18  41  1   
 38  18  42  1   
 39  19  21  1   
 40  19  22  1   
 41  19  43  1   
 42  20  22  1   
 43  20  44  1   
 44  20  45  1   
 45  21  23  1   
 46  22  24  1   
 47  22  46  1   
 48  23  47  1   
 49  23  48  1   
 50  23  49  1   
 51  24  50  1   
@<TRIPOS>SUBSTRUCTURE
  1 ****  13 GROUP 4 **** **** 0

# MOE 2024.06 (io_trps.svl 2023.06)
