@<TRIPOS>MOLECULE
NONAME
50 52 1 0 0 
SMALL
USER_CHARGES


@<TRIPOS>ATOM
  1 S        0.3420    -0.0710    -1.4570 S.o2  1 <1>   1.4470 
  2 O       -0.2110     0.5680    -2.6290 O.2   1 <1>  -0.6500 
  3 O        1.4150    -1.0240    -1.6690 O.2   1 <1>  -0.6500 
  4 N        1.1000     1.1860    -0.5990 N.am  1 <1>  -0.8490 
  5 C       -0.9930    -0.6550    -0.3770 C.ar  1 <1>  -0.0090 
  6 C        1.5950     0.8410     0.7620 C.3   1 <1>   0.2760 
  7 C        1.9150     2.0530    -1.4720 C.3   1 <1>   0.1960 
  8 C       -0.7840    -1.6330     0.5940 C.ar  1 <1>   0.0830 
  9 C       -2.2640    -0.0990    -0.4820 C.ar  1 <1>  -0.1500 
 10 C        1.7940     2.0910     1.6340 C.3   1 <1>   0.1200 
 11 C        2.8670    -0.0510     0.7990 C.3   1 <1>   0.3430 
 12 C        3.2940     2.4720    -0.9390 C.3   1 <1>  -0.0800 
 13 O        0.4500    -2.1800     0.7240 O.3   1 <1>  -0.3630 
 14 C       -1.8230    -2.0290     1.4300 C.ar  1 <1>  -0.1500 
 15 C       -3.3050    -0.4890     0.3440 C.ar  1 <1>  -0.1430 
 16 O        3.0620     2.6430     1.4480 O.3   1 <1>  -0.5600 
 17 N        3.6950    -0.0150    -0.4550 N.4   1 <1>  -0.9590 
 18 C        3.2120     3.3890     0.2890 C.3   1 <1>   0.1200 
 19 C        4.3010     1.3210    -0.7500 C.3   1 <1>   0.3430 
 20 C        0.5610    -3.5570     1.0250 C.3   1 <1>   0.0400 
 21 C       -3.0730    -1.4580     1.3030 C.ar  1 <1>  -0.1500 
 22 C       -4.6890     0.1500     0.2050 C.3   1 <1>  -0.1230 
 23 C        4.7210    -1.0930    -0.4430 C.3   1 <1>   0.2630 
 24 C       -5.8580    -0.8140     0.2950 C.2   1 <1>   0.9060 
 25 O       -6.2820    -1.1310     1.4130 O.co2 1 <1>  -0.9000 
 26 O       -6.3720    -1.2270    -0.7500 O.co2 1 <1>  -0.9000 
 27 H        0.8170     0.3000     1.2660 H     1 <1>   0.0800 
 28 H        2.0720     1.5660    -2.4220 H     1 <1>   0.0800 
 29 H        1.3370     2.9380    -1.6830 H     1 <1>   0.0800 
 30 H       -2.4490     0.6560    -1.2290 H     1 <1>   0.1500 
 31 H        1.7350     1.8100     2.6710 H     1 <1>   0.0800 
 32 H        1.0340     2.8300     1.4450 H     1 <1>   0.0800 
 33 H        2.5440    -1.0650     0.9670 H     1 <1>   0.0800 
 34 H        3.4710     0.2360     1.6440 H     1 <1>   0.0800 
 35 H        3.7140     3.0960    -1.7080 H     1 <1>   0.0800 
 36 H       -1.6820    -2.7740     2.1900 H     1 <1>   0.1500 
 37 H        3.0120    -0.2500    -1.2080 H     1 <1>   0.4500 
 38 H        2.4030     4.0980     0.2100 H     1 <1>   0.0800 
 39 H        4.1310     3.9420     0.3940 H     1 <1>   0.0800 
 40 H        4.9840     1.5860     0.0410 H     1 <1>   0.0800 
 41 H        4.8770     1.2350    -1.6570 H     1 <1>   0.0800 
 42 H        1.5640    -3.8730     0.8030 H     1 <1>   0.0800 
 43 H       -0.1350    -4.1070     0.4140 H     1 <1>   0.0800 
 44 H        0.3520    -3.7100     2.0690 H     1 <1>   0.0800 
 45 H       -3.8780    -1.7690     1.9520 H     1 <1>   0.1500 
 46 H       -4.7700     0.6550    -0.7380 H     1 <1>   0.0800 
 47 H       -4.8170     0.8780     0.9820 H     1 <1>   0.0800 
 48 H        5.4280    -0.9300     0.3540 H     1 <1>   0.0800 
 49 H        5.2520    -1.1130    -1.3810 H     1 <1>   0.0800 
 50 H        4.2480    -2.0520    -0.3000 H     1 <1>   0.0800 
@<TRIPOS>BOND
  1   1   2  2   
  2   1   3  2   
  3   1   4  am  
  4   1   5  1   
  5   4   6  1   
  6   4   7  1   
  7   5   8  ar  
  8   5   9  ar  
  9   6  10  1   
 10   6  11  1   
 11   6  27  1   
 12   7  12  1   
 13   7  28  1   
 14   7  29  1   
 15   8  13  1   
 16   8  14  ar  
 17   9  15  ar  
 18   9  30  1   
 19  10  16  1   
 20  10  31  1   
 21  10  32  1   
 22  11  17  1   
 23  11  33  1   
 24  11  34  1   
 25  12  18  1   
 26  12  19  1   
 27  12  35  1   
 28  13  20  1   
 29  14  21  ar  
 30  14  36  1   
 31  15  21  ar  
 32  15  22  1   
 33  16  18  1   
 34  17  19  1   
 35  17  23  1   
 36  17  37  1   
 37  18  38  1   
 38  18  39  1   
 39  19  40  1   
 40  19  41  1   
 41  20  42  1   
 42  20  43  1   
 43  20  44  1   
 44  21  45  1   
 45  22  24  1   
 46  22  46  1   
 47  22  47  1   
 48  23  48  1   
 49  23  49  1   
 50  23  50  1   
 51  24  25  ar  
 52  24  26  ar  
@<TRIPOS>SUBSTRUCTURE
  1 ****   5 GROUP 4 **** **** 0

# MOE 2024.06 (io_trps.svl 2023.06)
