@<TRIPOS>MOLECULE
NONAME
41 43 1 0 0 
SMALL
USER_CHARGES


@<TRIPOS>ATOM
  1 O        0.4530     0.6830     1.9400 O.3   1 <1>  -0.6800 
  2 C        0.8150     0.1950     0.6920 C.3   1 <1>   0.2000 
  3 C        1.2730    -1.2520     0.8710 C.3   1 <1>  -0.0800 
  4 C        2.0910     0.9300     0.2490 C.3   1 <1>   0.3430 
  5 C        2.6610    -1.0370     1.4790 C.3   1 <1>   0.3430 
  6 C        1.2860    -2.0050    -0.4900 C.3   1 <1>  -0.0170 
  7 N        3.2410     0.0560     0.6610 N.4   1 <1>  -0.9590 
  8 C        2.5640    -2.7820    -0.7820 C.ar  1 <1>   0.1670 
  9 C        4.3690     0.7680     1.3090 C.3   1 <1>   0.4860 
 10 N        3.5940    -2.0750    -1.2350 N.ar  1 <1>  -0.6200 
 11 C        2.5910    -4.1530    -0.5770 C.ar  1 <1>  -0.1500 
 12 C        4.8770     1.8350     0.3690 C.ar  1 <1>  -0.1440 
 13 C        4.6820    -2.7790    -1.5260 C.ar  1 <1>   0.1600 
 14 C        3.7370    -4.8620    -0.8620 C.ar  1 <1>  -0.1500 
 15 C        5.5270     1.5160    -0.8030 C.ar  1 <1>   0.1600 
 16 C        4.6960     3.1730     0.6380 C.ar  1 <1>   0.1600 
 17 C        4.8050    -4.1460    -1.3550 C.ar  1 <1>  -0.1500 
 18 N        5.9370     2.4330    -1.6420 N.ar  1 <1>  -0.6200 
 19 N        5.0940     4.1080    -0.1860 N.ar  1 <1>  -0.6200 
 20 C        5.6830     3.6810    -1.2890 C.ar  1 <1>   0.7200 
 21 N        6.0810     4.6230    -2.1410 N.pl3 1 <1>  -0.9000 
 22 H       -0.4650     0.4280     2.1730 H     1 <1>   0.4000 
 23 H       -0.0090     0.3330     0.0110 H     1 <1>   0.0800 
 24 H        0.6450    -1.7880     1.5610 H     1 <1>   0.0800 
 25 H        2.1350     1.9000     0.7170 H     1 <1>   0.0800 
 26 H        2.0990     1.0510    -0.8220 H     1 <1>   0.0800 
 27 H        3.2650    -1.9300     1.4430 H     1 <1>   0.0800 
 28 H        2.5520    -0.7140     2.5020 H     1 <1>   0.0800 
 29 H        1.1420    -1.3180    -1.3070 H     1 <1>   0.0800 
 30 H        0.4470    -2.6780    -0.5200 H     1 <1>   0.0800 
 31 H        3.5820    -0.4250    -0.1980 H     1 <1>   0.4500 
 32 H        4.0360     1.2190     2.2300 H     1 <1>   0.0800 
 33 H        5.1630     0.0740     1.5340 H     1 <1>   0.0800 
 34 H        1.7260    -4.6740    -0.2050 H     1 <1>   0.1500 
 35 H        5.5260    -2.2420    -1.9280 H     1 <1>   0.1500 
 36 H        3.7940    -5.9290    -0.7160 H     1 <1>   0.1500 
 37 H        5.7130     0.4890    -1.0680 H     1 <1>   0.1500 
 38 H        4.2080     3.4930     1.5450 H     1 <1>   0.1500 
 39 H        5.7230    -4.6450    -1.6110 H     1 <1>   0.1500 
 40 H        6.1610     5.5630    -1.7600 H     1 <1>   0.4000 
 41 H        6.7800     4.3420    -2.8230 H     1 <1>   0.4000 
@<TRIPOS>BOND
  1   1   2  1   
  2   1  22  1   
  3   2   3  1   
  4   2   4  1   
  5   2  23  1   
  6   3   5  1   
  7   3   6  1   
  8   3  24  1   
  9   4   7  1   
 10   4  25  1   
 11   4  26  1   
 12   5   7  1   
 13   5  27  1   
 14   5  28  1   
 15   6   8  1   
 16   6  29  1   
 17   6  30  1   
 18   7   9  1   
 19   7  31  1   
 20   8  10  ar  
 21   8  11  ar  
 22   9  12  1   
 23   9  32  1   
 24   9  33  1   
 25  10  13  ar  
 26  11  14  ar  
 27  11  34  1   
 28  12  15  ar  
 29  12  16  ar  
 30  13  17  ar  
 31  13  35  1   
 32  14  17  ar  
 33  14  36  1   
 34  15  18  ar  
 35  15  37  1   
 36  16  19  ar  
 37  16  38  1   
 38  17  39  1   
 39  18  20  ar  
 40  19  20  ar  
 41  20  21  1   
 42  21  40  1   
 43  21  41  1   
@<TRIPOS>SUBSTRUCTURE
  1 ****   7 GROUP 4 **** **** 0

# MOE 2024.06 (io_trps.svl 2023.06)
