@<TRIPOS>MOLECULE
NONAME
23 22 1 0 0 
SMALL
USER_CHARGES


@<TRIPOS>ATOM
  1 O        0.0580    -0.7370    -1.0600 O.2   1 <1>  -0.5700 
  2 C        0.3810    -1.5850    -0.2440 C.2   1 <1>   0.7800 
  3 O        1.6590    -1.7180     0.1360 O.3   1 <1>  -0.4300 
  4 N       -0.5390    -2.4270     0.3420 N.am  1 <1>  -0.3250 
  5 C        2.7730    -0.9890    -0.3320 C.3   1 <1>   0.2800 
  6 O       -0.1680    -3.4630     1.2190 O.3   1 <1>  -0.4360 
  7 C       -1.9920    -2.3990     0.0630 C.3   1 <1>   0.0600 
  8 C        2.6240     0.4960     0.0190 C.3   1 <1>  -0.2400 
  9 C        3.9710    -1.5670     0.4220 C.3   1 <1>  -0.2400 
 10 C        2.9650    -1.2200    -1.8360 C.3   1 <1>  -0.2400 
 11 H        0.0150    -3.1090     2.1130 H     1 <1>   0.4000 
 12 H       -2.2270    -1.6110    -0.6310 H     1 <1>   0.0800 
 13 H       -2.5310    -2.2350     0.9780 H     1 <1>   0.0800 
 14 H       -2.2900    -3.3410    -0.3620 H     1 <1>   0.0800 
 15 H        2.4200     0.6140     1.0680 H     1 <1>   0.0800 
 16 H        1.8340     0.9530    -0.5490 H     1 <1>   0.0800 
 17 H        3.5330     1.0200    -0.2120 H     1 <1>   0.0800 
 18 H        3.8440    -1.4350     1.4810 H     1 <1>   0.0800 
 19 H        4.8770    -1.0690     0.1250 H     1 <1>   0.0800 
 20 H        4.0740    -2.6150     0.2090 H     1 <1>   0.0800 
 21 H        2.1760    -0.7620    -2.4030 H     1 <1>   0.0800 
 22 H        2.9920    -2.2720    -2.0520 H     1 <1>   0.0800 
 23 H        3.8920    -0.7820    -2.1580 H     1 <1>   0.0800 
@<TRIPOS>BOND
  1   1   2  2   
  2   2   3  1   
  3   2   4  am  
  4   3   5  1   
  5   4   6  1   
  6   4   7  1   
  7   5   8  1   
  8   5   9  1   
  9   5  10  1   
 10   6  11  1   
 11   7  12  1   
 12   7  13  1   
 13   7  14  1   
 14   8  15  1   
 15   8  16  1   
 16   8  17  1   
 17   9  18  1   
 18   9  19  1   
 19   9  20  1   
 20  10  21  1   
 21  10  22  1   
 22  10  23  1   
@<TRIPOS>SUBSTRUCTURE
  1 ****   3 GROUP 4 **** **** 0

# MOE 2024.06 (io_trps.svl 2023.06)
