@<TRIPOS>MOLECULE
NONAME
54 56 1 0 0 
SMALL
USER_CHARGES


@<TRIPOS>ATOM
  1 O        0.6200     0.0910     0.3670 O.2   1 <1>  -0.5700 
  2 C        1.0810    -0.1600    -0.7340 C.2   1 <1>   0.7150 
  3 N        1.6170     0.8610    -1.4640 N.am  1 <1>  -0.7300 
  4 C        1.0810    -1.5100    -1.2530 C.2   1 <1>   0.0550 
  5 C        1.7420     2.2550    -0.9770 C.3   1 <1>   0.2780 
  6 O        0.7120    -2.5270    -0.4810 O.3   1 <1>  -0.2800 
  7 C        1.4010    -2.0110    -2.4800 C.2   1 <1>  -0.1500 
  8 C        3.0150     2.3890    -0.1440 C.2   1 <1>  -0.0380 
  9 C        0.7770    -3.6460    -1.1640 C.2   1 <1>  -0.0400 
 10 C        1.2040    -3.3920    -2.4210 C.2   1 <1>  -0.1500 
 11 N        2.9730     1.7160     1.0560 N.pl3 1 <1>  -0.6000 
 12 C        4.1360     3.0970    -0.4820 C.2   1 <1>  -0.1240 
 13 C        0.3870    -4.9480    -0.4850 C.3   1 <1>   0.5230 
 14 C        4.0150     1.7380     1.9450 C.2   1 <1>  -0.0500 
 15 C        5.2430     3.1490     0.4270 C.2   1 <1>   0.5410 
 16 C        4.3020     3.8610    -1.7980 C.3   1 <1>  -0.1020 
 17 N       -1.0230    -4.8590    -0.0070 N.4   1 <1>  -0.9590 
 18 C        5.1430     2.4370     1.6600 C.2   1 <1>  -0.1240 
 19 O        6.2590     3.7940     0.1570 O.2   1 <1>  -0.5700 
 20 C       -1.1210    -4.1060     1.2810 C.3   1 <1>   0.3430 
 21 C       -1.6680    -6.1990     0.0780 C.3   1 <1>   0.3430 
 22 C        6.3120     2.4750     2.6370 C.3   1 <1>  -0.1020 
 23 C       -2.5900    -3.9120     1.6530 C.3   1 <1>  -0.1600 
 24 C       -3.1480    -6.0370     0.4270 C.3   1 <1>  -0.1600 
 25 C       -3.3400    -5.2490     1.7300 C.3   1 <1>  -0.0800 
 26 C       -4.8290    -5.0170     2.0070 C.3   1 <1>  -0.2400 
 27 H        2.2510     0.6240    -2.2250 H     1 <1>   0.3700 
 28 H        0.8930     2.5000    -0.3600 H     1 <1>   0.0800 
 29 H        1.7270     2.9280    -1.8130 H     1 <1>   0.0800 
 30 H        1.7390    -1.4730    -3.3490 H     1 <1>   0.1500 
 31 H        1.3700    -4.0740    -3.2390 H     1 <1>   0.1500 
 32 H        2.1230     1.1560     1.2630 H     1 <1>   0.4000 
 33 H        1.0510    -5.1430     0.3420 H     1 <1>   0.0800 
 34 H        0.4850    -5.7490    -1.1980 H     1 <1>   0.0800 
 35 H        3.8960     1.1830     2.8620 H     1 <1>   0.1500 
 36 H        5.2560     3.6240    -2.2360 H     1 <1>   0.0800 
 37 H        4.2770     4.9190    -1.6050 H     1 <1>   0.0800 
 38 H        3.5500     3.6240    -2.5240 H     1 <1>   0.0800 
 39 H       -1.5260    -4.2980    -0.7070 H     1 <1>   0.4500 
 40 H       -0.6520    -3.1390     1.1920 H     1 <1>   0.0800 
 41 H       -0.6210    -4.6520     2.0640 H     1 <1>   0.0800 
 42 H       -1.1840    -6.7900     0.8390 H     1 <1>   0.0800 
 43 H       -1.5790    -6.7150    -0.8650 H     1 <1>   0.0800 
 44 H        7.1930     2.0760     2.1660 H     1 <1>   0.0800 
 45 H        6.1000     1.8980     3.5190 H     1 <1>   0.0800 
 46 H        6.5110     3.4910     2.9280 H     1 <1>   0.0800 
 47 H       -3.0540    -3.2630     0.9290 H     1 <1>   0.0800 
 48 H       -2.6420    -3.4150     2.6060 H     1 <1>   0.0800 
 49 H       -3.5890    -7.0130     0.5320 H     1 <1>   0.0800 
 50 H       -3.6520    -5.5420    -0.3850 H     1 <1>   0.0800 
 51 H       -2.9340    -5.8260     2.5470 H     1 <1>   0.0800 
 52 H       -5.2830    -4.4410     1.2190 H     1 <1>   0.0800 
 53 H       -4.9610    -4.4880     2.9340 H     1 <1>   0.0800 
 54 H       -5.3480    -5.9570     2.0840 H     1 <1>   0.0800 
@<TRIPOS>BOND
  1   1   2  2   
  2   2   3  am  
  3   2   4  1   
  4   3   5  1   
  5   3  27  1   
  6   4   6  1   
  7   4   7  2   
  8   5   8  1   
  9   5  28  1   
 10   5  29  1   
 11   6   9  1   
 12   7  10  1   
 13   7  30  1   
 14   8  11  1   
 15   8  12  2   
 16   9  10  2   
 17   9  13  1   
 18  10  31  1   
 19  11  14  1   
 20  11  32  1   
 21  12  15  1   
 22  12  16  1   
 23  13  17  1   
 24  13  33  1   
 25  13  34  1   
 26  14  18  2   
 27  14  35  1   
 28  15  18  1   
 29  15  19  2   
 30  16  36  1   
 31  16  37  1   
 32  16  38  1   
 33  17  20  1   
 34  17  21  1   
 35  17  39  1   
 36  18  22  1   
 37  20  23  1   
 38  20  40  1   
 39  20  41  1   
 40  21  24  1   
 41  21  42  1   
 42  21  43  1   
 43  22  44  1   
 44  22  45  1   
 45  22  46  1   
 46  23  25  1   
 47  23  47  1   
 48  23  48  1   
 49  24  25  1   
 50  24  49  1   
 51  24  50  1   
 52  25  26  1   
 53  25  51  1   
 54  26  52  1   
 55  26  53  1   
 56  26  54  1   
@<TRIPOS>SUBSTRUCTURE
  1 ****   2 GROUP 4 **** **** 0

# MOE 2024.06 (io_trps.svl 2023.06)
