@<TRIPOS>MOLECULE
NONAME
47 48 1 0 0 
SMALL
USER_CHARGES


@<TRIPOS>ATOM
  1 S        1.7750     1.5930     1.1260 S.o2  1 <1>   1.3330 
  2 O        2.1950     2.8510     1.7030 O.2   1 <1>  -0.6500 
  3 O        1.7500     0.4020     1.9460 O.2   1 <1>  -0.6500 
  4 N        0.2240     1.8040     0.4700 N.am  1 <1>  -0.8490 
  5 C        2.7880     1.2870    -0.3180 C.3   1 <1>  -0.0550 
  6 C       -0.4670     0.5420     0.1860 C.3   1 <1>   0.1160 
  7 C       -0.6220     2.6570     1.3080 C.3   1 <1>   0.1160 
  8 C        4.2800     1.1290     0.0160 C.3   1 <1>  -0.0800 
  9 C        5.1450     1.0120    -1.2250 C.3   1 <1>   0.2200 
 10 C        4.6380    -0.1360     0.7840 C.3   1 <1>   0.1200 
 11 N        5.5820     2.3580    -1.6410 N.am  1 <1>  -0.7300 
 12 C        6.2990     0.1100    -0.7820 C.3   1 <1>   0.1200 
 13 O        5.9810    -0.3590     0.4950 O.3   1 <1>  -0.5600 
 14 C        4.9460     3.1110    -2.5730 C.2   1 <1>   0.5690 
 15 O        4.1020     2.6440    -3.2990 O.2   1 <1>  -0.5700 
 16 C        5.2720     4.5930    -2.6650 C.3   1 <1>   0.0440 
 17 C        5.7050     5.1620    -1.3160 C.ar  1 <1>  -0.1440 
 18 C        4.8390     5.1040    -0.2340 C.ar  1 <1>  -0.1500 
 19 C        6.9650     5.7170    -1.1490 C.ar  1 <1>  -0.1500 
 20 C        5.2250     5.5740     1.0080 C.ar  1 <1>  -0.1440 
 21 C        7.3540     6.1970     0.0900 C.ar  1 <1>  -0.1500 
 22 C        6.4870     6.1220     1.1660 C.ar  1 <1>  -0.1500 
 23 C        4.2690     5.4760     2.1840 C.3   1 <1>  -0.0970 
 24 H        2.4410     0.4080    -0.8250 H     1 <1>   0.0800 
 25 H        2.6750     2.1150    -0.9910 H     1 <1>   0.0800 
 26 H       -1.4040     0.7370    -0.3070 H     1 <1>   0.0800 
 27 H       -0.6570     0.0010     1.0990 H     1 <1>   0.0800 
 28 H        0.1330    -0.0740    -0.4620 H     1 <1>   0.0800 
 29 H       -1.5900     2.7840     0.8550 H     1 <1>   0.0800 
 30 H       -0.1730     3.6310     1.4160 H     1 <1>   0.0800 
 31 H       -0.7420     2.2220     2.2870 H     1 <1>   0.0800 
 32 H        4.6070     1.9680     0.6100 H     1 <1>   0.0800 
 33 H        4.6130     0.5280    -2.0280 H     1 <1>   0.0800 
 34 H        4.0770    -0.9870     0.4360 H     1 <1>   0.0800 
 35 H        4.5180    -0.0250     1.8480 H     1 <1>   0.0800 
 36 H        6.1830     2.8500    -0.9710 H     1 <1>   0.3700 
 37 H        7.2310     0.6440    -0.7210 H     1 <1>   0.0800 
 38 H        6.3980    -0.7380    -1.4360 H     1 <1>   0.0800 
 39 H        6.0430     4.7250    -3.3990 H     1 <1>   0.0800 
 40 H        4.3980     5.1180    -3.0050 H     1 <1>   0.0800 
 41 H        3.8550     4.6800    -0.3510 H     1 <1>   0.1500 
 42 H        7.6500     5.7770    -1.9760 H     1 <1>   0.1500 
 43 H        8.3310     6.6280     0.2170 H     1 <1>   0.1500 
 44 H        6.7990     6.4910     2.1270 H     1 <1>   0.1500 
 45 H        4.4740     6.2440     2.9070 H     1 <1>   0.0800 
 46 H        4.3710     4.5150     2.6570 H     1 <1>   0.0800 
 47 H        3.2520     5.5840     1.8520 H     1 <1>   0.0800 
@<TRIPOS>BOND
  1   1   2  2   
  2   1   3  2   
  3   1   4  am  
  4   1   5  1   
  5   4   6  1   
  6   4   7  1   
  7   5   8  1   
  8   5  24  1   
  9   5  25  1   
 10   6  26  1   
 11   6  27  1   
 12   6  28  1   
 13   7  29  1   
 14   7  30  1   
 15   7  31  1   
 16   8   9  1   
 17   8  10  1   
 18   8  32  1   
 19   9  11  1   
 20   9  12  1   
 21   9  33  1   
 22  10  13  1   
 23  10  34  1   
 24  10  35  1   
 25  11  14  am  
 26  11  36  1   
 27  12  13  1   
 28  12  37  1   
 29  12  38  1   
 30  14  15  2   
 31  14  16  1   
 32  16  17  1   
 33  16  39  1   
 34  16  40  1   
 35  17  18  ar  
 36  17  19  ar  
 37  18  20  ar  
 38  18  41  1   
 39  19  21  ar  
 40  19  42  1   
 41  20  22  ar  
 42  20  23  1   
 43  21  22  ar  
 44  21  43  1   
 45  22  44  1   
 46  23  45  1   
 47  23  46  1   
 48  23  47  1   
@<TRIPOS>SUBSTRUCTURE
  1 ****   8 GROUP 4 **** **** 0

# MOE 2024.06 (io_trps.svl 2023.06)
