@<TRIPOS>MOLECULE
NONAME
43 44 1 0 0 
SMALL
USER_CHARGES


@<TRIPOS>ATOM
  1 O        0.3640     1.3490     2.3100 O.2   1 <1>  -0.5700 
  2 C        0.9060     1.4090     1.2250 C.2   1 <1>   0.7800 
  3 O        0.2330     1.7260     0.1170 O.3   1 <1>  -0.4300 
  4 N        2.2300     1.1470     1.0730 N.am  1 <1>  -0.5100 
  5 C       -1.1320     2.0720     0.0210 C.3   1 <1>   0.2800 
  6 C        3.1120     1.8050     0.0550 C.3   1 <1>   0.2250 
  7 C        3.2590     1.4510     2.1230 C.3   1 <1>   0.2250 
  8 C       -1.4160     3.3400     0.8340 C.3   1 <1>  -0.2400 
  9 C       -1.3670     2.3620    -1.4620 C.3   1 <1>  -0.2400 
 10 C       -2.0110     0.8920     0.4500 C.3   1 <1>  -0.2400 
 11 C        4.3090     1.4380     0.9780 C.3   1 <1>   0.2580 
 12 O        5.2320     2.4800     1.0740 O.3   1 <1>  -0.5380 
 13 C        5.0950     0.1200     0.7900 C.3   1 <1>  -0.0800 
 14 C        6.4910     1.9750     1.3630 C.3   1 <1>   0.1200 
 15 C        6.5350     0.6140     0.6800 C.3   1 <1>  -0.1600 
 16 C        4.6630    -0.7630    -0.3990 C.3   1 <1>  -0.1600 
 17 C        5.4720    -2.0570    -0.4670 C.3   1 <1>   0.3430 
 18 N        4.9680    -2.8860    -1.5850 N.4   1 <1>  -0.8530 
 19 H        2.9090     2.8610    -0.0050 H     1 <1>   0.0000 
 20 H        3.0760     1.2950    -0.8890 H     1 <1>   0.0000 
 21 H        3.3500     0.6450     2.8290 H     1 <1>   0.0000 
 22 H        3.0920     2.4190     2.5640 H     1 <1>   0.0000 
 23 H       -0.7360     4.1240     0.5560 H     1 <1>   0.0800 
 24 H       -1.3300     3.1540     1.8880 H     1 <1>   0.0800 
 25 H       -2.4190     3.6780     0.6470 H     1 <1>   0.0800 
 26 H       -0.7370     3.1710    -1.7890 H     1 <1>   0.0800 
 27 H       -2.3910     2.6420    -1.6310 H     1 <1>   0.0800 
 28 H       -1.1520     1.4900    -2.0530 H     1 <1>   0.0800 
 29 H       -1.9210     0.7030     1.5040 H     1 <1>   0.0800 
 30 H       -1.7400     0.0050    -0.0930 H     1 <1>   0.0800 
 31 H       -3.0430     1.1120     0.2480 H     1 <1>   0.0800 
 32 H        4.9950    -0.4500     1.6990 H     1 <1>   0.0800 
 33 H        6.5750     1.8830     2.4330 H     1 <1>   0.0800 
 34 H        7.2400     2.6550     0.9910 H     1 <1>   0.0800 
 35 H        6.8250     0.7650    -0.3450 H     1 <1>   0.0800 
 36 H        7.2440    -0.0390     1.1600 H     1 <1>   0.0800 
 37 H        4.7870    -0.2080    -1.3140 H     1 <1>   0.0800 
 38 H        3.6200    -1.0060    -0.2780 H     1 <1>   0.0800 
 39 H        5.3740    -2.5940     0.4640 H     1 <1>   0.0800 
 40 H        6.5160    -1.8260    -0.6170 H     1 <1>   0.0800 
 41 H        3.9760    -3.1150    -1.4490 H     1 <1>   0.4500 
 42 H        5.4890    -3.7680    -1.6580 H     1 <1>   0.4500 
 43 H        5.0570    -2.3900    -2.4790 H     1 <1>   0.4500 
@<TRIPOS>BOND
  1   1   2  2   
  2   2   3  1   
  3   2   4  am  
  4   3   5  1   
  5   4   6  1   
  6   4   7  1   
  7   5   8  1   
  8   5   9  1   
  9   5  10  1   
 10   6  11  1   
 11   6  19  1   
 12   6  20  1   
 13   7  11  1   
 14   7  21  1   
 15   7  22  1   
 16   8  23  1   
 17   8  24  1   
 18   8  25  1   
 19   9  26  1   
 20   9  27  1   
 21   9  28  1   
 22  10  29  1   
 23  10  30  1   
 24  10  31  1   
 25  11  12  1   
 26  11  13  1   
 27  12  14  1   
 28  13  15  1   
 29  13  16  1   
 30  13  32  1   
 31  14  15  1   
 32  14  33  1   
 33  14  34  1   
 34  15  35  1   
 35  15  36  1   
 36  16  17  1   
 37  16  37  1   
 38  16  38  1   
 39  17  18  1   
 40  17  39  1   
 41  17  40  1   
 42  18  41  1   
 43  18  42  1   
 44  18  43  1   
@<TRIPOS>SUBSTRUCTURE
  1 ****   4 GROUP 4 **** **** 0

# MOE 2024.06 (io_trps.svl 2023.06)
