@<TRIPOS>MOLECULE
NONAME
45 46 1 0 0 
SMALL
USER_CHARGES


@<TRIPOS>ATOM
  1 S       -0.5020     0.3670     1.0880 S.o2  1 <1>   1.5010 
  2 O       -0.3700    -0.7980     1.9300 O.2   1 <1>  -0.6500 
  3 O       -1.0980     1.5660     1.6260 O.2   1 <1>  -0.6500 
  4 N       -1.5320    -0.0370    -0.1790 N.am  1 <1>  -0.9140 
  5 C        1.0600     0.7530     0.2770 C.2   1 <1>  -0.0630 
  6 C       -1.5980    -1.4130    -0.6800 C.3   1 <1>   0.2760 
  7 C        1.2670     1.7500    -0.6730 C.2   1 <1>   0.1080 
  8 C        2.2820     0.1760     0.4020 C.2   1 <1>  -0.3020 
  9 C       -2.3370    -2.3770     0.2540 C.3   1 <1>  -0.0800 
 10 C       -0.2650    -2.1130    -0.9730 C.3   1 <1>   0.1200 
 11 N        2.4900     1.7840    -1.1010 N.2   1 <1>  -0.7070 
 12 C        0.2210     2.7180    -1.1840 C.3   1 <1>  -0.0590 
 13 N        3.1210     0.8120    -0.4320 N.pl3 1 <1>   0.3140 
 14 C       -1.3150    -3.4990     0.4600 C.3   1 <1>   0.1200 
 15 C       -3.6280    -2.9000    -0.4050 C.3   1 <1>  -0.0550 
 16 O       -0.4970    -3.4470    -0.6610 O.3   1 <1>  -0.5600 
 17 C        4.5470     0.5400    -0.6390 C.3   1 <1>   0.0160 
 18 S       -4.7280    -3.7420     0.7330 S.o2  1 <1>   1.3330 
 19 O       -4.1110    -4.9610     1.2070 O.2   1 <1>  -0.6500 
 20 O       -5.1950    -2.7540     1.6780 O.2   1 <1>  -0.6500 
 21 N       -6.0280    -4.1730    -0.2690 N.am  1 <1>  -0.8490 
 22 C       -7.2940    -4.2510     0.4680 C.3   1 <1>   0.1160 
 23 C       -5.8060    -5.4240    -1.0050 C.3   1 <1>   0.1160 
 24 H       -2.4490     0.2280     0.1740 H     1 <1>   0.4200 
 25 H       -2.1260    -1.3730    -1.6180 H     1 <1>   0.0800 
 26 H        2.5830    -0.6400     1.0350 H     1 <1>   0.1500 
 27 H       -2.5770    -1.9240     1.2010 H     1 <1>   0.0800 
 28 H        0.5370    -1.7790    -0.3460 H     1 <1>   0.0800 
 29 H        0.0140    -2.0410    -2.0090 H     1 <1>   0.0800 
 30 H       -0.5640     2.1830    -1.6850 H     1 <1>   0.0800 
 31 H        0.6680     3.4050    -1.8800 H     1 <1>   0.0800 
 32 H       -0.1940     3.2780    -0.3670 H     1 <1>   0.0800 
 33 H       -1.7490    -4.4820     0.5330 H     1 <1>   0.0800 
 34 H       -0.7040    -3.3120     1.3280 H     1 <1>   0.0800 
 35 H       -3.3710    -3.5560    -1.2140 H     1 <1>   0.0800 
 36 H       -4.1660    -2.0690    -0.8190 H     1 <1>   0.0800 
 37 H        4.8300    -0.3450    -0.1000 H     1 <1>   0.0800 
 38 H        5.1150     1.3800    -0.2880 H     1 <1>   0.0800 
 39 H        4.7250     0.4000    -1.6890 H     1 <1>   0.0800 
 40 H       -8.0990    -4.5100    -0.1980 H     1 <1>   0.0800 
 41 H       -7.5210    -3.2970     0.9130 H     1 <1>   0.0800 
 42 H       -7.2270    -4.9900     1.2490 H     1 <1>   0.0800 
 43 H       -6.6170    -5.5990    -1.6910 H     1 <1>   0.0800 
 44 H       -5.7390    -6.2560    -0.3220 H     1 <1>   0.0800 
 45 H       -4.8900    -5.3670    -1.5680 H     1 <1>   0.0800 
@<TRIPOS>BOND
  1   1   2  2   
  2   1   3  2   
  3   1   4  am  
  4   1   5  1   
  5   4   6  1   
  6   4  24  1   
  7   5   7  1   
  8   5   8  2   
  9   6   9  1   
 10   6  10  1   
 11   6  25  1   
 12   7  11  2   
 13   7  12  1   
 14   8  13  1   
 15   8  26  1   
 16   9  14  1   
 17   9  15  1   
 18   9  27  1   
 19  10  16  1   
 20  10  28  1   
 21  10  29  1   
 22  11  13  1   
 23  12  30  1   
 24  12  31  1   
 25  12  32  1   
 26  13  17  1   
 27  14  16  1   
 28  14  33  1   
 29  14  34  1   
 30  15  18  1   
 31  15  35  1   
 32  15  36  1   
 33  17  37  1   
 34  17  38  1   
 35  17  39  1   
 36  18  19  2   
 37  18  20  2   
 38  18  21  am  
 39  21  22  1   
 40  21  23  1   
 41  22  40  1   
 42  22  41  1   
 43  22  42  1   
 44  23  43  1   
 45  23  44  1   
 46  23  45  1   
@<TRIPOS>SUBSTRUCTURE
  1 ****   6 GROUP 4 **** **** 0

# MOE 2024.06 (io_trps.svl 2023.06)
