@<TRIPOS>MOLECULE
NONAME
39 41 1 0 0 
SMALL
USER_CHARGES


@<TRIPOS>ATOM
  1 CL      -0.5540    -0.2800    -0.1000 Cl    1 <1>  -0.1770 
  2 C       -1.3090     1.3040    -0.0660 C.ar  1 <1>   0.1770 
  3 C       -0.5550     2.4640     0.1740 C.ar  1 <1>   0.4100 
  4 C       -2.6640     1.3810    -0.2750 C.ar  1 <1>  -0.1500 
  5 N       -1.0950     3.6810     0.2050 N.ar  1 <1>  -0.6200 
  6 N        0.8170     2.4400     0.3850 N.pl3 1 <1>  -0.8380 
  7 C       -3.2210     2.6440    -0.2350 C.ar  1 <1>  -0.1500 
  8 C       -2.4060     3.7370     0.0060 C.ar  1 <1>   0.1600 
  9 C        1.4120     3.1230     1.5950 C.3   1 <1>   0.2090 
 10 C        1.7390     1.9610    -0.6910 C.3   1 <1>   0.2090 
 11 C        2.1290     4.4530     1.2420 C.3   1 <1>   0.4230 
 12 C        2.7330     3.0170    -1.2380 C.3   1 <1>  -0.0800 
 13 N        1.5580     4.9520    -0.0610 N.4   1 <1>  -0.9590 
 14 C        3.6700     4.2880     1.2810 C.3   1 <1>   0.1200 
 15 C        4.1290     2.9370    -0.5990 C.3   1 <1>   0.1200 
 16 C        2.2440     4.4740    -1.2920 C.3   1 <1>   0.3430 
 17 C        1.4520     6.4670    -0.0650 C.3   1 <1>   0.2370 
 18 O        4.0780     3.0440     0.7820 O.3   1 <1>  -0.5600 
 19 C        2.7890     7.1880     0.1250 C.2   1 <1>   0.9060 
 20 O        3.1540     7.4230     1.2810 O.co2 1 <1>  -0.9000 
 21 O        3.5110     7.3460    -0.8640 O.co2 1 <1>  -0.9000 
 22 H       -3.2540     0.4990    -0.4580 H     1 <1>   0.1500 
 23 H       -4.2780     2.7780    -0.3870 H     1 <1>   0.1500 
 24 H       -2.8600     4.7140     0.0350 H     1 <1>   0.1500 
 25 H        0.6210     3.3480     2.2890 H     1 <1>   0.0800 
 26 H        2.0820     2.4490     2.0990 H     1 <1>   0.0800 
 27 H        2.2860     1.1090    -0.3210 H     1 <1>   0.0800 
 28 H        1.1380     1.6120    -1.5150 H     1 <1>   0.0800 
 29 H        1.8850     5.1710     2.0070 H     1 <1>   0.0800 
 30 H        2.9060     2.7450    -2.2630 H     1 <1>   0.0800 
 31 H        0.6140     4.5080    -0.0730 H     1 <1>   0.4500 
 32 H        3.9860     4.3210     2.3080 H     1 <1>   0.0800 
 33 H        4.1830     5.0790     0.7610 H     1 <1>   0.0800 
 34 H        4.7810     3.7070    -0.9800 H     1 <1>   0.0800 
 35 H        4.5750     1.9820    -0.8190 H     1 <1>   0.0800 
 36 H        1.5620     4.5800    -2.1190 H     1 <1>   0.0800 
 37 H        3.0920     5.1120    -1.4940 H     1 <1>   0.0800 
 38 H        1.0340     6.8030    -0.9950 H     1 <1>   0.0800 
 39 H        0.8060     6.7860     0.7320 H     1 <1>   0.0800 
@<TRIPOS>BOND
  1   1   2  1   
  2   2   3  ar  
  3   2   4  ar  
  4   3   5  ar  
  5   3   6  1   
  6   4   7  ar  
  7   4  22  1   
  8   5   8  ar  
  9   6   9  1   
 10   6  10  1   
 11   7   8  ar  
 12   7  23  1   
 13   8  24  1   
 14   9  11  1   
 15   9  25  1   
 16   9  26  1   
 17  10  12  1   
 18  10  27  1   
 19  10  28  1   
 20  11  13  1   
 21  11  14  1   
 22  11  29  1   
 23  12  15  1   
 24  12  16  1   
 25  12  30  1   
 26  13  16  1   
 27  13  17  1   
 28  13  31  1   
 29  14  18  1   
 30  14  32  1   
 31  14  33  1   
 32  15  18  1   
 33  15  34  1   
 34  15  35  1   
 35  16  36  1   
 36  16  37  1   
 37  17  19  1   
 38  17  38  1   
 39  17  39  1   
 40  19  20  ar  
 41  19  21  ar  
@<TRIPOS>SUBSTRUCTURE
  1 ****  13 GROUP 4 **** **** 0

# MOE 2024.06 (io_trps.svl 2023.06)
