@<TRIPOS>MOLECULE
NONAME
46 48 1 0 0 
SMALL
USER_CHARGES


@<TRIPOS>ATOM
  1 F       -0.1130    -0.9350    -1.2350 F     1 <1>  -0.3400 
  2 C        0.2980    -1.4430    -0.0760 C.3   1 <1>   1.1640 
  3 F       -0.3220    -0.7520     0.8740 F     1 <1>  -0.3400 
  4 F        1.5820    -1.1130     0.0250 F     1 <1>  -0.3400 
  5 C        0.0340    -2.9680     0.0020 C.ar  1 <1>   0.1660 
  6 N        1.0560    -3.8080    -0.1150 N.ar  1 <1>  -0.6200 
  7 C       -1.2630    -3.4380     0.1890 C.ar  1 <1>   0.0860 
  8 C        0.8030    -5.1060    -0.0290 C.ar  1 <1>   0.7200 
  9 C       -2.4590    -2.6430     0.3020 C.2   1 <1>   0.5440 
 10 C       -1.3910    -4.8120     0.2860 C.ar  1 <1>   0.1600 
 11 N       -0.3900    -5.6460     0.1740 N.ar  1 <1>  -0.6200 
 12 N        1.9030    -5.8940    -0.1460 N.pl3 1 <1>  -0.6000 
 13 O       -3.1780    -2.7940     1.2670 O.2   1 <1>  -0.5700 
 14 N       -2.8330    -1.7480    -0.6630 N.am  1 <1>  -0.7300 
 15 C        2.0900    -7.2820    -0.1310 C.ar  1 <1>   0.1000 
 16 C       -4.0960    -0.9670    -0.6320 C.3   1 <1>   0.1400 
 17 C        3.2730    -7.7910     0.3930 C.ar  1 <1>  -0.1500 
 18 C        1.1540    -8.1770    -0.6400 C.ar  1 <1>  -0.1500 
 19 C       -3.8590     0.4340    -0.0490 C.3   1 <1>  -0.0800 
 20 C        3.5130    -9.1530     0.4160 C.ar  1 <1>  -0.1500 
 21 C        1.3880    -9.5400    -0.6180 C.ar  1 <1>  -0.1500 
 22 C       -5.1980     1.1610     0.1530 C.3   1 <1>  -0.1600 
 23 C       -2.9480     1.2990    -0.9380 C.3   1 <1>  -0.1600 
 24 C        2.5690   -10.0310    -0.0890 C.ar  1 <1>  -0.1500 
 25 C       -4.9750     2.6050     0.6160 C.3   1 <1>   0.1200 
 26 C       -2.8690     2.7360    -0.4090 C.3   1 <1>   0.1200 
 27 O       -4.1560     3.2600    -0.3020 O.3   1 <1>  -0.5600 
 28 H       -2.3710    -5.2290     0.4620 H     1 <1>   0.1500 
 29 H        2.7490    -5.3330    -0.1680 H     1 <1>   0.4000 
 30 H       -2.2440    -1.5690    -1.4810 H     1 <1>   0.3700 
 31 H       -4.8210    -1.4850    -0.0260 H     1 <1>   0.0800 
 32 H       -4.4950    -0.8910    -1.6290 H     1 <1>   0.0800 
 33 H        4.0100    -7.1180     0.7900 H     1 <1>   0.1500 
 34 H        0.2370    -7.8080    -1.0600 H     1 <1>   0.1500 
 35 H       -3.3970     0.3210     0.9180 H     1 <1>   0.0800 
 36 H        4.4320    -9.5320     0.8280 H     1 <1>   0.1500 
 37 H        0.6530   -10.2180    -1.0120 H     1 <1>   0.1500 
 38 H       -5.7890     0.6420     0.8860 H     1 <1>   0.0800 
 39 H       -5.7540     1.1810    -0.7680 H     1 <1>   0.0800 
 40 H       -3.3260     1.3270    -1.9450 H     1 <1>   0.0800 
 41 H       -1.9560     0.8890    -0.9660 H     1 <1>   0.0800 
 42 H        2.7530   -11.0910    -0.0700 H     1 <1>   0.1500 
 43 H       -4.5050     2.6390     1.5840 H     1 <1>   0.0800 
 44 H       -5.9090     3.1370     0.6600 H     1 <1>   0.0800 
 45 H       -2.3160     3.3600    -1.0890 H     1 <1>   0.0800 
 46 H       -2.4000     2.7710     0.5600 H     1 <1>   0.0800 
@<TRIPOS>BOND
  1   1   2  1   
  2   2   3  1   
  3   2   4  1   
  4   2   5  1   
  5   5   6  ar  
  6   5   7  ar  
  7   6   8  ar  
  8   7   9  1   
  9   7  10  ar  
 10   8  11  ar  
 11   8  12  1   
 12   9  13  2   
 13   9  14  am  
 14  10  11  ar  
 15  10  28  1   
 16  12  15  1   
 17  12  29  1   
 18  14  16  1   
 19  14  30  1   
 20  15  17  ar  
 21  15  18  ar  
 22  16  19  1   
 23  16  31  1   
 24  16  32  1   
 25  17  20  ar  
 26  17  33  1   
 27  18  21  ar  
 28  18  34  1   
 29  19  22  1   
 30  19  23  1   
 31  19  35  1   
 32  20  24  ar  
 33  20  36  1   
 34  21  24  ar  
 35  21  37  1   
 36  22  25  1   
 37  22  38  1   
 38  22  39  1   
 39  23  26  1   
 40  23  40  1   
 41  23  41  1   
 42  24  42  1   
 43  25  27  1   
 44  25  43  1   
 45  25  44  1   
 46  26  27  1   
 47  26  45  1   
 48  26  46  1   
@<TRIPOS>SUBSTRUCTURE
  1 ****   7 GROUP 4 **** **** 0

# MOE 2024.06 (io_trps.svl 2023.06)
