@<TRIPOS>MOLECULE
NONAME
45 48 1 0 0 
SMALL
USER_CHARGES


@<TRIPOS>ATOM
  1 O       -1.6750     0.4170    -1.2940 O.co2 1 <1>  -0.9000 
  2 C       -2.3780     0.4080    -0.2800 C.2   1 <1>   0.9060 
  3 O       -2.0340     0.9020     0.7970 O.co2 1 <1>  -0.9000 
  4 C       -3.6350    -0.4640    -0.2880 C.3   1 <1>   0.2370 
  5 N       -3.3720    -1.9310     0.0140 N.4   1 <1>  -0.9590 
  6 C       -2.7260    -2.0930     1.3690 C.3   1 <1>   0.4230 
  7 C       -2.6480    -2.5680    -1.1220 C.3   1 <1>   0.3430 
  8 C       -1.1760    -2.0770     1.3880 C.3   1 <1>   0.1200 
  9 C       -3.2760    -3.3970     2.0070 C.3   1 <1>   0.2090 
 10 C       -1.9880    -3.9190    -0.7960 C.3   1 <1>  -0.0800 
 11 O       -0.6370    -3.3440     1.1270 O.3   1 <1>  -0.5600 
 12 N       -3.8040    -4.3860     0.9880 N.pl3 1 <1>  -0.8220 
 13 C       -0.5840    -3.7060    -0.2090 C.3   1 <1>   0.1200 
 14 C       -2.8320    -4.9530    -0.0090 C.3   1 <1>   0.2090 
 15 C       -5.1870    -4.4460     0.7370 C.2   1 <1>   0.2700 
 16 N       -5.9330    -3.3990     0.7510 N.2   1 <1>  -0.3380 
 17 N       -5.9330    -5.5260     0.4150 N.pl3 1 <1>   0.5930 
 18 N       -7.1500    -3.8130     0.4170 N.2   1 <1>   0.0000 
 19 N       -7.1680    -5.0730     0.2030 N.2   1 <1>  -0.4180 
 20 C       -5.5410    -6.8860     0.2620 C.ar  1 <1>  -0.0230 
 21 C       -6.0030    -7.6410    -0.8130 C.ar  1 <1>  -0.1500 
 22 C       -4.6780    -7.4880     1.1750 C.ar  1 <1>  -0.1500 
 23 C       -5.6020    -8.9550    -0.9790 C.ar  1 <1>  -0.1500 
 24 C       -4.2770    -8.8020     1.0100 C.ar  1 <1>  -0.1500 
 25 C       -4.7370    -9.5350    -0.0680 C.ar  1 <1>  -0.1500 
 26 H       -4.0920    -0.3630    -1.2550 H     1 <1>   0.0800 
 27 H       -4.3050    -0.0570     0.4470 H     1 <1>   0.0800 
 28 H       -4.2660    -2.4430     0.1150 H     1 <1>   0.4500 
 29 H       -3.0400    -1.2670     1.9860 H     1 <1>   0.0800 
 30 H       -3.3450    -2.7080    -1.9310 H     1 <1>   0.0800 
 31 H       -1.8820    -1.8940    -1.4750 H     1 <1>   0.0800 
 32 H       -0.8540    -1.8090     2.3780 H     1 <1>   0.0800 
 33 H       -0.7590    -1.3540     0.7090 H     1 <1>   0.0800 
 34 H       -4.0750    -3.1260     2.6750 H     1 <1>   0.0800 
 35 H       -2.5220    -3.8690     2.6140 H     1 <1>   0.0800 
 36 H       -1.7970    -4.3700    -1.7520 H     1 <1>   0.0800 
 37 H       -0.0370    -2.9510    -0.7510 H     1 <1>   0.0800 
 38 H       -0.0230    -4.6240    -0.2590 H     1 <1>   0.0800 
 39 H       -2.1730    -5.6350     0.5040 H     1 <1>   0.0800 
 40 H       -3.3820    -5.5380    -0.7260 H     1 <1>   0.0800 
 41 H       -6.6840    -7.2040    -1.5260 H     1 <1>   0.1500 
 42 H       -4.3140    -6.9300     2.0220 H     1 <1>   0.1500 
 43 H       -5.9660    -9.5280    -1.8140 H     1 <1>   0.1500 
 44 H       -3.6100    -9.2570     1.7220 H     1 <1>   0.1500 
 45 H       -4.4270   -10.5580    -0.1970 H     1 <1>   0.1500 
@<TRIPOS>BOND
  1   1   2  ar  
  2   2   3  ar  
  3   2   4  1   
  4   4   5  1   
  5   4  26  1   
  6   4  27  1   
  7   5   6  1   
  8   5   7  1   
  9   5  28  1   
 10   6   8  1   
 11   6   9  1   
 12   6  29  1   
 13   7  10  1   
 14   7  30  1   
 15   7  31  1   
 16   8  11  1   
 17   8  32  1   
 18   8  33  1   
 19   9  12  1   
 20   9  34  1   
 21   9  35  1   
 22  10  13  1   
 23  10  14  1   
 24  10  36  1   
 25  11  13  1   
 26  12  14  1   
 27  12  15  1   
 28  13  37  1   
 29  13  38  1   
 30  14  39  1   
 31  14  40  1   
 32  15  16  2   
 33  15  17  1   
 34  16  18  1   
 35  17  19  1   
 36  17  20  1   
 37  18  19  2   
 38  20  21  ar  
 39  20  22  ar  
 40  21  23  ar  
 41  21  41  1   
 42  22  24  ar  
 43  22  42  1   
 44  23  25  ar  
 45  23  43  1   
 46  24  25  ar  
 47  24  44  1   
 48  25  45  1   
@<TRIPOS>SUBSTRUCTURE
  1 ****  12 GROUP 4 **** **** 0

# MOE 2024.06 (io_trps.svl 2023.06)
