@<TRIPOS>MOLECULE
NONAME
47 49 1 0 0 
SMALL
USER_CHARGES


@<TRIPOS>ATOM
  1 O       -0.8240     1.2120     2.0210 O.3   1 <1>  -0.5600 
  2 C        0.0370     1.2720     0.9340 C.3   1 <1>   0.1200 
  3 C       -2.1430     1.2310     1.5590 C.3   1 <1>   0.1200 
  4 C       -0.6320     2.3050     0.0340 C.3   1 <1>   0.4230 
  5 C       -2.0950     1.8880     0.1660 C.3   1 <1>  -0.0800 
  6 N       -0.4710     3.6470     0.6560 N.4   1 <1>  -0.9060 
  7 C       -2.5120     0.9110    -0.9510 C.3   1 <1>  -0.0170 
  8 C        0.8560     4.2690     0.4880 C.3   1 <1>   0.4230 
  9 C       -3.9720     0.5130    -0.8090 C.ar  1 <1>  -0.1430 
 10 C        1.0100     5.3080     1.6040 C.3   1 <1>  -0.1600 
 11 C        0.9670     4.8420    -0.9330 C.3   1 <1>  -0.1600 
 12 C       -4.9970     1.3600    -1.1810 C.ar  1 <1>  -0.1500 
 13 C       -4.3510    -0.7170    -0.3060 C.ar  1 <1>  -0.1500 
 14 C        2.3350     6.0880     1.5810 C.3   1 <1>  -0.1600 
 15 C        2.4230     5.1640    -1.3030 C.3   1 <1>  -0.1600 
 16 C       -6.3130     0.9540    -1.0240 C.ar  1 <1>   0.1600 
 17 C       -5.6970    -1.0240    -0.1890 C.ar  1 <1>   0.1600 
 18 C        2.3940     7.1160     0.4440 C.3   1 <1>  -0.1600 
 19 C        2.8940     6.5700    -0.9020 C.3   1 <1>  -0.1600 
 20 N       -6.6850    -0.2150    -0.5320 N.ar  1 <1>  -0.6200 
 21 H        1.0220     1.5500     1.2650 H     1 <1>   0.0800 
 22 H        0.0690     0.3000     0.4720 H     1 <1>   0.0800 
 23 H       -2.5010     0.2150     1.5270 H     1 <1>   0.0800 
 24 H       -2.7410     1.7950     2.2550 H     1 <1>   0.0800 
 25 H       -0.2750     2.2840    -0.9830 H     1 <1>   0.0800 
 26 H       -2.7550     2.7370     0.1300 H     1 <1>   0.0800 
 27 H       -1.1910     4.2980     0.3300 H     1 <1>   0.4500 
 28 H       -0.6300     3.4900     1.6630 H     1 <1>   0.4500 
 29 H       -1.8980     0.0260    -0.9320 H     1 <1>   0.0800 
 30 H       -2.3780     1.3750    -1.9130 H     1 <1>   0.0800 
 31 H        1.6210     3.5210     0.6190 H     1 <1>   0.0800 
 32 H        0.1970     6.0120     1.5690 H     1 <1>   0.0800 
 33 H        0.9610     4.7950     2.5490 H     1 <1>   0.0800 
 34 H        0.6260     4.1080    -1.6410 H     1 <1>   0.0800 
 35 H        0.3540     5.7200    -1.0480 H     1 <1>   0.0800 
 36 H       -4.7960     2.3310    -1.5940 H     1 <1>   0.1500 
 37 H       -3.6210    -1.4450    -0.0020 H     1 <1>   0.1500 
 38 H        2.4100     6.6280     2.5100 H     1 <1>   0.0800 
 39 H        3.1820     5.4230     1.5370 H     1 <1>   0.0800 
 40 H        3.0810     4.4310    -0.8670 H     1 <1>   0.0800 
 41 H        2.5380     5.0800    -2.3720 H     1 <1>   0.0800 
 42 H       -7.1010     1.6260    -1.3190 H     1 <1>   0.1500 
 43 H       -5.9750    -1.9860     0.2060 H     1 <1>   0.1500 
 44 H        1.4280     7.5720     0.3130 H     1 <1>   0.0800 
 45 H        3.0630     7.9090     0.7370 H     1 <1>   0.0800 
 46 H        3.9710     6.5670    -0.8930 H     1 <1>   0.0800 
 47 H        2.5980     7.2670    -1.6690 H     1 <1>   0.0800 
@<TRIPOS>BOND
  1   1   2  1   
  2   1   3  1   
  3   2   4  1   
  4   2  21  1   
  5   2  22  1   
  6   3   5  1   
  7   3  23  1   
  8   3  24  1   
  9   4   5  1   
 10   4   6  1   
 11   4  25  1   
 12   5   7  1   
 13   5  26  1   
 14   6   8  1   
 15   6  27  1   
 16   6  28  1   
 17   7   9  1   
 18   7  29  1   
 19   7  30  1   
 20   8  10  1   
 21   8  11  1   
 22   8  31  1   
 23   9  12  ar  
 24   9  13  ar  
 25  10  14  1   
 26  10  32  1   
 27  10  33  1   
 28  11  15  1   
 29  11  34  1   
 30  11  35  1   
 31  12  16  ar  
 32  12  36  1   
 33  13  17  ar  
 34  13  37  1   
 35  14  18  1   
 36  14  38  1   
 37  14  39  1   
 38  15  19  1   
 39  15  40  1   
 40  15  41  1   
 41  16  20  ar  
 42  16  42  1   
 43  17  20  ar  
 44  17  43  1   
 45  18  19  1   
 46  18  44  1   
 47  18  45  1   
 48  19  46  1   
 49  19  47  1   
@<TRIPOS>SUBSTRUCTURE
  1 ****   4 GROUP 4 **** **** 0

# MOE 2024.06 (io_trps.svl 2023.06)
