@<TRIPOS>MOLECULE
NONAME
59 61 1 0 0 
SMALL
USER_CHARGES


@<TRIPOS>ATOM
  1 O        0.7290     0.7880    -1.7440 O.3   1 <1>  -0.5600 
  2 C        1.8640    -0.0440    -1.6840 C.3   1 <1>   0.2000 
  3 C        0.9860     2.1590    -1.6500 C.3   1 <1>   0.1200 
  4 C        2.6870     0.2180    -0.3930 C.3   1 <1>   0.5660 
  5 C        1.4000    -1.5080    -1.7370 C.3   1 <1>   0.1200 
  6 C        1.6660     2.4800    -0.3090 C.3   1 <1>   0.3430 
  7 N        2.9140     1.6710    -0.1280 N.4   1 <1>  -0.9590 
  8 C        4.0420    -0.4770    -0.4470 C.ar  1 <1>  -0.1430 
  9 O        0.8540    -1.8860    -0.5120 O.3   1 <1>  -0.6800 
 10 C        3.5720     1.9100     1.1810 C.3   1 <1>   0.4870 
 11 C        4.3240    -1.4690     0.4810 C.ar  1 <1>  -0.1500 
 12 C        5.0020    -0.1420    -1.3960 C.ar  1 <1>  -0.1500 
 13 C        3.9590     3.3740     1.2550 C.ar  1 <1>  -0.1430 
 14 C        5.5480    -2.1160     0.4770 C.ar  1 <1>   0.0830 
 15 C        6.2310    -0.7800    -1.4000 C.ar  1 <1>  -0.1500 
 16 C        4.8180     3.9180     0.3050 C.ar  1 <1>   0.0830 
 17 C        3.4490     4.1720     2.2670 C.ar  1 <1>  -0.1500 
 18 O        5.7320    -3.0880     1.4020 O.3   1 <1>  -0.3620 
 19 C        6.5210    -1.7510    -0.4590 C.ar  1 <1>   0.0830 
 20 O        5.3010     3.0670    -0.6480 O.3   1 <1>  -0.3630 
 21 C        5.1330     5.2850     0.3450 C.ar  1 <1>   0.0830 
 22 C        3.7790     5.5130     2.3260 C.ar  1 <1>  -0.1500 
 23 C        5.9110    -4.4010     0.9160 C.3   1 <1>   0.0400 
 24 O        7.7570    -2.3040    -0.5000 O.3   1 <1>  -0.3630 
 25 C        6.6880     3.0790    -0.9330 C.3   1 <1>   0.0400 
 26 O        5.9180     5.8140    -0.6360 O.3   1 <1>  -0.3630 
 27 C        4.6120     6.0680     1.3710 C.ar  1 <1>  -0.1500 
 28 C        8.5930    -2.0810     0.6160 C.3   1 <1>   0.0400 
 29 C        6.2740     7.1810    -0.6580 C.3   1 <1>   0.0400 
 30 H        2.4590     0.1620    -2.5560 H     1 <1>   0.0800 
 31 H        1.6000     2.4600    -2.4810 H     1 <1>   0.0800 
 32 H        0.0420     2.6730    -1.7170 H     1 <1>   0.0800 
 33 H        2.1260    -0.1960     0.4290 H     1 <1>   0.0800 
 34 H        2.2310    -2.1620    -1.9420 H     1 <1>   0.0800 
 35 H        0.6550    -1.6330    -2.5050 H     1 <1>   0.0800 
 36 H        0.9720     2.2670     0.4870 H     1 <1>   0.0800 
 37 H        1.9030     3.5320    -0.2720 H     1 <1>   0.0800 
 38 H        3.6160     2.0060    -0.8040 H     1 <1>   0.4500 
 39 H        0.3480    -2.7220    -0.6030 H     1 <1>   0.4000 
 40 H        2.9060     1.6550     1.9890 H     1 <1>   0.0800 
 41 H        4.4640     1.3090     1.2640 H     1 <1>   0.0800 
 42 H        3.5970    -1.7650     1.2180 H     1 <1>   0.1500 
 43 H        4.8160     0.6140    -2.1400 H     1 <1>   0.1500 
 44 H        6.9780    -0.5260    -2.1320 H     1 <1>   0.1500 
 45 H        2.7940     3.7650     3.0200 H     1 <1>   0.1500 
 46 H        3.3870     6.1310     3.1170 H     1 <1>   0.1500 
 47 H        5.9370    -5.0700     1.7570 H     1 <1>   0.0800 
 48 H        6.8380    -4.4610     0.3750 H     1 <1>   0.0800 
 49 H        5.0870    -4.6510     0.2720 H     1 <1>   0.0800 
 50 H        6.9730     2.1060    -1.2880 H     1 <1>   0.0800 
 51 H        7.2350     3.3170    -0.0370 H     1 <1>   0.0800 
 52 H        6.8820     3.8120    -1.6950 H     1 <1>   0.0800 
 53 H        4.8380     7.1150     1.4480 H     1 <1>   0.1500 
 54 H        9.5640    -2.4860     0.3940 H     1 <1>   0.0800 
 55 H        8.1820    -2.5740     1.4780 H     1 <1>   0.0800 
 56 H        8.6670    -1.0220     0.7890 H     1 <1>   0.0800 
 57 H        6.8960     7.3510    -1.5190 H     1 <1>   0.0800 
 58 H        6.8220     7.4150     0.2380 H     1 <1>   0.0800 
 59 H        5.3810     7.7750    -0.7330 H     1 <1>   0.0800 
@<TRIPOS>BOND
  1   1   2  1   
  2   1   3  1   
  3   2   4  1   
  4   2   5  1   
  5   2  30  1   
  6   3   6  1   
  7   3  31  1   
  8   3  32  1   
  9   4   7  1   
 10   4   8  1   
 11   4  33  1   
 12   5   9  1   
 13   5  34  1   
 14   5  35  1   
 15   6   7  1   
 16   6  36  1   
 17   6  37  1   
 18   7  10  1   
 19   7  38  1   
 20   8  11  ar  
 21   8  12  ar  
 22   9  39  1   
 23  10  13  1   
 24  10  40  1   
 25  10  41  1   
 26  11  14  ar  
 27  11  42  1   
 28  12  15  ar  
 29  12  43  1   
 30  13  16  ar  
 31  13  17  ar  
 32  14  18  1   
 33  14  19  ar  
 34  15  19  ar  
 35  15  44  1   
 36  16  20  1   
 37  16  21  ar  
 38  17  22  ar  
 39  17  45  1   
 40  18  23  1   
 41  19  24  1   
 42  20  25  1   
 43  21  26  1   
 44  21  27  ar  
 45  22  27  ar  
 46  22  46  1   
 47  23  47  1   
 48  23  48  1   
 49  23  49  1   
 50  24  28  1   
 51  25  50  1   
 52  25  51  1   
 53  25  52  1   
 54  26  29  1   
 55  27  53  1   
 56  28  54  1   
 57  28  55  1   
 58  28  56  1   
 59  29  57  1   
 60  29  58  1   
 61  29  59  1   
@<TRIPOS>SUBSTRUCTURE
  1 ****   7 GROUP 4 **** **** 0

# MOE 2024.06 (io_trps.svl 2023.06)
