@<TRIPOS>MOLECULE
NONAME
46 48 1 0 0 
SMALL
USER_CHARGES


@<TRIPOS>ATOM
  1 CL       2.5310     2.3280     3.6600 Cl    1 <1>  -0.1770 
  2 C        1.5490     2.9400     2.3540 C.ar  1 <1>   0.1770 
  3 C        2.1060     3.8240     1.4560 C.ar  1 <1>  -0.1500 
  4 C        0.2350     2.5310     2.2410 C.ar  1 <1>  -0.1500 
  5 C        1.3420     4.3240     0.4080 C.ar  1 <1>   0.1000 
  6 C       -0.5330     3.0250     1.2000 C.ar  1 <1>  -0.1500 
  7 N        1.9050     5.2160    -0.5030 N.pl3 1 <1>  -0.8380 
  8 C        0.0110     3.9160     0.2860 C.ar  1 <1>  -0.1430 
  9 C        2.1900     6.6090    -0.0450 C.3   1 <1>   0.2090 
 10 C        2.8110     4.6640    -1.5540 C.3   1 <1>   0.2090 
 11 C       -0.8580     4.4430    -0.8470 C.3   1 <1>  -0.0970 
 12 C        3.6860     6.8140     0.2770 C.3   1 <1>   0.3430 
 13 C        4.2980     4.8930    -1.2060 C.3   1 <1>   0.3430 
 14 N        4.5890     6.3180    -0.8230 N.4   1 <1>  -0.9590 
 15 C        6.0290     6.5790    -0.5270 C.3   1 <1>   0.4860 
 16 C        6.3070     8.0720    -0.6770 C.ar  1 <1>   0.1670 
 17 N        5.6620     8.6970    -1.6610 N.ar  1 <1>  -0.6200 
 18 C        7.1820     8.6950     0.1940 C.ar  1 <1>  -0.1500 
 19 C        5.9190     9.9930    -1.7810 C.ar  1 <1>   0.1600 
 20 C        7.4310    10.0430     0.0600 C.ar  1 <1>   0.0830 
 21 C        6.7770    10.7050    -0.9640 C.ar  1 <1>  -0.1500 
 22 O        8.2880    10.6160     0.9300 O.3   1 <1>  -0.3620 
 23 C        8.6340    11.9810     0.8390 C.3   1 <1>   0.0400 
 24 H        3.1280     4.1160     1.5780 H     1 <1>   0.1500 
 25 H       -0.1780     1.8400     2.9540 H     1 <1>   0.1500 
 26 H       -1.5580     2.7090     1.1080 H     1 <1>   0.1500 
 27 H        1.6030     6.8250     0.8320 H     1 <1>   0.0800 
 28 H        1.8900     7.2990    -0.8140 H     1 <1>   0.0800 
 29 H        2.5820     5.1340    -2.4940 H     1 <1>   0.0800 
 30 H        2.6280     3.6090    -1.6650 H     1 <1>   0.0800 
 31 H       -0.4360     4.1570    -1.7940 H     1 <1>   0.0800 
 32 H       -0.9050     5.5160    -0.8010 H     1 <1>   0.0800 
 33 H       -1.8580     4.0550    -0.7870 H     1 <1>   0.0800 
 34 H        3.9060     6.2870     1.1900 H     1 <1>   0.0800 
 35 H        3.8630     7.8630     0.4500 H     1 <1>   0.0800 
 36 H        4.9010     4.6090    -2.0540 H     1 <1>   0.0800 
 37 H        4.5520     4.2410    -0.3870 H     1 <1>   0.0800 
 38 H        4.4070     6.9360    -1.6350 H     1 <1>   0.4500 
 39 H        6.6460     6.0520    -1.2360 H     1 <1>   0.0800 
 40 H        6.2810     6.2470     0.4660 H     1 <1>   0.0800 
 41 H        7.6830     8.1570     0.9790 H     1 <1>   0.1500 
 42 H        5.4180    10.5210    -2.5770 H     1 <1>   0.1500 
 43 H        6.9210    11.7540    -1.1380 H     1 <1>   0.1500 
 44 H        9.3360    12.2010     1.6230 H     1 <1>   0.0800 
 45 H        7.7470    12.5770     0.9660 H     1 <1>   0.0800 
 46 H        9.0880    12.1650    -0.1190 H     1 <1>   0.0800 
@<TRIPOS>BOND
  1   1   2  1   
  2   2   3  ar  
  3   2   4  ar  
  4   3   5  ar  
  5   3  24  1   
  6   4   6  ar  
  7   4  25  1   
  8   5   7  1   
  9   5   8  ar  
 10   6   8  ar  
 11   6  26  1   
 12   7   9  1   
 13   7  10  1   
 14   8  11  1   
 15   9  12  1   
 16   9  27  1   
 17   9  28  1   
 18  10  13  1   
 19  10  29  1   
 20  10  30  1   
 21  11  31  1   
 22  11  32  1   
 23  11  33  1   
 24  12  14  1   
 25  12  34  1   
 26  12  35  1   
 27  13  14  1   
 28  13  36  1   
 29  13  37  1   
 30  14  15  1   
 31  14  38  1   
 32  15  16  1   
 33  15  39  1   
 34  15  40  1   
 35  16  17  ar  
 36  16  18  ar  
 37  17  19  ar  
 38  18  20  ar  
 39  18  41  1   
 40  19  21  ar  
 41  19  42  1   
 42  20  21  ar  
 43  20  22  1   
 44  21  43  1   
 45  22  23  1   
 46  23  44  1   
 47  23  45  1   
 48  23  46  1   
@<TRIPOS>SUBSTRUCTURE
  1 ****  12 GROUP 4 **** **** 0

# MOE 2024.06 (io_trps.svl 2023.06)
