@<TRIPOS>MOLECULE
NONAME
52 54 1 0 0 
SMALL
USER_CHARGES


@<TRIPOS>ATOM
  1 O        0.7330     0.2160     0.1500 O.2   1 <1>  -0.5700 
  2 C        0.1540     1.2840     0.1910 C.2   1 <1>   0.5440 
  3 N       -1.1920     1.2700     0.4130 N.am  1 <1>  -0.7300 
  4 C        0.8690     2.5350     0.0050 C.ar  1 <1>   0.0860 
  5 C       -2.0180     0.0630     0.6800 C.3   1 <1>   0.2200 
  6 C        0.2540     3.6640    -0.5440 C.ar  1 <1>  -0.1500 
  7 C        2.2100     2.6520     0.3720 C.ar  1 <1>  -0.1500 
  8 C       -2.3620    -0.6860    -0.6250 C.3   1 <1>   0.2000 
  9 C       -3.2790     0.5070     1.4250 C.3   1 <1>  -0.1600 
 10 C        0.9410     4.8540    -0.7020 C.ar  1 <1>  -0.1500 
 11 C        2.9030     3.8390     0.2150 C.ar  1 <1>  -0.1500 
 12 O       -1.2000    -1.1990    -1.1960 O.3   1 <1>  -0.6800 
 13 C       -3.3300    -1.8450    -0.3630 C.3   1 <1>   0.2090 
 14 C       -4.2240    -0.6700     1.6810 C.3   1 <1>   0.2090 
 15 C        2.2670     4.9440    -0.3210 C.ar  1 <1>  -0.1500 
 16 N       -4.5180    -1.3870     0.4150 N.pl3 1 <1>  -0.8380 
 17 C       -5.6580    -1.0700    -0.2870 C.ar  1 <1>   0.4100 
 18 N       -5.7760     0.1810    -0.6830 N.ar  1 <1>  -0.6200 
 19 C       -6.6320    -2.0170    -0.5770 C.ar  1 <1>  -0.1430 
 20 C       -6.8650     0.4680    -1.3660 C.ar  1 <1>   0.4770 
 21 C       -7.7170    -1.5860    -1.2950 C.ar  1 <1>   0.1600 
 22 C       -6.5310    -3.4690    -0.1230 C.3   1 <1>  -0.0170 
 23 N       -7.8510    -0.3400    -1.7030 N.ar  1 <1>  -0.6200 
 24 C       -7.0020     1.8980    -1.8290 C.3   1 <1>  -0.0970 
 25 C       -7.0420    -3.6250     1.3140 C.3   1 <1>  -0.1600 
 26 C       -6.9580    -5.0800     1.7870 C.3   1 <1>  -0.2400 
 27 H       -1.7010     2.1530     0.4400 H     1 <1>   0.3700 
 28 H       -1.4660    -0.6080     1.3170 H     1 <1>   0.0800 
 29 H       -0.7720     3.6110    -0.8600 H     1 <1>   0.1500 
 30 H        2.7110     1.7950     0.7870 H     1 <1>   0.1500 
 31 H       -2.8100    -0.0080    -1.3300 H     1 <1>   0.0800 
 32 H       -3.0070     0.9420     2.3690 H     1 <1>   0.0800 
 33 H       -3.8060     1.2450     0.8480 H     1 <1>   0.0800 
 34 H        0.4470     5.7120    -1.1260 H     1 <1>   0.1500 
 35 H        3.9360     3.9020     0.5090 H     1 <1>   0.1500 
 36 H       -0.4200    -0.7000    -0.8350 H     1 <1>   0.4000 
 37 H       -2.8260    -2.6160     0.1950 H     1 <1>   0.0800 
 38 H       -3.6510    -2.2540    -1.3050 H     1 <1>   0.0800 
 39 H       -5.1450    -0.3090     2.1090 H     1 <1>   0.0800 
 40 H       -3.7780    -1.3600     2.3770 H     1 <1>   0.0800 
 41 H        2.8050     5.8690    -0.4430 H     1 <1>   0.1500 
 42 H       -8.5050    -2.2740    -1.5470 H     1 <1>   0.1500 
 43 H       -7.1100    -4.0940    -0.7810 H     1 <1>   0.0800 
 44 H       -5.5090    -3.7990    -0.1830 H     1 <1>   0.0800 
 45 H       -8.0280     2.2080    -1.7580 H     1 <1>   0.0800 
 46 H       -6.6800     1.9710    -2.8500 H     1 <1>   0.0800 
 47 H       -6.3990     2.5470    -1.2200 H     1 <1>   0.0800 
 48 H       -6.4520    -3.0040     1.9660 H     1 <1>   0.0800 
 49 H       -8.0630    -3.2880     1.3700 H     1 <1>   0.0800 
 50 H       -5.9390    -5.4250     1.7600 H     1 <1>   0.0800 
 51 H       -7.5580    -5.7160     1.1600 H     1 <1>   0.0800 
 52 H       -7.3180    -5.1580     2.7970 H     1 <1>   0.0800 
@<TRIPOS>BOND
  1   1   2  2   
  2   2   3  am  
  3   2   4  1   
  4   3   5  1   
  5   3  27  1   
  6   4   6  ar  
  7   4   7  ar  
  8   5   8  1   
  9   5   9  1   
 10   5  28  1   
 11   6  10  ar  
 12   6  29  1   
 13   7  11  ar  
 14   7  30  1   
 15   8  12  1   
 16   8  13  1   
 17   8  31  1   
 18   9  14  1   
 19   9  32  1   
 20   9  33  1   
 21  10  15  ar  
 22  10  34  1   
 23  11  15  ar  
 24  11  35  1   
 25  12  36  1   
 26  13  16  1   
 27  13  37  1   
 28  13  38  1   
 29  14  16  1   
 30  14  39  1   
 31  14  40  1   
 32  15  41  1   
 33  16  17  1   
 34  17  18  ar  
 35  17  19  ar  
 36  18  20  ar  
 37  19  21  ar  
 38  19  22  1   
 39  20  23  ar  
 40  20  24  1   
 41  21  23  ar  
 42  21  42  1   
 43  22  25  1   
 44  22  43  1   
 45  22  44  1   
 46  24  45  1   
 47  24  46  1   
 48  24  47  1   
 49  25  26  1   
 50  25  48  1   
 51  25  49  1   
 52  26  50  1   
 53  26  51  1   
 54  26  52  1   
@<TRIPOS>SUBSTRUCTURE
  1 ****   8 GROUP 4 **** **** 0

# MOE 2024.06 (io_trps.svl 2023.06)
