@<TRIPOS>MOLECULE
NONAME
54 56 1 0 0 
SMALL
USER_CHARGES


@<TRIPOS>ATOM
  1 F       -1.1530    -0.3840     0.1790 F     1 <1>  -0.1900 
  2 C       -2.3490     0.1360     0.0730 C.ar  1 <1>   0.1900 
  3 C       -2.9580     0.8190     1.1310 C.ar  1 <1>   0.0830 
  4 C       -2.9840    -0.0280    -1.1430 C.ar  1 <1>  -0.1500 
  5 O       -2.4350     1.0500     2.3690 O.3   1 <1>  -0.3630 
  6 C       -4.2320     1.3220     0.9220 C.ar  1 <1>  -0.1500 
  7 C       -4.2540     0.4880    -1.3190 C.ar  1 <1>  -0.1500 
  8 C       -1.1060     0.7240     2.7130 C.3   1 <1>   0.0400 
  9 C       -4.9090     1.1650    -0.2880 C.ar  1 <1>   0.0530 
 10 C       -6.2390     1.6890    -0.4510 C.2   1 <1>   0.0870 
 11 O       -6.5410     2.8780     0.0040 O.3   1 <1>  -0.0190 
 12 C       -7.3750     1.1740    -0.9910 C.2   1 <1>  -0.0860 
 13 N       -7.7920     3.1990    -0.2010 N.2   1 <1>  -0.4100 
 14 C       -8.3140     2.1950    -0.8150 C.2   1 <1>   0.3720 
 15 C       -7.6310    -0.1110    -1.5600 C.2   1 <1>   0.7160 
 16 N       -9.6550     2.1340    -1.2320 N.pl3 1 <1>  -0.8210 
 17 O       -7.0590    -0.4410    -2.5810 O.2   1 <1>  -0.5700 
 18 N       -8.5040    -1.0150    -0.9800 N.am  1 <1>  -0.6600 
 19 C      -10.5620     3.1240    -0.5770 C.3   1 <1>   0.1290 
 20 C       -9.8060     2.1830    -2.7140 C.3   1 <1>   0.1290 
 21 C       -8.8560    -2.3020    -1.6600 C.3   1 <1>   0.1400 
 22 C       -9.2970    -0.7030     0.2520 C.3   1 <1>   0.1400 
 23 C       -8.9200    -3.4710    -0.6600 C.3   1 <1>   0.3430 
 24 C       -9.3690    -1.9110     1.2050 C.3   1 <1>   0.3430 
 25 N       -9.8220    -3.1690     0.5100 N.4   1 <1>  -0.9590 
 26 C       -9.8790    -4.3020     1.4930 C.3   1 <1>   0.3430 
 27 C      -10.5780    -5.5520     0.9370 C.3   1 <1>   0.1200 
 28 O      -10.6130    -6.4940     1.9480 O.3   1 <1>  -0.6800 
 29 H       -2.4870    -0.5510    -1.9410 H     1 <1>   0.1500 
 30 H       -4.7090     1.8530     1.7270 H     1 <1>   0.1500 
 31 H       -4.7390     0.3720    -2.2730 H     1 <1>   0.1500 
 32 H       -0.9250     1.0730     3.7140 H     1 <1>   0.0800 
 33 H       -0.4360     1.2160     2.0300 H     1 <1>   0.0800 
 34 H       -0.9840    -0.3430     2.6730 H     1 <1>   0.0800 
 35 H      -10.4390     3.0850     0.4920 H     1 <1>   0.0800 
 36 H      -11.5870     2.9010    -0.8150 H     1 <1>   0.0800 
 37 H      -10.3280     4.1200    -0.9130 H     1 <1>   0.0800 
 38 H       -9.2100     1.4180    -3.1810 H     1 <1>   0.0800 
 39 H       -9.4860     3.1420    -3.0850 H     1 <1>   0.0800 
 40 H      -10.8350     2.0260    -2.9860 H     1 <1>   0.0800 
 41 H       -8.1280    -2.5420    -2.4170 H     1 <1>   0.0800 
 42 H       -9.8060    -2.1910    -2.1520 H     1 <1>   0.0800 
 43 H      -10.2900    -0.4030    -0.0360 H     1 <1>   0.0800 
 44 H       -8.8570     0.1200     0.7880 H     1 <1>   0.0800 
 45 H       -7.9210    -3.6700    -0.3070 H     1 <1>   0.0800 
 46 H       -9.2670    -4.3500    -1.1780 H     1 <1>   0.0800 
 47 H      -10.0410    -1.6770     2.0140 H     1 <1>   0.0800 
 48 H       -8.3890    -2.0660     1.6280 H     1 <1>   0.0800 
 49 H      -10.7700    -2.9940     0.1500 H     1 <1>   0.4500 
 50 H      -10.4210    -3.9860     2.3700 H     1 <1>   0.0800 
 51 H       -8.8800    -4.5700     1.7960 H     1 <1>   0.0800 
 52 H      -10.0350    -5.9760     0.1100 H     1 <1>   0.0800 
 53 H      -11.5930    -5.3350     0.6510 H     1 <1>   0.0800 
 54 H      -11.0650    -7.3200     1.6690 H     1 <1>   0.4000 
@<TRIPOS>BOND
  1   1   2  1   
  2   2   3  ar  
  3   2   4  ar  
  4   3   5  1   
  5   3   6  ar  
  6   4   7  ar  
  7   4  29  1   
  8   5   8  1   
  9   6   9  ar  
 10   6  30  1   
 11   7   9  ar  
 12   7  31  1   
 13   8  32  1   
 14   8  33  1   
 15   8  34  1   
 16   9  10  1   
 17  10  11  1   
 18  10  12  2   
 19  11  13  1   
 20  12  14  1   
 21  12  15  1   
 22  13  14  2   
 23  14  16  1   
 24  15  17  2   
 25  15  18  am  
 26  16  19  1   
 27  16  20  1   
 28  18  21  1   
 29  18  22  1   
 30  19  35  1   
 31  19  36  1   
 32  19  37  1   
 33  20  38  1   
 34  20  39  1   
 35  20  40  1   
 36  21  23  1   
 37  21  41  1   
 38  21  42  1   
 39  22  24  1   
 40  22  43  1   
 41  22  44  1   
 42  23  25  1   
 43  23  45  1   
 44  23  46  1   
 45  24  25  1   
 46  24  47  1   
 47  24  48  1   
 48  25  26  1   
 49  25  49  1   
 50  26  27  1   
 51  26  50  1   
 52  26  51  1   
 53  27  28  1   
 54  27  52  1   
 55  27  53  1   
 56  28  54  1   
@<TRIPOS>SUBSTRUCTURE
  1 ****  15 GROUP 4 **** **** 0

# MOE 2024.06 (io_trps.svl 2023.06)
