@<TRIPOS>MOLECULE
NONAME
51 53 1 0 0 
SMALL
USER_CHARGES


@<TRIPOS>ATOM
  1 O        2.6920    -3.7710     1.9320 O.3   1 <1>  -0.6800 
  2 C        1.5380    -3.8350     1.1720 C.3   1 <1>   0.2000 
  3 C        1.8260    -4.6500    -0.0810 C.3   1 <1>  -0.1600 
  4 C        1.2140    -2.4430     0.6460 C.3   1 <1>  -0.1600 
  5 C        2.4400    -3.6750    -1.1010 C.3   1 <1>  -0.0800 
  6 C        1.9810    -2.2690    -0.6780 C.3   1 <1>  -0.0800 
  7 C        3.9770    -3.6500    -1.0690 C.3   1 <1>  -0.1600 
  8 C        3.2560    -1.4310    -0.5260 C.3   1 <1>  -0.1600 
  9 C        4.3580    -2.4380    -0.2220 C.3   1 <1>   0.4230 
 10 N        5.7040    -1.9130    -0.5710 N.4   1 <1>  -0.9590 
 11 C        6.0320    -0.6860     0.2090 C.3   1 <1>   0.5240 
 12 C        6.7750    -2.9450    -0.3890 C.3   1 <1>   0.2630 
 13 C        7.3250    -0.1090    -0.3210 C.2   1 <1>  -0.1810 
 14 C        8.5720    -0.1230     0.2070 C.2   1 <1>  -0.3320 
 15 C        7.4560     0.5750    -1.5240 C.2   1 <1>   0.1390 
 16 N        9.3740     0.5260    -0.6740 N.pl3 1 <1>   0.3140 
 17 C        9.0630    -0.7140     1.5220 C.3   1 <1>  -0.0600 
 18 N        8.6740     0.9430    -1.7440 N.2   1 <1>  -0.7070 
 19 C       10.8240     0.8020    -0.5620 C.3   1 <1>   0.0960 
 20 C       11.0770     2.1280     0.1690 C.3   1 <1>  -0.1600 
 21 C       12.5770     2.4120     0.3040 C.3   1 <1>  -0.2400 
 22 H        2.7690    -4.5850     2.4700 H     1 <1>   0.4000 
 23 H        0.7450    -4.2440     1.7780 H     1 <1>   0.0800 
 24 H        2.4320    -5.5160     0.1160 H     1 <1>   0.0800 
 25 H        0.8830    -4.9910    -0.4730 H     1 <1>   0.0800 
 26 H        0.1600    -2.4140     0.4270 H     1 <1>   0.0800 
 27 H        1.4160    -1.6790     1.3770 H     1 <1>   0.0800 
 28 H        2.0970    -3.9200    -2.0930 H     1 <1>   0.0800 
 29 H        1.3310    -1.8280    -1.4170 H     1 <1>   0.0800 
 30 H        4.3320    -3.5200    -2.0770 H     1 <1>   0.0800 
 31 H        4.3820    -4.5590    -0.6620 H     1 <1>   0.0800 
 32 H        3.1520    -0.6940     0.2510 H     1 <1>   0.0800 
 33 H        3.4510    -0.9410    -1.4640 H     1 <1>   0.0800 
 34 H        4.3180    -2.7050     0.8210 H     1 <1>   0.0800 
 35 H        5.6940    -1.6400    -1.5600 H     1 <1>   0.4500 
 36 H        5.2510     0.0490     0.1060 H     1 <1>   0.0800 
 37 H        6.1390    -0.9270     1.2530 H     1 <1>   0.0800 
 38 H        6.8230    -3.2580     0.6410 H     1 <1>   0.0800 
 39 H        7.7350    -2.5430    -0.6720 H     1 <1>   0.0800 
 40 H        6.5760    -3.8080    -1.0040 H     1 <1>   0.0800 
 41 H        6.6560     0.7880    -2.2130 H     1 <1>   0.1500 
 42 H        8.2570    -1.1660     2.0690 H     1 <1>   0.0800 
 43 H        9.4940     0.0580     2.1360 H     1 <1>   0.0800 
 44 H        9.8130    -1.4640     1.3380 H     1 <1>   0.0800 
 45 H       11.2940    -0.0110    -0.0410 H     1 <1>   0.0800 
 46 H       11.2310     0.8500    -1.5550 H     1 <1>   0.0800 
 47 H       10.6160     2.9280    -0.3850 H     1 <1>   0.0800 
 48 H       10.6350     2.0950     1.1490 H     1 <1>   0.0800 
 49 H       13.0380     2.4740    -0.6670 H     1 <1>   0.0800 
 50 H       13.0620     1.6360     0.8700 H     1 <1>   0.0800 
 51 H       12.7290     3.3490     0.8120 H     1 <1>   0.0800 
@<TRIPOS>BOND
  1   1   2  1   
  2   1  22  1   
  3   2   3  1   
  4   2   4  1   
  5   2  23  1   
  6   3   5  1   
  7   3  24  1   
  8   3  25  1   
  9   4   6  1   
 10   4  26  1   
 11   4  27  1   
 12   5   6  1   
 13   5   7  1   
 14   5  28  1   
 15   6   8  1   
 16   6  29  1   
 17   7   9  1   
 18   7  30  1   
 19   7  31  1   
 20   8   9  1   
 21   8  32  1   
 22   8  33  1   
 23   9  10  1   
 24   9  34  1   
 25  10  11  1   
 26  10  12  1   
 27  10  35  1   
 28  11  13  1   
 29  11  36  1   
 30  11  37  1   
 31  12  38  1   
 32  12  39  1   
 33  12  40  1   
 34  13  14  2   
 35  13  15  1   
 36  14  16  1   
 37  14  17  1   
 38  15  18  2   
 39  15  41  1   
 40  16  18  1   
 41  16  19  1   
 42  17  42  1   
 43  17  43  1   
 44  17  44  1   
 45  19  20  1   
 46  19  45  1   
 47  19  46  1   
 48  20  21  1   
 49  20  47  1   
 50  20  48  1   
 51  21  49  1   
 52  21  50  1   
 53  21  51  1   
@<TRIPOS>SUBSTRUCTURE
  1 ****  11 GROUP 4 **** **** 0

# MOE 2024.06 (io_trps.svl 2023.06)
