@<TRIPOS>MOLECULE
NONAME
51 54 1 0 0 
SMALL
USER_CHARGES


@<TRIPOS>ATOM
  1 O       -2.6880     0.6780    -1.6970 O.2   1 <1>  -0.5700 
  2 C       -2.0330     0.6570    -0.6720 C.2   1 <1>   0.7160 
  3 N       -1.8300    -0.5430    -0.0580 N.am  1 <1>  -0.7300 
  4 C       -1.5070     1.8700    -0.1010 C.2   1 <1>  -0.0860 
  5 C       -2.3820    -1.8280    -0.5380 C.3   1 <1>   0.2200 
  6 C       -0.6050     1.9840     0.9610 C.2   1 <1>   0.1390 
  7 C       -1.7420     3.1680    -0.4380 C.2   1 <1>  -0.3020 
  8 C       -3.7820    -2.0090     0.0250 C.3   1 <1>  -0.0800 
  9 C       -1.6360    -2.9880     0.1090 C.3   1 <1>   0.1200 
 10 N       -0.3190     3.2120     1.2560 N.2   1 <1>  -0.7070 
 11 N       -1.0260     3.9530     0.3830 N.pl3 1 <1>   0.3140 
 12 C       -3.5160    -2.6510     1.3920 C.3   1 <1>   0.1200 
 13 C       -4.6430    -2.9030    -0.8890 C.3   1 <1>  -0.0160 
 14 O       -2.2090    -3.1500     1.3700 O.3   1 <1>  -0.5600 
 15 C       -0.9660     5.4410     0.3920 C.3   1 <1>   0.1760 
 16 C       -6.0860    -2.9750    -0.4010 C.ar  1 <1>  -0.1440 
 17 C       -2.3420     6.0380     0.7150 C.3   1 <1>  -0.2400 
 18 C       -0.4360     5.9730    -0.9470 C.3   1 <1>  -0.2400 
 19 C       -6.9950    -1.9040    -0.5740 C.ar  1 <1>   0.0000 
 20 C       -6.5440    -4.0970     0.2270 C.ar  1 <1>  -0.1500 
 21 C       -8.3070    -2.0680    -0.0660 C.ar  1 <1>   0.3100 
 22 C       -6.6840    -0.6840    -1.2210 C.ar  1 <1>  -0.1500 
 23 C       -7.8650    -4.1580     0.6860 C.ar  1 <1>   0.1600 
 24 N       -8.7250    -3.1980     0.5590 N.ar  1 <1>  -0.6200 
 25 C       -9.2300    -1.0200    -0.2130 C.ar  1 <1>  -0.1500 
 26 C       -7.6070     0.3180    -1.3480 C.ar  1 <1>  -0.1500 
 27 C       -8.8960     0.1510    -0.8370 C.ar  1 <1>  -0.1500 
 28 H       -1.4720    -0.5690     0.8970 H     1 <1>   0.3700 
 29 H       -2.3450    -1.8670    -1.6140 H     1 <1>   0.0800 
 30 H       -0.1800     1.1480     1.4890 H     1 <1>   0.1500 
 31 H       -2.3800     3.5450    -1.2160 H     1 <1>   0.1500 
 32 H       -4.2730    -1.0610     0.1480 H     1 <1>   0.0800 
 33 H       -0.5810    -2.8030     0.2090 H     1 <1>   0.0800 
 34 H       -1.7950    -3.8980    -0.4420 H     1 <1>   0.0800 
 35 H       -4.1920    -3.4580     1.6140 H     1 <1>   0.0800 
 36 H       -3.5700    -1.9160     2.1760 H     1 <1>   0.0800 
 37 H       -4.2230    -3.8930    -0.9290 H     1 <1>   0.0800 
 38 H       -4.6340    -2.5190    -1.8940 H     1 <1>   0.0800 
 39 H       -0.2780     5.7250     1.1690 H     1 <1>   0.0800 
 40 H       -3.0570     5.7880    -0.0490 H     1 <1>   0.0800 
 41 H       -2.2730     7.1080     0.7820 H     1 <1>   0.0800 
 42 H       -2.6900     5.6630     1.6620 H     1 <1>   0.0800 
 43 H       -1.1060     5.7230    -1.7510 H     1 <1>   0.0800 
 44 H        0.5330     5.5520    -1.1510 H     1 <1>   0.0800 
 45 H       -0.3370     7.0420    -0.9050 H     1 <1>   0.0800 
 46 H       -5.9130    -4.9520     0.3870 H     1 <1>   0.1500 
 47 H       -5.7000    -0.5300    -1.6260 H     1 <1>   0.1500 
 48 H       -8.1850    -5.0620     1.1760 H     1 <1>   0.1500 
 49 H      -10.2160    -1.1710     0.1850 H     1 <1>   0.1500 
 50 H       -7.3530     1.2410    -1.8400 H     1 <1>   0.1500 
 51 H       -9.6140     0.9470    -0.9430 H     1 <1>   0.1500 
@<TRIPOS>BOND
  1   1   2  2   
  2   2   3  am  
  3   2   4  1   
  4   3   5  1   
  5   3  28  1   
  6   4   6  1   
  7   4   7  2   
  8   5   8  1   
  9   5   9  1   
 10   5  29  1   
 11   6  10  2   
 12   6  30  1   
 13   7  11  1   
 14   7  31  1   
 15   8  12  1   
 16   8  13  1   
 17   8  32  1   
 18   9  14  1   
 19   9  33  1   
 20   9  34  1   
 21  10  11  1   
 22  11  15  1   
 23  12  14  1   
 24  12  35  1   
 25  12  36  1   
 26  13  16  1   
 27  13  37  1   
 28  13  38  1   
 29  15  17  1   
 30  15  18  1   
 31  15  39  1   
 32  16  19  ar  
 33  16  20  ar  
 34  17  40  1   
 35  17  41  1   
 36  17  42  1   
 37  18  43  1   
 38  18  44  1   
 39  18  45  1   
 40  19  21  ar  
 41  19  22  ar  
 42  20  23  ar  
 43  20  46  1   
 44  21  24  ar  
 45  21  25  ar  
 46  22  26  ar  
 47  22  47  1   
 48  23  24  ar  
 49  23  48  1   
 50  25  27  ar  
 51  25  49  1   
 52  26  27  ar  
 53  26  50  1   
 54  27  51  1   
@<TRIPOS>SUBSTRUCTURE
  1 ****   8 GROUP 4 **** **** 0

# MOE 2024.06 (io_trps.svl 2023.06)
