@<TRIPOS>MOLECULE
NONAME
54 56 1 0 0 
SMALL
USER_CHARGES


@<TRIPOS>ATOM
  1 O        0.1150     1.0030     0.7510 O.2   1 <1>  -0.5700 
  2 C       -0.0220     2.1670     0.4600 C.2   1 <1>   0.5690 
  3 N       -1.0460     2.9320     0.9500 N.am  1 <1>  -0.6600 
  4 C        0.9790     2.7920    -0.5110 C.3   1 <1>   0.1810 
  5 C       -1.2140     4.3660     0.5400 C.3   1 <1>   0.3640 
  6 C       -2.0190     2.4160     1.9570 C.3   1 <1>   0.0600 
  7 O        1.0790     4.1850    -0.3550 O.3   1 <1>  -0.5600 
  8 C       -2.6450     4.6360     0.0460 C.ar  1 <1>  -0.1430 
  9 C       -0.1580     4.8740    -0.4780 C.3   1 <1>   0.2610 
 10 C       -3.3070     3.8870    -0.9350 C.ar  1 <1>  -0.1430 
 11 C       -3.3100     5.7090     0.6280 C.ar  1 <1>  -0.1500 
 12 C        0.0620     6.3750    -0.2680 C.2   1 <1>   0.5690 
 13 C       -4.6040     4.2260    -1.2910 C.ar  1 <1>  -0.1500 
 14 C       -2.6870     2.6910    -1.6490 C.3   1 <1>  -0.0960 
 15 C       -4.6010     6.0380     0.2620 C.ar  1 <1>  -0.1500 
 16 O       -0.7460     7.1680    -0.6870 O.2   1 <1>  -0.5700 
 17 N        1.1790     6.7900     0.3900 N.am  1 <1>  -0.7300 
 18 C       -5.2520     5.2930    -0.6990 C.ar  1 <1>  -0.1500 
 19 C        1.5330     8.1990     0.6900 C.3   1 <1>   0.1400 
 20 C        2.0390     8.9020    -0.5690 C.3   1 <1>   0.1200 
 21 O        2.5290    10.1530    -0.2040 O.3   1 <1>  -0.5600 
 22 C        2.9430    10.9360    -1.2800 C.3   1 <1>   0.2630 
 23 C        3.4850    12.2590    -0.7590 C.ar  1 <1>  -0.1430 
 24 C        4.7450    12.7020    -1.1340 C.ar  1 <1>  -0.1500 
 25 C        2.7180    13.0410     0.0920 C.ar  1 <1>  -0.1500 
 26 C        5.2290    13.9130    -0.6690 C.ar  1 <1>  -0.1500 
 27 C        3.2000    14.2520     0.5580 C.ar  1 <1>  -0.1500 
 28 C        4.4560    14.6900     0.1770 C.ar  1 <1>  -0.1500 
 29 H        0.6900     2.5760    -1.5230 H     1 <1>   0.0800 
 30 H        1.9530     2.3720    -0.3320 H     1 <1>   0.0800 
 31 H       -1.0670     4.9420     1.4370 H     1 <1>   0.0800 
 32 H       -2.0340     3.0630     2.8160 H     1 <1>   0.0800 
 33 H       -1.7460     1.4250     2.2780 H     1 <1>   0.0800 
 34 H       -3.0060     2.3770     1.5290 H     1 <1>   0.0800 
 35 H       -0.5160     4.7330    -1.4800 H     1 <1>   0.0800 
 36 H       -2.8240     6.3140     1.3730 H     1 <1>   0.1500 
 37 H       -5.1280     3.6570    -2.0390 H     1 <1>   0.1500 
 38 H       -3.2720     2.4100    -2.5060 H     1 <1>   0.0800 
 39 H       -2.6460     1.8460    -0.9860 H     1 <1>   0.0800 
 40 H       -1.6980     2.9170    -1.9950 H     1 <1>   0.0800 
 41 H       -5.0960     6.8760     0.7230 H     1 <1>   0.1500 
 42 H        1.8810     6.0760     0.6130 H     1 <1>   0.3700 
 43 H       -6.2570     5.5440    -0.9880 H     1 <1>   0.1500 
 44 H        0.6620     8.7150     1.0560 H     1 <1>   0.0800 
 45 H        2.2970     8.2190     1.4480 H     1 <1>   0.0800 
 46 H        1.2300     9.0310    -1.2680 H     1 <1>   0.0800 
 47 H        2.8400     8.3400    -1.0170 H     1 <1>   0.0800 
 48 H        3.7050    10.4010    -1.8210 H     1 <1>   0.0800 
 49 H        2.0980    11.1140    -1.9230 H     1 <1>   0.0800 
 50 H        5.3560    12.1070    -1.7900 H     1 <1>   0.1500 
 51 H        1.7430    12.7010     0.3940 H     1 <1>   0.1500 
 52 H        6.2070    14.2500    -0.9640 H     1 <1>   0.1500 
 53 H        2.5970    14.8510     1.2180 H     1 <1>   0.1500 
 54 H        4.8320    15.6310     0.5380 H     1 <1>   0.1500 
@<TRIPOS>BOND
  1   1   2  2   
  2   2   3  am  
  3   2   4  1   
  4   3   5  1   
  5   3   6  1   
  6   4   7  1   
  7   4  29  1   
  8   4  30  1   
  9   5   8  1   
 10   5   9  1   
 11   5  31  1   
 12   6  32  1   
 13   6  33  1   
 14   6  34  1   
 15   7   9  1   
 16   8  10  ar  
 17   8  11  ar  
 18   9  12  1   
 19   9  35  1   
 20  10  13  ar  
 21  10  14  1   
 22  11  15  ar  
 23  11  36  1   
 24  12  16  2   
 25  12  17  am  
 26  13  18  ar  
 27  13  37  1   
 28  14  38  1   
 29  14  39  1   
 30  14  40  1   
 31  15  18  ar  
 32  15  41  1   
 33  17  19  1   
 34  17  42  1   
 35  18  43  1   
 36  19  20  1   
 37  19  44  1   
 38  19  45  1   
 39  20  21  1   
 40  20  46  1   
 41  20  47  1   
 42  21  22  1   
 43  22  23  1   
 44  22  48  1   
 45  22  49  1   
 46  23  24  ar  
 47  23  25  ar  
 48  24  26  ar  
 49  24  50  1   
 50  25  27  ar  
 51  25  51  1   
 52  26  28  ar  
 53  26  52  1   
 54  27  28  ar  
 55  27  53  1   
 56  28  54  1   
@<TRIPOS>SUBSTRUCTURE
  1 ****  12 GROUP 4 **** **** 0

# MOE 2024.06 (io_trps.svl 2023.06)
