@<TRIPOS>MOLECULE
NONAME
57 60 1 0 0 
SMALL
USER_CHARGES


@<TRIPOS>ATOM
  1 O       -0.6720     0.4250    -0.8720 O.2   1 <1>  -0.5700 
  2 C       -1.7260     1.0090    -0.7730 C.2   1 <1>   0.5690 
  3 N       -2.9150     0.3340    -0.7370 N.am  1 <1>  -0.6600 
  4 C       -1.6690     2.5470    -0.6780 C.3   1 <1>   0.4040 
  5 C       -4.2830     0.9030    -0.5910 C.3   1 <1>   0.1400 
  6 C       -2.9930    -1.1520    -0.8220 C.3   1 <1>   0.1400 
  7 N       -0.3370     3.0650    -0.1860 N.4   1 <1>  -0.9590 
  8 C       -5.1290    -0.2690    -0.0980 C.3   1 <1>   0.2000 
  9 C       -4.4920    -1.4890    -0.7760 C.3   1 <1>  -0.0800 
 10 C       -0.1230     2.7620     1.2520 C.3   1 <1>   0.3430 
 11 C       -0.1240     4.5040    -0.4800 C.3   1 <1>   0.3430 
 12 O       -4.9740    -0.3570     1.2780 O.3   1 <1>  -0.6800 
 13 C       -4.8220    -2.8400    -0.1020 C.3   1 <1>  -0.0170 
 14 C        1.2840     2.2040     1.4700 C.3   1 <1>  -0.1600 
 15 C        1.3670     4.8260    -0.6160 C.3   1 <1>  -0.1600 
 16 C       -4.3430    -4.1080    -0.8200 C.ar  1 <1>  -0.1440 
 17 C        2.4250     2.9030     0.7080 C.3   1 <1>  -0.1600 
 18 C        2.2610     4.4240     0.5710 C.3   1 <1>  -0.1600 
 19 C       -4.4270    -5.3600    -0.1590 C.ar  1 <1>   0.0000 
 20 C       -3.8390    -4.1160    -2.0910 C.ar  1 <1>  -0.1500 
 21 C       -3.9600    -6.5090    -0.8440 C.ar  1 <1>   0.3100 
 22 C       -4.9570    -5.5430     1.1410 C.ar  1 <1>  -0.1500 
 23 C       -3.4120    -5.3120    -2.6810 C.ar  1 <1>   0.1600 
 24 N       -3.4560    -6.4670    -2.1020 N.ar  1 <1>  -0.6200 
 25 C       -4.0220    -7.7580    -0.2070 C.ar  1 <1>  -0.1500 
 26 C       -5.0050    -6.7760     1.7340 C.ar  1 <1>  -0.1500 
 27 C       -4.5300    -7.9000     1.0550 C.ar  1 <1>  -0.1500 
 28 H       -2.4540     2.8880    -0.0280 H     1 <1>   0.0800 
 29 H       -1.8570     2.9340    -1.6650 H     1 <1>   0.0800 
 30 H       -4.3200     1.7250     0.1020 H     1 <1>   0.0800 
 31 H       -4.6390     1.2200    -1.5560 H     1 <1>   0.0800 
 32 H       -2.5340    -1.5030    -1.7310 H     1 <1>   0.0800 
 33 H       -2.4760    -1.5840     0.0190 H     1 <1>   0.0800 
 34 H        0.3770     2.5090    -0.6890 H     1 <1>   0.4500 
 35 H       -6.1770    -0.1530    -0.3160 H     1 <1>   0.0800 
 36 H       -4.8630    -1.5090    -1.7850 H     1 <1>   0.0800 
 37 H       -0.2490     3.6600     1.8360 H     1 <1>   0.0800 
 38 H       -0.8390     2.0330     1.5970 H     1 <1>   0.0800 
 39 H       -0.6120     4.7640    -1.4060 H     1 <1>   0.0800 
 40 H       -0.5560     5.1060     0.3040 H     1 <1>   0.0800 
 41 H       -4.0360    -0.5190     1.4940 H     1 <1>   0.4000 
 42 H       -5.8900    -2.9100     0.0130 H     1 <1>   0.0800 
 43 H       -4.3920    -2.8350     0.8840 H     1 <1>   0.0800 
 44 H        1.4900     2.2630     2.5250 H     1 <1>   0.0800 
 45 H        1.2860     1.1580     1.2170 H     1 <1>   0.0800 
 46 H        1.7420     4.3760    -1.5190 H     1 <1>   0.0800 
 47 H        1.4530     5.8910    -0.7500 H     1 <1>   0.0800 
 48 H        3.3430     2.7020     1.2360 H     1 <1>   0.0800 
 49 H        2.5370     2.4620    -0.2690 H     1 <1>   0.0800 
 50 H        3.2390     4.8420     0.3940 H     1 <1>   0.0800 
 51 H        1.9010     4.8540     1.4910 H     1 <1>   0.0800 
 52 H       -3.7500    -3.2310    -2.6900 H     1 <1>   0.1500 
 53 H       -5.3370    -4.7000     1.6860 H     1 <1>   0.1500 
 54 H       -3.0200    -5.2670    -3.6830 H     1 <1>   0.1500 
 55 H       -3.6530    -8.6080    -0.7510 H     1 <1>   0.1500 
 56 H       -5.4090    -6.8960     2.7250 H     1 <1>   0.1500 
 57 H       -4.5710    -8.8640     1.5320 H     1 <1>   0.1500 
@<TRIPOS>BOND
  1   1   2  2   
  2   2   3  am  
  3   2   4  1   
  4   3   5  1   
  5   3   6  1   
  6   4   7  1   
  7   4  28  1   
  8   4  29  1   
  9   5   8  1   
 10   5  30  1   
 11   5  31  1   
 12   6   9  1   
 13   6  32  1   
 14   6  33  1   
 15   7  10  1   
 16   7  11  1   
 17   7  34  1   
 18   8   9  1   
 19   8  12  1   
 20   8  35  1   
 21   9  13  1   
 22   9  36  1   
 23  10  14  1   
 24  10  37  1   
 25  10  38  1   
 26  11  15  1   
 27  11  39  1   
 28  11  40  1   
 29  12  41  1   
 30  13  16  1   
 31  13  42  1   
 32  13  43  1   
 33  14  17  1   
 34  14  44  1   
 35  14  45  1   
 36  15  18  1   
 37  15  46  1   
 38  15  47  1   
 39  16  19  ar  
 40  16  20  ar  
 41  17  18  1   
 42  17  48  1   
 43  17  49  1   
 44  18  50  1   
 45  18  51  1   
 46  19  21  ar  
 47  19  22  ar  
 48  20  23  ar  
 49  20  52  1   
 50  21  24  ar  
 51  21  25  ar  
 52  22  26  ar  
 53  22  53  1   
 54  23  24  ar  
 55  23  54  1   
 56  25  27  ar  
 57  25  55  1   
 58  26  27  ar  
 59  26  56  1   
 60  27  57  1   
@<TRIPOS>SUBSTRUCTURE
  1 ****   6 GROUP 4 **** **** 0

# MOE 2024.06 (io_trps.svl 2023.06)
