@<TRIPOS>MOLECULE
NONAME
45 46 1 0 0 
SMALL
USER_CHARGES


@<TRIPOS>ATOM
  1 S        0.3390     0.8860    -1.0190 S.o2  1 <1>   1.3330 
  2 O        0.7430     1.9290    -1.9360 O.2   1 <1>  -0.6500 
  3 O        0.0660    -0.4320    -1.5470 O.2   1 <1>  -0.6500 
  4 N        1.5000     0.7180     0.2110 N.am  1 <1>  -0.8490 
  5 C       -1.1390     1.4000    -0.1290 C.3   1 <1>  -0.0550 
  6 C        1.9060    -0.6670     0.4700 C.3   1 <1>   0.1160 
  7 C        2.6790     1.5720     0.0380 C.3   1 <1>   0.1160 
  8 C       -1.2500     2.8450     0.4160 C.3   1 <1>  -0.0800 
  9 C       -1.2030     3.9320    -0.6700 C.3   1 <1>   0.2000 
 10 C       -0.1910     3.2440     1.4560 C.3   1 <1>   0.1400 
 11 O       -2.1880     4.8610    -0.3750 O.3   1 <1>  -0.6800 
 12 C        0.1530     4.6240    -0.5310 C.3   1 <1>   0.1400 
 13 N        0.5710     4.3670     0.8650 N.am  1 <1>  -0.6600 
 14 C        1.4670     5.1260     1.5820 C.2   1 <1>   0.5440 
 15 O        1.6720     4.8330     2.7440 O.2   1 <1>  -0.5700 
 16 C        2.1040     6.2930     1.0090 C.ar  1 <1>   0.0860 
 17 C        3.0610     6.2160    -0.0130 C.ar  1 <1>   0.0820 
 18 C        1.7460     7.5550     1.4810 C.ar  1 <1>  -0.1500 
 19 O        3.4190     4.9820    -0.4510 O.3   1 <1>  -0.3630 
 20 C        3.6130     7.3830    -0.5410 C.ar  1 <1>  -0.1500 
 21 C        2.2940     8.7070     0.9540 C.ar  1 <1>  -0.1500 
 22 C        4.3530     4.7870    -1.4890 C.3   1 <1>   0.8800 
 23 C        3.2280     8.6200    -0.0620 C.ar  1 <1>  -0.1500 
 24 F        4.3740     3.4960    -1.7820 F     1 <1>  -0.3400 
 25 F        5.5650     5.0700    -1.0290 F     1 <1>  -0.3400 
 26 H       -1.9730     1.2530    -0.7870 H     1 <1>   0.0800 
 27 H       -1.2790     0.7240     0.6910 H     1 <1>   0.0800 
 28 H        2.5810    -0.7070     1.3080 H     1 <1>   0.0800 
 29 H        2.3930    -1.0820    -0.3970 H     1 <1>   0.0800 
 30 H        1.0420    -1.2670     0.7010 H     1 <1>   0.0800 
 31 H        3.3340     1.4860     0.8880 H     1 <1>   0.0800 
 32 H        2.3800     2.6010    -0.0480 H     1 <1>   0.0800 
 33 H        3.2160     1.2930    -0.8530 H     1 <1>   0.0800 
 34 H       -2.2080     2.8840     0.9050 H     1 <1>   0.0800 
 35 H       -1.3800     3.5640    -1.6670 H     1 <1>   0.0800 
 36 H        0.4720     2.4380     1.7110 H     1 <1>   0.0800 
 37 H       -0.6660     3.5850     2.3610 H     1 <1>   0.0800 
 38 H       -1.9780     5.2850     0.4810 H     1 <1>   0.4000 
 39 H        0.0810     5.6770    -0.7400 H     1 <1>   0.0800 
 40 H        0.8730     4.1860    -1.1960 H     1 <1>   0.0800 
 41 H        1.0250     7.6230     2.2780 H     1 <1>   0.1500 
 42 H        4.3530     7.3640    -1.3190 H     1 <1>   0.1500 
 43 H        1.9980     9.6700     1.3340 H     1 <1>   0.1500 
 44 H        4.1380     5.3630    -2.3710 H     1 <1>   0.0800 
 45 H        3.6580     9.5190    -0.4710 H     1 <1>   0.1500 
@<TRIPOS>BOND
  1   1   2  2   
  2   1   3  2   
  3   1   4  am  
  4   1   5  1   
  5   4   6  1   
  6   4   7  1   
  7   5   8  1   
  8   5  26  1   
  9   5  27  1   
 10   6  28  1   
 11   6  29  1   
 12   6  30  1   
 13   7  31  1   
 14   7  32  1   
 15   7  33  1   
 16   8   9  1   
 17   8  10  1   
 18   8  34  1   
 19   9  11  1   
 20   9  12  1   
 21   9  35  1   
 22  10  13  1   
 23  10  36  1   
 24  10  37  1   
 25  11  38  1   
 26  12  13  1   
 27  12  39  1   
 28  12  40  1   
 29  13  14  am  
 30  14  15  2   
 31  14  16  1   
 32  16  17  ar  
 33  16  18  ar  
 34  17  19  1   
 35  17  20  ar  
 36  18  21  ar  
 37  18  41  1   
 38  19  22  1   
 39  20  23  ar  
 40  20  42  1   
 41  21  23  ar  
 42  21  43  1   
 43  22  24  1   
 44  22  25  1   
 45  22  44  1   
 46  23  45  1   
@<TRIPOS>SUBSTRUCTURE
  1 ****  13 GROUP 4 **** **** 0

# MOE 2024.06 (io_trps.svl 2023.06)
