@<TRIPOS>MOLECULE
NONAME
53 55 1 0 0 
SMALL
USER_CHARGES


@<TRIPOS>ATOM
  1 O       -3.2850     2.2280    -1.7010 O.2   1 <1>  -0.5700 
  2 C       -2.9450     1.3430    -0.9400 C.2   1 <1>   0.5440 
  3 N       -3.5700     0.1150    -1.0280 N.am  1 <1>  -0.6600 
  4 C       -1.9130     1.6110     0.0420 C.ar  1 <1>   0.0860 
  5 C       -3.1190    -1.0700    -0.2090 C.3   1 <1>   0.3640 
  6 C       -4.7980    -0.0200    -1.8680 C.3   1 <1>   0.1400 
  7 C       -0.5750     1.7110    -0.3270 C.ar  1 <1>  -0.1500 
  8 C       -2.2290     1.7510     1.3930 C.ar  1 <1>  -0.1500 
  9 C       -1.6550    -1.3730    -0.5420 C.ar  1 <1>  -0.1430 
 10 C       -3.9530    -2.3800    -0.3760 C.3   1 <1>   0.2000 
 11 C       -5.1630    -1.4750    -2.1620 C.3   1 <1>   0.1200 
 12 C        0.4220     1.9040     0.6130 C.ar  1 <1>   0.0830 
 13 C       -1.2440     1.9540     2.3420 C.ar  1 <1>  -0.1500 
 14 C       -0.7180    -1.4880     0.4770 C.ar  1 <1>  -0.1500 
 15 C       -1.2390    -1.5180    -1.8590 C.ar  1 <1>  -0.1500 
 16 O       -5.2090    -2.1830    -0.9660 O.3   1 <1>  -0.5600 
 17 C       -4.2140    -3.0830     0.9650 C.3   1 <1>   0.1200 
 18 O        1.6990     1.9500     0.1570 O.3   1 <1>  -0.3630 
 19 C        0.0820     2.0260     1.9570 C.ar  1 <1>  -0.1500 
 20 C        0.6150    -1.7330     0.1930 C.ar  1 <1>   0.0830 
 21 C        0.0910    -1.7560    -2.1550 C.ar  1 <1>  -0.1500 
 22 O       -3.0280    -3.3270     1.6520 O.3   1 <1>  -0.6800 
 23 C        2.7840     1.8360     1.0500 C.3   1 <1>   0.0400 
 24 O        1.4680    -1.8480     1.2410 O.3   1 <1>  -0.3630 
 25 C        1.0270    -1.8450    -1.1390 C.ar  1 <1>   0.0830 
 26 C        2.0690    -3.1100     1.4250 C.3   1 <1>   0.0400 
 27 O        2.3210    -2.0220    -1.4970 O.3   1 <1>  -0.3630 
 28 C        3.1750    -0.9280    -1.2480 C.3   1 <1>   0.0400 
 29 H       -3.1770    -0.7820     0.8260 H     1 <1>   0.0800 
 30 H       -5.6190     0.4510    -1.3570 H     1 <1>   0.0800 
 31 H       -4.6550     0.4980    -2.8010 H     1 <1>   0.0800 
 32 H       -0.3070     1.6180    -1.3630 H     1 <1>   0.1500 
 33 H       -3.2610     1.6960     1.6940 H     1 <1>   0.1500 
 34 H       -3.4200    -3.0620    -1.0150 H     1 <1>   0.0800 
 35 H       -4.4470    -1.9320    -2.8230 H     1 <1>   0.0800 
 36 H       -6.1370    -1.5260    -2.6140 H     1 <1>   0.0800 
 37 H       -1.5090     2.0560     3.3800 H     1 <1>   0.1500 
 38 H       -1.0110    -1.3810     1.5070 H     1 <1>   0.1500 
 39 H       -1.9490    -1.4300    -2.6630 H     1 <1>   0.1500 
 40 H       -4.7080    -4.0260     0.8030 H     1 <1>   0.0800 
 41 H       -4.8290    -2.4620     1.5920 H     1 <1>   0.0800 
 42 H        0.8310     2.1800     2.7110 H     1 <1>   0.1500 
 43 H        0.4130    -1.8580    -3.1750 H     1 <1>   0.1500 
 44 H       -2.4550    -3.9480     1.1580 H     1 <1>   0.4000 
 45 H        3.6890     1.7900     0.4720 H     1 <1>   0.0800 
 46 H        2.6680     0.9330     1.6240 H     1 <1>   0.0800 
 47 H        2.8040     2.7010     1.6890 H     1 <1>   0.0800 
 48 H        2.6210    -3.0880     2.3460 H     1 <1>   0.0800 
 49 H        2.7320    -3.3120     0.6040 H     1 <1>   0.0800 
 50 H        1.2970    -3.8570     1.4750 H     1 <1>   0.0800 
 51 H        4.1220    -1.1260    -1.7150 H     1 <1>   0.0800 
 52 H        3.3030    -0.8160    -0.1870 H     1 <1>   0.0800 
 53 H        2.7330    -0.0390    -1.6640 H     1 <1>   0.0800 
@<TRIPOS>BOND
  1   1   2  2   
  2   2   3  am  
  3   2   4  1   
  4   3   5  1   
  5   3   6  1   
  6   4   7  ar  
  7   4   8  ar  
  8   5   9  1   
  9   5  10  1   
 10   5  29  1   
 11   6  11  1   
 12   6  30  1   
 13   6  31  1   
 14   7  12  ar  
 15   7  32  1   
 16   8  13  ar  
 17   8  33  1   
 18   9  14  ar  
 19   9  15  ar  
 20  10  16  1   
 21  10  17  1   
 22  10  34  1   
 23  11  16  1   
 24  11  35  1   
 25  11  36  1   
 26  12  18  1   
 27  12  19  ar  
 28  13  19  ar  
 29  13  37  1   
 30  14  20  ar  
 31  14  38  1   
 32  15  21  ar  
 33  15  39  1   
 34  17  22  1   
 35  17  40  1   
 36  17  41  1   
 37  18  23  1   
 38  19  42  1   
 39  20  24  1   
 40  20  25  ar  
 41  21  25  ar  
 42  21  43  1   
 43  22  44  1   
 44  23  45  1   
 45  23  46  1   
 46  23  47  1   
 47  24  26  1   
 48  25  27  1   
 49  26  48  1   
 50  26  49  1   
 51  26  50  1   
 52  27  28  1   
 53  28  51  1   
 54  28  52  1   
 55  28  53  1   
@<TRIPOS>SUBSTRUCTURE
  1 ****   9 GROUP 4 **** **** 0

# MOE 2024.06 (io_trps.svl 2023.06)
