@<TRIPOS>MOLECULE
NONAME
52 56 1 0 0 
SMALL
USER_CHARGES


@<TRIPOS>ATOM
  1 O        0.7480    -0.2390     1.2410 O.3   1 <1>  -0.5600 
  2 C        0.7160    -1.6010     0.9130 C.3   1 <1>   0.1200 
  3 C        1.5180     0.5190     0.3630 C.3   1 <1>   0.1200 
  4 C        2.1380    -2.2160     0.9080 C.3   1 <1>   0.2850 
  5 C        2.9740     0.0240     0.3940 C.3   1 <1>   0.1900 
  6 N        3.0490    -1.4180     0.0380 N.3   1 <1>  -0.8100 
  7 C        2.1340    -3.6940     0.4530 C.3   1 <1>  -0.1950 
  8 C        3.8360     0.8710    -0.5670 C.3   1 <1>   0.3430 
  9 C        4.4510    -1.8920     0.0580 C.3   1 <1>   0.1100 
 10 C        1.5810    -4.1220    -0.8730 C.3   1 <1>  -0.2000 
 11 C        0.9100    -4.5620     0.3960 C.3   1 <1>  -0.2000 
 12 N        5.2670     0.3980    -0.6210 N.4   1 <1>  -0.9590 
 13 C        5.3340    -1.0750    -0.9060 C.3   1 <1>   0.3430 
 14 C        6.0710     1.1840    -1.5920 C.3   1 <1>   0.4860 
 15 C        6.1400     2.6170    -1.1040 C.ar  1 <1>  -0.1440 
 16 C        6.9620     2.9470    -0.0270 C.ar  1 <1>  -0.1500 
 17 C        5.3820     3.6050    -1.7210 C.ar  1 <1>  -0.1500 
 18 C        7.0360     4.2460     0.4610 C.ar  1 <1>   0.0820 
 19 C        5.4640     4.8920    -1.2260 C.ar  1 <1>   0.0820 
 20 O        7.8670     4.4410     1.5200 O.3   1 <1>  -0.3620 
 21 C        6.2610     5.2220    -0.1680 C.ar  1 <1>   0.0820 
 22 O        4.8090     5.9650    -1.6760 O.3   1 <1>  -0.3620 
 23 C        8.0860     5.7330     2.0430 C.3   1 <1>   0.0400 
 24 O        6.1340     6.5370     0.0870 O.3   1 <1>  -0.3620 
 25 C        5.2190     7.0650    -0.8700 C.3   1 <1>   0.4000 
 26 H        0.1050    -2.0930     1.6490 H     1 <1>   0.0800 
 27 H        0.2490    -1.7080    -0.0490 H     1 <1>   0.0800 
 28 H        1.0960     0.4360    -0.6240 H     1 <1>   0.0800 
 29 H        1.4560     1.5440     0.6850 H     1 <1>   0.0800 
 30 H        2.4940    -2.1840     1.9240 H     1 <1>   0.0800 
 31 H        3.3420     0.1670     1.3960 H     1 <1>   0.0800 
 32 H        3.0080    -4.2060     0.8150 H     1 <1>   0.1000 
 33 H        3.8040     1.9000    -0.2490 H     1 <1>   0.0800 
 34 H        3.3980     0.8130    -1.5500 H     1 <1>   0.0800 
 35 H        4.8470    -1.8370     1.0580 H     1 <1>   0.0800 
 36 H        4.4930    -2.9190    -0.2590 H     1 <1>   0.0800 
 37 H        1.0890    -3.3950    -1.4950 H     1 <1>   0.1000 
 38 H        2.1240    -4.8510    -1.4490 H     1 <1>   0.1000 
 39 H        0.9980    -5.5950     0.6850 H     1 <1>   0.1000 
 40 H       -0.0750    -4.1760     0.5940 H     1 <1>   0.1000 
 41 H        5.6710     0.5680     0.3090 H     1 <1>   0.4500 
 42 H        4.9930    -1.2660    -1.9110 H     1 <1>   0.0800 
 43 H        6.3520    -1.4210    -0.8300 H     1 <1>   0.0800 
 44 H        7.0700     0.7840    -1.6600 H     1 <1>   0.0800 
 45 H        5.6200     1.1460    -2.5710 H     1 <1>   0.0800 
 46 H        7.5700     2.2030     0.4570 H     1 <1>   0.1500 
 47 H        4.7410     3.4100    -2.5630 H     1 <1>   0.1500 
 48 H        8.8030     5.6560     2.8410 H     1 <1>   0.0800 
 49 H        7.1570     6.1190     2.4230 H     1 <1>   0.0800 
 50 H        8.4730     6.3660     1.2640 H     1 <1>   0.0800 
 51 H        4.3670     7.4830    -0.3640 H     1 <1>   0.0800 
 52 H        5.7180     7.7960    -1.4820 H     1 <1>   0.0800 
@<TRIPOS>BOND
  1   1   2  1   
  2   1   3  1   
  3   2   4  1   
  4   2  26  1   
  5   2  27  1   
  6   3   5  1   
  7   3  28  1   
  8   3  29  1   
  9   4   6  1   
 10   4   7  1   
 11   4  30  1   
 12   5   6  1   
 13   5   8  1   
 14   5  31  1   
 15   6   9  1   
 16   7  10  1   
 17   7  11  1   
 18   7  32  1   
 19   8  12  1   
 20   8  33  1   
 21   8  34  1   
 22   9  13  1   
 23   9  35  1   
 24   9  36  1   
 25  10  11  1   
 26  10  37  1   
 27  10  38  1   
 28  11  39  1   
 29  11  40  1   
 30  12  13  1   
 31  12  14  1   
 32  12  41  1   
 33  13  42  1   
 34  13  43  1   
 35  14  15  1   
 36  14  44  1   
 37  14  45  1   
 38  15  16  ar  
 39  15  17  ar  
 40  16  18  ar  
 41  16  46  1   
 42  17  19  ar  
 43  17  47  1   
 44  18  20  1   
 45  18  21  ar  
 46  19  21  ar  
 47  19  22  1   
 48  20  23  1   
 49  21  24  1   
 50  22  25  1   
 51  23  48  1   
 52  23  49  1   
 53  23  50  1   
 54  24  25  1   
 55  25  51  1   
 56  25  52  1   
@<TRIPOS>SUBSTRUCTURE
  1 ****   8 GROUP 4 **** **** 0

# MOE 2024.06 (io_trps.svl 2023.06)
