@<TRIPOS>MOLECULE
NONAME
45 47 1 0 0 
SMALL
USER_CHARGES


@<TRIPOS>ATOM
  1 O        1.7780     0.6940     1.9760 O.co2 1 <1>  -0.9000 
  2 C        2.1450     0.4920     0.8110 C.2   1 <1>   0.9060 
  3 O        2.3800    -0.6550     0.4120 O.co2 1 <1>  -0.9000 
  4 C        2.3800     1.6620    -0.1590 C.3   1 <1>  -0.1060 
  5 C        3.8200     1.4740    -0.6920 C.3   1 <1>   0.2000 
  6 C        2.2890     3.0490     0.5500 C.3   1 <1>  -0.1600 
  7 C        1.3520     1.5590    -1.3200 C.3   1 <1>  -0.0160 
  8 O        4.1150     2.4690    -1.6200 O.3   1 <1>  -0.6800 
  9 C        4.8280     1.6790     0.4510 C.3   1 <1>   0.1100 
 10 C        3.4180     3.2790     1.5690 C.3   1 <1>   0.1100 
 11 C       -0.0640     2.0050    -0.9590 C.ar  1 <1>  -0.1430 
 12 N        4.7380     3.0860     0.9370 N.3   1 <1>  -0.8100 
 13 C       -0.5740     3.1920    -1.4640 C.ar  1 <1>  -0.1500 
 14 C       -0.8560     1.2310    -0.1260 C.ar  1 <1>  -0.1500 
 15 C        5.8220     3.3730     1.8990 C.3   1 <1>   0.2900 
 16 C       -1.8570     3.6000    -1.1410 C.ar  1 <1>  -0.1500 
 17 C       -2.1380     1.6370     0.2000 C.ar  1 <1>  -0.1500 
 18 C        7.1390     3.6070     1.1750 C.2   1 <1>   0.0060 
 19 C       -2.6410     2.8220    -0.3070 C.ar  1 <1>  -0.1500 
 20 N        7.2210     3.7160    -0.1480 N.pl3 1 <1>   0.0330 
 21 N        8.2980     3.7320     1.7270 N.2   1 <1>  -0.3380 
 22 C        8.5190     3.9150    -0.3650 C.2   1 <1>   0.0060 
 23 N        9.1790     3.9290     0.7410 N.2   1 <1>  -0.3380 
 24 C        9.1220     4.0930    -1.7420 C.3   1 <1>  -0.0600 
 25 H        3.9460     0.5130    -1.1610 H     1 <1>   0.0800 
 26 H        1.3500     3.1190     1.0710 H     1 <1>   0.0800 
 27 H        2.3070     3.8400    -0.1760 H     1 <1>   0.0800 
 28 H        1.6850     2.1530    -2.1510 H     1 <1>   0.0800 
 29 H        1.3150     0.5420    -1.6690 H     1 <1>   0.0800 
 30 H        4.1230     3.2870    -1.0770 H     1 <1>   0.4000 
 31 H        5.8130     1.4610     0.0800 H     1 <1>   0.0800 
 32 H        4.6280     0.9880     1.2540 H     1 <1>   0.0800 
 33 H        3.3030     2.5980     2.3970 H     1 <1>   0.0800 
 34 H        3.3400     4.2820     1.9510 H     1 <1>   0.0800 
 35 H        0.0300     3.8040    -2.1090 H     1 <1>   0.1500 
 36 H       -0.4720     0.3090     0.2810 H     1 <1>   0.1500 
 37 H        5.5890     4.2680     2.4490 H     1 <1>   0.0800 
 38 H        5.9250     2.5640     2.6030 H     1 <1>   0.0800 
 39 H       -2.2430     4.5220    -1.5370 H     1 <1>   0.1500 
 40 H       -2.7350     1.0270     0.8540 H     1 <1>   0.1500 
 41 H       -3.6370     3.1360    -0.0520 H     1 <1>   0.1500 
 42 H        6.4310     3.6320    -0.7950 H     1 <1>   0.2700 
 43 H        8.9140     3.2320    -2.3500 H     1 <1>   0.0800 
 44 H       10.1880     4.2090    -1.6590 H     1 <1>   0.0800 
 45 H        8.7150     4.9700    -2.2120 H     1 <1>   0.0800 
@<TRIPOS>BOND
  1   1   2  ar  
  2   2   3  ar  
  3   2   4  1   
  4   4   5  1   
  5   4   6  1   
  6   4   7  1   
  7   5   8  1   
  8   5   9  1   
  9   5  25  1   
 10   6  10  1   
 11   6  26  1   
 12   6  27  1   
 13   7  11  1   
 14   7  28  1   
 15   7  29  1   
 16   8  30  1   
 17   9  12  1   
 18   9  31  1   
 19   9  32  1   
 20  10  12  1   
 21  10  33  1   
 22  10  34  1   
 23  11  13  ar  
 24  11  14  ar  
 25  12  15  1   
 26  13  16  ar  
 27  13  35  1   
 28  14  17  ar  
 29  14  36  1   
 30  15  18  1   
 31  15  37  1   
 32  15  38  1   
 33  16  19  ar  
 34  16  39  1   
 35  17  19  ar  
 36  17  40  1   
 37  18  20  1   
 38  18  21  2   
 39  19  41  1   
 40  20  22  1   
 41  20  42  1   
 42  21  23  1   
 43  22  23  2   
 44  22  24  1   
 45  24  43  1   
 46  24  44  1   
 47  24  45  1   
@<TRIPOS>SUBSTRUCTURE
  1 ****   6 GROUP 4 **** **** 0

# MOE 2024.06 (io_trps.svl 2023.06)
