@<TRIPOS>MOLECULE
NONAME
46 48 1 0 0 
SMALL
USER_CHARGES


@<TRIPOS>ATOM
  1 O        0.8510    -0.3720     1.6500 O.2   1 <1>  -0.5700 
  2 C        1.6180    -0.9640     0.9120 C.2   1 <1>   0.6900 
  3 N        1.7700    -2.3390     1.0260 N.am  1 <1>  -0.4690 
  4 N        2.3320    -0.2730    -0.0480 N.am  1 <1>  -0.4200 
  5 C        2.5360    -3.0670     0.0980 C.2   1 <1>   0.1230 
  6 C        1.1990    -3.0250     2.2270 C.3   1 <1>   0.0600 
  7 C        3.1360    -0.9550    -0.9380 C.2   1 <1>   0.6160 
  8 C        2.2080     1.2110    -0.1430 C.3   1 <1>   0.0600 
  9 C        2.5900    -4.5190     0.1360 C.2   1 <1>   0.6160 
 10 C        3.2160    -2.3640    -0.8420 C.2   1 <1>  -0.1360 
 11 O        3.7490    -0.3560    -1.8040 O.2   1 <1>  -0.5700 
 12 O        3.6420    -5.0810     0.3700 O.2   1 <1>  -0.5700 
 13 N        1.4690    -5.2780    -0.1040 N.am  1 <1>  -0.6600 
 14 C        0.2280    -4.7850    -0.7550 C.3   1 <1>   0.1400 
 15 C        1.4550    -6.7560     0.0070 C.3   1 <1>   0.1400 
 16 C       -0.4850    -6.0500    -1.2340 C.3   1 <1>   0.2000 
 17 C        0.0160    -7.1610    -0.3150 C.3   1 <1>  -0.0800 
 18 O       -1.8610    -5.9280    -1.1380 O.3   1 <1>  -0.6800 
 19 C       -0.1060    -8.5660    -0.9240 C.3   1 <1>   0.0210 
 20 C        0.5250    -9.6080    -0.0200 C.2   1 <1>   0.1080 
 21 N        0.2350    -9.7180     1.2400 N.2   1 <1>  -0.7070 
 22 C        1.4780   -10.5370    -0.4220 C.2   1 <1>  -0.1500 
 23 N        1.0020   -10.7340     1.6780 N.pl3 1 <1>   0.3000 
 24 C        1.7650   -11.2460     0.6900 C.2   1 <1>  -0.3320 
 25 C        2.7370   -12.3970     0.8720 C.3   1 <1>  -0.0600 
 26 H        1.7980    -3.8760     2.5030 H     1 <1>   0.0800 
 27 H        0.1950    -3.3490     2.0170 H     1 <1>   0.0800 
 28 H        1.1770    -2.3510     3.0660 H     1 <1>   0.0800 
 29 H        3.1200     1.6420    -0.5190 H     1 <1>   0.0800 
 30 H        2.0100     1.6350     0.8270 H     1 <1>   0.0800 
 31 H        1.4000     1.4610    -0.8080 H     1 <1>   0.0800 
 32 H        3.8430    -2.8530    -1.5630 H     1 <1>   0.1500 
 33 H       -0.3720    -4.2620    -0.0310 H     1 <1>   0.0800 
 34 H        0.4610    -4.1400    -1.5840 H     1 <1>   0.0800 
 35 H        2.1450    -7.1700    -0.7090 H     1 <1>   0.0800 
 36 H        1.7400    -7.0720     0.9970 H     1 <1>   0.0800 
 37 H       -0.2310    -6.2420    -2.2620 H     1 <1>   0.0800 
 38 H       -0.5300    -7.1340     0.6120 H     1 <1>   0.0800 
 39 H       -2.1400    -5.9420    -0.2010 H     1 <1>   0.4000 
 40 H        0.3710    -8.5950    -1.8860 H     1 <1>   0.0800 
 41 H       -1.1450    -8.8110    -1.0570 H     1 <1>   0.0800 
 42 H        1.8820   -10.6460    -1.4130 H     1 <1>   0.1500 
 43 H        0.9820   -11.0530     2.6540 H     1 <1>   0.2700 
 44 H        3.2250   -12.6200    -0.0600 H     1 <1>   0.0800 
 45 H        2.2150   -13.2760     1.2050 H     1 <1>   0.0800 
 46 H        3.4880   -12.1380     1.5980 H     1 <1>   0.0800 
@<TRIPOS>BOND
  1   1   2  2   
  2   2   3  am  
  3   2   4  am  
  4   3   5  1   
  5   3   6  1   
  6   4   7  am  
  7   4   8  1   
  8   5   9  1   
  9   5  10  2   
 10   6  26  1   
 11   6  27  1   
 12   6  28  1   
 13   7  10  1   
 14   7  11  2   
 15   8  29  1   
 16   8  30  1   
 17   8  31  1   
 18   9  12  2   
 19   9  13  am  
 20  10  32  1   
 21  13  14  1   
 22  13  15  1   
 23  14  16  1   
 24  14  33  1   
 25  14  34  1   
 26  15  17  1   
 27  15  35  1   
 28  15  36  1   
 29  16  17  1   
 30  16  18  1   
 31  16  37  1   
 32  17  19  1   
 33  17  38  1   
 34  18  39  1   
 35  19  20  1   
 36  19  40  1   
 37  19  41  1   
 38  20  21  2   
 39  20  22  1   
 40  21  23  1   
 41  22  24  2   
 42  22  42  1   
 43  23  24  1   
 44  23  43  1   
 45  24  25  1   
 46  25  44  1   
 47  25  45  1   
 48  25  46  1   
@<TRIPOS>SUBSTRUCTURE
  1 ****  13 GROUP 4 **** **** 0

# MOE 2024.06 (io_trps.svl 2023.06)
