@<TRIPOS>MOLECULE
NONAME
47 48 1 0 0 
SMALL
USER_CHARGES


@<TRIPOS>ATOM
  1 F        2.7450     0.5180    -0.0190 F     1 <1>  -0.1900 
  2 C        2.8850    -0.7220     0.3640 C.ar  1 <1>   0.1900 
  3 C        2.4130    -1.7300    -0.4560 C.ar  1 <1>  -0.1500 
  4 C        3.4990    -0.9790     1.5750 C.ar  1 <1>  -0.1500 
  5 C        2.5600    -3.0480    -0.0500 C.ar  1 <1>  -0.1440 
  6 C        3.6430    -2.2970     1.9750 C.ar  1 <1>  -0.1500 
  7 C        3.1750    -3.3220     1.1650 C.ar  1 <1>  -0.1500 
  8 C        2.0490    -4.1840    -0.9220 C.3   1 <1>  -0.0160 
  9 C        0.6540    -4.6270    -0.4590 C.3   1 <1>  -0.0990 
 10 C        0.1000    -5.8100    -1.2420 C.2   1 <1>   0.5690 
 11 O        0.5880    -6.0640    -2.3200 O.2   1 <1>  -0.5700 
 12 N       -0.9250    -6.5540    -0.7220 N.am  1 <1>  -0.6600 
 13 C       -1.3450    -7.8350    -1.3930 C.3   1 <1>   0.1400 
 14 C       -1.6470    -6.2110     0.5490 C.3   1 <1>   0.1400 
 15 C       -1.8990    -8.8180    -0.3540 C.3   1 <1>   0.2000 
 16 C       -3.0860    -6.7290     0.4900 C.3   1 <1>  -0.1600 
 17 O       -2.1520   -10.0610    -0.9090 O.3   1 <1>  -0.6800 
 18 C       -3.1480    -8.2870     0.4000 C.3   1 <1>  -0.1060 
 19 C       -3.0130    -8.9410     1.7860 C.2   1 <1>   0.9060 
 20 C       -4.5310    -8.6960    -0.2080 C.3   1 <1>  -0.1600 
 21 O       -2.8260    -8.2460     2.7930 O.co2 1 <1>  -0.9000 
 22 O       -3.0340   -10.1790     1.8480 O.co2 1 <1>  -0.9000 
 23 C       -4.7770    -8.3570    -1.6920 C.3   1 <1>  -0.1600 
 24 C       -6.1780    -8.7990    -2.1240 C.3   1 <1>  -0.2400 
 25 H        1.9430    -1.4790    -1.3890 H     1 <1>   0.1500 
 26 H        3.8530    -0.1680     2.1840 H     1 <1>   0.1500 
 27 H        4.1170    -2.5270     2.9140 H     1 <1>   0.1500 
 28 H        3.2920    -4.3430     1.4870 H     1 <1>   0.1500 
 29 H        2.0070    -3.8670    -1.9510 H     1 <1>   0.0800 
 30 H        2.7290    -5.0170    -0.8670 H     1 <1>   0.0800 
 31 H       -0.0300    -3.8050    -0.5580 H     1 <1>   0.0800 
 32 H        0.7150    -4.8970     0.5780 H     1 <1>   0.0800 
 33 H       -2.0940    -7.6150    -2.1300 H     1 <1>   0.0800 
 34 H       -0.4970    -8.2830    -1.8810 H     1 <1>   0.0800 
 35 H       -1.1390    -6.6590     1.3880 H     1 <1>   0.0800 
 36 H       -1.6690    -5.1460     0.6920 H     1 <1>   0.0800 
 37 H       -1.1040    -8.9780     0.3570 H     1 <1>   0.0800 
 38 H       -3.6230    -6.3940     1.3600 H     1 <1>   0.0800 
 39 H       -3.5540    -6.2640    -0.3550 H     1 <1>   0.0800 
 40 H       -2.5190   -10.6040    -0.1660 H     1 <1>   0.4000 
 41 H       -4.6530    -9.7600    -0.0930 H     1 <1>   0.0800 
 42 H       -5.3020    -8.2400     0.3880 H     1 <1>   0.0800 
 43 H       -4.6810    -7.3020    -1.8690 H     1 <1>   0.0800 
 44 H       -4.0530    -8.8660    -2.3040 H     1 <1>   0.0800 
 45 H       -6.9270    -8.2940    -1.5410 H     1 <1>   0.0800 
 46 H       -6.2900    -9.8610    -1.9890 H     1 <1>   0.0800 
 47 H       -6.3330    -8.5680    -3.1630 H     1 <1>   0.0800 
@<TRIPOS>BOND
  1   1   2  1   
  2   2   3  ar  
  3   2   4  ar  
  4   3   5  ar  
  5   3  25  1   
  6   4   6  ar  
  7   4  26  1   
  8   5   7  ar  
  9   5   8  1   
 10   6   7  ar  
 11   6  27  1   
 12   7  28  1   
 13   8   9  1   
 14   8  29  1   
 15   8  30  1   
 16   9  10  1   
 17   9  31  1   
 18   9  32  1   
 19  10  11  2   
 20  10  12  am  
 21  12  13  1   
 22  12  14  1   
 23  13  15  1   
 24  13  33  1   
 25  13  34  1   
 26  14  16  1   
 27  14  35  1   
 28  14  36  1   
 29  15  17  1   
 30  15  18  1   
 31  15  37  1   
 32  16  18  1   
 33  16  38  1   
 34  16  39  1   
 35  17  40  1   
 36  18  19  1   
 37  18  20  1   
 38  19  21  ar  
 39  19  22  ar  
 40  20  23  1   
 41  20  41  1   
 42  20  42  1   
 43  23  24  1   
 44  23  43  1   
 45  23  44  1   
 46  24  45  1   
 47  24  46  1   
 48  24  47  1   
@<TRIPOS>SUBSTRUCTURE
  1 ****  12 GROUP 4 **** **** 0

# MOE 2024.06 (io_trps.svl 2023.06)
