@<TRIPOS>MOLECULE
NONAME
52 54 1 0 0 
SMALL
USER_CHARGES


@<TRIPOS>ATOM
  1 O       -0.5250     0.9700     2.1750 O.2   1 <1>  -0.5700 
  2 C       -1.4070     1.4680     1.4990 C.2   1 <1>   0.5440 
  3 N       -2.4520     0.6740     1.0600 N.am  1 <1>  -0.6600 
  4 C       -1.3380     2.8760     1.1840 C.ar  1 <1>   0.0860 
  5 C       -3.5980     1.2530     0.2950 C.3   1 <1>   0.2200 
  6 C       -2.4720    -0.7900     1.3630 C.3   1 <1>   0.0600 
  7 C       -0.9340     3.3830    -0.0610 C.ar  1 <1>   0.0830 
  8 C       -1.7510     3.7950     2.1460 C.ar  1 <1>  -0.1500 
  9 C       -4.9780     0.8150     0.7770 C.3   1 <1>  -0.1600 
 10 C       -3.5790     0.8730    -1.1810 C.3   1 <1>  -0.1600 
 11 O       -0.4820     2.6170    -1.0850 O.3   1 <1>  -0.3620 
 12 C       -0.9940     4.7420    -0.3190 C.ar  1 <1>  -0.1500 
 13 C       -1.8130     5.1520     1.9010 C.ar  1 <1>   0.0830 
 14 C       -5.9010     1.1360    -0.4060 C.3   1 <1>  -0.0800 
 15 C       -5.0080     1.1600    -1.6610 C.3   1 <1>  -0.0800 
 16 C        0.4160     1.5510    -0.8520 C.3   1 <1>   0.0400 
 17 C       -1.4260     5.6470     0.6440 C.ar  1 <1>   0.0830 
 18 O       -2.2660     5.8980     2.9520 O.3   1 <1>  -0.3630 
 19 C       -6.5510     2.5240    -0.3090 C.3   1 <1>  -0.1600 
 20 C       -5.1670     2.5560    -2.2810 C.3   1 <1>  -0.1600 
 21 O       -1.4600     6.9840     0.3900 O.3   1 <1>  -0.3620 
 22 C       -2.9380     7.1230     2.7590 C.3   1 <1>   0.0400 
 23 C       -6.4780     3.0830    -1.7210 C.3   1 <1>   0.2000 
 24 C       -0.9530     7.5440    -0.8020 C.3   1 <1>   0.0400 
 25 O       -6.4590     4.4590    -1.6860 O.3   1 <1>  -0.6800 
 26 H       -3.5780     2.3270     0.3530 H     1 <1>   0.0800 
 27 H       -2.8820    -1.3430     0.5390 H     1 <1>   0.0800 
 28 H       -3.0670    -0.9650     2.2410 H     1 <1>   0.0800 
 29 H       -1.4750    -1.1520     1.5470 H     1 <1>   0.0800 
 30 H       -2.0430     3.4300     3.1150 H     1 <1>   0.1500 
 31 H       -5.0060    -0.2460     0.9440 H     1 <1>   0.0800 
 32 H       -5.2660     1.3250     1.6790 H     1 <1>   0.0800 
 33 H       -2.8410     1.4320    -1.7280 H     1 <1>   0.0800 
 34 H       -3.3780    -0.1760    -1.2920 H     1 <1>   0.0800 
 35 H       -0.6860     5.0650    -1.2940 H     1 <1>   0.1500 
 36 H       -6.6660     0.3830    -0.5080 H     1 <1>   0.0800 
 37 H       -5.3300     0.4100    -2.3640 H     1 <1>   0.0800 
 38 H        0.9980     1.4010    -1.7430 H     1 <1>   0.0800 
 39 H       -0.1450     0.6590    -0.6350 H     1 <1>   0.0800 
 40 H        1.0640     1.8000    -0.0290 H     1 <1>   0.0800 
 41 H       -5.9890     3.1530     0.3590 H     1 <1>   0.0800 
 42 H       -7.5690     2.4580     0.0300 H     1 <1>   0.0800 
 43 H       -5.1950     2.5060    -3.3550 H     1 <1>   0.0800 
 44 H       -4.3570     3.1950    -1.9730 H     1 <1>   0.0800 
 45 H       -3.4690     7.3600     3.6630 H     1 <1>   0.0800 
 46 H       -3.6290     7.0210     1.9410 H     1 <1>   0.0800 
 47 H       -2.2120     7.8880     2.5540 H     1 <1>   0.0800 
 48 H       -7.3160     2.7550    -2.3150 H     1 <1>   0.0800 
 49 H       -1.0450     8.6130    -0.7340 H     1 <1>   0.0800 
 50 H       -1.5300     7.1810    -1.6340 H     1 <1>   0.0800 
 51 H        0.0830     7.2740    -0.9020 H     1 <1>   0.0800 
 52 H       -5.6980     4.7660    -1.1600 H     1 <1>   0.4000 
@<TRIPOS>BOND
  1   1   2  2   
  2   2   3  am  
  3   2   4  1   
  4   3   5  1   
  5   3   6  1   
  6   4   7  ar  
  7   4   8  ar  
  8   5   9  1   
  9   5  10  1   
 10   5  26  1   
 11   6  27  1   
 12   6  28  1   
 13   6  29  1   
 14   7  11  1   
 15   7  12  ar  
 16   8  13  ar  
 17   8  30  1   
 18   9  14  1   
 19   9  31  1   
 20   9  32  1   
 21  10  15  1   
 22  10  33  1   
 23  10  34  1   
 24  11  16  1   
 25  12  17  ar  
 26  12  35  1   
 27  13  17  ar  
 28  13  18  1   
 29  14  15  1   
 30  14  19  1   
 31  14  36  1   
 32  15  20  1   
 33  15  37  1   
 34  16  38  1   
 35  16  39  1   
 36  16  40  1   
 37  17  21  1   
 38  18  22  1   
 39  19  23  1   
 40  19  41  1   
 41  19  42  1   
 42  20  23  1   
 43  20  43  1   
 44  20  44  1   
 45  21  24  1   
 46  22  45  1   
 47  22  46  1   
 48  22  47  1   
 49  23  25  1   
 50  23  48  1   
 51  24  49  1   
 52  24  50  1   
 53  24  51  1   
 54  25  52  1   
@<TRIPOS>SUBSTRUCTURE
  1 ****   4 GROUP 4 **** **** 0

# MOE 2024.06 (io_trps.svl 2023.06)
