@<TRIPOS>MOLECULE
NONAME
53 56 1 0 0 
SMALL
USER_CHARGES


@<TRIPOS>ATOM
  1 O       -2.4470    -0.7750     2.2810 O.2   1 <1>  -0.5700 
  2 C       -2.1580    -0.0050     1.3800 C.2   1 <1>   0.7160 
  3 N       -2.3500    -0.4080     0.0780 N.am  1 <1>  -0.6600 
  4 C       -1.6460     1.2860     1.6980 C.2   1 <1>  -0.0860 
  5 C       -2.4090    -1.8610    -0.2850 C.3   1 <1>   0.3640 
  6 C       -2.6620     0.5700    -1.0060 C.3   1 <1>   0.1400 
  7 C       -0.5780     1.9810     1.1880 C.2   1 <1>  -0.0680 
  8 C       -2.1580     2.1620     2.6650 C.2   1 <1>   0.1390 
  9 C       -0.9760    -2.3450    -0.5560 C.ar  1 <1>  -0.1440 
 10 C       -3.4180    -2.1140    -1.4420 C.3   1 <1>   0.2000 
 11 C       -2.5360    -0.0600    -2.3990 C.3   1 <1>   0.1200 
 12 N       -0.5450     3.1670     1.8140 N.pl3 1 <1>   0.6010 
 13 N        0.4800     1.8940     0.3000 N.pl3 1 <1>  -0.5530 
 14 N       -1.5230     3.2940     2.7440 N.2   1 <1>  -0.7070 
 15 C       -0.1170    -2.4680     0.5280 C.ar  1 <1>  -0.1500 
 16 C       -0.4880    -2.6510    -1.8210 C.ar  1 <1>  -0.1500 
 17 O       -3.3140    -1.2210    -2.5370 O.3   1 <1>  -0.5600 
 18 C       -4.8710    -2.0540    -0.9490 C.3   1 <1>   0.1200 
 19 C        0.5440     3.8670     1.3340 C.2   1 <1>  -0.1810 
 20 C        1.1670     3.0930     0.4210 C.2   1 <1>  -0.0500 
 21 C        0.9940     0.6690    -0.3580 C.3   1 <1>   0.1290 
 22 C        1.2140    -2.8450     0.3760 C.ar  1 <1>   0.0830 
 23 C        0.8260    -3.0470    -1.9890 C.ar  1 <1>  -0.1500 
 24 O       -5.1500    -3.1440    -0.1300 O.3   1 <1>  -0.6800 
 25 O        2.0650    -2.8870     1.4430 O.3   1 <1>  -0.3630 
 26 C        1.6850    -3.1510    -0.9100 C.ar  1 <1>   0.0830 
 27 C        1.7010    -2.3750     2.7080 C.3   1 <1>   0.0400 
 28 O        2.9540    -3.5440    -1.2130 O.3   1 <1>  -0.3630 
 29 C        3.6730    -4.3830    -0.3370 C.3   1 <1>   0.0400 
 30 H       -2.7650    -2.4210     0.5630 H     1 <1>   0.0800 
 31 H       -3.6650     0.9370    -0.8740 H     1 <1>   0.0800 
 32 H       -1.9940     1.4110    -0.9510 H     1 <1>   0.0800 
 33 H       -3.0050     1.9170     3.2860 H     1 <1>   0.1500 
 34 H       -3.2530    -3.0990    -1.8390 H     1 <1>   0.0800 
 35 H       -1.5100    -0.3080    -2.5990 H     1 <1>   0.0800 
 36 H       -2.8620     0.6380    -3.1490 H     1 <1>   0.0800 
 37 H       -0.5080    -2.2550     1.5040 H     1 <1>   0.1500 
 38 H       -1.1120    -2.5870    -2.6950 H     1 <1>   0.1500 
 39 H       -5.5550    -2.0790    -1.7790 H     1 <1>   0.0800 
 40 H       -5.0370    -1.1600    -0.3720 H     1 <1>   0.0800 
 41 H        0.7630     4.8480     1.7060 H     1 <1>   0.1500 
 42 H        2.0590     3.2990    -0.1500 H     1 <1>   0.1500 
 43 H        1.7560     0.9270    -1.0720 H     1 <1>   0.0800 
 44 H        0.1970     0.1610    -0.8650 H     1 <1>   0.0800 
 45 H        1.4160     0.0130     0.3830 H     1 <1>   0.0800 
 46 H        1.1980    -3.2810    -2.9710 H     1 <1>   0.1500 
 47 H       -5.2710    -3.9580    -0.6580 H     1 <1>   0.4000 
 48 H        2.5610    -2.4290     3.3510 H     1 <1>   0.0800 
 49 H        0.9060    -2.9750     3.1140 H     1 <1>   0.0800 
 50 H        1.3920    -1.3500     2.5990 H     1 <1>   0.0800 
 51 H        4.4380    -4.8820    -0.9030 H     1 <1>   0.0800 
 52 H        3.0010    -5.1050     0.0920 H     1 <1>   0.0800 
 53 H        4.1250    -3.7800     0.4300 H     1 <1>   0.0800 
@<TRIPOS>BOND
  1   1   2  2   
  2   2   3  am  
  3   2   4  1   
  4   3   5  1   
  5   3   6  1   
  6   4   7  2   
  7   4   8  1   
  8   5   9  1   
  9   5  10  1   
 10   5  30  1   
 11   6  11  1   
 12   6  31  1   
 13   6  32  1   
 14   7  12  1   
 15   7  13  1   
 16   8  14  2   
 17   8  33  1   
 18   9  15  ar  
 19   9  16  ar  
 20  10  17  1   
 21  10  18  1   
 22  10  34  1   
 23  11  17  1   
 24  11  35  1   
 25  11  36  1   
 26  12  14  1   
 27  12  19  1   
 28  13  20  1   
 29  13  21  1   
 30  15  22  ar  
 31  15  37  1   
 32  16  23  ar  
 33  16  38  1   
 34  18  24  1   
 35  18  39  1   
 36  18  40  1   
 37  19  20  2   
 38  19  41  1   
 39  20  42  1   
 40  21  43  1   
 41  21  44  1   
 42  21  45  1   
 43  22  25  1   
 44  22  26  ar  
 45  23  26  ar  
 46  23  46  1   
 47  24  47  1   
 48  25  27  1   
 49  26  28  1   
 50  27  48  1   
 51  27  49  1   
 52  27  50  1   
 53  28  29  1   
 54  29  51  1   
 55  29  52  1   
 56  29  53  1   
@<TRIPOS>SUBSTRUCTURE
  1 ****   3 GROUP 4 **** **** 0

# MOE 2024.06 (io_trps.svl 2023.06)
