@<TRIPOS>MOLECULE
NONAME
56 58 1 0 0 
SMALL
USER_CHARGES


@<TRIPOS>ATOM
  1 O        0.0690     0.3770     1.7410 O.2   1 <1>  -0.5700 
  2 C       -0.7350     1.2050     1.3760 C.2   1 <1>   0.5690 
  3 N       -2.0900     0.9370     1.3630 N.am  1 <1>  -0.6600 
  4 C       -0.1740     2.5700     0.9750 C.3   1 <1>   0.1810 
  5 C       -3.1090     1.9580     0.9670 C.3   1 <1>   0.2200 
  6 C       -2.5730    -0.4340     1.7190 C.3   1 <1>   0.0600 
  7 O       -0.5340     2.9070    -0.3580 O.3   1 <1>  -0.3620 
  8 C       -4.3520     2.0120     1.8550 C.3   1 <1>  -0.1600 
  9 C       -3.6610     1.7240    -0.4360 C.3   1 <1>  -0.1600 
 10 C       -0.4370     4.1770    -0.8220 C.ar  1 <1>   0.0830 
 11 C       -5.3850     2.7480     0.9890 C.3   1 <1>  -0.0800 
 12 C       -4.9500     2.5540    -0.4690 C.3   1 <1>  -0.0800 
 13 C        0.0880     5.2340    -0.0880 C.ar  1 <1>  -0.1500 
 14 C       -0.9060     4.4040    -2.1060 C.ar  1 <1>  -0.1500 
 15 C       -6.8220     2.2130     1.0720 C.3   1 <1>  -0.1600 
 16 C       -6.1420     1.8950    -1.1770 C.3   1 <1>  -0.1600 
 17 C        0.1280     6.5090    -0.6280 C.ar  1 <1>   0.0830 
 18 C       -0.8660     5.6750    -2.6520 C.ar  1 <1>  -0.1500 
 19 C       -7.3710     2.3020    -0.3570 C.3   1 <1>   0.4230 
 20 O        0.6490     7.4850     0.1580 O.3   1 <1>  -0.3630 
 21 C       -0.3540     6.7290    -1.9160 C.ar  1 <1>  -0.1500 
 22 N       -7.7820     3.7060    -0.6840 N.4   1 <1>  -0.9590 
 23 C        0.7890     8.8080    -0.3120 C.3   1 <1>   0.0400 
 24 C       -8.8850     4.2100     0.1970 C.3   1 <1>   0.2630 
 25 C       -8.2090     3.8660    -2.1120 C.3   1 <1>   0.2630 
 26 H        0.8990     2.5570     1.0350 H     1 <1>   0.0800 
 27 H       -0.5650     3.3110     1.6450 H     1 <1>   0.0800 
 28 H       -2.6740     2.9410     0.9870 H     1 <1>   0.0800 
 29 H       -3.3810    -0.7320     1.0770 H     1 <1>   0.0800 
 30 H       -2.9050    -0.4460     2.7410 H     1 <1>   0.0800 
 31 H       -1.7800    -1.1560     1.6110 H     1 <1>   0.0800 
 32 H       -4.7000     1.0230     2.0820 H     1 <1>   0.0800 
 33 H       -4.1530     2.5400     2.7710 H     1 <1>   0.0800 
 34 H       -2.9630     2.0480    -1.1880 H     1 <1>   0.0800 
 35 H       -3.8710     0.6800    -0.5780 H     1 <1>   0.0800 
 36 H       -5.3620     3.8010     1.2220 H     1 <1>   0.0800 
 37 H       -4.7420     3.5180    -0.9030 H     1 <1>   0.0800 
 38 H        0.4780     5.1020     0.9020 H     1 <1>   0.1500 
 39 H       -1.2980     3.5800    -2.6750 H     1 <1>   0.1500 
 40 H       -7.4070     2.7190     1.8160 H     1 <1>   0.0800 
 41 H       -6.8020     1.1700     1.3390 H     1 <1>   0.0800 
 42 H       -6.0530     0.8240    -1.1080 H     1 <1>   0.0800 
 43 H       -6.1880     2.1430    -2.2200 H     1 <1>   0.0800 
 44 H       -1.2300     5.8430    -3.6510 H     1 <1>   0.1500 
 45 H       -8.1940     1.6210    -0.5090 H     1 <1>   0.0800 
 46 H       -0.3350     7.7060    -2.3600 H     1 <1>   0.1500 
 47 H       -6.9470     4.2890    -0.5270 H     1 <1>   0.4500 
 48 H        1.2410     9.3940     0.4680 H     1 <1>   0.0800 
 49 H       -0.1850     9.2010    -0.5450 H     1 <1>   0.0800 
 50 H        1.4230     8.8050    -1.1810 H     1 <1>   0.0800 
 51 H       -9.7450     3.5640     0.1280 H     1 <1>   0.0800 
 52 H       -9.1760     5.2040    -0.1020 H     1 <1>   0.0800 
 53 H       -8.5650     4.2520     1.2250 H     1 <1>   0.0800 
 54 H       -9.0260     3.1990    -2.3360 H     1 <1>   0.0800 
 55 H       -7.3930     3.6500    -2.7820 H     1 <1>   0.0800 
 56 H       -8.5310     4.8780    -2.2940 H     1 <1>   0.0800 
@<TRIPOS>BOND
  1   1   2  2   
  2   2   3  am  
  3   2   4  1   
  4   3   5  1   
  5   3   6  1   
  6   4   7  1   
  7   4  26  1   
  8   4  27  1   
  9   5   8  1   
 10   5   9  1   
 11   5  28  1   
 12   6  29  1   
 13   6  30  1   
 14   6  31  1   
 15   7  10  1   
 16   8  11  1   
 17   8  32  1   
 18   8  33  1   
 19   9  12  1   
 20   9  34  1   
 21   9  35  1   
 22  10  13  ar  
 23  10  14  ar  
 24  11  12  1   
 25  11  15  1   
 26  11  36  1   
 27  12  16  1   
 28  12  37  1   
 29  13  17  ar  
 30  13  38  1   
 31  14  18  ar  
 32  14  39  1   
 33  15  19  1   
 34  15  40  1   
 35  15  41  1   
 36  16  19  1   
 37  16  42  1   
 38  16  43  1   
 39  17  20  1   
 40  17  21  ar  
 41  18  21  ar  
 42  18  44  1   
 43  19  22  1   
 44  19  45  1   
 45  20  23  1   
 46  21  46  1   
 47  22  24  1   
 48  22  25  1   
 49  22  47  1   
 50  23  48  1   
 51  23  49  1   
 52  23  50  1   
 53  24  51  1   
 54  24  52  1   
 55  24  53  1   
 56  25  54  1   
 57  25  55  1   
 58  25  56  1   
@<TRIPOS>SUBSTRUCTURE
  1 ****   5 GROUP 4 **** **** 0

# MOE 2024.06 (io_trps.svl 2023.06)
