@<TRIPOS>MOLECULE
NONAME
67 71 1 0 0 
SMALL
USER_CHARGES


@<TRIPOS>ATOM
  1 O        0.1900     1.0120    -0.1020 O.2   1 <1>  -0.5700 
  2 C       -0.4860     2.0080     0.0040 C.2   1 <1>   0.5690 
  3 N       -1.8550     1.9300     0.0620 N.am  1 <1>  -0.6600 
  4 C        0.2640     3.3470     0.0310 C.3   1 <1>  -0.0190 
  5 C       -2.8280     3.0700     0.0570 C.3   1 <1>   0.1400 
  6 C       -2.5010     0.5760     0.0370 C.3   1 <1>   0.1400 
  7 C        0.5040     3.8410    -1.4090 C.3   1 <1>  -0.1600 
  8 C        1.6100     3.2370     0.7820 C.3   1 <1>  -0.1600 
  9 C       -3.7550     3.0260     1.2960 C.3   1 <1>   0.1440 
 10 C       -3.9720     0.6110     0.4870 C.3   1 <1>  -0.1600 
 11 C        1.3780     5.0930    -1.4630 C.3   1 <1>   0.3430 
 12 C        2.4400     4.5130     0.6800 C.3   1 <1>   0.3430 
 13 C       -4.9580     3.9020     0.9880 C.ar  1 <1>   0.1660 
 14 C       -4.1620     1.5750     1.6670 C.3   1 <1>  -0.1600 
 15 C       -3.1250     3.7550     2.5130 C.3   1 <1>  -0.1600 
 16 N        2.6660     4.8370    -0.7590 N.4   1 <1>  -0.9590 
 17 N       -5.9300     3.5920     0.1640 N.ar  1 <1>  -0.6200 
 18 C       -4.9090     5.0830     1.6600 C.ar  1 <1>  -0.1440 
 19 C       -3.6780     5.1920     2.5220 C.3   1 <1>  -0.0170 
 20 C        3.5960     6.0000    -0.9420 C.3   1 <1>   0.3430 
 21 C       -6.9000     4.5060     0.0280 C.ar  1 <1>   0.6200 
 22 C       -5.9360     5.9710     1.4660 C.ar  1 <1>   0.1600 
 23 C        5.0360     5.6920    -0.5120 C.3   1 <1>   0.1200 
 24 N       -6.9290     5.6920     0.6530 N.ar  1 <1>  -0.6200 
 25 C       -8.0020     4.1870    -0.8710 C.ar  1 <1>   0.0000 
 26 O        5.7840     6.8330    -0.7560 O.3   1 <1>  -0.5600 
 27 C       -8.3700     2.8640    -1.1400 C.ar  1 <1>  -0.1500 
 28 C       -8.7440     5.1860    -1.5080 C.ar  1 <1>  -0.1500 
 29 C        7.1370     6.7160    -0.4400 C.3   1 <1>   0.0400 
 30 C       -9.4140     2.5560    -1.9930 C.ar  1 <1>  -0.1500 
 31 C       -9.7900     4.8860    -2.3620 C.ar  1 <1>  -0.1500 
 32 C      -10.1280     3.5680    -2.6080 C.ar  1 <1>  -0.1500 
 33 H       -0.3260     4.0710     0.5590 H     1 <1>   0.0800 
 34 H       -3.4340     2.9760    -0.8280 H     1 <1>   0.0800 
 35 H       -2.3410     4.0230    -0.0050 H     1 <1>   0.0800 
 36 H       -1.9530    -0.0760     0.6970 H     1 <1>   0.0800 
 37 H       -2.4340     0.1670    -0.9570 H     1 <1>   0.0800 
 38 H       -0.4430     4.0530    -1.8750 H     1 <1>   0.0800 
 39 H        0.9710     3.0600    -1.9840 H     1 <1>   0.0800 
 40 H        2.1930     2.4210     0.3920 H     1 <1>   0.0800 
 41 H        1.4190     3.0200     1.8190 H     1 <1>   0.0800 
 42 H       -4.2780    -0.3810     0.7700 H     1 <1>   0.0800 
 43 H       -4.5960     0.9150    -0.3360 H     1 <1>   0.0800 
 44 H        0.8630     5.9170    -0.9960 H     1 <1>   0.0800 
 45 H        1.5660     5.3520    -2.4940 H     1 <1>   0.0800 
 46 H        3.3820     4.3630     1.1820 H     1 <1>   0.0800 
 47 H        1.9230     5.3260     1.1640 H     1 <1>   0.0800 
 48 H       -5.1840     1.5510     2.0030 H     1 <1>   0.0800 
 49 H       -3.5460     1.2180     2.4740 H     1 <1>   0.0800 
 50 H       -2.0510     3.7320     2.4930 H     1 <1>   0.0800 
 51 H       -3.4520     3.2810     3.4230 H     1 <1>   0.0800 
 52 H        3.0890     4.0080    -1.2020 H     1 <1>   0.4500 
 53 H       -2.9800     5.8770     2.0740 H     1 <1>   0.0800 
 54 H       -3.9210     5.5160     3.5200 H     1 <1>   0.0800 
 55 H        3.2400     6.8450    -0.3760 H     1 <1>   0.0800 
 56 H        3.6180     6.2790    -1.9830 H     1 <1>   0.0800 
 57 H       -5.9450     6.9170     1.9790 H     1 <1>   0.1500 
 58 H        5.4460     4.8850    -1.0960 H     1 <1>   0.0800 
 59 H        5.0940     5.4710     0.5390 H     1 <1>   0.0800 
 60 H       -7.8280     2.0620    -0.6700 H     1 <1>   0.1500 
 61 H       -8.4980     6.2190    -1.3310 H     1 <1>   0.1500 
 62 H        7.6160     7.6530    -0.6670 H     1 <1>   0.0800 
 63 H        7.5790     5.9340    -1.0320 H     1 <1>   0.0800 
 64 H        7.2440     6.5050     0.6110 H     1 <1>   0.0800 
 65 H       -9.6710     1.5280    -2.1790 H     1 <1>   0.1500 
 66 H      -10.3420     5.6790    -2.8360 H     1 <1>   0.1500 
 67 H      -10.9410     3.3320    -3.2720 H     1 <1>   0.1500 
@<TRIPOS>BOND
  1   1   2  2   
  2   2   3  am  
  3   2   4  1   
  4   3   5  1   
  5   3   6  1   
  6   4   7  1   
  7   4   8  1   
  8   4  33  1   
  9   5   9  1   
 10   5  34  1   
 11   5  35  1   
 12   6  10  1   
 13   6  36  1   
 14   6  37  1   
 15   7  11  1   
 16   7  38  1   
 17   7  39  1   
 18   8  12  1   
 19   8  40  1   
 20   8  41  1   
 21   9  13  1   
 22   9  14  1   
 23   9  15  1   
 24  10  14  1   
 25  10  42  1   
 26  10  43  1   
 27  11  16  1   
 28  11  44  1   
 29  11  45  1   
 30  12  16  1   
 31  12  46  1   
 32  12  47  1   
 33  13  17  ar  
 34  13  18  ar  
 35  14  48  1   
 36  14  49  1   
 37  15  19  1   
 38  15  50  1   
 39  15  51  1   
 40  16  20  1   
 41  16  52  1   
 42  17  21  ar  
 43  18  19  1   
 44  18  22  ar  
 45  19  53  1   
 46  19  54  1   
 47  20  23  1   
 48  20  55  1   
 49  20  56  1   
 50  21  24  ar  
 51  21  25  1   
 52  22  24  ar  
 53  22  57  1   
 54  23  26  1   
 55  23  58  1   
 56  23  59  1   
 57  25  27  ar  
 58  25  28  ar  
 59  26  29  1   
 60  27  30  ar  
 61  27  60  1   
 62  28  31  ar  
 63  28  61  1   
 64  29  62  1   
 65  29  63  1   
 66  29  64  1   
 67  30  32  ar  
 68  30  65  1   
 69  31  32  ar  
 70  31  66  1   
 71  32  67  1   
@<TRIPOS>SUBSTRUCTURE
  1 ****   5 GROUP 4 **** **** 0

# MOE 2024.06 (io_trps.svl 2023.06)
