@<TRIPOS>MOLECULE
NONAME
53 56 1 0 0 
SMALL
USER_CHARGES


@<TRIPOS>ATOM
  1 O        1.4190     0.1730     1.6890 O.3   1 <1>  -0.6800 
  2 C        1.3260    -0.1920     0.3470 C.3   1 <1>   0.2000 
  3 C        1.9110    -1.5900     0.1480 C.3   1 <1>  -0.0800 
  4 C        2.2960     0.6760    -0.4580 C.3   1 <1>   0.3430 
  5 C        3.4280    -1.3630     0.1370 C.3   1 <1>   0.3430 
  6 C        1.4680    -2.6760     1.1520 C.3   1 <1>  -0.0160 
  7 N        3.6470     0.0630    -0.2500 N.4   1 <1>  -0.9590 
  8 C        2.2910    -3.9440     0.9560 C.ar  1 <1>  -0.1430 
  9 C        4.3950     0.7990     0.8000 C.3   1 <1>   0.5240 
 10 C        2.1120    -4.8060    -0.1530 C.ar  1 <1>   0.0000 
 11 C        3.2620    -4.2720     1.8590 C.ar  1 <1>  -0.1500 
 12 C        4.7310     2.1560     0.2300 C.2   1 <1>  -0.1810 
 13 C        2.9990    -5.9020    -0.2830 C.ar  1 <1>   0.3100 
 14 C        1.1050    -4.6510    -1.1360 C.ar  1 <1>  -0.1500 
 15 C        4.0670    -5.3980     1.6510 C.ar  1 <1>   0.1600 
 16 C        4.1400     3.3630     0.5920 C.2   1 <1>   0.1080 
 17 C        5.6320     2.4800    -0.7280 C.2   1 <1>  -0.3320 
 18 N        3.9690    -6.1770     0.6230 N.ar  1 <1>  -0.6200 
 19 C        2.8770    -6.7500    -1.3950 C.ar  1 <1>  -0.1500 
 20 C        1.0090    -5.4990    -2.2050 C.ar  1 <1>  -0.1500 
 21 N        4.6120     4.3500    -0.0930 N.2   1 <1>  -0.7070 
 22 C        3.0760     3.5990     1.6430 C.3   1 <1>  -0.0590 
 23 N        5.5390     3.8190    -0.9030 N.pl3 1 <1>   0.3140 
 24 C        6.6070     1.6020    -1.5000 C.3   1 <1>  -0.0600 
 25 C        1.9090    -6.5580    -2.3430 C.ar  1 <1>  -0.1500 
 26 C        6.3160     4.6660    -1.8180 C.3   1 <1>   0.0160 
 27 H        0.6390    -0.1430     2.1950 H     1 <1>   0.4000 
 28 H        0.3050    -0.0870     0.0190 H     1 <1>   0.0800 
 29 H        1.6440    -1.9160    -0.8410 H     1 <1>   0.0800 
 30 H        2.2560     1.7070    -0.1470 H     1 <1>   0.0800 
 31 H        2.0360     0.6180    -1.5020 H     1 <1>   0.0800 
 32 H        3.9070    -2.0400    -0.5540 H     1 <1>   0.0800 
 33 H        3.8200    -1.5410     1.1250 H     1 <1>   0.0800 
 34 H        0.4200    -2.8930     1.0370 H     1 <1>   0.0800 
 35 H        1.6080    -2.3290     2.1610 H     1 <1>   0.0800 
 36 H        4.1990     0.1620    -1.1110 H     1 <1>   0.4500 
 37 H        3.8020     0.8950     1.6940 H     1 <1>   0.0800 
 38 H        5.3090     0.2810     1.0410 H     1 <1>   0.0800 
 39 H        3.4420    -3.6870     2.7430 H     1 <1>   0.1500 
 40 H        0.3880    -3.8590    -1.0450 H     1 <1>   0.1500 
 41 H        4.8200    -5.6270     2.3870 H     1 <1>   0.1500 
 42 H        3.5730    -7.5650    -1.4750 H     1 <1>   0.1500 
 43 H        0.2410    -5.3720    -2.9500 H     1 <1>   0.1500 
 44 H        2.7120     2.6820     2.0630 H     1 <1>   0.0800 
 45 H        2.2530     4.1330     1.2040 H     1 <1>   0.0800 
 46 H        3.4870     4.2040     2.4310 H     1 <1>   0.0800 
 47 H        6.5540     0.5800    -1.1730 H     1 <1>   0.0800 
 48 H        7.6140     1.9500    -1.3450 H     1 <1>   0.0800 
 49 H        6.3900     1.6400    -2.5530 H     1 <1>   0.0800 
 50 H        1.8260    -7.2180    -3.1900 H     1 <1>   0.1500 
 51 H        6.1750     4.3240    -2.8260 H     1 <1>   0.0800 
 52 H        7.3540     4.6150    -1.5510 H     1 <1>   0.0800 
 53 H        5.9740     5.6810    -1.7320 H     1 <1>   0.0800 
@<TRIPOS>BOND
  1   1   2  1   
  2   1  27  1   
  3   2   3  1   
  4   2   4  1   
  5   2  28  1   
  6   3   5  1   
  7   3   6  1   
  8   3  29  1   
  9   4   7  1   
 10   4  30  1   
 11   4  31  1   
 12   5   7  1   
 13   5  32  1   
 14   5  33  1   
 15   6   8  1   
 16   6  34  1   
 17   6  35  1   
 18   7   9  1   
 19   7  36  1   
 20   8  10  ar  
 21   8  11  ar  
 22   9  12  1   
 23   9  37  1   
 24   9  38  1   
 25  10  13  ar  
 26  10  14  ar  
 27  11  15  ar  
 28  11  39  1   
 29  12  16  1   
 30  12  17  2   
 31  13  18  ar  
 32  13  19  ar  
 33  14  20  ar  
 34  14  40  1   
 35  15  18  ar  
 36  15  41  1   
 37  16  21  2   
 38  16  22  1   
 39  17  23  1   
 40  17  24  1   
 41  19  25  ar  
 42  19  42  1   
 43  20  25  ar  
 44  20  43  1   
 45  21  23  1   
 46  22  44  1   
 47  22  45  1   
 48  22  46  1   
 49  23  26  1   
 50  24  47  1   
 51  24  48  1   
 52  24  49  1   
 53  25  50  1   
 54  26  51  1   
 55  26  52  1   
 56  26  53  1   
@<TRIPOS>SUBSTRUCTURE
  1 ****   5 GROUP 4 **** **** 0

# MOE 2024.06 (io_trps.svl 2023.06)
