@<TRIPOS>MOLECULE
NONAME
53 55 1 0 0 
SMALL
USER_CHARGES


@<TRIPOS>ATOM
  1 O       -0.9330     2.4380     3.3470 O.2   1 <1>  -0.5700 
  2 C       -0.7490     3.4060     2.6540 C.2   1 <1>   0.5690 
  3 N       -1.6970     3.8140     1.7810 N.am  1 <1>  -0.7300 
  4 C        0.5800     4.1680     2.7350 C.3   1 <1>   0.1810 
  5 C       -1.5660     5.0430     0.9620 C.3   1 <1>   0.3640 
  6 O        0.5160     5.4580     2.1660 O.3   1 <1>  -0.5600 
  7 C       -2.1050     4.7810    -0.4380 C.ar  1 <1>  -0.1440 
  8 C       -0.0940     5.5130     0.8870 C.3   1 <1>   0.2610 
  9 C       -1.8150     3.6040    -1.1170 C.ar  1 <1>   0.1600 
 10 C       -2.8800     5.7340    -1.0710 C.ar  1 <1>  -0.1500 
 11 C       -0.0130     6.9280     0.2860 C.2   1 <1>   0.5690 
 12 N       -2.2180     3.3160    -2.3440 N.ar  1 <1>  -0.6200 
 13 C       -3.3160     5.4460    -2.3460 C.ar  1 <1>  -0.1500 
 14 O       -0.8410     7.7370     0.6460 O.2   1 <1>  -0.5700 
 15 N        0.9390     7.2660    -0.6510 N.am  1 <1>  -0.6600 
 16 C       -2.9620     4.2410    -2.9280 C.ar  1 <1>   0.1600 
 17 C        1.0570     8.6780    -1.1280 C.3   1 <1>   0.2840 
 18 C        1.8750     6.3030    -1.3000 C.3   1 <1>   0.1400 
 19 C        2.4170     9.2510    -0.7620 C.ar  1 <1>  -0.1440 
 20 C        3.0610     5.9800    -0.3820 C.3   1 <1>  -0.1600 
 21 C        2.7340     9.4730     0.5690 C.ar  1 <1>  -0.1500 
 22 C        3.3520     9.5520    -1.7410 C.ar  1 <1>  -0.1500 
 23 C        3.9490     4.8890    -0.9890 C.3   1 <1>  -0.2400 
 24 C        3.9700     9.9840     0.9300 C.ar  1 <1>   0.0820 
 25 C        4.5890    10.0640    -1.3910 C.ar  1 <1>  -0.1500 
 26 O        4.1950    10.1620     2.2560 O.3   1 <1>  -0.3620 
 27 C        4.9020    10.2810    -0.0600 C.ar  1 <1>  -0.1500 
 28 C        5.4200    10.6720     2.7300 C.3   1 <1>   0.0400 
 29 H       -2.6010     3.3360     1.7810 H     1 <1>   0.3700 
 30 H        1.3430     3.6100     2.2240 H     1 <1>   0.0800 
 31 H        0.8640     4.2800     3.7650 H     1 <1>   0.0800 
 32 H       -2.1560     5.8130     1.4290 H     1 <1>   0.0800 
 33 H        0.4380     4.8290     0.2580 H     1 <1>   0.0800 
 34 H       -1.2150     2.8540    -0.6300 H     1 <1>   0.1500 
 35 H       -3.1320     6.6690    -0.5970 H     1 <1>   0.1500 
 36 H       -3.9240     6.1480    -2.8870 H     1 <1>   0.1500 
 37 H       -3.3080     4.0270    -3.9250 H     1 <1>   0.1500 
 38 H        0.9170     8.7020    -2.1940 H     1 <1>   0.0800 
 39 H        0.2950     9.2990    -0.6900 H     1 <1>   0.0800 
 40 H        1.3450     5.4020    -1.5560 H     1 <1>   0.0800 
 41 H        2.2450     6.7240    -2.2190 H     1 <1>   0.0800 
 42 H        3.6540     6.8660    -0.2350 H     1 <1>   0.0800 
 43 H        2.7140     5.6530     0.5800 H     1 <1>   0.0800 
 44 H        2.0210     9.2420     1.3410 H     1 <1>   0.1500 
 45 H        3.1230     9.3880    -2.7800 H     1 <1>   0.1500 
 46 H        4.3400     5.2080    -1.9400 H     1 <1>   0.0800 
 47 H        3.3930     3.9790    -1.1280 H     1 <1>   0.0800 
 48 H        4.7780     4.6870    -0.3330 H     1 <1>   0.0800 
 49 H        5.3100    10.2950    -2.1560 H     1 <1>   0.1500 
 50 H        5.8680    10.6780     0.1840 H     1 <1>   0.1500 
 51 H        5.3660    10.7240     3.8030 H     1 <1>   0.0800 
 52 H        5.5690    11.6560     2.3240 H     1 <1>   0.0800 
 53 H        6.2120    10.0070     2.4350 H     1 <1>   0.0800 
@<TRIPOS>BOND
  1   1   2  2   
  2   2   3  am  
  3   2   4  1   
  4   3   5  1   
  5   3  29  1   
  6   4   6  1   
  7   4  30  1   
  8   4  31  1   
  9   5   7  1   
 10   5   8  1   
 11   5  32  1   
 12   6   8  1   
 13   7   9  ar  
 14   7  10  ar  
 15   8  11  1   
 16   8  33  1   
 17   9  12  ar  
 18   9  34  1   
 19  10  13  ar  
 20  10  35  1   
 21  11  14  2   
 22  11  15  am  
 23  12  16  ar  
 24  13  16  ar  
 25  13  36  1   
 26  15  17  1   
 27  15  18  1   
 28  16  37  1   
 29  17  19  1   
 30  17  38  1   
 31  17  39  1   
 32  18  20  1   
 33  18  40  1   
 34  18  41  1   
 35  19  21  ar  
 36  19  22  ar  
 37  20  23  1   
 38  20  42  1   
 39  20  43  1   
 40  21  24  ar  
 41  21  44  1   
 42  22  25  ar  
 43  22  45  1   
 44  23  46  1   
 45  23  47  1   
 46  23  48  1   
 47  24  26  1   
 48  24  27  ar  
 49  25  27  ar  
 50  25  49  1   
 51  26  28  1   
 52  27  50  1   
 53  28  51  1   
 54  28  52  1   
 55  28  53  1   
@<TRIPOS>SUBSTRUCTURE
  1 ****  11 GROUP 4 **** **** 0

# MOE 2024.06 (io_trps.svl 2023.06)
