@<TRIPOS>MOLECULE
NONAME
51 53 1 0 0 
SMALL
USER_CHARGES


@<TRIPOS>ATOM
  1 S        0.2240    -0.3010     0.6370 S.o2  1 <1>   1.3330 
  2 O        0.6760    -1.0050     1.8160 O.2   1 <1>  -0.6500 
  3 O       -0.6860     0.8130     0.7790 O.2   1 <1>  -0.6500 
  4 N       -0.4810    -1.4380    -0.4080 N.am  1 <1>  -0.8490 
  5 C        1.6370     0.2730    -0.3070 C.3   1 <1>  -0.0550 
  6 C       -1.9330    -1.5320    -0.2300 C.3   1 <1>   0.1160 
  7 C        0.1220    -2.7720    -0.3080 C.3   1 <1>   0.1160 
  8 C        2.4260     1.4010     0.3890 C.3   1 <1>  -0.0800 
  9 C        3.4550     2.0090    -0.5480 C.3   1 <1>   0.2200 
 10 C        3.3050     0.8710     1.5280 C.3   1 <1>   0.1200 
 11 N        3.7800     3.3780    -0.0910 N.am  1 <1>  -0.7300 
 12 C        4.6570     1.0960    -0.3310 C.3   1 <1>   0.1200 
 13 O        4.5790     0.6560     0.9920 O.3   1 <1>  -0.5600 
 14 C        3.5530     4.5050    -0.8060 C.2   1 <1>   0.5690 
 15 O        3.0660     4.4750    -1.9090 O.2   1 <1>  -0.5700 
 16 C        3.9320     5.8370    -0.2010 C.3   1 <1>  -0.0990 
 17 C        5.3630     6.2270    -0.5840 C.3   1 <1>   0.0210 
 18 C        5.8070     7.5250     0.0700 C.2   1 <1>  -0.1810 
 19 C        7.1170     8.0420    -0.0560 C.ar  1 <1>   0.0000 
 20 C        5.1040     8.3890     0.8440 C.2   1 <1>  -0.3020 
 21 C        7.1480     9.2280     0.6710 C.ar  1 <1>  -0.1520 
 22 C        8.2730     7.6130    -0.7180 C.ar  1 <1>  -0.1500 
 23 N        5.9070     9.4290     1.2160 N.pl3 1 <1>   0.0330 
 24 C        8.3130     9.9950     0.7510 C.ar  1 <1>  -0.1500 
 25 C        9.4210     8.3680    -0.6390 C.ar  1 <1>  -0.1500 
 26 C        9.4420     9.5590     0.0960 C.ar  1 <1>  -0.1500 
 27 H        2.2910    -0.5520    -0.5110 H     1 <1>   0.0800 
 28 H        1.2730     0.6430    -1.2460 H     1 <1>   0.0800 
 29 H       -2.3480    -2.2490    -0.9170 H     1 <1>   0.0800 
 30 H       -2.3910    -0.5770    -0.4250 H     1 <1>   0.0800 
 31 H       -2.1680    -1.8280     0.7800 H     1 <1>   0.0800 
 32 H       -0.2980    -3.4240    -1.0560 H     1 <1>   0.0800 
 33 H       -0.0580    -3.1950     0.6670 H     1 <1>   0.0800 
 34 H        1.1850    -2.7130    -0.4670 H     1 <1>   0.0800 
 35 H        1.7320     2.1460     0.7400 H     1 <1>   0.0800 
 36 H        3.1390     2.0220    -1.5780 H     1 <1>   0.0800 
 37 H        2.9520    -0.0510     1.9560 H     1 <1>   0.0800 
 38 H        3.4020     1.6070     2.3070 H     1 <1>   0.0800 
 39 H        4.2340     3.4250     0.8240 H     1 <1>   0.3700 
 40 H        5.5940     1.6000    -0.4910 H     1 <1>   0.0800 
 41 H        4.5960     0.2300    -0.9660 H     1 <1>   0.0800 
 42 H        3.2480     6.5850    -0.5590 H     1 <1>   0.0800 
 43 H        3.8410     5.7800     0.8680 H     1 <1>   0.0800 
 44 H        5.4290     6.3340    -1.6530 H     1 <1>   0.0800 
 45 H        6.0380     5.4440    -0.2860 H     1 <1>   0.0800 
 46 H        4.0760     8.3350     1.1560 H     1 <1>   0.1500 
 47 H        8.2470     6.6990    -1.2810 H     1 <1>   0.1500 
 48 H        5.6410    10.2300     1.7960 H     1 <1>   0.2700 
 49 H        8.3190    10.9080     1.3180 H     1 <1>   0.1500 
 50 H       10.3160     8.0490    -1.1440 H     1 <1>   0.1500 
 51 H       10.3520    10.1310     0.1420 H     1 <1>   0.1500 
@<TRIPOS>BOND
  1   1   2  2   
  2   1   3  2   
  3   1   4  am  
  4   1   5  1   
  5   4   6  1   
  6   4   7  1   
  7   5   8  1   
  8   5  27  1   
  9   5  28  1   
 10   6  29  1   
 11   6  30  1   
 12   6  31  1   
 13   7  32  1   
 14   7  33  1   
 15   7  34  1   
 16   8   9  1   
 17   8  10  1   
 18   8  35  1   
 19   9  11  1   
 20   9  12  1   
 21   9  36  1   
 22  10  13  1   
 23  10  37  1   
 24  10  38  1   
 25  11  14  am  
 26  11  39  1   
 27  12  13  1   
 28  12  40  1   
 29  12  41  1   
 30  14  15  2   
 31  14  16  1   
 32  16  17  1   
 33  16  42  1   
 34  16  43  1   
 35  17  18  1   
 36  17  44  1   
 37  17  45  1   
 38  18  19  1   
 39  18  20  2   
 40  19  21  ar  
 41  19  22  ar  
 42  20  23  1   
 43  20  46  1   
 44  21  23  1   
 45  21  24  ar  
 46  22  25  ar  
 47  22  47  1   
 48  23  48  1   
 49  24  26  ar  
 50  24  49  1   
 51  25  26  ar  
 52  25  50  1   
 53  26  51  1   
@<TRIPOS>SUBSTRUCTURE
  1 ****  11 GROUP 4 **** **** 0

# MOE 2024.06 (io_trps.svl 2023.06)
