@<TRIPOS>MOLECULE
NONAME
58 60 1 0 0 
SMALL
USER_CHARGES


@<TRIPOS>ATOM
  1 O       -1.2570     0.0840    -1.1100 O.2   1 <1>  -0.5700 
  2 C       -0.5050    -0.5380    -1.8220 C.2   1 <1>   0.5690 
  3 N        0.8420    -0.2960    -1.9050 N.am  1 <1>  -0.5470 
  4 C       -1.0730    -1.6810    -2.6770 C.3   1 <1>   0.1710 
  5 C        1.6820     0.5950    -1.2190 C.ar  1 <1>   0.1170 
  6 N       -1.1820    -3.0060    -2.0030 N.3   1 <1>  -0.8100 
  7 C        3.0510     0.3670    -1.2560 C.ar  1 <1>  -0.1500 
  8 C        1.2200     1.6920    -0.5040 C.ar  1 <1>  -0.1500 
  9 C        0.1290    -3.5300    -1.5380 C.3   1 <1>   0.1100 
 10 C       -2.2110    -3.0000    -0.9620 C.3   1 <1>   0.1100 
 11 C        3.9460     1.1940    -0.5960 C.ar  1 <1>  -0.1440 
 12 C        2.1020     2.5250     0.1580 C.ar  1 <1>  -0.1500 
 13 C        0.0440    -4.7110    -0.5290 C.3   1 <1>   0.0000 
 14 C       -2.5230    -4.4400    -0.5320 C.3   1 <1>  -0.1600 
 15 C        3.4670     2.2850     0.1200 C.ar  1 <1>  -0.1440 
 16 C        5.4340     0.8810    -0.6660 C.3   1 <1>  -0.0970 
 17 C       -1.3330    -5.3920    -0.7360 C.3   1 <1>   0.2000 
 18 C        1.1430    -5.7430    -0.8840 C.3   1 <1>   0.1200 
 19 C        0.1980    -4.2440     0.9550 C.3   1 <1>  -0.0170 
 20 C        4.4040     3.2250     0.8650 C.3   1 <1>  -0.0970 
 21 O       -1.4920    -6.4830     0.1050 O.3   1 <1>  -0.6800 
 22 O        2.3850    -5.1320    -1.0260 O.3   1 <1>  -0.6800 
 23 C        1.4930    -3.5250     1.3230 C.ar  1 <1>  -0.1440 
 24 C        2.5890    -4.2390     1.7860 C.ar  1 <1>  -0.1500 
 25 C        1.5790    -2.1430     1.2290 C.ar  1 <1>  -0.1500 
 26 C        3.7620    -3.5850     2.1220 C.ar  1 <1>  -0.1500 
 27 C        2.7490    -1.4880     1.5710 C.ar  1 <1>  -0.1500 
 28 C        3.8440    -2.2090     2.0130 C.ar  1 <1>  -0.1500 
 29 H        1.3460    -0.9470    -2.5030 H     1 <1>   0.3700 
 30 H       -0.4590    -1.7930    -3.5520 H     1 <1>   0.0800 
 31 H       -2.0490    -1.3840    -3.0170 H     1 <1>   0.0800 
 32 H        3.4220    -0.4800    -1.8040 H     1 <1>   0.1500 
 33 H        0.1690     1.9080    -0.4590 H     1 <1>   0.1500 
 34 H        0.6570    -3.8580    -2.4180 H     1 <1>   0.0800 
 35 H        0.7170    -2.7480    -1.1030 H     1 <1>   0.0800 
 36 H       -1.8720    -2.4140    -0.1240 H     1 <1>   0.0800 
 37 H       -3.1120    -2.5420    -1.3360 H     1 <1>   0.0800 
 38 H        1.7130     3.3650     0.7050 H     1 <1>   0.1500 
 39 H       -3.3470    -4.8010    -1.1220 H     1 <1>   0.0800 
 40 H       -2.8370    -4.4230     0.4950 H     1 <1>   0.0800 
 41 H        5.6170    -0.0050    -1.2470 H     1 <1>   0.0800 
 42 H        5.8230     0.7210     0.3230 H     1 <1>   0.0800 
 43 H        5.9600     1.6990    -1.1230 H     1 <1>   0.0800 
 44 H       -1.3720    -5.7660    -1.7470 H     1 <1>   0.0800 
 45 H        0.9190    -6.2260    -1.8200 H     1 <1>   0.0800 
 46 H        1.2220    -6.4990    -0.1220 H     1 <1>   0.0800 
 47 H       -0.6120    -3.5960     1.2250 H     1 <1>   0.0800 
 48 H        0.1170    -5.1020     1.5990 H     1 <1>   0.0800 
 49 H        3.8560     4.0120     1.3500 H     1 <1>   0.0800 
 50 H        5.1000     3.6730     0.1790 H     1 <1>   0.0800 
 51 H        4.9500     2.6820     1.6160 H     1 <1>   0.0800 
 52 H       -1.7200    -6.1850     1.0050 H     1 <1>   0.4000 
 53 H        2.5770    -4.5820    -0.2320 H     1 <1>   0.4000 
 54 H        2.5380    -5.3100     1.8890 H     1 <1>   0.1500 
 55 H        0.7370    -1.5610     0.8930 H     1 <1>   0.1500 
 56 H        4.6100    -4.1470     2.4730 H     1 <1>   0.1500 
 57 H        2.8030    -0.4150     1.4930 H     1 <1>   0.1500 
 58 H        4.7530    -1.6970     2.2740 H     1 <1>   0.1500 
@<TRIPOS>BOND
  1   1   2  2   
  2   2   3  am  
  3   2   4  1   
  4   3   5  1   
  5   3  29  1   
  6   4   6  1   
  7   4  30  1   
  8   4  31  1   
  9   5   7  ar  
 10   5   8  ar  
 11   6   9  1   
 12   6  10  1   
 13   7  11  ar  
 14   7  32  1   
 15   8  12  ar  
 16   8  33  1   
 17   9  13  1   
 18   9  34  1   
 19   9  35  1   
 20  10  14  1   
 21  10  36  1   
 22  10  37  1   
 23  11  15  ar  
 24  11  16  1   
 25  12  15  ar  
 26  12  38  1   
 27  13  17  1   
 28  13  18  1   
 29  13  19  1   
 30  14  17  1   
 31  14  39  1   
 32  14  40  1   
 33  15  20  1   
 34  16  41  1   
 35  16  42  1   
 36  16  43  1   
 37  17  21  1   
 38  17  44  1   
 39  18  22  1   
 40  18  45  1   
 41  18  46  1   
 42  19  23  1   
 43  19  47  1   
 44  19  48  1   
 45  20  49  1   
 46  20  50  1   
 47  20  51  1   
 48  21  52  1   
 49  22  53  1   
 50  23  24  ar  
 51  23  25  ar  
 52  24  26  ar  
 53  24  54  1   
 54  25  27  ar  
 55  25  55  1   
 56  26  28  ar  
 57  26  56  1   
 58  27  28  ar  
 59  27  57  1   
 60  28  58  1   
@<TRIPOS>SUBSTRUCTURE
  1 ****  25 GROUP 4 **** **** 0

# MOE 2024.06 (io_trps.svl 2023.06)
