@<TRIPOS>MOLECULE
NONAME
53 56 1 0 0 
SMALL
USER_CHARGES


@<TRIPOS>ATOM
  1 S       -2.5430     0.0430    -1.1470 S.o2  1 <1>   1.0900 
  2 O       -1.3610     0.8330    -0.9020 O.2   1 <1>  -0.6500 
  3 O       -3.2140     0.0440    -2.4260 O.2   1 <1>  -0.6500 
  4 C       -2.2740    -1.6460    -0.6930 C.3   1 <1>  -0.0550 
  5 C       -3.7710     0.3360     0.1170 C.3   1 <1>  -0.0550 
  6 C       -3.6450    -2.1290    -0.2310 C.3   1 <1>   0.1760 
  7 C       -4.2410    -1.0240     0.6670 C.3   1 <1>  -0.1600 
  8 N       -3.5430    -3.4290     0.4780 N.pl3 1 <1>   0.3140 
  9 N       -2.7130    -3.5810     1.5260 N.2   1 <1>  -0.7070 
 10 C       -4.1990    -4.5830     0.1930 C.2   1 <1>  -0.3320 
 11 C       -2.8440    -4.8210     1.8840 C.2   1 <1>   0.1080 
 12 C       -3.7620    -5.5050     1.0800 C.2   1 <1>   0.0630 
 13 C       -5.2140    -4.7470    -0.9330 C.3   1 <1>  -0.0600 
 14 C       -2.0730    -5.3860     3.0550 C.3   1 <1>  -0.0590 
 15 N       -4.2040    -6.8490     1.1340 N.am  1 <1>  -0.4930 
 16 C       -3.5130    -8.0020     1.3600 C.2   1 <1>   0.5690 
 17 O       -2.3410    -8.0370     1.6460 O.2   1 <1>  -0.5700 
 18 C       -4.2570    -9.3220     1.2320 C.3   1 <1>   0.0440 
 19 C       -5.5560    -9.1790     0.4410 C.ar  1 <1>  -0.1440 
 20 C       -6.7760    -9.0890     1.0940 C.ar  1 <1>  -0.1500 
 21 C       -5.5180    -9.1040    -0.9420 C.ar  1 <1>  -0.1500 
 22 C       -7.9430    -8.9200     0.3710 C.ar  1 <1>  -0.1500 
 23 C       -6.6840    -8.9350    -1.6650 C.ar  1 <1>  -0.1500 
 24 C       -7.9100    -8.8420    -1.0170 C.ar  1 <1>  -0.0230 
 25 N       -9.1060    -8.6660    -1.7660 N.pl3 1 <1>   0.5930 
 26 N       -9.3930    -7.5780    -2.4610 N.2   1 <1>  -0.4180 
 27 C      -10.1280    -9.5020    -1.9340 C.2   1 <1>   0.0060 
 28 N      -10.5380    -7.7730    -3.0040 N.2   1 <1>   0.0000 
 29 N      -11.0130    -8.9720    -2.6850 N.2   1 <1>  -0.3380 
 30 C      -10.2280   -10.8920    -1.3300 C.3   1 <1>  -0.0600 
 31 H       -1.5750    -1.6940     0.1210 H     1 <1>   0.0800 
 32 H       -1.9090    -2.2240    -1.5200 H     1 <1>   0.0800 
 33 H       -4.5990     0.8810    -0.2970 H     1 <1>   0.0800 
 34 H       -3.3480     0.9170     0.9160 H     1 <1>   0.0800 
 35 H       -4.2710    -2.2510    -1.0960 H     1 <1>   0.0800 
 36 H       -5.3150    -1.0840     0.6840 H     1 <1>   0.0800 
 37 H       -3.8700    -1.1340     1.6730 H     1 <1>   0.0800 
 38 H       -6.0440    -4.0800    -0.7860 H     1 <1>   0.0800 
 39 H       -5.5910    -5.7530    -0.9650 H     1 <1>   0.0800 
 40 H       -4.7540    -4.5330    -1.8810 H     1 <1>   0.0800 
 41 H       -1.8120    -4.5980     3.7370 H     1 <1>   0.0800 
 42 H       -1.1730    -5.8530     2.7000 H     1 <1>   0.0800 
 43 H       -2.6670    -6.1140     3.5750 H     1 <1>   0.0800 
 44 H       -5.1590    -6.9850     0.8010 H     1 <1>   0.3700 
 45 H       -4.4570    -9.6950     2.2190 H     1 <1>   0.0800 
 46 H       -3.6140   -10.0300     0.7420 H     1 <1>   0.0800 
 47 H       -6.8230    -9.1450     2.1690 H     1 <1>   0.1500 
 48 H       -4.5760    -9.1710    -1.4630 H     1 <1>   0.1500 
 49 H       -8.8820    -8.8430     0.8930 H     1 <1>   0.1500 
 50 H       -6.6400    -8.8710    -2.7400 H     1 <1>   0.1500 
 51 H       -9.3640   -11.4750    -1.5930 H     1 <1>   0.0800 
 52 H      -11.1060   -11.3910    -1.7030 H     1 <1>   0.0800 
 53 H      -10.2990   -10.8280    -0.2590 H     1 <1>   0.0800 
@<TRIPOS>BOND
  1   1   2  2   
  2   1   3  2   
  3   1   4  1   
  4   1   5  1   
  5   4   6  1   
  6   4  31  1   
  7   4  32  1   
  8   5   7  1   
  9   5  33  1   
 10   5  34  1   
 11   6   7  1   
 12   6   8  1   
 13   6  35  1   
 14   7  36  1   
 15   7  37  1   
 16   8   9  1   
 17   8  10  1   
 18   9  11  2   
 19  10  12  2   
 20  10  13  1   
 21  11  12  1   
 22  11  14  1   
 23  12  15  1   
 24  13  38  1   
 25  13  39  1   
 26  13  40  1   
 27  14  41  1   
 28  14  42  1   
 29  14  43  1   
 30  15  16  am  
 31  15  44  1   
 32  16  17  2   
 33  16  18  1   
 34  18  19  1   
 35  18  45  1   
 36  18  46  1   
 37  19  20  ar  
 38  19  21  ar  
 39  20  22  ar  
 40  20  47  1   
 41  21  23  ar  
 42  21  48  1   
 43  22  24  ar  
 44  22  49  1   
 45  23  24  ar  
 46  23  50  1   
 47  24  25  1   
 48  25  26  1   
 49  25  27  1   
 50  26  28  2   
 51  27  29  2   
 52  27  30  1   
 53  28  29  1   
 54  30  51  1   
 55  30  52  1   
 56  30  53  1   
@<TRIPOS>SUBSTRUCTURE
  1 ****  13 GROUP 4 **** **** 0

# MOE 2024.06 (io_trps.svl 2023.06)
