@<TRIPOS>MOLECULE
NONAME
29 29 1 0 0 
SMALL
USER_CHARGES


@<TRIPOS>ATOM
  1 N       -8.2590    -0.1220    -0.1630 N.pl3 1 <1>  -0.8380 
  2 C       -7.9510    -1.2280     0.6340 C.2   1 <1>  -0.0500 
  3 C       -6.9960     0.6790    -0.2070 C.3   1 <1>   0.5780 
  4 C       -9.4210     0.6560     0.3280 C.3   1 <1>   0.2090 
  5 C       -6.6860    -1.2210     1.0400 C.2   1 <1>  -0.0500 
  6 N       -5.9930    -0.0970     0.5880 N.pl3 1 <1>  -0.8380 
  7 C      -10.7010     0.0910    -0.2900 C.3   1 <1>  -0.1600 
  8 C       -4.7880    -0.4500    -0.1990 C.3   1 <1>   0.1290 
  9 C      -11.9390     0.8770     0.1640 C.3   1 <1>  -0.1600 
 10 C      -13.2170     0.3030    -0.4600 C.3   1 <1>  -0.1600 
 11 C      -14.4520     1.0860    -0.0070 C.3   1 <1>  -0.2400 
 12 H       -8.7050    -1.9670     0.8530 H     1 <1>   0.1500 
 13 H       -7.1350     1.6490     0.2390 H     1 <1>   0.0800 
 14 H       -6.6750     0.7930    -1.2290 H     1 <1>   0.0800 
 15 H       -9.3180     1.6900     0.0440 H     1 <1>   0.0800 
 16 H       -9.4690     0.6000     1.4030 H     1 <1>   0.0800 
 17 H       -6.1870    -1.9580     1.6480 H     1 <1>   0.1500 
 18 H      -10.8050    -0.9390     0.0000 H     1 <1>   0.0800 
 19 H      -10.6170     0.1370    -1.3610 H     1 <1>   0.0800 
 20 H       -4.3080     0.4430    -0.5590 H     1 <1>   0.0800 
 21 H       -5.0620    -1.0710    -1.0350 H     1 <1>   0.0800 
 22 H       -4.0950    -0.9880     0.4240 H     1 <1>   0.0800 
 23 H      -11.8350     1.9090    -0.1240 H     1 <1>   0.0800 
 24 H      -12.0170     0.8340     1.2380 H     1 <1>   0.0800 
 25 H      -13.3270    -0.7300    -0.1730 H     1 <1>   0.0800 
 26 H      -13.1450     0.3440    -1.5340 H     1 <1>   0.0800 
 27 H      -14.5560     1.0390     1.0630 H     1 <1>   0.0800 
 28 H      -15.3370     0.6680    -0.4550 H     1 <1>   0.0800 
 29 H      -14.3730     2.1170    -0.3040 H     1 <1>   0.0800 
@<TRIPOS>BOND
  1   1   2  1   
  2   1   3  1   
  3   1   4  1   
  4   2   5  2   
  5   2  12  1   
  6   3   6  1   
  7   3  13  1   
  8   3  14  1   
  9   4   7  1   
 10   4  15  1   
 11   4  16  1   
 12   5   6  1   
 13   5  17  1   
 14   6   8  1   
 15   7   9  1   
 16   7  18  1   
 17   7  19  1   
 18   8  20  1   
 19   8  21  1   
 20   8  22  1   
 21   9  10  1   
 22   9  23  1   
 23   9  24  1   
 24  10  11  1   
 25  10  25  1   
 26  10  26  1   
 27  11  27  1   
 28  11  28  1   
 29  11  29  1   
@<TRIPOS>SUBSTRUCTURE
  1 ****   4 GROUP 4 **** **** 0

# MOE 2024.06 (io_trps.svl 2023.06)
