@<TRIPOS>MOLECULE
NONAME
41 43 1 0 0 
SMALL
USER_CHARGES


@<TRIPOS>ATOM
  1 S        0.1920     0.4980     1.7990 S.o2  1 <1>   1.5000 
  2 O       -0.3070     1.7580     2.3050 O.2   1 <1>  -0.6500 
  3 O        0.6540    -0.5140     2.7200 O.2   1 <1>  -0.6500 
  4 N        1.5530     0.9200     0.8700 N.am  1 <1>  -0.8490 
  5 C       -0.9820    -0.1530     0.5840 C.2   1 <1>  -0.0220 
  6 C        2.5120     1.6810     1.7090 C.3   1 <1>   0.1960 
  7 C        2.2080    -0.2590     0.2790 C.3   1 <1>   0.1960 
  8 S       -1.1010    -1.9010     0.3890 S.3   1 <1>  -0.0800 
  9 C       -1.8230     0.4480    -0.2840 C.2   1 <1>  -0.1500 
 10 C        3.6730     2.3860     0.9480 C.3   1 <1>   0.4230 
 11 C        3.2330     0.1250    -0.8090 C.3   1 <1>  -0.0800 
 12 C       -2.3020    -1.7450    -0.8780 C.2   1 <1>  -0.1400 
 13 C       -2.5710    -0.4490    -1.1100 C.2   1 <1>  -0.1500 
 14 N        3.3910     2.6940    -0.5130 N.4   1 <1>  -0.9590 
 15 C        5.0180     1.6500     1.1320 C.3   1 <1>   0.1200 
 16 C        4.6920    -0.1310    -0.4020 C.3   1 <1>   0.1200 
 17 C        2.9900     1.5300    -1.3820 C.3   1 <1>   0.3430 
 18 C       -2.8390    -3.0240    -1.4870 C.3   1 <1>  -0.0600 
 19 C        2.3270     3.7420    -0.6050 C.3   1 <1>   0.2630 
 20 O        4.9210     0.2810     0.9030 O.3   1 <1>  -0.5600 
 21 H        1.9800     2.4620     2.2250 H     1 <1>   0.0800 
 22 H        2.9150     1.0380     2.4760 H     1 <1>   0.0800 
 23 H        2.6660    -0.8640     1.0480 H     1 <1>   0.0800 
 24 H        1.4590    -0.8730    -0.1920 H     1 <1>   0.0800 
 25 H       -1.9550     1.5120    -0.3760 H     1 <1>   0.1500 
 26 H        3.8150     3.3320     1.4430 H     1 <1>   0.0800 
 27 H        3.0530    -0.5490    -1.6280 H     1 <1>   0.0800 
 28 H       -3.2750    -0.0780    -1.8350 H     1 <1>   0.1500 
 29 H        4.2560     3.0830    -0.9080 H     1 <1>   0.4500 
 30 H        5.3340     1.7590     2.1550 H     1 <1>   0.0800 
 31 H        5.7880     2.0610     0.5040 H     1 <1>   0.0800 
 32 H        5.3940     0.3510    -1.0620 H     1 <1>   0.0800 
 33 H        4.8870    -1.1900    -0.4240 H     1 <1>   0.0800 
 34 H        1.9350     1.6030    -1.5940 H     1 <1>   0.0800 
 35 H        3.5060     1.6090    -2.3250 H     1 <1>   0.0800 
 36 H       -3.5660    -2.7980    -2.2460 H     1 <1>   0.0800 
 37 H       -3.3060    -3.6240    -0.7270 H     1 <1>   0.0800 
 38 H       -2.0360    -3.5860    -1.9300 H     1 <1>   0.0800 
 39 H        1.4000     3.3650    -0.2000 H     1 <1>   0.0800 
 40 H        2.1630     4.0230    -1.6330 H     1 <1>   0.0800 
 41 H        2.6120     4.6210    -0.0500 H     1 <1>   0.0800 
@<TRIPOS>BOND
  1   1   2  2   
  2   1   3  2   
  3   1   4  am  
  4   1   5  1   
  5   4   6  1   
  6   4   7  1   
  7   5   8  1   
  8   5   9  2   
  9   6  10  1   
 10   6  21  1   
 11   6  22  1   
 12   7  11  1   
 13   7  23  1   
 14   7  24  1   
 15   8  12  1   
 16   9  13  1   
 17   9  25  1   
 18  10  14  1   
 19  10  15  1   
 20  10  26  1   
 21  11  16  1   
 22  11  17  1   
 23  11  27  1   
 24  12  13  2   
 25  12  18  1   
 26  13  28  1   
 27  14  17  1   
 28  14  19  1   
 29  14  29  1   
 30  15  20  1   
 31  15  30  1   
 32  15  31  1   
 33  16  20  1   
 34  16  32  1   
 35  16  33  1   
 36  17  34  1   
 37  17  35  1   
 38  18  36  1   
 39  18  37  1   
 40  18  38  1   
 41  19  39  1   
 42  19  40  1   
 43  19  41  1   
@<TRIPOS>SUBSTRUCTURE
  1 ****   4 GROUP 4 **** **** 0

# MOE 2024.06 (io_trps.svl 2023.06)
