@<TRIPOS>MOLECULE
NONAME
53 55 1 0 0 
SMALL
USER_CHARGES


@<TRIPOS>ATOM
  1 N       -1.1580    -0.0750    -0.1730 N.ar  1 <1>  -0.6200 
  2 C       -0.0080     0.2100    -0.7430 C.ar  1 <1>   0.7710 
  3 C       -1.7830     0.9100     0.4420 C.ar  1 <1>   0.4100 
  4 N        0.5360     1.4350    -0.7330 N.ar  1 <1>  -0.1790 
  5 N        0.6180    -0.7920    -1.3560 N.pl3 1 <1>  -0.9000 
  6 N       -2.9850     0.5810     0.9800 N.pl3 1 <1>  -0.8380 
  7 C       -1.2470     2.2250     0.5280 C.ar  1 <1>  -0.1430 
  8 C       -0.0630     2.4760    -0.1060 C.ar  1 <1>   0.2170 
  9 C       -4.2660     1.1540     0.4570 C.3   1 <1>   0.2090 
 10 C       -3.1450    -0.6510     1.8180 C.3   1 <1>   0.2090 
 11 C       -1.9870     3.2950     1.3420 C.3   1 <1>  -0.0970 
 12 C        0.6670     3.8220    -0.1740 C.3   1 <1>  -0.0170 
 13 C       -5.1350     0.0670    -0.2190 C.3   1 <1>   0.3430 
 14 C       -4.0170    -1.7060     1.1040 C.3   1 <1>   0.3430 
 15 C        0.9880     4.2520    -1.6130 C.3   1 <1>  -0.2400 
 16 N       -5.3480    -1.1470     0.6540 N.4   1 <1>  -0.9590 
 17 C       -6.1800    -2.1620    -0.0680 C.3   1 <1>   0.3430 
 18 C       -6.6600    -3.2830     0.8560 C.3   1 <1>  -0.0170 
 19 C       -7.6000    -4.1790     0.0760 C.ar  1 <1>  -0.1430 
 20 C       -7.1040    -5.2520    -0.6510 C.ar  1 <1>  -0.1500 
 21 C       -8.9640    -3.9270     0.0720 C.ar  1 <1>  -0.1500 
 22 C       -7.9610    -6.0590    -1.3770 C.ar  1 <1>  -0.1500 
 23 C       -9.8210    -4.7350    -0.6540 C.ar  1 <1>  -0.1500 
 24 C       -9.3200    -5.8000    -1.3810 C.ar  1 <1>  -0.1500 
 25 H        1.4200     1.5570    -1.2140 H     1 <1>   0.4570 
 26 H        1.5140    -0.7780    -1.8460 H     1 <1>   0.4000 
 27 H        0.1790    -1.7180    -1.3420 H     1 <1>   0.4000 
 28 H       -4.0530     1.9260    -0.2630 H     1 <1>   0.0800 
 29 H       -4.8130     1.6040     1.2680 H     1 <1>   0.0800 
 30 H       -3.5960    -0.3850     2.7590 H     1 <1>   0.0800 
 31 H       -2.1800    -1.0770     2.0340 H     1 <1>   0.0800 
 32 H       -2.5650     2.8500     2.1330 H     1 <1>   0.0800 
 33 H       -2.6490     3.8580     0.7090 H     1 <1>   0.0800 
 34 H       -1.3050     3.9730     1.8210 H     1 <1>   0.0800 
 35 H        1.5800     3.7610     0.3930 H     1 <1>   0.0800 
 36 H        0.0750     4.6030     0.2680 H     1 <1>   0.0800 
 37 H       -4.6440    -0.2320    -1.1300 H     1 <1>   0.0800 
 38 H       -6.0870     0.4960    -0.4860 H     1 <1>   0.0800 
 39 H       -4.1720    -2.5370     1.7720 H     1 <1>   0.0800 
 40 H       -3.4700    -2.0670     0.2490 H     1 <1>   0.0800 
 41 H        1.6870     3.5870    -2.0870 H     1 <1>   0.0800 
 42 H        1.4250     5.2360    -1.6060 H     1 <1>   0.0800 
 43 H        0.0880     4.2950    -2.2050 H     1 <1>   0.0800 
 44 H       -5.8640    -0.8420     1.4900 H     1 <1>   0.4500 
 45 H       -5.6180    -2.5900    -0.8840 H     1 <1>   0.0800 
 46 H       -7.0490    -1.6820    -0.4880 H     1 <1>   0.0800 
 47 H       -7.1820    -2.8720     1.7020 H     1 <1>   0.0800 
 48 H       -5.8320    -3.8690     1.2120 H     1 <1>   0.0800 
 49 H       -6.0510    -5.4750    -0.6590 H     1 <1>   0.1500 
 50 H       -9.3780    -3.1080     0.6340 H     1 <1>   0.1500 
 51 H       -7.5750    -6.8920    -1.9400 H     1 <1>   0.1500 
 52 H      -10.8800    -4.5390    -0.6550 H     1 <1>   0.1500 
 53 H       -9.9870    -6.4290    -1.9450 H     1 <1>   0.1500 
@<TRIPOS>BOND
  1   1   2  ar  
  2   1   3  ar  
  3   2   4  ar  
  4   2   5  1   
  5   3   6  1   
  6   3   7  ar  
  7   4   8  ar  
  8   4  25  1   
  9   5  26  1   
 10   5  27  1   
 11   6   9  1   
 12   6  10  1   
 13   7   8  ar  
 14   7  11  1   
 15   8  12  1   
 16   9  13  1   
 17   9  28  1   
 18   9  29  1   
 19  10  14  1   
 20  10  30  1   
 21  10  31  1   
 22  11  32  1   
 23  11  33  1   
 24  11  34  1   
 25  12  15  1   
 26  12  35  1   
 27  12  36  1   
 28  13  16  1   
 29  13  37  1   
 30  13  38  1   
 31  14  16  1   
 32  14  39  1   
 33  14  40  1   
 34  15  41  1   
 35  15  42  1   
 36  15  43  1   
 37  16  17  1   
 38  16  44  1   
 39  17  18  1   
 40  17  45  1   
 41  17  46  1   
 42  18  19  1   
 43  18  47  1   
 44  18  48  1   
 45  19  20  ar  
 46  19  21  ar  
 47  20  22  ar  
 48  20  49  1   
 49  21  23  ar  
 50  21  50  1   
 51  22  24  ar  
 52  22  51  1   
 53  23  24  ar  
 54  23  52  1   
 55  24  53  1   
@<TRIPOS>SUBSTRUCTURE
  1 ****  14 GROUP 4 **** **** 0

# MOE 2024.06 (io_trps.svl 2023.06)
