@<TRIPOS>MOLECULE
NONAME
49 52 1 0 0 
SMALL
USER_CHARGES


@<TRIPOS>ATOM
  1 O        0.3530    -0.0970     1.2460 O.2   1 <1>  -0.5700 
  2 C        0.3560    -1.2740     0.9720 C.2   1 <1>   0.5690 
  3 N       -0.7360    -2.0270     1.2420 N.am  1 <1>  -0.7300 
  4 C        1.6150    -1.9130     0.3270 C.3   1 <1>   0.2510 
  5 C       -0.7900    -3.4890     1.0130 C.3   1 <1>   0.1400 
  6 N        1.5820    -3.4080     0.2080 N.3   1 <1>  -0.8100 
  7 C        2.8610    -1.4970     1.1330 C.3   1 <1>  -0.0990 
  8 C        0.2150    -3.9090    -0.0720 C.3   1 <1>   0.1100 
  9 C        2.5230    -3.8910    -0.8300 C.3   1 <1>   0.2530 
 10 C        3.4920    -0.2590     0.5360 C.2   1 <1>   0.5690 
 11 C        2.6470    -5.4090    -0.8010 C.ar  1 <1>  -0.1440 
 12 O        4.4990    -0.3950    -0.1110 O.2   1 <1>  -0.5700 
 13 N        2.8990     0.9500     0.7270 N.am  1 <1>  -0.4940 
 14 C        2.9750    -6.0610     0.3780 C.ar  1 <1>  -0.1500 
 15 C        2.4350    -6.1560    -1.9510 C.ar  1 <1>  -0.1500 
 16 C        3.2700     2.2110     0.2430 C.2   1 <1>   0.2510 
 17 C        3.0890    -7.4400     0.4100 C.ar  1 <1>  -0.1500 
 18 C        2.5480    -7.5350    -1.9210 C.ar  1 <1>  -0.1500 
 19 N        2.3770     3.0940    -0.0760 N.2   1 <1>  -0.3380 
 20 N        4.5250     2.6810     0.0620 N.pl3 1 <1>   0.3340 
 21 C        2.8760    -8.1780    -0.7410 C.ar  1 <1>  -0.1500 
 22 N        3.0190     4.1810    -0.5020 N.2   1 <1>  -0.3380 
 23 C        4.2930     3.9360    -0.4180 C.2   1 <1>   0.3120 
 24 C        5.8330     2.2790     0.3100 C.2   1 <1>  -0.1810 
 25 N        5.3060     4.8120    -0.7470 N.2   1 <1>  -0.5760 
 26 C        6.8320     3.1430     0.0020 C.2   1 <1>  -0.1360 
 27 C        6.5150     4.4200    -0.5440 C.2   1 <1>   0.3750 
 28 C        7.6550     5.3510    -0.8930 C.3   1 <1>  -0.1790 
 29 H       -1.5210    -1.5780     1.7190 H     1 <1>   0.3700 
 30 H        1.6850    -1.5040    -0.6670 H     1 <1>   0.0800 
 31 H       -1.7830    -3.7690     0.7080 H     1 <1>   0.0800 
 32 H       -0.5590    -4.0030     1.9310 H     1 <1>   0.0800 
 33 H        3.5980    -2.2770     1.1400 H     1 <1>   0.0800 
 34 H        2.5980    -1.3050     2.1570 H     1 <1>   0.0800 
 35 H       -0.1220    -3.5410    -1.0260 H     1 <1>   0.0800 
 36 H        0.2220    -4.9850    -0.1180 H     1 <1>   0.0800 
 37 H        3.5030    -3.4770    -0.6680 H     1 <1>   0.0800 
 38 H        2.1900    -3.5670    -1.8010 H     1 <1>   0.0800 
 39 H        1.9280     0.9200     1.0730 H     1 <1>   0.3700 
 40 H        3.1360    -5.4880     1.2750 H     1 <1>   0.1500 
 41 H        2.1810    -5.6690    -2.8770 H     1 <1>   0.1500 
 42 H        3.3430    -7.9360     1.3300 H     1 <1>   0.1500 
 43 H        2.3840    -8.1090    -2.8170 H     1 <1>   0.1500 
 44 H        2.9650    -9.2500    -0.7170 H     1 <1>   0.1500 
 45 H        5.9860     1.3030     0.7320 H     1 <1>   0.1500 
 46 H        7.8670     2.8980     0.1580 H     1 <1>   0.1500 
 47 H        8.2910     4.8910    -1.6270 H     1 <1>   0.0800 
 48 H        8.2280     5.5740    -0.0130 H     1 <1>   0.0800 
 49 H        7.2720     6.2710    -1.2980 H     1 <1>   0.0800 
@<TRIPOS>BOND
  1   1   2  2   
  2   2   3  am  
  3   2   4  1   
  4   3   5  1   
  5   3  29  1   
  6   4   6  1   
  7   4   7  1   
  8   4  30  1   
  9   5   8  1   
 10   5  31  1   
 11   5  32  1   
 12   6   8  1   
 13   6   9  1   
 14   7  10  1   
 15   7  33  1   
 16   7  34  1   
 17   8  35  1   
 18   8  36  1   
 19   9  11  1   
 20   9  37  1   
 21   9  38  1   
 22  10  12  2   
 23  10  13  am  
 24  11  14  ar  
 25  11  15  ar  
 26  13  16  1   
 27  13  39  1   
 28  14  17  ar  
 29  14  40  1   
 30  15  18  ar  
 31  15  41  1   
 32  16  19  2   
 33  16  20  1   
 34  17  21  ar  
 35  17  42  1   
 36  18  21  ar  
 37  18  43  1   
 38  19  22  1   
 39  20  23  1   
 40  20  24  1   
 41  21  44  1   
 42  22  23  2   
 43  23  25  1   
 44  24  26  2   
 45  24  45  1   
 46  25  27  2   
 47  26  27  1   
 48  26  46  1   
 49  27  28  1   
 50  28  47  1   
 51  28  48  1   
 52  28  49  1   
@<TRIPOS>SUBSTRUCTURE
  1 ****  10 GROUP 4 **** **** 0

# MOE 2024.06 (io_trps.svl 2023.06)
