@<TRIPOS>MOLECULE
NONAME
58 61 1 0 0 
SMALL
USER_CHARGES


@<TRIPOS>ATOM
  1 S        0.3860     1.1480    -0.3800 S.3   1 <1>  -0.1570 
  2 C        1.9880     1.2440     0.3670 C.2   1 <1>   0.2420 
  3 C        0.5960    -0.6030    -0.6550 C.2   1 <1>  -0.0370 
  4 N        2.6590     2.2240     0.8730 N.2   1 <1>  -0.5650 
  5 N        2.5680     0.0290     0.3740 N.pl3 1 <1>   0.3340 
  6 C        1.7940    -1.0110    -0.1970 C.2   1 <1>  -0.1690 
  7 C       -0.5690    -1.2970    -1.3300 C.3   1 <1>  -0.1020 
  8 C        3.8010     1.5950     1.2550 C.2   1 <1>   0.0460 
  9 C        3.7630     0.2690     0.9590 C.2   1 <1>  -0.3020 
 10 C        2.3870    -2.4110    -0.2250 C.3   1 <1>  -0.1020 
 11 C        4.9320     2.3760     1.9080 C.3   1 <1>   0.3210 
 12 N        5.1800     3.5710     1.0890 N.am  1 <1>  -0.7300 
 13 C        6.3720     4.1950     0.9340 C.2   1 <1>   0.5690 
 14 O        7.3480     3.7940     1.5250 O.2   1 <1>  -0.5700 
 15 C        6.5030     5.3830    -0.0390 C.3   1 <1>   0.0610 
 16 C        7.4180     6.4920     0.5520 C.3   1 <1>   0.2200 
 17 C        5.1790     6.1850    -0.2560 C.3   1 <1>  -0.1600 
 18 C        7.0380     4.7840    -1.3760 C.3   1 <1>  -0.1600 
 19 N        6.9190     7.6840    -0.1330 N.am  1 <1>  -0.6600 
 20 C        7.0010     6.8790     1.9850 C.3   1 <1>  -0.1600 
 21 C        5.5190     7.5960     0.2380 C.3   1 <1>   0.2200 
 22 C        7.4250     5.7530    -2.5060 C.3   1 <1>  -0.2400 
 23 C        7.6840     8.6590    -0.7110 C.2   1 <1>   0.5690 
 24 C        5.6460     7.5780     1.7670 C.3   1 <1>  -0.1600 
 25 O        8.8880     8.5520    -0.7520 O.2   1 <1>  -0.5700 
 26 C        7.0740     9.9240    -1.3350 C.3   1 <1>  -0.0190 
 27 C        6.4210    10.8600    -0.3030 C.3   1 <1>  -0.2400 
 28 C        6.1200     9.6250    -2.5050 C.3   1 <1>  -0.2400 
 29 H       -0.7460    -0.8560    -2.2950 H     1 <1>   0.0800 
 30 H       -1.4550    -1.1860    -0.7310 H     1 <1>   0.0800 
 31 H       -0.3690    -2.3440    -1.4600 H     1 <1>   0.0800 
 32 H        4.4930    -0.5010     1.1190 H     1 <1>   0.1500 
 33 H        3.3030    -2.4130    -0.7880 H     1 <1>   0.0800 
 34 H        1.7060    -3.1070    -0.6800 H     1 <1>   0.0800 
 35 H        2.5940    -2.7440     0.7770 H     1 <1>   0.0800 
 36 H        5.8220     1.7740     1.9730 H     1 <1>   0.0800 
 37 H        4.6380     2.6790     2.8970 H     1 <1>   0.0800 
 38 H        4.3530     3.8360     0.5470 H     1 <1>   0.3700 
 39 H        8.4740     6.3170     0.4290 H     1 <1>   0.0800 
 40 H        4.3340     5.8050     0.2870 H     1 <1>   0.0800 
 41 H        4.9060     6.2280    -1.2940 H     1 <1>   0.0800 
 42 H        7.9120     4.1950    -1.1510 H     1 <1>   0.0800 
 43 H        6.2970     4.1030    -1.7580 H     1 <1>   0.0800 
 44 H        6.9360     6.0480     2.6630 H     1 <1>   0.0800 
 45 H        7.7210     7.5760     2.3780 H     1 <1>   0.0800 
 46 H        4.8820     8.3690    -0.1500 H     1 <1>   0.0800 
 47 H        8.2740     6.3470    -2.2180 H     1 <1>   0.0800 
 48 H        6.6140     6.4070    -2.7640 H     1 <1>   0.0800 
 49 H        7.7000     5.1950    -3.3840 H     1 <1>   0.0800 
 50 H        5.6740     8.5830     2.1490 H     1 <1>   0.0800 
 51 H        4.8330     7.0470     2.2290 H     1 <1>   0.0800 
 52 H        7.9030    10.4690    -1.7540 H     1 <1>   0.0800 
 53 H        5.5350    10.4280     0.1210 H     1 <1>   0.0800 
 54 H        6.1560    11.7930    -0.7660 H     1 <1>   0.0800 
 55 H        7.1170    11.0610     0.4930 H     1 <1>   0.0800 
 56 H        5.2380     9.1120    -2.1750 H     1 <1>   0.0800 
 57 H        6.6210     9.0100    -3.2310 H     1 <1>   0.0800 
 58 H        5.8240    10.5410    -2.9850 H     1 <1>   0.0800 
@<TRIPOS>BOND
  1   1   2  1   
  2   1   3  1   
  3   2   4  2   
  4   2   5  1   
  5   3   6  2   
  6   3   7  1   
  7   4   8  1   
  8   5   6  1   
  9   5   9  1   
 10   6  10  1   
 11   7  29  1   
 12   7  30  1   
 13   7  31  1   
 14   8   9  2   
 15   8  11  1   
 16   9  32  1   
 17  10  33  1   
 18  10  34  1   
 19  10  35  1   
 20  11  12  1   
 21  11  36  1   
 22  11  37  1   
 23  12  13  am  
 24  12  38  1   
 25  13  14  2   
 26  13  15  1   
 27  15  16  1   
 28  15  17  1   
 29  15  18  1   
 30  16  19  1   
 31  16  20  1   
 32  16  39  1   
 33  17  21  1   
 34  17  40  1   
 35  17  41  1   
 36  18  22  1   
 37  18  42  1   
 38  18  43  1   
 39  19  21  1   
 40  19  23  am  
 41  20  24  1   
 42  20  44  1   
 43  20  45  1   
 44  21  24  1   
 45  21  46  1   
 46  22  47  1   
 47  22  48  1   
 48  22  49  1   
 49  23  25  2   
 50  23  26  1   
 51  24  50  1   
 52  24  51  1   
 53  26  27  1   
 54  26  28  1   
 55  26  52  1   
 56  27  53  1   
 57  27  54  1   
 58  27  55  1   
 59  28  56  1   
 60  28  57  1   
 61  28  58  1   
@<TRIPOS>SUBSTRUCTURE
  1 ****  12 GROUP 4 **** **** 0

# MOE 2024.06 (io_trps.svl 2023.06)
