@<TRIPOS>MOLECULE
NONAME
47 49 1 0 0 
SMALL
USER_CHARGES


@<TRIPOS>ATOM
  1 O       -1.8040     0.7710    -3.3770 O.2   1 <1>  -0.5700 
  2 C       -1.5390     1.1140    -2.2490 C.2   1 <1>   0.5690 
  3 N       -1.1740     0.2220    -1.2980 N.am  1 <1>  -0.7300 
  4 C       -1.6280     2.5820    -1.8580 C.3   1 <1>   0.1810 
  5 C       -1.2460    -1.2480    -1.3990 C.3   1 <1>   0.2200 
  6 O       -2.5370     2.7450    -0.7760 O.3   1 <1>  -0.3630 
  7 C       -2.3830    -1.7850    -0.5410 C.3   1 <1>  -0.0800 
  8 C       -0.0450    -1.8570    -0.6870 C.3   1 <1>   0.1200 
  9 C       -2.1350     3.5160     0.2630 C.ar  1 <1>   0.0820 
 10 C       -1.7530    -1.8440     0.8540 C.3   1 <1>   0.1200 
 11 C       -3.7050    -0.9940    -0.5990 C.3   1 <1>  -0.0160 
 12 O       -0.3650    -1.8580     0.6730 O.3   1 <1>  -0.5600 
 13 C       -1.1530     3.0910     1.1640 C.ar  1 <1>   0.0820 
 14 C       -2.7520     4.7440     0.4260 C.ar  1 <1>  -0.1500 
 15 C       -4.7620    -1.6370     0.2840 C.ar  1 <1>  -0.1440 
 16 O       -0.5920     1.8600     0.9840 O.3   1 <1>  -0.3630 
 17 C       -0.7910     3.9350     2.2110 C.ar  1 <1>  -0.1500 
 18 C       -2.3850     5.5730     1.4720 C.ar  1 <1>  -0.1500 
 19 C       -5.4450    -2.7720    -0.1010 C.ar  1 <1>  -0.1500 
 20 C       -5.0930    -1.1160     1.5190 C.ar  1 <1>  -0.1500 
 21 C        0.3330     1.3260     1.9070 C.3   1 <1>   0.0400 
 22 C       -1.4050     5.1680     2.3610 C.ar  1 <1>  -0.1500 
 23 C       -6.3940    -3.3210     0.7460 C.ar  1 <1>   0.1600 
 24 C       -6.0580    -1.7430     2.2900 C.ar  1 <1>   0.1600 
 25 N       -6.7150    -2.8350     1.9340 N.ar  1 <1>  -0.6200 
 26 H       -1.0020     0.5800    -0.3480 H     1 <1>   0.3700 
 27 H       -1.9920     3.1610    -2.6850 H     1 <1>   0.0800 
 28 H       -0.6560     2.9380    -1.5690 H     1 <1>   0.0800 
 29 H       -1.3150    -1.5560    -2.4290 H     1 <1>   0.0800 
 30 H       -2.5800    -2.7970    -0.8480 H     1 <1>   0.0800 
 31 H        0.8590    -1.2970    -0.8480 H     1 <1>   0.0800 
 32 H        0.0970    -2.8790    -0.9910 H     1 <1>   0.0800 
 33 H       -2.0500    -2.7280     1.3920 H     1 <1>   0.0800 
 34 H       -1.9960    -0.9680     1.4300 H     1 <1>   0.0800 
 35 H       -4.0580    -0.9610    -1.6150 H     1 <1>   0.0800 
 36 H       -3.5540     0.0220    -0.2800 H     1 <1>   0.0800 
 37 H       -3.5160     5.0480    -0.2670 H     1 <1>   0.1500 
 38 H       -0.0380     3.6540     2.9220 H     1 <1>   0.1500 
 39 H       -2.8630     6.5290     1.5940 H     1 <1>   0.1500 
 40 H       -5.2490    -3.2330    -1.0520 H     1 <1>   0.1500 
 41 H       -4.6100    -0.2290     1.8890 H     1 <1>   0.1500 
 42 H        0.6170     0.3440     1.5720 H     1 <1>   0.0800 
 43 H       -0.1360     1.2570     2.8730 H     1 <1>   0.0800 
 44 H        1.2010     1.9600     1.9430 H     1 <1>   0.0800 
 45 H       -1.1200     5.8150     3.1730 H     1 <1>   0.1500 
 46 H       -6.9160    -4.2070     0.4280 H     1 <1>   0.1500 
 47 H       -6.3020    -1.3220     3.2500 H     1 <1>   0.1500 
@<TRIPOS>BOND
  1   1   2  2   
  2   2   3  am  
  3   2   4  1   
  4   3   5  1   
  5   3  26  1   
  6   4   6  1   
  7   4  27  1   
  8   4  28  1   
  9   5   7  1   
 10   5   8  1   
 11   5  29  1   
 12   6   9  1   
 13   7  10  1   
 14   7  11  1   
 15   7  30  1   
 16   8  12  1   
 17   8  31  1   
 18   8  32  1   
 19   9  13  ar  
 20   9  14  ar  
 21  10  12  1   
 22  10  33  1   
 23  10  34  1   
 24  11  15  1   
 25  11  35  1   
 26  11  36  1   
 27  13  16  1   
 28  13  17  ar  
 29  14  18  ar  
 30  14  37  1   
 31  15  19  ar  
 32  15  20  ar  
 33  16  21  1   
 34  17  22  ar  
 35  17  38  1   
 36  18  22  ar  
 37  18  39  1   
 38  19  23  ar  
 39  19  40  1   
 40  20  24  ar  
 41  20  41  1   
 42  21  42  1   
 43  21  43  1   
 44  21  44  1   
 45  22  45  1   
 46  23  25  ar  
 47  23  46  1   
 48  24  25  ar  
 49  24  47  1   
@<TRIPOS>SUBSTRUCTURE
  1 ****   3 GROUP 4 **** **** 0

# MOE 2024.06 (io_trps.svl 2023.06)
