@<TRIPOS>MOLECULE
NONAME
46 49 1 0 0 
SMALL
USER_CHARGES


@<TRIPOS>ATOM
  1 S        0.0270    -0.1330     0.8920 S.3   1 <1>  -0.0800 
  2 C       -1.5570     0.4230     0.3650 C.2   1 <1>   0.3250 
  3 C       -0.7110    -1.0730     2.1460 C.2   1 <1>  -0.1100 
  4 N       -2.5170    -0.0910     1.0680 N.2   1 <1>  -0.5650 
  5 C       -1.6370     1.3410    -0.7500 C.ar  1 <1>   0.3630 
  6 C       -2.0420    -0.9190     2.0770 C.2   1 <1>   0.0460 
  7 N       -0.6860     1.3280    -1.6900 N.ar  1 <1>  -0.6200 
  8 C       -2.7340     2.2080    -0.8370 C.ar  1 <1>   0.1600 
  9 C       -3.0410    -1.5690     3.0360 C.3   1 <1>   0.3900 
 10 C       -0.8940     2.2020    -2.6580 C.ar  1 <1>   0.1600 
 11 N       -2.9570     3.0680    -1.8140 N.ar  1 <1>  -0.6200 
 12 N       -3.6880    -2.7930     2.4780 N.pl3 1 <1>  -0.8690 
 13 C       -1.9950     3.0460    -2.7210 C.ar  1 <1>   0.1600 
 14 C       -4.1570    -3.1280     1.2710 C.ar  1 <1>   0.7710 
 15 N       -4.7300    -4.3110     1.1920 N.ar  1 <1>  -0.6200 
 16 N       -4.0510    -2.3000     0.2200 N.ar  1 <1>  -0.1790 
 17 C       -5.2320    -4.6820     0.0270 C.ar  1 <1>   0.4100 
 18 C       -4.5230    -2.6480    -0.9980 C.ar  1 <1>   0.2110 
 19 N       -5.8580    -5.8870    -0.0390 N.pl3 1 <1>  -0.8380 
 20 C       -5.1230    -3.8560    -1.1110 C.ar  1 <1>  -0.1500 
 21 C       -7.0210    -6.1840    -0.9260 C.3   1 <1>   0.2090 
 22 C       -5.5360    -7.0090     0.8980 C.3   1 <1>   0.2090 
 23 C       -6.7070    -7.4160    -1.7740 C.3   1 <1>  -0.1600 
 24 C       -5.2200    -8.2680     0.0890 C.3   1 <1>  -0.1600 
 25 C       -6.3670    -8.5970    -0.8660 C.3   1 <1>   0.2000 
 26 O       -5.9900    -9.6610    -1.6550 O.3   1 <1>  -0.6800 
 27 H       -0.0640    -1.6320     2.8000 H     1 <1>   0.1500 
 28 H       -3.4640     2.1800    -0.0470 H     1 <1>   0.1500 
 29 H       -3.7960    -0.8520     3.3130 H     1 <1>   0.0800 
 30 H       -2.5150    -1.8460     3.9350 H     1 <1>   0.0800 
 31 H       -0.1590     2.2560    -3.4430 H     1 <1>   0.1500 
 32 H       -3.8610    -3.5170     3.1830 H     1 <1>   0.4000 
 33 H       -2.0830     3.7260    -3.5510 H     1 <1>   0.1500 
 34 H       -3.5690    -1.4170     0.4050 H     1 <1>   0.4570 
 35 H       -4.4020    -1.9660    -1.8260 H     1 <1>   0.1500 
 36 H       -5.5030    -4.2050    -2.0520 H     1 <1>   0.1500 
 37 H       -7.2590    -5.3480    -1.5590 H     1 <1>   0.0800 
 38 H       -7.8850    -6.3800    -0.3130 H     1 <1>   0.0800 
 39 H       -6.3790    -7.1840     1.5440 H     1 <1>   0.0800 
 40 H       -4.6870    -6.7670     1.5140 H     1 <1>   0.0800 
 41 H       -5.8810    -7.1900    -2.4230 H     1 <1>   0.0800 
 42 H       -7.5650    -7.6610    -2.3730 H     1 <1>   0.0800 
 43 H       -5.0670    -9.0910     0.7640 H     1 <1>   0.0800 
 44 H       -4.3110    -8.1000    -0.4600 H     1 <1>   0.0800 
 45 H       -7.2380    -8.8990    -0.3080 H     1 <1>   0.0800 
 46 H       -5.1750    -9.4440    -2.1450 H     1 <1>   0.4000 
@<TRIPOS>BOND
  1   1   2  1   
  2   1   3  1   
  3   2   4  2   
  4   2   5  1   
  5   3   6  2   
  6   3  27  1   
  7   4   6  1   
  8   5   7  ar  
  9   5   8  ar  
 10   6   9  1   
 11   7  10  ar  
 12   8  11  ar  
 13   8  28  1   
 14   9  12  1   
 15   9  29  1   
 16   9  30  1   
 17  10  13  ar  
 18  10  31  1   
 19  11  13  ar  
 20  12  14  1   
 21  12  32  1   
 22  13  33  1   
 23  14  15  ar  
 24  14  16  ar  
 25  15  17  ar  
 26  16  18  ar  
 27  16  34  1   
 28  17  19  1   
 29  17  20  ar  
 30  18  20  ar  
 31  18  35  1   
 32  19  21  1   
 33  19  22  1   
 34  20  36  1   
 35  21  23  1   
 36  21  37  1   
 37  21  38  1   
 38  22  24  1   
 39  22  39  1   
 40  22  40  1   
 41  23  25  1   
 42  23  41  1   
 43  23  42  1   
 44  24  25  1   
 45  24  43  1   
 46  24  44  1   
 47  25  26  1   
 48  25  45  1   
 49  26  46  1   
@<TRIPOS>SUBSTRUCTURE
  1 ****  16 GROUP 4 **** **** 0

# MOE 2024.06 (io_trps.svl 2023.06)
