@<TRIPOS>MOLECULE
NONAME
47 50 1 0 0 
SMALL
USER_CHARGES


@<TRIPOS>ATOM
  1 O       -2.4140     0.4880    -2.4460 O.2   1 <1>  -0.5700 
  2 C       -2.0970     0.6630    -1.2860 C.2   1 <1>   0.5440 
  3 N       -1.9480    -0.4390    -0.4940 N.am  1 <1>  -0.7300 
  4 C       -1.8870     2.0010    -0.7580 C.ar  1 <1>   0.0860 
  5 C       -2.0940    -1.8460    -0.9380 C.3   1 <1>   0.2200 
  6 C       -1.9030     2.2800     0.6100 C.ar  1 <1>  -0.1500 
  7 C       -1.6600     3.0820    -1.6100 C.ar  1 <1>  -0.1500 
  8 C       -3.4110    -2.4420    -0.4590 C.3   1 <1>  -0.0800 
  9 C       -1.1050    -2.7030    -0.1620 C.3   1 <1>   0.1200 
 10 C       -1.6930     3.5570     1.0930 C.ar  1 <1>  -0.1500 
 11 C       -1.4510     4.3590    -1.1270 C.ar  1 <1>  -0.1500 
 12 C       -3.0840    -2.9050     0.9660 C.3   1 <1>   0.1200 
 13 C       -4.6430    -1.5230    -0.5630 C.3   1 <1>  -0.0160 
 14 O       -1.6910    -2.8740     1.0920 O.3   1 <1>  -0.5600 
 15 C       -1.4590     4.6370     0.2400 C.ar  1 <1>   0.0540 
 16 C       -5.9070    -2.2660    -0.1590 C.ar  1 <1>  -0.1430 
 17 C       -1.2360     5.9820     0.7410 C.2   1 <1>   0.4620 
 18 C       -6.4550    -2.1550     1.1030 C.ar  1 <1>  -0.1500 
 19 C       -6.5720    -3.0930    -1.0410 C.ar  1 <1>  -0.1500 
 20 N       -1.2430     6.2810     2.0470 N.2   1 <1>  -0.2270 
 21 N       -1.0090     7.0180    -0.0020 N.2   1 <1>  -0.7070 
 22 C       -7.6050    -2.8620     1.4140 C.ar  1 <1>   0.1600 
 23 C       -7.7160    -3.7560    -0.6290 C.ar  1 <1>   0.1600 
 24 N       -1.0180     7.5280     2.1410 N.2   1 <1>  -0.4180 
 25 N       -0.8810     7.9580     0.9030 N.pl3 1 <1>   0.5800 
 26 N       -8.2470    -3.6630     0.5790 N.ar  1 <1>  -0.6200 
 27 C       -0.6030     9.3560     0.5640 C.3   1 <1>   0.0160 
 28 H       -1.6520    -0.3500     0.4790 H     1 <1>   0.3700 
 29 H       -1.9610    -1.9280    -2.0040 H     1 <1>   0.0800 
 30 H       -2.0880     1.4890     1.3140 H     1 <1>   0.1500 
 31 H       -1.6470     2.9100    -2.6740 H     1 <1>   0.1500 
 32 H       -3.6020    -3.3230    -1.0450 H     1 <1>   0.0800 
 33 H       -0.1400    -2.2390    -0.0560 H     1 <1>   0.0800 
 34 H       -0.9990    -3.6730    -0.6150 H     1 <1>   0.0800 
 35 H       -1.7130     3.7230     2.1570 H     1 <1>   0.1500 
 36 H       -1.2770     5.1620    -1.8230 H     1 <1>   0.1500 
 37 H       -3.4300    -3.9080     1.1470 H     1 <1>   0.0800 
 38 H       -3.4920    -2.2400     1.7080 H     1 <1>   0.0800 
 39 H       -4.7420    -1.1740    -1.5760 H     1 <1>   0.0800 
 40 H       -4.5220    -0.6570     0.0640 H     1 <1>   0.0800 
 41 H       -6.0020    -1.5270     1.8470 H     1 <1>   0.1500 
 42 H       -6.2120    -3.2280    -2.0450 H     1 <1>   0.1500 
 43 H       -8.0180    -2.7640     2.4040 H     1 <1>   0.1500 
 44 H       -8.2210    -4.3970    -1.3310 H     1 <1>   0.1500 
 45 H       -1.1430     9.6140    -0.3270 H     1 <1>   0.0800 
 46 H        0.4510     9.4690     0.3990 H     1 <1>   0.0800 
 47 H       -0.9160     9.9850     1.3760 H     1 <1>   0.0800 
@<TRIPOS>BOND
  1   1   2  2   
  2   2   3  am  
  3   2   4  1   
  4   3   5  1   
  5   3  28  1   
  6   4   6  ar  
  7   4   7  ar  
  8   5   8  1   
  9   5   9  1   
 10   5  29  1   
 11   6  10  ar  
 12   6  30  1   
 13   7  11  ar  
 14   7  31  1   
 15   8  12  1   
 16   8  13  1   
 17   8  32  1   
 18   9  14  1   
 19   9  33  1   
 20   9  34  1   
 21  10  15  ar  
 22  10  35  1   
 23  11  15  ar  
 24  11  36  1   
 25  12  14  1   
 26  12  37  1   
 27  12  38  1   
 28  13  16  1   
 29  13  39  1   
 30  13  40  1   
 31  15  17  1   
 32  16  18  ar  
 33  16  19  ar  
 34  17  20  1   
 35  17  21  2   
 36  18  22  ar  
 37  18  41  1   
 38  19  23  ar  
 39  19  42  1   
 40  20  24  2   
 41  21  25  1   
 42  22  26  ar  
 43  22  43  1   
 44  23  26  ar  
 45  23  44  1   
 46  24  25  1   
 47  25  27  1   
 48  27  45  1   
 49  27  46  1   
 50  27  47  1   
@<TRIPOS>SUBSTRUCTURE
  1 ****   4 GROUP 4 **** **** 0

# MOE 2024.06 (io_trps.svl 2023.06)
