@<TRIPOS>MOLECULE
NONAME
44 46 1 0 0 
SMALL
USER_CHARGES


@<TRIPOS>ATOM
  1 S       -0.3030    -0.4760    -0.5010 S.3   1 <1>  -0.0800 
  2 C       -1.5760     0.4570     0.2520 C.2   1 <1>  -0.1400 
  3 C        0.2320     0.9140    -1.4050 C.2   1 <1>  -0.1100 
  4 C       -1.5640     1.7440    -0.1700 C.2   1 <1>  -0.0540 
  5 C       -2.4830    -0.2940     1.2070 C.3   1 <1>  -0.0600 
  6 C       -0.5050     2.0140    -1.1230 C.2   1 <1>  -0.0860 
  7 C       -2.5010     2.7670     0.2480 C.ar  1 <1>   0.0540 
  8 C       -0.2790     3.3200    -1.7020 C.2   1 <1>   0.7160 
  9 C       -2.6190     3.1300     1.5860 C.ar  1 <1>  -0.1500 
 10 C       -3.3160     3.4120    -0.6760 C.ar  1 <1>  -0.1500 
 11 O       -0.4110     3.4690    -2.9020 O.2   1 <1>  -0.5700 
 12 N        0.1410     4.3830    -0.9300 N.am  1 <1>  -0.6600 
 13 C       -3.5100     4.1100     1.9880 C.ar  1 <1>  -0.1500 
 14 C       -4.2050     4.3960    -0.2830 C.ar  1 <1>  -0.1500 
 15 C       -0.0170     5.8070    -1.4250 C.3   1 <1>   0.2200 
 16 C        1.2840     4.1400    -0.0030 C.3   1 <1>   0.1400 
 17 C       -4.3040     4.7460     1.0510 C.ar  1 <1>  -0.1500 
 18 C       -0.0260     6.8350    -0.2880 C.3   1 <1>   0.2000 
 19 C       -1.3880     6.0900    -2.0910 C.3   1 <1>   0.1200 
 20 C        0.7900     3.9090     1.4230 C.3   1 <1>  -0.2400 
 21 O        0.4350     8.0560    -0.7690 O.3   1 <1>  -0.6800 
 22 C       -1.5120     6.9730    -0.0030 C.3   1 <1>   0.1200 
 23 O       -2.0990     6.9700    -1.2620 O.3   1 <1>  -0.5600 
 24 H        1.0620     0.7810    -2.0760 H     1 <1>   0.1500 
 25 H       -3.2690     0.3440     1.5650 H     1 <1>   0.0800 
 26 H       -1.9150    -0.6530     2.0460 H     1 <1>   0.0800 
 27 H       -2.9270    -1.1330     0.7030 H     1 <1>   0.0800 
 28 H       -2.0040     2.6370     2.3170 H     1 <1>   0.1500 
 29 H       -3.2480     3.1390    -1.7150 H     1 <1>   0.1500 
 30 H       -3.5870     4.3770     3.0280 H     1 <1>   0.1500 
 31 H       -4.8170     4.8920    -1.0170 H     1 <1>   0.1500 
 32 H        0.7840     6.0100    -2.1150 H     1 <1>   0.0800 
 33 H        1.8390     3.2750    -0.3290 H     1 <1>   0.0800 
 34 H        1.9610     4.9770    -0.0290 H     1 <1>   0.0800 
 35 H       -4.9970     5.5120     1.3560 H     1 <1>   0.1500 
 36 H        0.5560     6.5770     0.5750 H     1 <1>   0.0800 
 37 H       -1.9850     5.2080    -2.2210 H     1 <1>   0.0800 
 38 H       -1.2550     6.5730    -3.0420 H     1 <1>   0.0800 
 39 H        0.3050     2.9540     1.4960 H     1 <1>   0.0800 
 40 H        0.1060     4.6780     1.7310 H     1 <1>   0.0800 
 41 H        1.6270     3.9030     2.0960 H     1 <1>   0.0800 
 42 H       -0.2540     8.4270    -1.3600 H     1 <1>   0.4000 
 43 H       -1.7600     7.8810     0.5190 H     1 <1>   0.0800 
 44 H       -1.8770     6.1180     0.5400 H     1 <1>   0.0800 
@<TRIPOS>BOND
  1   1   2  1   
  2   1   3  1   
  3   2   4  2   
  4   2   5  1   
  5   3   6  2   
  6   3  24  1   
  7   4   6  1   
  8   4   7  1   
  9   5  25  1   
 10   5  26  1   
 11   5  27  1   
 12   6   8  1   
 13   7   9  ar  
 14   7  10  ar  
 15   8  11  2   
 16   8  12  am  
 17   9  13  ar  
 18   9  28  1   
 19  10  14  ar  
 20  10  29  1   
 21  12  15  1   
 22  12  16  1   
 23  13  17  ar  
 24  13  30  1   
 25  14  17  ar  
 26  14  31  1   
 27  15  18  1   
 28  15  19  1   
 29  15  32  1   
 30  16  20  1   
 31  16  33  1   
 32  16  34  1   
 33  17  35  1   
 34  18  21  1   
 35  18  22  1   
 36  18  36  1   
 37  19  23  1   
 38  19  37  1   
 39  19  38  1   
 40  20  39  1   
 41  20  40  1   
 42  20  41  1   
 43  21  42  1   
 44  22  23  1   
 45  22  43  1   
 46  22  44  1   
@<TRIPOS>SUBSTRUCTURE
  1 ****  12 GROUP 4 **** **** 0

# MOE 2024.06 (io_trps.svl 2023.06)
