@<TRIPOS>MOLECULE
NONAME
53 56 1 0 0 
SMALL
USER_CHARGES


@<TRIPOS>ATOM
  1 F       -2.2290    -3.2180     3.0740 F     1 <1>  -0.1900 
  2 C       -1.3820    -3.3050     2.0840 C.ar  1 <1>   0.1900 
  3 C       -1.3620    -4.4580     1.3250 C.ar  1 <1>  -0.1500 
  4 C       -0.5420    -2.2360     1.8380 C.ar  1 <1>  -0.1500 
  5 C       -0.4630    -4.5620     0.2650 C.ar  1 <1>  -0.0230 
  6 C        0.3510    -2.3320     0.7850 C.ar  1 <1>  -0.1500 
  7 N       -0.4060    -5.7350    -0.5470 N.pl3 1 <1>   0.5930 
  8 C        0.3860    -3.4820     0.0110 C.ar  1 <1>  -0.1500 
  9 N        0.0620    -5.7460    -1.8250 N.2   1 <1>  -0.7070 
 10 C       -0.8070    -6.9880    -0.2150 C.2   1 <1>  -0.3020 
 11 C       -0.0550    -6.9640    -2.2440 C.2   1 <1>   0.1390 
 12 C       -0.6050    -7.7960    -1.2790 C.2   1 <1>  -0.1810 
 13 C       -0.9080    -9.2710    -1.4280 C.3   1 <1>   0.5240 
 14 N       -2.2990    -9.5060    -0.9720 N.4   1 <1>  -0.9590 
 15 C       -2.6600   -10.9500    -0.7020 C.3   1 <1>   0.3430 
 16 C       -3.3350    -8.7460    -1.7200 C.3   1 <1>   0.3430 
 17 C       -4.1830   -11.1880    -0.3940 C.3   1 <1>   0.4230 
 18 C       -4.6870    -8.8070    -0.9790 C.3   1 <1>  -0.1600 
 19 N       -4.4510   -12.3250     0.5630 N.4   1 <1>  -0.9590 
 20 C       -4.7970    -9.8820     0.1510 C.3   1 <1>  -0.1060 
 21 C       -5.9050   -12.5600     0.7850 C.3   1 <1>   0.3430 
 22 C       -3.7260   -13.6050     0.3170 C.3   1 <1>   0.2630 
 23 C       -3.9320    -9.5210     1.3760 C.2   1 <1>   0.9060 
 24 C       -6.2940   -10.0610     0.5140 C.3   1 <1>  -0.1600 
 25 C       -6.5470   -11.3060     1.3760 C.3   1 <1>  -0.1600 
 26 O       -3.2480    -8.4960     1.3340 O.co2 1 <1>  -0.9000 
 27 O       -3.7000   -10.4020     2.2080 O.co2 1 <1>  -0.9000 
 28 H       -2.0460    -5.2540     1.5680 H     1 <1>   0.1500 
 29 H       -0.5900    -1.3560     2.4530 H     1 <1>   0.1500 
 30 H        1.0180    -1.5160     0.5670 H     1 <1>   0.1500 
 31 H        1.0850    -3.5410    -0.8070 H     1 <1>   0.1500 
 32 H       -1.2100    -7.2140     0.7580 H     1 <1>   0.1500 
 33 H        0.2460    -7.2690    -3.2340 H     1 <1>   0.1500 
 34 H       -0.2180    -9.8330    -0.8200 H     1 <1>   0.0800 
 35 H       -0.7950    -9.5720    -2.4570 H     1 <1>   0.0800 
 36 H       -2.3310    -9.0240    -0.0300 H     1 <1>   0.4500 
 37 H       -2.3800   -11.5550    -1.5470 H     1 <1>   0.0800 
 38 H       -2.0940   -11.2750     0.1560 H     1 <1>   0.0800 
 39 H       -3.0380    -7.7120    -1.8150 H     1 <1>   0.0800 
 40 H       -3.4420    -9.1550    -2.7110 H     1 <1>   0.0800 
 41 H       -4.6720   -11.4170    -1.3250 H     1 <1>   0.0800 
 42 H       -4.8770    -7.8350    -0.5520 H     1 <1>   0.0800 
 43 H       -5.4500    -8.9590    -1.7210 H     1 <1>   0.0800 
 44 H       -4.1180   -11.9160     1.4810 H     1 <1>   0.4500 
 45 H       -6.3840   -12.8120    -0.1470 H     1 <1>   0.0800 
 46 H       -6.0430   -13.3790     1.4730 H     1 <1>   0.0800 
 47 H       -4.0240   -14.0330    -0.6260 H     1 <1>   0.0800 
 48 H       -3.9520   -14.3110     1.1010 H     1 <1>   0.0800 
 49 H       -2.6610   -13.4430     0.3130 H     1 <1>   0.0800 
 50 H       -6.6420    -9.1870     1.0410 H     1 <1>   0.0800 
 51 H       -6.8820   -10.1520    -0.3840 H     1 <1>   0.0800 
 52 H       -7.6080   -11.4640     1.4690 H     1 <1>   0.0800 
 53 H       -6.1660   -11.1490     2.3710 H     1 <1>   0.0800 
@<TRIPOS>BOND
  1   1   2  1   
  2   2   3  ar  
  3   2   4  ar  
  4   3   5  ar  
  5   3  28  1   
  6   4   6  ar  
  7   4  29  1   
  8   5   7  1   
  9   5   8  ar  
 10   6   8  ar  
 11   6  30  1   
 12   7   9  1   
 13   7  10  1   
 14   8  31  1   
 15   9  11  2   
 16  10  12  2   
 17  10  32  1   
 18  11  12  1   
 19  11  33  1   
 20  12  13  1   
 21  13  14  1   
 22  13  34  1   
 23  13  35  1   
 24  14  15  1   
 25  14  16  1   
 26  14  36  1   
 27  15  17  1   
 28  15  37  1   
 29  15  38  1   
 30  16  18  1   
 31  16  39  1   
 32  16  40  1   
 33  17  19  1   
 34  17  20  1   
 35  17  41  1   
 36  18  20  1   
 37  18  42  1   
 38  18  43  1   
 39  19  21  1   
 40  19  22  1   
 41  19  44  1   
 42  20  23  1   
 43  20  24  1   
 44  21  25  1   
 45  21  45  1   
 46  21  46  1   
 47  22  47  1   
 48  22  48  1   
 49  22  49  1   
 50  23  26  ar  
 51  23  27  ar  
 52  24  25  1   
 53  24  50  1   
 54  24  51  1   
 55  25  52  1   
 56  25  53  1   
@<TRIPOS>SUBSTRUCTURE
  1 ****  26 GROUP 4 **** **** 0

# MOE 2024.06 (io_trps.svl 2023.06)
