@<TRIPOS>MOLECULE
NONAME
52 53 1 0 0 
SMALL
USER_CHARGES


@<TRIPOS>ATOM
  1 O       -1.6150    -1.6690     1.0510 O.3   1 <1>  -0.6800 
  2 C       -2.1210    -1.6990    -0.2360 C.3   1 <1>   0.1200 
  3 C       -1.3430    -2.7500    -1.0270 C.3   1 <1>  -0.1600 
  4 C       -1.4400    -4.1330    -0.3510 C.3   1 <1>   0.4230 
  5 N       -0.0650    -4.7150    -0.0950 N.4   1 <1>  -0.9590 
  6 C       -2.3420    -5.0780    -1.1910 C.3   1 <1>   0.2090 
  7 C       -0.1780    -6.1210     0.4500 C.3   1 <1>   0.3430 
  8 C        0.7150    -3.8750     0.8630 C.3   1 <1>   0.3430 
  9 N       -2.3900    -6.4610    -0.6250 N.pl3 1 <1>  -0.8380 
 10 C       -1.0390    -7.0520    -0.4250 C.3   1 <1>   0.2090 
 11 C        2.1720    -3.7040     0.3970 C.3   1 <1>  -0.0800 
 12 C       -3.3220    -6.7520     0.3890 C.ar  1 <1>   0.4100 
 13 C        2.9360    -5.0310     0.2450 C.3   1 <1>  -0.2400 
 14 C        2.9170    -2.8030     1.3900 C.3   1 <1>  -0.2400 
 15 N       -3.6800    -5.7050     1.1170 N.ar  1 <1>  -0.6200 
 16 C       -3.8030    -8.0870     0.6430 C.ar  1 <1>   0.4100 
 17 C       -4.5400    -6.0200     2.0780 C.ar  1 <1>   0.1600 
 18 N       -4.6490    -8.3640     1.6220 N.ar  1 <1>  -0.6200 
 19 N       -3.4050    -9.1900    -0.1340 N.pl3 1 <1>  -0.8380 
 20 C       -5.0040    -7.2970     2.3210 C.ar  1 <1>   0.1600 
 21 C       -3.4280   -10.5490     0.4800 C.3   1 <1>   0.1290 
 22 C       -3.8620    -9.1860    -1.5500 C.3   1 <1>   0.1290 
 23 H       -2.0760    -0.9860     1.5850 H     1 <1>   0.4000 
 24 H       -2.0020    -0.7210    -0.6730 H     1 <1>   0.0800 
 25 H       -3.1690    -1.9440    -0.1830 H     1 <1>   0.0800 
 26 H       -0.3260    -2.4190    -1.1320 H     1 <1>   0.0800 
 27 H       -1.7600    -2.7870    -2.0180 H     1 <1>   0.0800 
 28 H       -1.9290    -4.0060     0.6020 H     1 <1>   0.0800 
 29 H        0.4340    -4.7420    -0.9890 H     1 <1>   0.4500 
 30 H       -1.9780    -5.1300    -2.2020 H     1 <1>   0.0800 
 31 H       -3.3400    -4.6750    -1.2300 H     1 <1>   0.0800 
 32 H       -0.6320    -6.0850     1.4270 H     1 <1>   0.0800 
 33 H        0.8010    -6.5520     0.5600 H     1 <1>   0.0800 
 34 H        0.6920    -4.3150     1.8470 H     1 <1>   0.0800 
 35 H        0.2740    -2.8960     0.9400 H     1 <1>   0.0800 
 36 H       -1.1210    -8.0100     0.0590 H     1 <1>   0.0800 
 37 H       -0.5680    -7.2100    -1.3790 H     1 <1>   0.0800 
 38 H        2.1660    -3.1970    -0.5530 H     1 <1>   0.0800 
 39 H        2.9280    -5.5850     1.1680 H     1 <1>   0.0800 
 40 H        3.9630    -4.8350    -0.0160 H     1 <1>   0.0800 
 41 H        2.5170    -5.6380    -0.5360 H     1 <1>   0.0800 
 42 H        2.9690    -3.2610     2.3630 H     1 <1>   0.0800 
 43 H        2.4220    -1.8520     1.4850 H     1 <1>   0.0800 
 44 H        3.9220    -2.6200     1.0500 H     1 <1>   0.0800 
 45 H       -4.8890    -5.2170     2.7040 H     1 <1>   0.1500 
 46 H       -5.7010    -7.4560     3.1250 H     1 <1>   0.1500 
 47 H       -3.0400   -10.5040     1.4830 H     1 <1>   0.0800 
 48 H       -2.8220   -11.2250    -0.0970 H     1 <1>   0.0800 
 49 H       -4.4390   -10.9180     0.5160 H     1 <1>   0.0800 
 50 H       -3.9860    -8.1780    -1.9050 H     1 <1>   0.0800 
 51 H       -4.8060    -9.6960    -1.6320 H     1 <1>   0.0800 
 52 H       -3.1350    -9.6820    -2.1680 H     1 <1>   0.0800 
@<TRIPOS>BOND
  1   1   2  1   
  2   1  23  1   
  3   2   3  1   
  4   2  24  1   
  5   2  25  1   
  6   3   4  1   
  7   3  26  1   
  8   3  27  1   
  9   4   5  1   
 10   4   6  1   
 11   4  28  1   
 12   5   7  1   
 13   5   8  1   
 14   5  29  1   
 15   6   9  1   
 16   6  30  1   
 17   6  31  1   
 18   7  10  1   
 19   7  32  1   
 20   7  33  1   
 21   8  11  1   
 22   8  34  1   
 23   8  35  1   
 24   9  10  1   
 25   9  12  1   
 26  10  36  1   
 27  10  37  1   
 28  11  13  1   
 29  11  14  1   
 30  11  38  1   
 31  12  15  ar  
 32  12  16  ar  
 33  13  39  1   
 34  13  40  1   
 35  13  41  1   
 36  14  42  1   
 37  14  43  1   
 38  14  44  1   
 39  15  17  ar  
 40  16  18  ar  
 41  16  19  1   
 42  17  20  ar  
 43  17  45  1   
 44  18  20  ar  
 45  19  21  1   
 46  19  22  1   
 47  20  46  1   
 48  21  47  1   
 49  21  48  1   
 50  21  49  1   
 51  22  50  1   
 52  22  51  1   
 53  22  52  1   
@<TRIPOS>SUBSTRUCTURE
  1 ****   9 GROUP 4 **** **** 0

# MOE 2024.06 (io_trps.svl 2023.06)
