@<TRIPOS>MOLECULE
NONAME
45 48 1 0 0 
SMALL
USER_CHARGES


@<TRIPOS>ATOM
  1 O        0.6800    -0.2410     2.2620 O.2   1 <1>  -0.5700 
  2 C        1.5260    -0.8350     1.6190 C.2   1 <1>   0.7160 
  3 N        1.4780    -2.1890     1.5370 N.am  1 <1>  -0.4900 
  4 C        2.5920    -0.2220     0.9160 C.2   1 <1>  -0.0860 
  5 C        2.3900    -2.9150     0.8110 C.2   1 <1>   0.4490 
  6 C        3.4610    -1.0030     0.2190 C.2   1 <1>  -0.0260 
  7 C        3.0510     1.0780     0.7120 C.2   1 <1>   0.1390 
  8 N        3.3640    -2.3800     0.1580 N.2   1 <1>  -0.5760 
  9 C        2.1910    -4.4310     0.8130 C.3   1 <1>   0.1710 
 10 N        4.3660    -0.1720    -0.3490 N.pl3 1 <1>   0.3140 
 11 N        4.1080     1.1200    -0.0400 N.2   1 <1>  -0.7070 
 12 N        0.7590    -4.8340     0.8190 N.3   1 <1>  -0.8100 
 13 C        5.5050    -0.5520    -1.1910 C.3   1 <1>   0.0160 
 14 C        0.0680    -4.4980    -0.4370 C.3   1 <1>   0.1100 
 15 C        0.5850    -6.2860     1.0110 C.3   1 <1>   0.1100 
 16 C       -1.1360    -5.4300    -0.4690 C.3   1 <1>   0.2000 
 17 C       -0.5790    -6.7310     0.1040 C.3   1 <1>  -0.0800 
 18 O       -2.0730    -4.9390     0.4200 O.3   1 <1>  -0.6800 
 19 C       -0.1120    -7.6740    -1.0200 C.3   1 <1>   0.0200 
 20 C        0.5260    -8.9360    -0.4690 C.2   1 <1>  -0.0400 
 21 O       -0.1440    -9.7110     0.3410 O.3   1 <1>  -0.0190 
 22 C        1.7410    -9.4770    -0.6460 C.2   1 <1>  -0.1500 
 23 N        0.5590   -10.7390     0.7200 N.2   1 <1>  -0.4100 
 24 C        1.6990   -10.6260     0.1390 C.2   1 <1>   0.1080 
 25 C        2.8330   -11.6130     0.2950 C.3   1 <1>  -0.0590 
 26 H        0.6940    -2.6760     1.9670 H     1 <1>   0.3700 
 27 H        2.5780     1.9510     1.1330 H     1 <1>   0.1500 
 28 H        2.6640    -4.8180     1.6980 H     1 <1>   0.0800 
 29 H        2.6910    -4.8540    -0.0410 H     1 <1>   0.0800 
 30 H        5.3640    -1.5520    -1.5560 H     1 <1>   0.0800 
 31 H        6.4030    -0.5000    -0.6050 H     1 <1>   0.0800 
 32 H        5.5720     0.1320    -2.0160 H     1 <1>   0.0800 
 33 H       -0.2290    -3.4630    -0.4700 H     1 <1>   0.0800 
 34 H        0.7050    -4.7100    -1.2800 H     1 <1>   0.0800 
 35 H        1.4900    -6.8160     0.7630 H     1 <1>   0.0800 
 36 H        0.3500    -6.4830     2.0430 H     1 <1>   0.0800 
 37 H       -1.5940    -5.5250    -1.4390 H     1 <1>   0.0800 
 38 H       -1.3290    -7.2440     0.6820 H     1 <1>   0.0800 
 39 H       -1.5990    -4.7360     1.2520 H     1 <1>   0.4000 
 40 H        0.5970    -7.1740    -1.6550 H     1 <1>   0.0800 
 41 H       -0.9580    -7.9560    -1.6220 H     1 <1>   0.0800 
 42 H        2.5700    -9.1400    -1.2390 H     1 <1>   0.1500 
 43 H        3.7120   -11.1090     0.6520 H     1 <1>   0.0800 
 44 H        3.0470   -12.0750    -0.6510 H     1 <1>   0.0800 
 45 H        2.5600   -12.3780     1.0000 H     1 <1>   0.0800 
@<TRIPOS>BOND
  1   1   2  2   
  2   2   3  am  
  3   2   4  1   
  4   3   5  1   
  5   3  26  1   
  6   4   6  2   
  7   4   7  1   
  8   5   8  2   
  9   5   9  1   
 10   6   8  1   
 11   6  10  1   
 12   7  11  2   
 13   7  27  1   
 14   9  12  1   
 15   9  28  1   
 16   9  29  1   
 17  10  11  1   
 18  10  13  1   
 19  12  14  1   
 20  12  15  1   
 21  13  30  1   
 22  13  31  1   
 23  13  32  1   
 24  14  16  1   
 25  14  33  1   
 26  14  34  1   
 27  15  17  1   
 28  15  35  1   
 29  15  36  1   
 30  16  17  1   
 31  16  18  1   
 32  16  37  1   
 33  17  19  1   
 34  17  38  1   
 35  18  39  1   
 36  19  20  1   
 37  19  40  1   
 38  19  41  1   
 39  20  21  1   
 40  20  22  2   
 41  21  23  1   
 42  22  24  1   
 43  22  42  1   
 44  23  24  2   
 45  24  25  1   
 46  25  43  1   
 47  25  44  1   
 48  25  45  1   
@<TRIPOS>SUBSTRUCTURE
  1 ****   9 GROUP 4 **** **** 0

# MOE 2024.06 (io_trps.svl 2023.06)
