@<TRIPOS>MOLECULE
NONAME
53 55 1 0 0 
SMALL
USER_CHARGES


@<TRIPOS>ATOM
  1 S        0.6020     0.4020    -0.8750 S.3   1 <1>  -0.3320 
  2 C        1.9870    -0.5850    -0.3180 C.ar  1 <1>   0.7220 
  3 C       -0.8560    -0.7310    -0.7830 C.3   1 <1>  -0.0100 
  4 N        3.1400     0.0410    -0.3180 N.ar  1 <1>  -0.6200 
  5 N        1.6940    -1.8290     0.0280 N.ar  1 <1>  -0.6200 
  6 C        4.1620    -0.6820     0.0890 C.ar  1 <1>   0.4100 
  7 C        2.7350    -2.5180     0.4440 C.ar  1 <1>   0.1600 
  8 N        5.3750    -0.0400     0.0520 N.pl3 1 <1>  -0.8380 
  9 C        4.0020    -1.9950     0.5210 C.ar  1 <1>  -0.1790 
 10 C        6.4740    -0.6990    -0.6970 C.3   1 <1>   0.2090 
 11 C        5.7500     0.6480     1.3080 C.3   1 <1>   0.2090 
 12 C        5.0690    -2.8090     1.0140 C.2   1 <1>   0.9790 
 13 C        7.5480     0.3320    -1.0070 C.3   1 <1>  -0.1600 
 14 C        6.8400     1.6690     1.0120 C.3   1 <1>  -0.1600 
 15 O        5.8040    -2.4420     1.9500 O.co2 1 <1>  -0.9000 
 16 O        5.2950    -3.9050     0.4810 O.co2 1 <1>  -0.9000 
 17 C        8.0010     0.9660     0.3120 C.3   1 <1>   0.4230 
 18 N        9.1240     1.9230     0.1080 N.4   1 <1>  -0.9590 
 19 C        8.8670     3.0290    -0.8740 C.3   1 <1>   0.3430 
 20 C       10.4330     1.2510    -0.1790 C.3   1 <1>   0.3430 
 21 C       10.0200     4.0630    -0.8600 C.3   1 <1>   0.1100 
 22 C       11.5830     2.2810    -0.3050 C.3   1 <1>   0.1100 
 23 N       11.1500     3.6620     0.0210 N.3   1 <1>  -0.8100 
 24 C       12.2890     4.6010    -0.0750 C.3   1 <1>   0.1100 
 25 C       11.9810     5.9470     0.5950 C.3   1 <1>   0.1200 
 26 O       13.0950     6.7640     0.5020 O.3   1 <1>  -0.6800 
 27 H       -1.7190    -0.1830    -1.1120 H     1 <1>   0.0800 
 28 H       -0.9610    -1.0460     0.2400 H     1 <1>   0.0800 
 29 H       -0.6590    -1.5700    -1.4250 H     1 <1>   0.0800 
 30 H        2.5840    -3.5440     0.7400 H     1 <1>   0.1500 
 31 H        6.0840    -1.1250    -1.6070 H     1 <1>   0.0800 
 32 H        6.9030    -1.4930    -0.1100 H     1 <1>   0.0800 
 33 H        6.1010    -0.0730     2.0280 H     1 <1>   0.0800 
 34 H        4.8830     1.1370     1.7210 H     1 <1>   0.0800 
 35 H        7.1250     1.0620    -1.6730 H     1 <1>   0.0800 
 36 H        8.3620    -0.1690    -1.4950 H     1 <1>   0.0800 
 37 H        7.1650     2.0990     1.9410 H     1 <1>   0.0800 
 38 H        6.4140     2.4370     0.3940 H     1 <1>   0.0800 
 39 H        8.3360     0.1720     0.9620 H     1 <1>   0.0800 
 40 H        9.2970     2.4180     0.9940 H     1 <1>   0.4500 
 41 H        7.9440     3.5310    -0.6360 H     1 <1>   0.0800 
 42 H        8.7700     2.6220    -1.8660 H     1 <1>   0.0800 
 43 H       10.3670     0.6840    -1.0930 H     1 <1>   0.0800 
 44 H       10.6680     0.5620     0.6150 H     1 <1>   0.0800 
 45 H        9.6210     5.0050    -0.5250 H     1 <1>   0.0800 
 46 H       10.3710     4.2050    -1.8690 H     1 <1>   0.0800 
 47 H       11.9740     2.2500    -1.3090 H     1 <1>   0.0800 
 48 H       12.3800     1.9880     0.3580 H     1 <1>   0.0800 
 49 H       12.5480     4.7650    -1.1080 H     1 <1>   0.0800 
 50 H       13.1410     4.1720     0.4260 H     1 <1>   0.0800 
 51 H       11.7410     5.8160     1.6360 H     1 <1>   0.0800 
 52 H       11.1750     6.4520     0.0940 H     1 <1>   0.0800 
 53 H       13.8050     6.4640     1.1030 H     1 <1>   0.4000 
@<TRIPOS>BOND
  1   1   2  1   
  2   1   3  1   
  3   2   4  ar  
  4   2   5  ar  
  5   3  27  1   
  6   3  28  1   
  7   3  29  1   
  8   4   6  ar  
  9   5   7  ar  
 10   6   8  1   
 11   6   9  ar  
 12   7   9  ar  
 13   7  30  1   
 14   8  10  1   
 15   8  11  1   
 16   9  12  1   
 17  10  13  1   
 18  10  31  1   
 19  10  32  1   
 20  11  14  1   
 21  11  33  1   
 22  11  34  1   
 23  12  15  ar  
 24  12  16  ar  
 25  13  17  1   
 26  13  35  1   
 27  13  36  1   
 28  14  17  1   
 29  14  37  1   
 30  14  38  1   
 31  17  18  1   
 32  17  39  1   
 33  18  19  1   
 34  18  20  1   
 35  18  40  1   
 36  19  21  1   
 37  19  41  1   
 38  19  42  1   
 39  20  22  1   
 40  20  43  1   
 41  20  44  1   
 42  21  23  1   
 43  21  45  1   
 44  21  46  1   
 45  22  23  1   
 46  22  47  1   
 47  22  48  1   
 48  23  24  1   
 49  24  25  1   
 50  24  49  1   
 51  24  50  1   
 52  25  26  1   
 53  25  51  1   
 54  25  52  1   
 55  26  53  1   
@<TRIPOS>SUBSTRUCTURE
  1 ****  14 GROUP 4 **** **** 0

# MOE 2024.06 (io_trps.svl 2023.06)
