@<TRIPOS>MOLECULE
NONAME
57 60 1 0 0 
SMALL
USER_CHARGES


@<TRIPOS>ATOM
  1 O        2.3760     0.0970     1.8620 O.2   1 <1>  -0.5700 
  2 C        2.6930    -0.2700     0.7460 C.2   1 <1>   0.7150 
  3 N        2.8200     0.7010    -0.2400 N.am  1 <1>  -0.6600 
  4 C        2.9440    -1.6810     0.5170 C.2   1 <1>   0.0550 
  5 C        3.0170     0.4020    -1.6900 C.3   1 <1>   0.1400 
  6 C        2.6850     2.1520     0.0750 C.3   1 <1>   0.1400 
  7 O        3.7950    -2.0980    -0.4160 O.3   1 <1>  -0.2800 
  8 C        2.4630    -2.7650     1.1650 C.2   1 <1>   0.0460 
  9 C        4.5100     0.3630    -2.0780 C.3   1 <1>   0.3430 
 10 C        4.0610     2.8200     0.1430 C.3   1 <1>  -0.1600 
 11 C        3.7760    -3.4060    -0.2530 C.2   1 <1>   0.2980 
 12 N        3.0080    -3.8640     0.6630 N.2   1 <1>  -0.5650 
 13 C        1.4680    -2.8870     2.3040 C.3   1 <1>  -0.0590 
 14 N        5.3760     1.2380    -1.2260 N.4   1 <1>  -0.9590 
 15 C        4.9170     2.6520    -1.1150 C.3   1 <1>   0.3430 
 16 C        4.6700    -4.2350    -1.1650 C.3   1 <1>   0.0200 
 17 C        6.8190     1.0720    -1.5530 C.3   1 <1>   0.4860 
 18 C        4.6310    -5.7420    -0.8710 C.3   1 <1>  -0.2400 
 19 C        7.6840     1.9100    -0.6200 C.ar  1 <1>  -0.1440 
 20 C        7.9390     1.5410     0.7080 C.ar  1 <1>  -0.0230 
 21 C        8.2340     3.0800    -1.1280 C.ar  1 <1>  -0.1500 
 22 N        7.4480     0.3330     1.2920 N.pl3 1 <1>   0.5930 
 23 C        8.7170     2.3880     1.4950 C.ar  1 <1>  -0.1500 
 24 C        9.0110     3.9000    -0.3330 C.ar  1 <1>  -0.1500 
 25 N        6.1730    -0.1210     1.1370 N.2   1 <1>  -0.7070 
 26 C        8.1390    -0.5160     2.0900 C.2   1 <1>  -0.3020 
 27 C        9.2480     3.5560     0.9830 C.ar  1 <1>  -0.1500 
 28 C        6.1010    -1.2020     1.8550 C.2   1 <1>   0.1390 
 29 C        7.3070    -1.5050     2.4710 C.2   1 <1>  -0.1500 
 30 H        2.5210     1.1540    -2.2790 H     1 <1>   0.0800 
 31 H        2.5540    -0.5360    -1.9440 H     1 <1>   0.0800 
 32 H        2.1800     2.2900     1.0170 H     1 <1>   0.0800 
 33 H        2.0770     2.6280    -0.6760 H     1 <1>   0.0800 
 34 H        4.6090     0.6390    -3.1150 H     1 <1>   0.0800 
 35 H        4.8500    -0.6550    -1.9820 H     1 <1>   0.0800 
 36 H        4.5960     2.4560     1.0030 H     1 <1>   0.0800 
 37 H        3.9040     3.8720     0.3000 H     1 <1>   0.0800 
 38 H        1.0380    -1.9360     2.5540 H     1 <1>   0.0800 
 39 H        1.9620    -3.2840     3.1710 H     1 <1>   0.0800 
 40 H        0.6780    -3.5570     2.0200 H     1 <1>   0.0800 
 41 H        5.2910     0.8480    -0.2600 H     1 <1>   0.4500 
 42 H        5.7640     3.3110    -1.0290 H     1 <1>   0.0800 
 43 H        4.3590     2.9390    -1.9910 H     1 <1>   0.0800 
 44 H        5.6800    -3.8850    -1.0570 H     1 <1>   0.0800 
 45 H        4.3640    -4.0690    -2.1810 H     1 <1>   0.0800 
 46 H        6.9990     1.3700    -2.5720 H     1 <1>   0.0800 
 47 H        7.0950     0.0350    -1.4510 H     1 <1>   0.0800 
 48 H        4.9470    -5.9310     0.1400 H     1 <1>   0.0800 
 49 H        5.2830    -6.2720    -1.5430 H     1 <1>   0.0800 
 50 H        3.6300    -6.1180    -0.9910 H     1 <1>   0.0800 
 51 H        8.0660     3.3730    -2.1520 H     1 <1>   0.1500 
 52 H        8.9150     2.1390     2.5250 H     1 <1>   0.1500 
 53 H        9.4330     4.8070    -0.7340 H     1 <1>   0.1500 
 54 H        9.1730    -0.3620     2.3380 H     1 <1>   0.1500 
 55 H        9.8500     4.1960     1.6070 H     1 <1>   0.1500 
 56 H        5.2120    -1.8030     1.9670 H     1 <1>   0.1500 
 57 H        7.4980    -2.3510     3.1080 H     1 <1>   0.1500 
@<TRIPOS>BOND
  1   1   2  2   
  2   2   3  am  
  3   2   4  1   
  4   3   5  1   
  5   3   6  1   
  6   4   7  1   
  7   4   8  2   
  8   5   9  1   
  9   5  30  1   
 10   5  31  1   
 11   6  10  1   
 12   6  32  1   
 13   6  33  1   
 14   7  11  1   
 15   8  12  1   
 16   8  13  1   
 17   9  14  1   
 18   9  34  1   
 19   9  35  1   
 20  10  15  1   
 21  10  36  1   
 22  10  37  1   
 23  11  12  2   
 24  11  16  1   
 25  13  38  1   
 26  13  39  1   
 27  13  40  1   
 28  14  15  1   
 29  14  17  1   
 30  14  41  1   
 31  15  42  1   
 32  15  43  1   
 33  16  18  1   
 34  16  44  1   
 35  16  45  1   
 36  17  19  1   
 37  17  46  1   
 38  17  47  1   
 39  18  48  1   
 40  18  49  1   
 41  18  50  1   
 42  19  20  ar  
 43  19  21  ar  
 44  20  22  1   
 45  20  23  ar  
 46  21  24  ar  
 47  21  51  1   
 48  22  25  1   
 49  22  26  1   
 50  23  27  ar  
 51  23  52  1   
 52  24  27  ar  
 53  24  53  1   
 54  25  28  2   
 55  26  29  2   
 56  26  54  1   
 57  27  55  1   
 58  28  29  1   
 59  28  56  1   
 60  29  57  1   
@<TRIPOS>SUBSTRUCTURE
  1 ****  25 GROUP 4 **** **** 0

# MOE 2024.06 (io_trps.svl 2023.06)
