@<TRIPOS>MOLECULE
NONAME
54 56 1 0 0 
SMALL
USER_CHARGES


@<TRIPOS>ATOM
  1 F       -0.8310    -1.4860    -1.6700 F     1 <1>  -0.1900 
  2 C       -1.6290    -1.8080    -0.6860 C.ar  1 <1>   0.1900 
  3 C       -2.2000    -0.8080     0.0860 C.ar  1 <1>  -0.1440 
  4 C       -1.8680    -3.1500    -0.4640 C.ar  1 <1>  -0.1500 
  5 C       -3.0410    -1.1910     1.1190 C.ar  1 <1>  -0.1500 
  6 C       -1.9130     0.6620    -0.1830 C.3   1 <1>  -0.0960 
  7 C       -2.7210    -3.5190     0.5660 C.ar  1 <1>  -0.1430 
  8 C       -3.2980    -2.5330     1.3580 C.ar  1 <1>  -0.1500 
  9 C       -3.0180    -4.9840     0.8110 C.3   1 <1>   0.4870 
 10 N       -3.9750    -5.4320    -0.2350 N.4   1 <1>  -0.9590 
 11 C       -4.0550    -6.9270    -0.2910 C.3   1 <1>   0.5660 
 12 C       -5.3290    -4.8080    -0.0670 C.3   1 <1>   0.3430 
 13 C       -2.6960    -7.4420    -0.7450 C.ar  1 <1>  -0.1430 
 14 C       -5.1950    -7.4520    -1.2070 C.3   1 <1>   0.2000 
 15 C       -6.3390    -5.3770    -1.0790 C.3   1 <1>   0.1200 
 16 C       -1.9780    -8.2720     0.1040 C.ar  1 <1>  -0.1500 
 17 C       -2.1530    -7.0980    -1.9780 C.ar  1 <1>  -0.1500 
 18 O       -6.4010    -6.7670    -0.9630 O.3   1 <1>  -0.5600 
 19 C       -5.4290    -8.9520    -0.9630 C.3   1 <1>   0.1200 
 20 C       -0.7290    -8.7460    -0.2560 C.ar  1 <1>   0.0830 
 21 C       -0.8990    -7.5600    -2.3400 C.ar  1 <1>  -0.1500 
 22 O       -5.4870    -9.2120     0.4050 O.3   1 <1>  -0.6800 
 23 O       -0.1070    -9.5680     0.6220 O.3   1 <1>  -0.3630 
 24 C       -0.1720    -8.3670    -1.4820 C.ar  1 <1>   0.0830 
 25 C        0.1460   -10.8890     0.1920 C.3   1 <1>   0.0400 
 26 O        1.0610    -8.7510    -1.8870 O.3   1 <1>  -0.3630 
 27 C        2.1570    -8.2710    -1.1380 C.3   1 <1>   0.0400 
 28 H       -1.3820    -3.8740    -1.0940 H     1 <1>   0.1500 
 29 H       -3.4970    -0.4430     1.7460 H     1 <1>   0.1500 
 30 H       -2.4410     1.2940     0.5080 H     1 <1>   0.0800 
 31 H       -2.2160     0.9200    -1.1820 H     1 <1>   0.0800 
 32 H       -0.8590     0.8540    -0.0840 H     1 <1>   0.0800 
 33 H       -3.9510    -2.7930     2.1740 H     1 <1>   0.1500 
 34 H       -3.4370    -5.1260     1.7940 H     1 <1>   0.0800 
 35 H       -2.0980    -5.5440     0.7460 H     1 <1>   0.0800 
 36 H       -3.5840    -5.1230    -1.1280 H     1 <1>   0.4500 
 37 H       -4.2480    -7.2980     0.7020 H     1 <1>   0.0800 
 38 H       -5.7010    -5.0010     0.9260 H     1 <1>   0.0800 
 39 H       -5.2600    -3.7400    -0.1940 H     1 <1>   0.0800 
 40 H       -4.9470    -7.3050    -2.2420 H     1 <1>   0.0800 
 41 H       -6.0720    -5.1190    -2.0890 H     1 <1>   0.0800 
 42 H       -7.3230    -4.9890    -0.8750 H     1 <1>   0.0800 
 43 H       -2.3770    -8.5750     1.0580 H     1 <1>   0.1500 
 44 H       -2.6840    -6.4750    -2.6760 H     1 <1>   0.1500 
 45 H       -4.6210    -9.5340    -1.3740 H     1 <1>   0.0800 
 46 H       -6.3550    -9.2620    -1.4170 H     1 <1>   0.0800 
 47 H       -0.4690    -7.2970    -3.2920 H     1 <1>   0.1500 
 48 H       -5.8670   -10.1010     0.5710 H     1 <1>   0.4000 
 49 H        0.5240   -11.4480     1.0280 H     1 <1>   0.0800 
 50 H        0.8750   -10.8770    -0.5970 H     1 <1>   0.0800 
 51 H       -0.7740   -11.3250    -0.1570 H     1 <1>   0.0800 
 52 H        3.0610    -8.5890    -1.6240 H     1 <1>   0.0800 
 53 H        2.1160    -8.6740    -0.1430 H     1 <1>   0.0800 
 54 H        2.1140    -7.1960    -1.1090 H     1 <1>   0.0800 
@<TRIPOS>BOND
  1   1   2  1   
  2   2   3  ar  
  3   2   4  ar  
  4   3   5  ar  
  5   3   6  1   
  6   4   7  ar  
  7   4  28  1   
  8   5   8  ar  
  9   5  29  1   
 10   6  30  1   
 11   6  31  1   
 12   6  32  1   
 13   7   8  ar  
 14   7   9  1   
 15   8  33  1   
 16   9  10  1   
 17   9  34  1   
 18   9  35  1   
 19  10  11  1   
 20  10  12  1   
 21  10  36  1   
 22  11  13  1   
 23  11  14  1   
 24  11  37  1   
 25  12  15  1   
 26  12  38  1   
 27  12  39  1   
 28  13  16  ar  
 29  13  17  ar  
 30  14  18  1   
 31  14  19  1   
 32  14  40  1   
 33  15  18  1   
 34  15  41  1   
 35  15  42  1   
 36  16  20  ar  
 37  16  43  1   
 38  17  21  ar  
 39  17  44  1   
 40  19  22  1   
 41  19  45  1   
 42  19  46  1   
 43  20  23  1   
 44  20  24  ar  
 45  21  24  ar  
 46  21  47  1   
 47  22  48  1   
 48  23  25  1   
 49  24  26  1   
 50  25  49  1   
 51  25  50  1   
 52  25  51  1   
 53  26  27  1   
 54  27  52  1   
 55  27  53  1   
 56  27  54  1   
@<TRIPOS>SUBSTRUCTURE
  1 ****  10 GROUP 4 **** **** 0

# MOE 2024.06 (io_trps.svl 2023.06)
