@<TRIPOS>MOLECULE
NONAME
42 44 1 0 0 
SMALL
USER_CHARGES


@<TRIPOS>ATOM
  1 S       -0.1270    -0.2100    -0.5440 S.3   1 <1>  -0.0800 
  2 C       -1.5820    -0.8570     0.1420 C.2   1 <1>   0.4420 
  3 C       -0.6710     1.3550    -0.0450 C.2   1 <1>   0.1980 
  4 N       -2.3180     0.0580     0.6610 N.2   1 <1>  -0.3380 
  5 N       -1.7440    -2.2240     0.0550 N.am  1 <1>  -0.4940 
  6 N       -1.7930     1.3150     0.5500 N.2   1 <1>  -0.3380 
  7 C        0.2170     2.5420    -0.3620 C.3   1 <1>   0.0200 
  8 C       -2.8170    -3.0090     0.3970 C.2   1 <1>   0.5440 
  9 C       -0.4010     3.8500     0.1290 C.3   1 <1>   0.1200 
 10 O       -3.8780    -2.4980     0.6850 O.2   1 <1>  -0.5700 
 11 C       -2.6780    -4.4520     0.3680 C.ar  1 <1>   0.0860 
 12 O        0.4680     4.8860    -0.1950 O.3   1 <1>  -0.5600 
 13 C       -3.7580    -5.2640     0.0150 C.ar  1 <1>  -0.1500 
 14 C       -1.4730    -5.0870     0.6830 C.ar  1 <1>  -0.1500 
 15 C        0.0180     6.1380     0.2000 C.3   1 <1>   0.1200 
 16 C       -3.6500    -6.6420    -0.0460 C.ar  1 <1>  -0.1430 
 17 C       -1.3500    -6.4620     0.6230 C.ar  1 <1>  -0.1500 
 18 C        1.0690     7.1570    -0.2220 C.3   1 <1>  -0.2400 
 19 C       -2.4310    -7.2440     0.2530 C.ar  1 <1>   0.0830 
 20 C       -4.8520    -7.4890    -0.4300 C.3   1 <1>  -0.0170 
 21 O       -2.2610    -8.5830     0.2090 O.3   1 <1>  -0.3630 
 22 C       -4.6440    -8.9370     0.0170 C.3   1 <1>  -0.1600 
 23 C       -3.2440    -9.4100    -0.3830 C.3   1 <1>   0.1200 
 24 H       -0.9630    -2.7200    -0.3610 H     1 <1>   0.3700 
 25 H        0.3600     2.5980    -1.4260 H     1 <1>   0.0800 
 26 H        1.1700     2.4030     0.1140 H     1 <1>   0.0800 
 27 H       -0.5340     3.8260     1.1970 H     1 <1>   0.0800 
 28 H       -1.3480     4.0230    -0.3540 H     1 <1>   0.0800 
 29 H       -4.6990    -4.7930    -0.2130 H     1 <1>   0.1500 
 30 H       -0.6230    -4.5070     0.9910 H     1 <1>   0.1500 
 31 H       -0.1080     6.1420     1.2700 H     1 <1>   0.0800 
 32 H       -0.9230     6.3400    -0.2840 H     1 <1>   0.0800 
 33 H       -0.4210    -6.9450     0.8670 H     1 <1>   0.1500 
 34 H        2.0070     6.9380     0.2560 H     1 <1>   0.0800 
 35 H        0.7570     8.1430     0.0670 H     1 <1>   0.0800 
 36 H        1.1960     7.1340    -1.2890 H     1 <1>   0.0800 
 37 H       -4.9700    -7.4540    -1.4990 H     1 <1>   0.0800 
 38 H       -5.7450    -7.0940     0.0220 H     1 <1>   0.0800 
 39 H       -5.3880    -9.5700    -0.4340 H     1 <1>   0.0800 
 40 H       -4.7450    -9.0100     1.0860 H     1 <1>   0.0800 
 41 H       -3.0680   -10.4170    -0.0510 H     1 <1>   0.0800 
 42 H       -3.1140    -9.3610    -1.4510 H     1 <1>   0.0800 
@<TRIPOS>BOND
  1   1   2  1   
  2   1   3  1   
  3   2   4  2   
  4   2   5  1   
  5   3   6  2   
  6   3   7  1   
  7   4   6  1   
  8   5   8  am  
  9   5  24  1   
 10   7   9  1   
 11   7  25  1   
 12   7  26  1   
 13   8  10  2   
 14   8  11  1   
 15   9  12  1   
 16   9  27  1   
 17   9  28  1   
 18  11  13  ar  
 19  11  14  ar  
 20  12  15  1   
 21  13  16  ar  
 22  13  29  1   
 23  14  17  ar  
 24  14  30  1   
 25  15  18  1   
 26  15  31  1   
 27  15  32  1   
 28  16  19  ar  
 29  16  20  1   
 30  17  19  ar  
 31  17  33  1   
 32  18  34  1   
 33  18  35  1   
 34  18  36  1   
 35  19  21  1   
 36  20  22  1   
 37  20  37  1   
 38  20  38  1   
 39  21  23  1   
 40  22  23  1   
 41  22  39  1   
 42  22  40  1   
 43  23  41  1   
 44  23  42  1   
@<TRIPOS>SUBSTRUCTURE
  1 ****   5 GROUP 4 **** **** 0

# MOE 2024.06 (io_trps.svl 2023.06)
