@<TRIPOS>MOLECULE
NONAME
52 55 1 0 0 
SMALL
USER_CHARGES


@<TRIPOS>ATOM
  1 O        0.8150    -2.1100     2.0980 O.2   1 <1>  -0.5700 
  2 C        0.6740    -1.7410     0.9630 C.2   1 <1>   0.5690 
  3 N       -0.2920    -0.8580     0.6540 N.am  1 <1>  -0.8000 
  4 C        1.6000    -2.2840    -0.1220 C.3   1 <1>  -0.0190 
  5 C        1.4550    -3.8140    -0.2450 C.3   1 <1>  -0.1600 
  6 C        3.0660    -1.9140     0.1790 C.3   1 <1>  -0.1600 
  7 C        2.4560    -4.4140    -1.2300 C.3   1 <1>   0.3430 
  8 C        4.0400    -2.5470    -0.8120 C.3   1 <1>   0.3430 
  9 N        3.8370    -4.0200    -0.8360 N.4   1 <1>  -0.9590 
 10 C        4.8940    -4.7420    -1.6100 C.3   1 <1>   0.3430 
 11 C        5.0630    -6.1800    -1.0750 C.3   1 <1>   0.2000 
 12 O        4.9130    -6.1500     0.3150 O.3   1 <1>  -0.6800 
 13 C        6.4230    -6.7970    -1.4420 C.3   1 <1>   0.0960 
 14 N        6.4550    -8.2120    -1.0210 N.pl3 1 <1>   0.0480 
 15 C        6.6450    -8.6110     0.2900 C.ar  1 <1>  -0.1520 
 16 C        5.7270    -9.1940    -1.6660 C.ar  1 <1>  -0.1520 
 17 C        6.0260    -9.8400     0.4800 C.ar  1 <1>   0.0000 
 18 C        7.3040    -7.9790     1.3460 C.ar  1 <1>  -0.1500 
 19 C        5.4430   -10.2110    -0.7630 C.ar  1 <1>   0.0000 
 20 C        5.2770    -9.2760    -2.9860 C.ar  1 <1>  -0.1500 
 21 C        6.0550   -10.4480     1.7330 C.ar  1 <1>  -0.1500 
 22 C        7.3250    -8.5880     2.5830 C.ar  1 <1>  -0.1500 
 23 C        4.6960   -11.3150    -1.1670 C.ar  1 <1>  -0.1500 
 24 C        4.5390   -10.3720    -3.3770 C.ar  1 <1>  -0.1500 
 25 C        6.7010    -9.8210     2.7770 C.ar  1 <1>  -0.1500 
 26 C        4.2470   -11.3900    -2.4680 C.ar  1 <1>  -0.1500 
 27 H       -0.8960    -0.5130     1.4040 H     1 <1>   0.3700 
 28 H       -0.4850    -0.4890    -0.2760 H     1 <1>   0.3700 
 29 H        1.3210    -1.8380    -1.0600 H     1 <1>   0.0800 
 30 H        0.4560    -4.0540    -0.5660 H     1 <1>   0.0800 
 31 H        1.5980    -4.2730     0.7190 H     1 <1>   0.0800 
 32 H        3.3260    -2.2330     1.1750 H     1 <1>   0.0800 
 33 H        3.1770    -0.8440     0.1500 H     1 <1>   0.0800 
 34 H        2.2430    -4.0610    -2.2260 H     1 <1>   0.0800 
 35 H        2.3610    -5.4880    -1.2180 H     1 <1>   0.0800 
 36 H        5.0500    -2.3180    -0.5130 H     1 <1>   0.0800 
 37 H        3.8740    -2.1380    -1.7960 H     1 <1>   0.0800 
 38 H        3.9710    -4.3800     0.1320 H     1 <1>   0.4500 
 39 H        5.8340    -4.2300    -1.4870 H     1 <1>   0.0800 
 40 H        4.6580    -4.7560    -2.6620 H     1 <1>   0.0800 
 41 H        4.2760    -6.7980    -1.4750 H     1 <1>   0.0800 
 42 H        5.1220    -7.0390     0.6980 H     1 <1>   0.4000 
 43 H        7.2250    -6.2630    -0.9660 H     1 <1>   0.0800 
 44 H        6.5760    -6.7590    -2.5050 H     1 <1>   0.0800 
 45 H        7.7950    -7.0340     1.2020 H     1 <1>   0.1500 
 46 H        5.5100    -8.5040    -3.6970 H     1 <1>   0.1500 
 47 H        5.5730   -11.3990     1.8710 H     1 <1>   0.1500 
 48 H        7.8280    -8.1180     3.4100 H     1 <1>   0.1500 
 49 H        4.4810   -12.0960    -0.4600 H     1 <1>   0.1500 
 50 H        4.1850   -10.4580    -4.3900 H     1 <1>   0.1500 
 51 H        6.7300   -10.2800     3.7500 H     1 <1>   0.1500 
 52 H        3.6700   -12.2390    -2.7930 H     1 <1>   0.1500 
@<TRIPOS>BOND
  1   1   2  2   
  2   2   3  am  
  3   2   4  1   
  4   3  27  1   
  5   3  28  1   
  6   4   5  1   
  7   4   6  1   
  8   4  29  1   
  9   5   7  1   
 10   5  30  1   
 11   5  31  1   
 12   6   8  1   
 13   6  32  1   
 14   6  33  1   
 15   7   9  1   
 16   7  34  1   
 17   7  35  1   
 18   8   9  1   
 19   8  36  1   
 20   8  37  1   
 21   9  10  1   
 22   9  38  1   
 23  10  11  1   
 24  10  39  1   
 25  10  40  1   
 26  11  12  1   
 27  11  13  1   
 28  11  41  1   
 29  12  42  1   
 30  13  14  1   
 31  13  43  1   
 32  13  44  1   
 33  14  15  1   
 34  14  16  1   
 35  15  17  ar  
 36  15  18  ar  
 37  16  19  ar  
 38  16  20  ar  
 39  17  19  1   
 40  17  21  ar  
 41  18  22  ar  
 42  18  45  1   
 43  19  23  ar  
 44  20  24  ar  
 45  20  46  1   
 46  21  25  ar  
 47  21  47  1   
 48  22  25  ar  
 49  22  48  1   
 50  23  26  ar  
 51  23  49  1   
 52  24  26  ar  
 53  24  50  1   
 54  25  51  1   
 55  26  52  1   
@<TRIPOS>SUBSTRUCTURE
  1 ****  12 GROUP 4 **** **** 0

# MOE 2024.06 (io_trps.svl 2023.06)
