@<TRIPOS>MOLECULE
NONAME
56 60 1 0 0 
SMALL
USER_CHARGES


@<TRIPOS>ATOM
  1 F       -0.2840    -0.4780    -0.1670 F     1 <1>  -0.1900 
  2 C       -0.0500    -1.7040    -0.5460 C.ar  1 <1>   0.1900 
  3 C       -0.7930    -2.7240    -0.0190 C.ar  1 <1>  -0.1500 
  4 C        0.9620    -1.9220    -1.4760 C.ar  1 <1>  -0.1500 
  5 C       -0.5710    -4.0540    -0.4280 C.ar  1 <1>   0.0000 
  6 C        1.2340    -3.2140    -1.8510 C.ar  1 <1>  -0.1500 
  7 C        0.5020    -4.2900    -1.3170 C.ar  1 <1>   0.3610 
  8 C       -1.3360    -5.1670     0.0460 C.ar  1 <1>   0.1000 
  9 N        0.8440    -5.5880    -1.6230 N.ar  1 <1>  -0.1790 
 10 N       -2.4900    -5.0170     0.7420 N.pl3 1 <1>  -0.8380 
 11 C       -0.8810    -6.4450    -0.2800 C.ar  1 <1>  -0.1500 
 12 C        0.1950    -6.6460    -1.1060 C.ar  1 <1>   0.2180 
 13 C       -3.6370    -4.2130     0.1650 C.3   1 <1>   0.2090 
 14 C       -2.8390    -5.8510     1.9420 C.3   1 <1>   0.2090 
 15 C        0.6710    -8.0420    -1.4740 C.3   1 <1>  -0.0970 
 16 C       -4.7270    -3.8760     1.2010 C.3   1 <1>   0.1430 
 17 C       -4.2890    -6.3380     1.8660 C.3   1 <1>  -0.1600 
 18 C       -5.7730    -3.0290     0.4990 C.ar  1 <1>   0.1670 
 19 C       -5.3140    -5.1870     1.7880 C.3   1 <1>  -0.1600 
 20 C       -4.2020    -2.9080     2.3030 C.3   1 <1>  -0.1600 
 21 N       -6.6140    -3.4650    -0.4050 N.ar  1 <1>  -0.6200 
 22 C       -5.7190    -1.7260     0.8920 C.ar  1 <1>  -0.1430 
 23 C       -4.6370    -1.4850     1.9120 C.3   1 <1>  -0.0170 
 24 C       -7.4390    -2.5450    -0.9100 C.ar  1 <1>   0.7200 
 25 C       -6.6050    -0.8500     0.3190 C.ar  1 <1>   0.1600 
 26 N       -7.4710    -1.2490    -0.5820 N.ar  1 <1>  -0.6200 
 27 N       -8.3420    -2.9730    -1.8640 N.pl3 1 <1>  -0.8380 
 28 C       -9.0940    -2.0180    -2.7230 C.3   1 <1>   0.1290 
 29 C       -8.6540    -4.4140    -2.0700 C.3   1 <1>   0.1290 
 30 H       -1.5410    -2.5040     0.7180 H     1 <1>   0.1500 
 31 H        1.5070    -1.0790    -1.8670 H     1 <1>   0.1500 
 32 H        2.0250    -3.3970    -2.5570 H     1 <1>   0.1500 
 33 H        1.6350    -5.7340    -2.2520 H     1 <1>   0.4570 
 34 H       -1.4210    -7.2930     0.1000 H     1 <1>   0.1500 
 35 H       -4.0940    -4.7950    -0.6170 H     1 <1>   0.0800 
 36 H       -3.2850    -3.3070    -0.2900 H     1 <1>   0.0800 
 37 H       -2.7120    -5.2550     2.8300 H     1 <1>   0.0800 
 38 H       -2.1760    -6.6930     2.0300 H     1 <1>   0.0800 
 39 H        1.6880    -8.1890    -1.1580 H     1 <1>   0.0800 
 40 H        0.6060    -8.1930    -2.5370 H     1 <1>   0.0800 
 41 H        0.0620    -8.7880    -0.9940 H     1 <1>   0.0800 
 42 H       -4.5070    -6.9540     2.7200 H     1 <1>   0.0800 
 43 H       -4.3850    -6.9590     0.9920 H     1 <1>   0.0800 
 44 H       -6.1270    -5.5230     1.1680 H     1 <1>   0.0800 
 45 H       -5.7340    -5.0010     2.7610 H     1 <1>   0.0800 
 46 H       -3.1370    -2.9650     2.4310 H     1 <1>   0.0800 
 47 H       -4.6610    -3.1420     3.2470 H     1 <1>   0.0800 
 48 H       -3.8230    -0.9470     1.4570 H     1 <1>   0.0800 
 49 H       -5.0080    -0.9370     2.7610 H     1 <1>   0.0800 
 50 H       -6.6030     0.1890     0.5990 H     1 <1>   0.1500 
 51 H       -8.5240    -1.1180    -2.8760 H     1 <1>   0.0800 
 52 H      -10.0260    -1.7650    -2.2490 H     1 <1>   0.0800 
 53 H       -9.2900    -2.4600    -3.6840 H     1 <1>   0.0800 
 54 H       -8.4830    -4.9720    -1.1660 H     1 <1>   0.0800 
 55 H       -8.0270    -4.8090    -2.8500 H     1 <1>   0.0800 
 56 H       -9.6860    -4.5320    -2.3480 H     1 <1>   0.0800 
@<TRIPOS>BOND
  1   1   2  1   
  2   2   3  ar  
  3   2   4  ar  
  4   3   5  ar  
  5   3  30  1   
  6   4   6  ar  
  7   4  31  1   
  8   5   7  ar  
  9   5   8  ar  
 10   6   7  ar  
 11   6  32  1   
 12   7   9  ar  
 13   8  10  1   
 14   8  11  ar  
 15   9  12  ar  
 16   9  33  1   
 17  10  13  1   
 18  10  14  1   
 19  11  12  ar  
 20  11  34  1   
 21  12  15  1   
 22  13  16  1   
 23  13  35  1   
 24  13  36  1   
 25  14  17  1   
 26  14  37  1   
 27  14  38  1   
 28  15  39  1   
 29  15  40  1   
 30  15  41  1   
 31  16  18  1   
 32  16  19  1   
 33  16  20  1   
 34  17  19  1   
 35  17  42  1   
 36  17  43  1   
 37  18  21  ar  
 38  18  22  ar  
 39  19  44  1   
 40  19  45  1   
 41  20  23  1   
 42  20  46  1   
 43  20  47  1   
 44  21  24  ar  
 45  22  23  1   
 46  22  25  ar  
 47  23  48  1   
 48  23  49  1   
 49  24  26  ar  
 50  24  27  1   
 51  25  26  ar  
 52  25  50  1   
 53  27  28  1   
 54  27  29  1   
 55  28  51  1   
 56  28  52  1   
 57  28  53  1   
 58  29  54  1   
 59  29  55  1   
 60  29  56  1   
@<TRIPOS>SUBSTRUCTURE
  1 ****  13 GROUP 4 **** **** 0

# MOE 2024.06 (io_trps.svl 2023.06)
