@<TRIPOS>MOLECULE
NONAME
52 55 1 0 0 
SMALL
USER_CHARGES


@<TRIPOS>ATOM
  1 O        0.9620    -0.2280     1.5940 O.2   1 <1>  -0.5740 
  2 C        2.1110    -0.1660     1.2230 C.2   1 <1>   0.6860 
  3 N        2.7620     1.0430     1.0270 N.am  1 <1>  -0.4410 
  4 N        2.7850    -1.3300     0.9940 N.am  1 <1>  -0.4950 
  5 C        4.0840     1.0000     0.6090 C.2   1 <1>   0.4210 
  6 C        2.0690     2.3430     1.2660 C.3   1 <1>   0.0530 
  7 C        4.0850    -1.3890     0.5810 C.2   1 <1>   0.7000 
  8 N        4.9090     2.0500     0.3670 N.pl3 1 <1>  -0.7030 
  9 C        4.7670    -0.1430     0.3770 C.2   1 <1>   0.2710 
 10 O        4.5980    -2.4760     0.4090 O.2   1 <1>  -0.5740 
 11 C        6.1020     1.5820    -0.0030 C.cat 1 <1>   1.0690 
 12 N        6.0630     0.2380    -0.0300 N.pl3 1 <1>  -0.7670 
 13 N        7.1370     2.4010    -0.2800 N.pl3 1 <1>  -0.5960 
 14 C        7.0850    -0.7620    -0.4540 C.3   1 <1>   0.2680 
 15 C        7.0080     3.8820    -0.2840 C.3   1 <1>   0.1610 
 16 C        8.5610     2.0390    -0.4630 C.3   1 <1>   0.1610 
 17 C        8.3980     4.4520    -0.5700 C.3   1 <1>   0.0560 
 18 C        9.3270     3.3140    -0.1360 C.3   1 <1>  -0.1670 
 19 C        8.6050     5.8170     0.1050 C.ar  1 <1>  -0.1510 
 20 C        7.6890     6.8490    -0.1130 C.ar  1 <1>   0.0750 
 21 C        9.6980     6.0630     0.9280 C.ar  1 <1>  -0.1570 
 22 O        6.6600     6.6190    -0.9780 O.3   1 <1>  -0.3680 
 23 C        7.8260     8.0810     0.5420 C.ar  1 <1>   0.0750 
 24 C        9.8560     7.2860     1.5520 C.ar  1 <1>  -0.1570 
 25 C        6.5380     7.4770    -2.0940 C.3   1 <1>   0.0320 
 26 O        6.8660     9.0360     0.3650 O.3   1 <1>  -0.3680 
 27 C        8.9240     8.2890     1.3690 C.ar  1 <1>  -0.1570 
 28 C        6.9050    10.2680     1.0500 C.3   1 <1>   0.0320 
 29 H        2.2800    -2.2020     1.1480 H     1 <1>   0.3640 
 30 H        1.0300     2.1870     1.5040 H     1 <1>   0.0730 
 31 H        2.1230     2.9560     0.3840 H     1 <1>   0.0730 
 32 H        2.5310     2.8570     2.0910 H     1 <1>   0.0730 
 33 H        4.6890     3.0370     0.4670 H     1 <1>   0.4450 
 34 H        6.6080    -1.6400    -0.8550 H     1 <1>   0.0730 
 35 H        7.6860    -1.0550     0.3910 H     1 <1>   0.0730 
 36 H        7.7190    -0.3580    -1.2220 H     1 <1>   0.0730 
 37 H        6.6770     4.2200     0.6840 H     1 <1>   0.0730 
 38 H        6.3060     4.1970    -1.0380 H     1 <1>   0.0730 
 39 H        8.7310     1.7620    -1.4910 H     1 <1>   0.0730 
 40 H        8.8580     1.2390     0.1930 H     1 <1>   0.0730 
 41 H        8.4920     4.5880    -1.6350 H     1 <1>   0.0730 
 42 H       10.2790     3.3540    -0.6360 H     1 <1>   0.0730 
 43 H        9.4850     3.3380     0.9280 H     1 <1>   0.0730 
 44 H       10.4530     5.3190     1.1020 H     1 <1>   0.1430 
 45 H       10.7080     7.4580     2.1870 H     1 <1>   0.1430 
 46 H        6.0100     6.9530    -2.8690 H     1 <1>   0.0730 
 47 H        7.5200     7.7540    -2.4380 H     1 <1>   0.0730 
 48 H        5.9820     8.3500    -1.8060 H     1 <1>   0.0730 
 49 H        9.0750     9.2210     1.8800 H     1 <1>   0.1430 
 50 H        6.0350    10.8330     0.7690 H     1 <1>   0.0730 
 51 H        7.7950    10.7990     0.7620 H     1 <1>   0.0730 
 52 H        6.8920    10.0790     2.1090 H     1 <1>   0.0730 
@<TRIPOS>BOND
  1   1   2  2   
  2   2   3  am  
  3   2   4  am  
  4   3   5  1   
  5   3   6  1   
  6   4   7  am  
  7   4  29  1   
  8   5   8  1   
  9   5   9  2   
 10   6  30  1   
 11   6  31  1   
 12   6  32  1   
 13   7   9  1   
 14   7  10  2   
 15   8  11  ar  
 16   8  33  1   
 17   9  12  1   
 18  11  12  ar  
 19  11  13  ar  
 20  12  14  1   
 21  13  15  1   
 22  13  16  1   
 23  14  34  1   
 24  14  35  1   
 25  14  36  1   
 26  15  17  1   
 27  15  37  1   
 28  15  38  1   
 29  16  18  1   
 30  16  39  1   
 31  16  40  1   
 32  17  18  1   
 33  17  19  1   
 34  17  41  1   
 35  18  42  1   
 36  18  43  1   
 37  19  20  ar  
 38  19  21  ar  
 39  20  22  1   
 40  20  23  ar  
 41  21  24  ar  
 42  21  44  1   
 43  22  25  1   
 44  23  26  1   
 45  23  27  ar  
 46  24  27  ar  
 47  24  45  1   
 48  25  46  1   
 49  25  47  1   
 50  25  48  1   
 51  26  28  1   
 52  27  49  1   
 53  28  50  1   
 54  28  51  1   
 55  28  52  1   
@<TRIPOS>SUBSTRUCTURE
  1 ****  15 GROUP 4 **** **** 0

# MOE 2024.06 (io_trps.svl 2023.06)
