@<TRIPOS>MOLECULE
NONAME
43 45 1 0 0 
SMALL
USER_CHARGES


@<TRIPOS>ATOM
  1 O        2.3550    -3.6280     1.3830 O.3   1 <1>  -0.6800 
  2 C        1.1430    -3.0920     0.9850 C.3   1 <1>   0.2000 
  3 C        1.0260    -3.2220    -0.5270 C.3   1 <1>  -0.1600 
  4 C        1.1630    -1.5880     1.2300 C.3   1 <1>  -0.1600 
  5 C        1.7560    -2.0060    -1.1260 C.3   1 <1>  -0.0800 
  6 C        1.7760    -0.9340    -0.0220 C.3   1 <1>  -0.0800 
  7 C        3.2260    -2.2890    -1.4730 C.3   1 <1>  -0.1600 
  8 C        3.2470    -0.5440     0.1670 C.3   1 <1>  -0.1600 
  9 C        4.0410    -1.7600    -0.2960 C.3   1 <1>   0.4230 
 10 N        5.4320    -1.4030    -0.6890 N.4   1 <1>  -0.9590 
 11 C        6.1860    -0.8230     0.4600 C.3   1 <1>   0.4860 
 12 C        6.1620    -2.5770    -1.2670 C.3   1 <1>   0.2630 
 13 C        7.5110    -0.2710    -0.0380 C.ar  1 <1>  -0.1430 
 14 C        8.6980    -0.9350     0.2370 C.ar  1 <1>  -0.1500 
 15 C        7.5480     0.9070    -0.7700 C.ar  1 <1>  -0.1500 
 16 C        9.9200    -0.4490    -0.2160 C.ar  1 <1>   0.0730 
 17 C        8.7550     1.4030    -1.2270 C.ar  1 <1>  -0.1500 
 18 C       11.1390    -1.1530     0.0720 C.1   1 <1>   0.4840 
 19 C        9.9310     0.7280    -0.9530 C.ar  1 <1>  -0.1500 
 20 N       12.0880    -1.7380     0.3040 N.1   1 <1>  -0.5570 
 21 H        2.2650    -4.5990     1.4680 H     1 <1>   0.4000 
 22 H        0.3500    -3.5880     1.5220 H     1 <1>   0.0800 
 23 H        1.3830    -4.1690    -0.8920 H     1 <1>   0.0800 
 24 H       -0.0170    -3.1430    -0.7820 H     1 <1>   0.0800 
 25 H        0.1420    -1.2580     1.3110 H     1 <1>   0.0800 
 26 H        1.6620    -1.3370     2.1490 H     1 <1>   0.0800 
 27 H        1.2310    -1.6600    -2.0020 H     1 <1>   0.0800 
 28 H        1.1940    -0.0700    -0.3010 H     1 <1>   0.0800 
 29 H        3.4720    -1.7430    -2.3670 H     1 <1>   0.0800 
 30 H        3.4010    -3.3380    -1.6360 H     1 <1>   0.0800 
 31 H        3.4560    -0.2870     1.1900 H     1 <1>   0.0800 
 32 H        3.4570     0.2980    -0.4680 H     1 <1>   0.0800 
 33 H        4.0530    -2.4960     0.4900 H     1 <1>   0.0800 
 34 H        5.3750    -0.6730    -1.4090 H     1 <1>   0.4500 
 35 H        5.6240    -0.0210     0.9100 H     1 <1>   0.0800 
 36 H        6.3560    -1.5770     1.2110 H     1 <1>   0.0800 
 37 H        6.2350    -3.3680    -0.5380 H     1 <1>   0.0800 
 38 H        7.1560    -2.2900    -1.5690 H     1 <1>   0.0800 
 39 H        5.6430    -2.9540    -2.1330 H     1 <1>   0.0800 
 40 H        8.6910    -1.8460     0.8150 H     1 <1>   0.1500 
 41 H        6.6460     1.4560    -0.9890 H     1 <1>   0.1500 
 42 H        8.7840     2.3190    -1.7950 H     1 <1>   0.1500 
 43 H       10.8670     1.1240    -1.3130 H     1 <1>   0.1500 
@<TRIPOS>BOND
  1   1   2  1   
  2   1  21  1   
  3   2   3  1   
  4   2   4  1   
  5   2  22  1   
  6   3   5  1   
  7   3  23  1   
  8   3  24  1   
  9   4   6  1   
 10   4  25  1   
 11   4  26  1   
 12   5   6  1   
 13   5   7  1   
 14   5  27  1   
 15   6   8  1   
 16   6  28  1   
 17   7   9  1   
 18   7  29  1   
 19   7  30  1   
 20   8   9  1   
 21   8  31  1   
 22   8  32  1   
 23   9  10  1   
 24   9  33  1   
 25  10  11  1   
 26  10  12  1   
 27  10  34  1   
 28  11  13  1   
 29  11  35  1   
 30  11  36  1   
 31  12  37  1   
 32  12  38  1   
 33  12  39  1   
 34  13  14  ar  
 35  13  15  ar  
 36  14  16  ar  
 37  14  40  1   
 38  15  17  ar  
 39  15  41  1   
 40  16  18  1   
 41  16  19  ar  
 42  17  19  ar  
 43  17  42  1   
 44  18  20  3   
 45  19  43  1   
@<TRIPOS>SUBSTRUCTURE
  1 ****  10 GROUP 4 **** **** 0

# MOE 2024.06 (io_trps.svl 2023.06)
