@<TRIPOS>MOLECULE
NONAME
42 44 1 0 0 
SMALL
USER_CHARGES


@<TRIPOS>ATOM
  1 O       -1.3360    -1.8680    -1.7010 O.2   1 <1>  -0.5700 
  2 C       -0.4550    -2.4150    -1.0830 C.2   1 <1>   0.5690 
  3 N       -0.6720    -3.4670    -0.2350 N.am  1 <1>  -0.6600 
  4 C        0.9690    -1.9190    -1.2350 C.3   1 <1>  -0.0990 
  5 C        0.4580    -4.0740     0.5120 C.3   1 <1>   0.1400 
  6 C       -2.0270    -4.0210     0.0260 C.3   1 <1>   0.0600 
  7 C        1.9400    -3.1030    -1.3950 C.3   1 <1>  -0.0800 
  8 C        1.6680    -4.2700    -0.4220 C.3   1 <1>  -0.0800 
  9 C        3.4080    -2.7100    -1.1980 C.3   1 <1>  -0.1600 
 10 C        2.9800    -4.4880     0.3420 C.3   1 <1>  -0.1600 
 11 C        4.0740    -3.9380    -0.5760 C.3   1 <1>   0.2200 
 12 N        5.3290    -3.5810     0.1500 N.am  1 <1>  -0.6600 
 13 C        6.3010    -2.8580    -0.5040 C.2   1 <1>   0.7150 
 14 C        5.7560    -4.5170     1.2320 C.3   1 <1>   0.0600 
 15 O        6.4300    -2.9760    -1.7080 O.2   1 <1>  -0.5700 
 16 C        7.1660    -1.9750     0.2300 C.2   1 <1>  -0.2370 
 17 N        6.8560    -1.4820     1.4650 N.pl3 1 <1>   0.0330 
 18 C        8.3820    -1.4510    -0.1220 C.2   1 <1>  -0.1500 
 19 C        7.8620    -0.6770     1.8740 C.2   1 <1>  -0.3020 
 20 C        8.8360    -0.6290     0.9150 C.2   1 <1>   0.0190 
 21 C       10.0740     0.0990     0.9270 C.1   1 <1>   0.5380 
 22 N       11.0580     0.6770     0.9410 N.1   1 <1>  -0.5570 
 23 H        1.0350    -1.2700    -2.0890 H     1 <1>   0.0800 
 24 H        1.2090    -1.3480    -0.3580 H     1 <1>   0.0800 
 25 H        0.7160    -3.4150     1.3230 H     1 <1>   0.0800 
 26 H        0.1630    -5.0220     0.9270 H     1 <1>   0.0800 
 27 H       -2.0550    -5.0590    -0.2560 H     1 <1>   0.0800 
 28 H       -2.7690    -3.4890    -0.5450 H     1 <1>   0.0800 
 29 H       -2.2650    -3.9270     1.0710 H     1 <1>   0.0800 
 30 H        1.8240    -3.4880    -2.3960 H     1 <1>   0.0800 
 31 H        1.4800    -5.1490    -1.0160 H     1 <1>   0.0800 
 32 H        3.4820    -1.8830    -0.5150 H     1 <1>   0.0800 
 33 H        3.8660    -2.4430    -2.1350 H     1 <1>   0.0800 
 34 H        3.1310    -5.5290     0.5650 H     1 <1>   0.0800 
 35 H        2.9640    -3.9160     1.2530 H     1 <1>   0.0800 
 36 H        4.2950    -4.6560    -1.3490 H     1 <1>   0.0800 
 37 H        5.1790    -4.3410     2.1230 H     1 <1>   0.0800 
 38 H        6.8000    -4.3820     1.4610 H     1 <1>   0.0800 
 39 H        5.6140    -5.5350     0.9110 H     1 <1>   0.0800 
 40 H        5.9850    -1.6940     1.9690 H     1 <1>   0.2700 
 41 H        8.9080    -1.6330    -1.0450 H     1 <1>   0.1500 
 42 H        7.8510    -0.1680     2.8220 H     1 <1>   0.1500 
@<TRIPOS>BOND
  1   1   2  2   
  2   2   3  am  
  3   2   4  1   
  4   3   5  1   
  5   3   6  1   
  6   4   7  1   
  7   4  23  1   
  8   4  24  1   
  9   5   8  1   
 10   5  25  1   
 11   5  26  1   
 12   6  27  1   
 13   6  28  1   
 14   6  29  1   
 15   7   8  1   
 16   7   9  1   
 17   7  30  1   
 18   8  10  1   
 19   8  31  1   
 20   9  11  1   
 21   9  32  1   
 22   9  33  1   
 23  10  11  1   
 24  10  34  1   
 25  10  35  1   
 26  11  12  1   
 27  11  36  1   
 28  12  13  am  
 29  12  14  1   
 30  13  15  2   
 31  13  16  1   
 32  14  37  1   
 33  14  38  1   
 34  14  39  1   
 35  16  17  1   
 36  16  18  2   
 37  17  19  1   
 38  17  40  1   
 39  18  20  1   
 40  18  41  1   
 41  19  20  2   
 42  19  42  1   
 43  20  21  1   
 44  21  22  3   
@<TRIPOS>SUBSTRUCTURE
  1 ****   9 GROUP 4 **** **** 0

# MOE 2024.06 (io_trps.svl 2023.06)
