@<TRIPOS>MOLECULE
NONAME
48 50 1 0 0 
SMALL
USER_CHARGES


@<TRIPOS>ATOM
  1 O        0.3630     2.2020    -1.1900 O.2   1 <1>  -0.5700 
  2 C        0.1540     3.3780    -1.0340 C.2   1 <1>   0.5690 
  3 N       -0.6150     3.8160    -0.0150 N.am  1 <1>  -0.7300 
  4 C        0.7310     4.4010    -2.0130 C.3   1 <1>   0.1810 
  5 C       -0.9660     5.2400     0.2080 C.3   1 <1>   0.3640 
  6 O        0.8210     5.6900    -1.4490 O.3   1 <1>  -0.5600 
  7 C       -2.4890     5.3410     0.2660 C.ar  1 <1>  -0.1440 
  8 C       -0.3900     6.1860    -0.8870 C.3   1 <1>   0.2610 
  9 C       -3.2840     4.7590    -0.7110 C.ar  1 <1>  -0.1500 
 10 C       -3.1060     6.0270     1.3000 C.ar  1 <1>  -0.1500 
 11 C       -0.1570     7.6000    -0.3320 C.2   1 <1>   0.5690 
 12 C       -4.6650     4.8520    -0.6750 C.ar  1 <1>   0.0830 
 13 C       -4.4850     6.1370     1.3510 C.ar  1 <1>  -0.1500 
 14 O       -0.8170     8.0200     0.5890 O.2   1 <1>  -0.5700 
 15 N        0.8170     8.3620    -0.8910 N.am  1 <1>  -0.7300 
 16 O       -5.3040     4.2220    -1.7010 O.3   1 <1>  -0.3630 
 17 C       -5.2850     5.5640     0.3650 C.ar  1 <1>   0.0830 
 18 C        1.2240     9.7100    -0.4330 C.3   1 <1>   0.3210 
 19 C       -6.5800     3.6470    -1.5260 C.3   1 <1>   0.0400 
 20 O       -6.6430     5.7010     0.3890 O.3   1 <1>  -0.3630 
 21 C        2.6070     9.6470     0.1900 C.2   1 <1>   0.1080 
 22 C       -7.2860     6.6210     1.2430 C.3   1 <1>   0.0400 
 23 N        3.6720    10.1290    -0.3470 N.2   1 <1>  -0.4100 
 24 C        2.8980     9.0540     1.4160 C.2   1 <1>  -0.1500 
 25 O        4.6420     9.8740     0.4830 O.3   1 <1>  -0.0190 
 26 C        4.2210     9.2350     1.5420 C.2   1 <1>  -0.0400 
 27 C        5.1990     8.8440     2.6280 C.3   1 <1>  -0.0600 
 28 H       -1.0550     3.1270     0.5970 H     1 <1>   0.3700 
 29 H        0.1110     4.4510    -2.8900 H     1 <1>   0.0800 
 30 H        1.7210     4.0980    -2.3010 H     1 <1>   0.0800 
 31 H       -0.5570     5.5300     1.1610 H     1 <1>   0.0800 
 32 H       -1.1020     6.2680    -1.6880 H     1 <1>   0.0800 
 33 H       -2.8390     4.2130    -1.5240 H     1 <1>   0.1500 
 34 H       -2.5150     6.4930     2.0710 H     1 <1>   0.1500 
 35 H       -4.9120     6.6810     2.1710 H     1 <1>   0.1500 
 36 H        1.4630     7.9070    -1.5440 H     1 <1>   0.3700 
 37 H        1.2400    10.3810    -1.2730 H     1 <1>   0.0800 
 38 H        0.5220    10.0890     0.2900 H     1 <1>   0.0800 
 39 H       -6.7300     2.9210    -2.3040 H     1 <1>   0.0800 
 40 H       -7.3220     4.4210    -1.6030 H     1 <1>   0.0800 
 41 H       -6.6230     3.1710    -0.5620 H     1 <1>   0.0800 
 42 H       -8.3330     6.6260     1.0020 H     1 <1>   0.0800 
 43 H       -6.8690     7.6000     1.0800 H     1 <1>   0.0800 
 44 H       -7.1490     6.3070     2.2630 H     1 <1>   0.0800 
 45 H        2.1960     8.5730     2.0730 H     1 <1>   0.1500 
 46 H        4.6880     8.3280     3.4210 H     1 <1>   0.0800 
 47 H        5.6700     9.7230     3.0280 H     1 <1>   0.0800 
 48 H        5.9560     8.1980     2.2200 H     1 <1>   0.0800 
@<TRIPOS>BOND
  1   1   2  2   
  2   2   3  am  
  3   2   4  1   
  4   3   5  1   
  5   3  28  1   
  6   4   6  1   
  7   4  29  1   
  8   4  30  1   
  9   5   7  1   
 10   5   8  1   
 11   5  31  1   
 12   6   8  1   
 13   7   9  ar  
 14   7  10  ar  
 15   8  11  1   
 16   8  32  1   
 17   9  12  ar  
 18   9  33  1   
 19  10  13  ar  
 20  10  34  1   
 21  11  14  2   
 22  11  15  am  
 23  12  16  1   
 24  12  17  ar  
 25  13  17  ar  
 26  13  35  1   
 27  15  18  1   
 28  15  36  1   
 29  16  19  1   
 30  17  20  1   
 31  18  21  1   
 32  18  37  1   
 33  18  38  1   
 34  19  39  1   
 35  19  40  1   
 36  19  41  1   
 37  20  22  1   
 38  21  23  2   
 39  21  24  1   
 40  22  42  1   
 41  22  43  1   
 42  22  44  1   
 43  23  25  1   
 44  24  26  2   
 45  24  45  1   
 46  25  26  1   
 47  26  27  1   
 48  27  46  1   
 49  27  47  1   
 50  27  48  1   
@<TRIPOS>SUBSTRUCTURE
  1 ****   8 GROUP 4 **** **** 0

# MOE 2024.06 (io_trps.svl 2023.06)
