@<TRIPOS>MOLECULE
NONAME
30 30 1 0 0 
SMALL
USER_CHARGES


@<TRIPOS>ATOM
  1 F       -2.0880     1.6910     2.3570 F     1 <1>  -0.3400 
  2 C       -1.8790     1.4660     1.0650 C.3   1 <1>   0.2600 
  3 C       -1.0760     2.6420     0.5130 C.3   1 <1>   0.1400 
  4 C       -3.2350     1.5720     0.3850 C.3   1 <1>  -0.1600 
  5 N       -2.0960     3.6560     0.1510 N.am  1 <1>  -0.6600 
  6 C       -3.4650     3.0800     0.2240 C.3   1 <1>   0.4200 
  7 C       -1.8460     4.9940     0.1920 C.2   1 <1>   0.7800 
  8 C       -4.3170     3.3860    -0.9760 C.1   1 <1>   0.3570 
  9 O       -0.7140     5.4280     0.2460 O.2   1 <1>  -0.5700 
 10 O       -2.9070     5.8010     0.1740 O.3   1 <1>  -0.4300 
 11 N       -4.9820     3.5800    -1.8810 N.1   1 <1>  -0.5570 
 12 C       -2.9130     7.2100     0.1420 C.3   1 <1>   0.2800 
 13 C       -2.2150     7.7120    -1.1270 C.3   1 <1>  -0.2400 
 14 C       -2.2810     7.7720     1.4210 C.3   1 <1>  -0.2400 
 15 C       -4.3910     7.5990     0.0930 C.3   1 <1>  -0.2400 
 16 H       -1.3920     0.5100     0.9820 H     1 <1>   0.0800 
 17 H       -0.5500     2.3490    -0.3780 H     1 <1>   0.0800 
 18 H       -0.3740     3.0210     1.2370 H     1 <1>   0.0800 
 19 H       -3.1750     1.1110    -0.5860 H     1 <1>   0.0800 
 20 H       -4.0180     1.0950     0.9470 H     1 <1>   0.0800 
 21 H       -3.9490     3.4660     1.1050 H     1 <1>   0.0800 
 22 H       -2.3410     8.7760    -1.2190 H     1 <1>   0.0800 
 23 H       -2.6390     7.2430    -1.9970 H     1 <1>   0.0800 
 24 H       -1.1600     7.5120    -1.0960 H     1 <1>   0.0800 
 25 H       -2.4100     8.8380     1.4550 H     1 <1>   0.0800 
 26 H       -1.2260     7.5720     1.4520 H     1 <1>   0.0800 
 27 H       -2.7480     7.3440     2.2890 H     1 <1>   0.0800 
 28 H       -4.4950     8.6680     0.0570 H     1 <1>   0.0800 
 29 H       -4.9020     7.2370     0.9670 H     1 <1>   0.0800 
 30 H       -4.8560     7.1830    -0.7830 H     1 <1>   0.0800 
@<TRIPOS>BOND
  1   1   2  1   
  2   2   3  1   
  3   2   4  1   
  4   2  16  1   
  5   3   5  1   
  6   3  17  1   
  7   3  18  1   
  8   4   6  1   
  9   4  19  1   
 10   4  20  1   
 11   5   6  1   
 12   5   7  am  
 13   6   8  1   
 14   6  21  1   
 15   7   9  2   
 16   7  10  1   
 17   8  11  3   
 18  10  12  1   
 19  12  13  1   
 20  12  14  1   
 21  12  15  1   
 22  13  22  1   
 23  13  23  1   
 24  13  24  1   
 25  14  25  1   
 26  14  26  1   
 27  14  27  1   
 28  15  28  1   
 29  15  29  1   
 30  15  30  1   
@<TRIPOS>SUBSTRUCTURE
  1 ****   7 GROUP 4 **** **** 0

# MOE 2024.06 (io_trps.svl 2023.06)
