@<TRIPOS>MOLECULE
NONAME
41 43 1 0 0 
SMALL
USER_CHARGES


@<TRIPOS>ATOM
  1 S        0.2890     0.0290     1.5900 S.o2  1 <1>   1.4470 
  2 O       -0.3110     1.1940     2.2020 O.2   1 <1>  -0.6500 
  3 O        0.8350    -1.0020     2.4390 O.2   1 <1>  -0.6500 
  4 N        1.6060     0.6500     0.7070 N.am  1 <1>  -0.8490 
  5 C       -0.8670    -0.5920     0.3410 C.ar  1 <1>  -0.0090 
  6 C        2.4810     1.4280     1.6210 C.3   1 <1>   0.1960 
  7 C        2.3820    -0.4110     0.0400 C.3   1 <1>   0.1960 
  8 C       -0.8380    -1.9030    -0.1210 C.ar  1 <1>   0.1900 
  9 C       -1.8250     0.2470    -0.2210 C.ar  1 <1>  -0.1500 
 10 C        3.5870     2.2930     0.9490 C.3   1 <1>   0.4230 
 11 C        3.3860     0.1530    -0.9890 C.3   1 <1>  -0.0800 
 12 F        0.0530    -2.7320     0.3490 F     1 <1>  -0.1900 
 13 C       -1.7040    -2.3960    -1.0840 C.ar  1 <1>  -0.1500 
 14 C       -2.6880    -0.2390    -1.1880 C.ar  1 <1>   0.1900 
 15 N        3.3060     2.6920    -0.4890 N.4   1 <1>  -0.9590 
 16 C        4.9900     1.6690     1.1100 C.3   1 <1>   0.1200 
 17 C        4.8550    -0.0030    -0.5690 C.3   1 <1>   0.1200 
 18 C        3.0250     1.5710    -1.4560 C.3   1 <1>   0.3430 
 19 C       -2.6500    -1.5470    -1.6320 C.ar  1 <1>  -0.1500 
 20 F       -3.5690     0.5730    -1.7020 F     1 <1>  -0.1900 
 21 C        2.1570     3.6510    -0.5260 C.3   1 <1>   0.2630 
 22 O        5.0240     0.3200     0.7700 O.3   1 <1>  -0.5600 
 23 H        1.8760     2.1170     2.1840 H     1 <1>   0.0800 
 24 H        2.9280     0.7660     2.3470 H     1 <1>   0.0800 
 25 H        2.8800    -1.0320     0.7700 H     1 <1>   0.0800 
 26 H        1.7050    -1.0480    -0.4990 H     1 <1>   0.0800 
 27 H       -1.9090     1.2740     0.0910 H     1 <1>   0.1500 
 28 H        3.6330     3.2040     1.5210 H     1 <1>   0.0800 
 29 H        3.2830    -0.4660    -1.8620 H     1 <1>   0.0800 
 30 H       -1.6360    -3.4250    -1.3970 H     1 <1>   0.1500 
 31 H        4.1420     3.1830    -0.8300 H     1 <1>   0.4500 
 32 H        5.2750     1.7220     2.1470 H     1 <1>   0.0800 
 33 H        5.7310     2.1970     0.5370 H     1 <1>   0.0800 
 34 H        5.5220     0.5920    -1.1700 H     1 <1>   0.0800 
 35 H        5.1460    -1.0360    -0.6690 H     1 <1>   0.0800 
 36 H        1.9720     1.5670    -1.6850 H     1 <1>   0.0800 
 37 H        3.5470     1.7720    -2.3770 H     1 <1>   0.0800 
 38 H       -3.3430    -1.8860    -2.3830 H     1 <1>   0.1500 
 39 H        1.2600     3.1660    -0.1740 H     1 <1>   0.0800 
 40 H        1.9880     3.9980    -1.5320 H     1 <1>   0.0800 
 41 H        2.3560     4.5040     0.1030 H     1 <1>   0.0800 
@<TRIPOS>BOND
  1   1   2  2   
  2   1   3  2   
  3   1   4  am  
  4   1   5  1   
  5   4   6  1   
  6   4   7  1   
  7   5   8  ar  
  8   5   9  ar  
  9   6  10  1   
 10   6  23  1   
 11   6  24  1   
 12   7  11  1   
 13   7  25  1   
 14   7  26  1   
 15   8  12  1   
 16   8  13  ar  
 17   9  14  ar  
 18   9  27  1   
 19  10  15  1   
 20  10  16  1   
 21  10  28  1   
 22  11  17  1   
 23  11  18  1   
 24  11  29  1   
 25  13  19  ar  
 26  13  30  1   
 27  14  19  ar  
 28  14  20  1   
 29  15  18  1   
 30  15  21  1   
 31  15  31  1   
 32  16  22  1   
 33  16  32  1   
 34  16  33  1   
 35  17  22  1   
 36  17  34  1   
 37  17  35  1   
 38  18  36  1   
 39  18  37  1   
 40  19  38  1   
 41  21  39  1   
 42  21  40  1   
 43  21  41  1   
@<TRIPOS>SUBSTRUCTURE
  1 ****   4 GROUP 4 **** **** 0

# MOE 2024.06 (io_trps.svl 2023.06)
