@<TRIPOS>MOLECULE
NONAME
47 48 1 0 0 
SMALL
USER_CHARGES


@<TRIPOS>ATOM
  1 O       -1.1840    -0.0220     1.9010 O.2   1 <1>  -0.5700 
  2 C       -0.3030    -0.8490     1.8110 C.2   1 <1>   0.5690 
  3 N        0.8990    -0.4910     1.2830 N.am  1 <1>  -0.7300 
  4 C       -0.5470    -2.2910     2.3650 C.3   1 <1>   0.3410 
  5 C        1.2130     0.8360     0.7000 C.3   1 <1>   0.3200 
  6 O        0.1760    -3.3230     1.6870 O.3   1 <1>  -0.3630 
  7 C       -0.0430    -2.3590     3.8130 C.3   1 <1>  -0.2400 
  8 C       -2.0330    -2.6940     2.3540 C.3   1 <1>  -0.2400 
  9 C        2.0790     0.7200    -0.5470 C.2   1 <1>   0.2980 
 10 C        0.5880    -3.2100     0.4020 C.ar  1 <1>   0.0830 
 11 O        1.5070     0.4080    -1.6820 O.3   1 <1>  -0.0190 
 12 N        3.3370     0.9200    -0.6030 N.2   1 <1>  -0.5650 
 13 C        1.9570    -3.1960     0.1270 C.ar  1 <1>  -0.1430 
 14 C       -0.3390    -3.0810    -0.6210 C.ar  1 <1>  -0.1500 
 15 N        2.4830     0.4170    -2.5400 N.2   1 <1>  -0.4100 
 16 C        3.5470     0.7020    -1.8980 C.2   1 <1>   0.3350 
 17 C        2.3800    -2.9910    -1.1820 C.ar  1 <1>  -0.1430 
 18 C        2.9830    -3.3800     1.2450 C.3   1 <1>  -0.0970 
 19 C        0.0900    -2.8930    -1.9200 C.ar  1 <1>  -0.1500 
 20 C        4.9320     0.8320    -2.5270 C.3   1 <1>   0.3010 
 21 C        1.4440    -2.8420    -2.1940 C.ar  1 <1>  -0.1500 
 22 C        3.8560    -2.9110    -1.5480 C.3   1 <1>  -0.0970 
 23 O        5.7190    -0.3010    -2.2740 O.3   1 <1>  -0.5600 
 24 C        7.0000    -0.2360    -2.8110 C.3   1 <1>   0.0400 
 25 H        1.5540    -1.2410     1.0290 H     1 <1>   0.3700 
 26 H        1.7420     1.4170     1.4340 H     1 <1>   0.0800 
 27 H        0.3040     1.3560     0.4510 H     1 <1>   0.0800 
 28 H        1.0070    -2.1290     3.8490 H     1 <1>   0.0800 
 29 H       -0.2060    -3.3390     4.2250 H     1 <1>   0.0800 
 30 H       -0.5650    -1.6390     4.4180 H     1 <1>   0.0800 
 31 H       -2.4610    -2.5490     1.3820 H     1 <1>   0.0800 
 32 H       -2.5840    -2.0750     3.0390 H     1 <1>   0.0800 
 33 H       -2.1490    -3.7210     2.6510 H     1 <1>   0.0800 
 34 H       -1.3890    -3.1250    -0.4170 H     1 <1>   0.1500 
 35 H        2.5350    -3.7650     2.1430 H     1 <1>   0.0800 
 36 H        3.4530    -2.4400     1.4720 H     1 <1>   0.0800 
 37 H        3.7380    -4.0810     0.9420 H     1 <1>   0.0800 
 38 H       -0.6240    -2.7830    -2.7160 H     1 <1>   0.1500 
 39 H        5.4280     1.6940    -2.1200 H     1 <1>   0.0800 
 40 H        4.8290     0.9430    -3.5920 H     1 <1>   0.0800 
 41 H        1.7660    -2.6780    -3.2070 H     1 <1>   0.1500 
 42 H        4.3660    -2.2260    -0.8940 H     1 <1>   0.0800 
 43 H        3.9840    -2.5540    -2.5540 H     1 <1>   0.0800 
 44 H        4.3100    -3.8810    -1.4690 H     1 <1>   0.0800 
 45 H        7.5140    -1.1480    -2.5600 H     1 <1>   0.0800 
 46 H        7.5250     0.6020    -2.3840 H     1 <1>   0.0800 
 47 H        6.9350    -0.1410    -3.8810 H     1 <1>   0.0800 
@<TRIPOS>BOND
  1   1   2  2   
  2   2   3  am  
  3   2   4  1   
  4   3   5  1   
  5   3  25  1   
  6   4   6  1   
  7   4   7  1   
  8   4   8  1   
  9   5   9  1   
 10   5  26  1   
 11   5  27  1   
 12   6  10  1   
 13   7  28  1   
 14   7  29  1   
 15   7  30  1   
 16   8  31  1   
 17   8  32  1   
 18   8  33  1   
 19   9  11  1   
 20   9  12  2   
 21  10  13  ar  
 22  10  14  ar  
 23  11  15  1   
 24  12  16  1   
 25  13  17  ar  
 26  13  18  1   
 27  14  19  ar  
 28  14  34  1   
 29  15  16  2   
 30  16  20  1   
 31  17  21  ar  
 32  17  22  1   
 33  18  35  1   
 34  18  36  1   
 35  18  37  1   
 36  19  21  ar  
 37  19  38  1   
 38  20  23  1   
 39  20  39  1   
 40  20  40  1   
 41  21  41  1   
 42  22  42  1   
 43  22  43  1   
 44  22  44  1   
 45  23  24  1   
 46  24  45  1   
 47  24  46  1   
 48  24  47  1   
@<TRIPOS>SUBSTRUCTURE
  1 ****  13 GROUP 4 **** **** 0

# MOE 2024.06 (io_trps.svl 2023.06)
