@<TRIPOS>MOLECULE
NONAME
57 60 1 0 0 
SMALL
USER_CHARGES


@<TRIPOS>ATOM
  1 O       -0.5740     2.0270     2.6430 O.2   1 <1>  -0.5700 
  2 C       -0.6100     2.9980     1.9300 C.2   1 <1>   0.5690 
  3 N       -1.7860     3.5660     1.5910 N.am  1 <1>  -0.7300 
  4 C        0.6800     3.5870     1.3620 C.3   1 <1>   0.1810 
  5 C       -1.9210     4.6830     0.6240 C.3   1 <1>   0.3640 
  6 O        0.5270     4.9330     0.9690 O.3   1 <1>  -0.5600 
  7 C       -2.8400     4.2140    -0.5040 C.ar  1 <1>  -0.1440 
  8 C       -0.5530     5.1750     0.0670 C.3   1 <1>   0.2610 
  9 C       -3.8750     5.0300    -0.9390 C.ar  1 <1>  -0.1500 
 10 C       -2.6600     2.9780    -1.1130 C.ar  1 <1>  -0.1500 
 11 C       -0.6160     6.6730    -0.2640 C.2   1 <1>   0.5690 
 12 C       -4.7140     4.6210    -1.9600 C.ar  1 <1>  -0.1500 
 13 C       -3.4990     2.5670    -2.1340 C.ar  1 <1>  -0.1500 
 14 O       -1.5440     7.1270    -0.8900 O.2   1 <1>  -0.5700 
 15 N        0.3940     7.4830     0.1540 N.am  1 <1>  -0.7300 
 16 C       -4.5270     3.3880    -2.5590 C.ar  1 <1>  -0.1500 
 17 C        0.4670     8.9280    -0.0820 C.3   1 <1>   0.2200 
 18 C        1.2320     9.1820    -1.3780 C.3   1 <1>  -0.1600 
 19 C        1.1570     9.6070     1.0970 C.3   1 <1>  -0.1600 
 20 C        1.3920    10.6790    -1.6160 C.3   1 <1>   0.3430 
 21 C        1.3260    11.1000     0.8250 C.3   1 <1>   0.3430 
 22 N        2.0810    11.3110    -0.4500 N.4   1 <1>  -0.9590 
 23 C        2.4150    12.7380    -0.7530 C.3   1 <1>   0.4230 
 24 C        3.3730    13.3120     0.2890 C.3   1 <1>  -0.1600 
 25 C        1.2010    13.6700    -0.7040 C.3   1 <1>  -0.1600 
 26 C        2.5320    14.0750     1.3220 C.3   1 <1>  -0.1600 
 27 C        1.1440    14.2730     0.7040 C.3   1 <1>  -0.1600 
 28 H       -2.6510     3.1280     1.9140 H     1 <1>   0.3700 
 29 H        0.9940     3.0130     0.5090 H     1 <1>   0.0800 
 30 H        1.4490     3.5470     2.1110 H     1 <1>   0.0800 
 31 H       -2.3930     5.5030     1.1390 H     1 <1>   0.0800 
 32 H       -0.3340     4.6470    -0.8430 H     1 <1>   0.0800 
 33 H       -4.0320     5.9970    -0.4920 H     1 <1>   0.1500 
 34 H       -1.8680     2.3210    -0.7960 H     1 <1>   0.1500 
 35 H       -5.5110     5.2640    -2.2900 H     1 <1>   0.1500 
 36 H       -3.3530     1.6070    -2.5990 H     1 <1>   0.1500 
 37 H        1.1410     7.0340     0.6970 H     1 <1>   0.3700 
 38 H       -5.1800     3.0700    -3.3530 H     1 <1>   0.1500 
 39 H       -0.5350     9.3170    -0.1810 H     1 <1>   0.0800 
 40 H        2.2000     8.7130    -1.3460 H     1 <1>   0.0800 
 41 H        0.6810     8.7580    -2.2000 H     1 <1>   0.0800 
 42 H        0.5550     9.4810     1.9800 H     1 <1>   0.0800 
 43 H        2.1210     9.1650     1.2790 H     1 <1>   0.0800 
 44 H        0.4190    11.1250    -1.7520 H     1 <1>   0.0800 
 45 H        1.9650    10.8390    -2.5160 H     1 <1>   0.0800 
 46 H        1.8560    11.5510     1.6480 H     1 <1>   0.0800 
 47 H        0.3560    11.5640     0.7550 H     1 <1>   0.0800 
 48 H        2.9820    10.8290    -0.3420 H     1 <1>   0.4500 
 49 H        2.8750    12.7890    -1.7270 H     1 <1>   0.0800 
 50 H        4.0020    12.5660     0.7420 H     1 <1>   0.0800 
 51 H        4.0090    14.0240    -0.2080 H     1 <1>   0.0800 
 52 H        1.3800    14.4730    -1.3990 H     1 <1>   0.0800 
 53 H        0.2780    13.1940    -0.9830 H     1 <1>   0.0800 
 54 H        2.4550    13.5180     2.2400 H     1 <1>   0.0800 
 55 H        2.9880    15.0250     1.5470 H     1 <1>   0.0800 
 56 H        0.8900    15.3200     0.6590 H     1 <1>   0.0800 
 57 H        0.4000    13.7760     1.3020 H     1 <1>   0.0800 
@<TRIPOS>BOND
  1   1   2  2   
  2   2   3  am  
  3   2   4  1   
  4   3   5  1   
  5   3  28  1   
  6   4   6  1   
  7   4  29  1   
  8   4  30  1   
  9   5   7  1   
 10   5   8  1   
 11   5  31  1   
 12   6   8  1   
 13   7   9  ar  
 14   7  10  ar  
 15   8  11  1   
 16   8  32  1   
 17   9  12  ar  
 18   9  33  1   
 19  10  13  ar  
 20  10  34  1   
 21  11  14  2   
 22  11  15  am  
 23  12  16  ar  
 24  12  35  1   
 25  13  16  ar  
 26  13  36  1   
 27  15  17  1   
 28  15  37  1   
 29  16  38  1   
 30  17  18  1   
 31  17  19  1   
 32  17  39  1   
 33  18  20  1   
 34  18  40  1   
 35  18  41  1   
 36  19  21  1   
 37  19  42  1   
 38  19  43  1   
 39  20  22  1   
 40  20  44  1   
 41  20  45  1   
 42  21  22  1   
 43  21  46  1   
 44  21  47  1   
 45  22  23  1   
 46  22  48  1   
 47  23  24  1   
 48  23  25  1   
 49  23  49  1   
 50  24  26  1   
 51  24  50  1   
 52  24  51  1   
 53  25  27  1   
 54  25  52  1   
 55  25  53  1   
 56  26  27  1   
 57  26  54  1   
 58  26  55  1   
 59  27  56  1   
 60  27  57  1   
@<TRIPOS>SUBSTRUCTURE
  1 ****  15 GROUP 4 **** **** 0

# MOE 2024.06 (io_trps.svl 2023.06)
