@<TRIPOS>MOLECULE
NONAME
65 69 1 0 0 
SMALL
USER_CHARGES


@<TRIPOS>ATOM
  1 O       -0.6550     0.1610     1.3510 O.2   1 <1>  -0.5700 
  2 C       -0.9120     0.6810     0.2880 C.2   1 <1>   0.5690 
  3 N       -1.5500    -0.0300    -0.6840 N.am  1 <1>  -0.7300 
  4 C       -0.4620     2.1310     0.0250 C.3   1 <1>   0.0610 
  5 C       -1.9620    -1.4450    -0.5390 C.3   1 <1>   0.1400 
  6 C       -0.6750     3.0390     1.2710 C.3   1 <1>   0.1900 
  7 C       -1.3380     2.9000    -1.0120 C.3   1 <1>  -0.1600 
  8 C        1.0300     2.0260    -0.4230 C.3   1 <1>  -0.1600 
  9 C       -3.2710    -1.5350     0.2470 C.3   1 <1>   0.0200 
 10 N       -0.7400     4.3600     0.6460 N.3   1 <1>  -0.8100 
 11 C       -2.1080     2.8820     1.8330 C.3   1 <1>  -0.1600 
 12 C       -1.8760     4.0930    -0.2090 C.3   1 <1>   0.1900 
 13 C        1.8270     3.3210    -0.6380 C.3   1 <1>  -0.2400 
 14 C       -3.4950    -2.9600     0.7010 C.2   1 <1>   0.0070 
 15 C       -0.8590     5.5490     1.5540 C.3   1 <1>   0.1710 
 16 C       -2.9490     3.5980     0.7690 C.3   1 <1>  -0.1600 
 17 N       -4.2480    -3.8050     0.0890 N.2   1 <1>  -0.5650 
 18 N       -2.8900    -3.4600     1.8090 N.pl3 1 <1>   0.0330 
 19 C       -1.2450     6.8690     0.8640 C.2   1 <1>   0.5690 
 20 C       -4.1470    -4.9440     0.8300 C.ar  1 <1>   0.2270 
 21 C       -3.3020    -4.7480     1.9070 C.ar  1 <1>  -0.1520 
 22 O       -2.2640     7.4080     1.2360 O.2   1 <1>  -0.5700 
 23 N       -0.4750     7.4190    -0.1330 N.am  1 <1>  -0.6600 
 24 C       -4.7500    -6.1860     0.6380 C.ar  1 <1>  -0.1500 
 25 C       -3.0330    -5.7740     2.8160 C.ar  1 <1>  -0.1500 
 26 C       -0.9040     8.6440    -0.8710 C.3   1 <1>   0.1400 
 27 C        0.7670     6.7960    -0.6780 C.3   1 <1>   0.1400 
 28 C       -4.4920    -7.2050     1.5300 C.ar  1 <1>  -0.1500 
 29 C       -3.6340    -6.9970     2.6170 C.ar  1 <1>  -0.1500 
 30 C        0.2850     9.5880    -1.1120 C.3   1 <1>   0.1200 
 31 C        1.8510     7.8540    -0.9400 C.3   1 <1>   0.1200 
 32 O        1.3460     8.9030    -1.7160 O.3   1 <1>  -0.5600 
 33 H       -1.7290     0.4030    -1.5910 H     1 <1>   0.3700 
 34 H       -2.0820    -1.9000    -1.5080 H     1 <1>   0.0800 
 35 H       -1.1880    -1.9790    -0.0130 H     1 <1>   0.0800 
 36 H        0.1010     2.9420     2.0100 H     1 <1>   0.0800 
 37 H       -2.1560     2.3330    -1.4110 H     1 <1>   0.0800 
 38 H       -0.7530     3.2630    -1.8370 H     1 <1>   0.0800 
 39 H        1.5580     1.4490     0.3180 H     1 <1>   0.0800 
 40 H        1.0660     1.4580    -1.3370 H     1 <1>   0.0800 
 41 H       -4.0900    -1.2260    -0.3770 H     1 <1>   0.0800 
 42 H       -3.2330    -0.8960     1.1110 H     1 <1>   0.0800 
 43 H       -2.4170     1.8630     1.9720 H     1 <1>   0.0800 
 44 H       -2.1910     3.3700     2.7860 H     1 <1>   0.0800 
 45 H       -2.1760     4.9290    -0.8200 H     1 <1>   0.0800 
 46 H        1.9100     3.8660     0.2850 H     1 <1>   0.0800 
 47 H        1.3590     3.9470    -1.3750 H     1 <1>   0.0800 
 48 H        2.8200     3.0860    -0.9770 H     1 <1>   0.0800 
 49 H       -1.5890     5.3750     2.3210 H     1 <1>   0.0800 
 50 H        0.0830     5.6960     2.0480 H     1 <1>   0.0800 
 51 H       -3.4840     4.4310     1.1920 H     1 <1>   0.0800 
 52 H       -3.6520     2.9390     0.2920 H     1 <1>   0.0800 
 53 H       -2.2480    -2.9690     2.4370 H     1 <1>   0.2700 
 54 H       -5.4030    -6.3150    -0.2040 H     1 <1>   0.1500 
 55 H       -2.3730    -5.6040     3.6480 H     1 <1>   0.1500 
 56 H       -1.3230     8.3550    -1.8180 H     1 <1>   0.0800 
 57 H       -1.6640     9.1700    -0.3180 H     1 <1>   0.0800 
 58 H        1.1590     6.0700     0.0080 H     1 <1>   0.0800 
 59 H        0.5310     6.2920    -1.5980 H     1 <1>   0.0800 
 60 H       -4.9490    -8.1690     1.3960 H     1 <1>   0.1500 
 61 H       -3.4480    -7.8090     3.2990 H     1 <1>   0.1500 
 62 H        0.6280    10.0080    -0.1820 H     1 <1>   0.0800 
 63 H       -0.0050    10.3890    -1.7680 H     1 <1>   0.0800 
 64 H        2.6730     7.4150    -1.4770 H     1 <1>   0.0800 
 65 H        2.2180     8.2570    -0.0130 H     1 <1>   0.0800 
@<TRIPOS>BOND
  1   1   2  2   
  2   2   3  am  
  3   2   4  1   
  4   3   5  1   
  5   3  33  1   
  6   4   6  1   
  7   4   7  1   
  8   4   8  1   
  9   5   9  1   
 10   5  34  1   
 11   5  35  1   
 12   6  10  1   
 13   6  11  1   
 14   6  36  1   
 15   7  12  1   
 16   7  37  1   
 17   7  38  1   
 18   8  13  1   
 19   8  39  1   
 20   8  40  1   
 21   9  14  1   
 22   9  41  1   
 23   9  42  1   
 24  10  12  1   
 25  10  15  1   
 26  11  16  1   
 27  11  43  1   
 28  11  44  1   
 29  12  16  1   
 30  12  45  1   
 31  13  46  1   
 32  13  47  1   
 33  13  48  1   
 34  14  17  2   
 35  14  18  1   
 36  15  19  1   
 37  15  49  1   
 38  15  50  1   
 39  16  51  1   
 40  16  52  1   
 41  17  20  1   
 42  18  21  1   
 43  18  53  1   
 44  19  22  2   
 45  19  23  am  
 46  20  21  ar  
 47  20  24  ar  
 48  21  25  ar  
 49  23  26  1   
 50  23  27  1   
 51  24  28  ar  
 52  24  54  1   
 53  25  29  ar  
 54  25  55  1   
 55  26  30  1   
 56  26  56  1   
 57  26  57  1   
 58  27  31  1   
 59  27  58  1   
 60  27  59  1   
 61  28  29  ar  
 62  28  60  1   
 63  29  61  1   
 64  30  32  1   
 65  30  62  1   
 66  30  63  1   
 67  31  32  1   
 68  31  64  1   
 69  31  65  1   
@<TRIPOS>SUBSTRUCTURE
  1 ****   2 GROUP 4 **** **** 0

# MOE 2024.06 (io_trps.svl 2023.06)
