@<TRIPOS>MOLECULE
NONAME
44 47 1 0 0 
SMALL
USER_CHARGES


@<TRIPOS>ATOM
  1 CL      -3.2520    -1.9090    -3.7800 Cl    1 <1>  -0.1770 
  2 C       -3.6710    -2.2320    -2.1170 C.ar  1 <1>   0.1770 
  3 C       -3.0520    -3.2730    -1.4520 C.ar  1 <1>  -0.1500 
  4 C       -4.6160    -1.4430    -1.4910 C.ar  1 <1>  -0.1500 
  5 C       -3.3900    -3.5280    -0.1330 C.ar  1 <1>  -0.1500 
  6 C       -4.9510    -1.7030    -0.1720 C.ar  1 <1>  -0.1500 
  7 C       -4.3430    -2.7490     0.5110 C.ar  1 <1>  -0.1430 
  8 C       -4.7230    -3.0460     1.9600 C.3   1 <1>   0.0450 
  9 C       -4.9760    -4.5230     2.2440 C.2   1 <1>   0.5690 
 10 O       -4.2870    -5.0430     3.0910 O.2   1 <1>  -0.5700 
 11 N       -5.9490    -5.2320     1.5770 N.am  1 <1>  -0.6600 
 12 C       -6.1020    -6.6990     1.8190 C.3   1 <1>   0.1400 
 13 C       -6.8350    -4.6230     0.5380 C.3   1 <1>   0.1400 
 14 C       -6.4580    -7.4240     0.5200 C.3   1 <1>  -0.1600 
 15 C       -8.0930    -5.4680     0.3480 C.3   1 <1>  -0.1600 
 16 C       -7.7330    -6.8770    -0.1510 C.3   1 <1>   0.4610 
 17 O       -7.4180    -6.7940    -1.5290 O.3   1 <1>  -0.5600 
 18 C       -8.9060    -7.8390     0.0610 C.2   1 <1>  -0.1810 
 19 C       -8.4630    -6.7770    -2.4760 C.3   1 <1>   0.1200 
 20 C       -9.5690    -8.3620    -0.9780 C.2   1 <1>  -0.1400 
 21 C       -9.4130    -8.2860     1.3280 C.2   1 <1>  -0.1500 
 22 C       -9.2840    -8.0740    -2.4270 C.3   1 <1>   0.0200 
 23 S      -10.8430    -9.4470    -0.4640 S.3   1 <1>  -0.0800 
 24 C      -10.4440    -9.1460     1.2210 C.2   1 <1>  -0.1100 
 25 H       -2.3190    -3.8720    -1.9590 H     1 <1>   0.1500 
 26 H       -5.0800    -0.6370    -2.0300 H     1 <1>   0.1500 
 27 H       -2.9080    -4.3390     0.3880 H     1 <1>   0.1500 
 28 H       -5.6850    -1.0850     0.3160 H     1 <1>   0.1500 
 29 H       -5.6000    -2.4950     2.2410 H     1 <1>   0.0800 
 30 H       -3.9210    -2.7110     2.5940 H     1 <1>   0.0800 
 31 H       -6.8710    -6.8540     2.5550 H     1 <1>   0.0800 
 32 H       -5.1850    -7.1080     2.2090 H     1 <1>   0.0800 
 33 H       -6.2970    -4.5630    -0.3940 H     1 <1>   0.0800 
 34 H       -7.1200    -3.6290     0.8330 H     1 <1>   0.0800 
 35 H       -6.5740    -8.4730     0.7220 H     1 <1>   0.0800 
 36 H       -5.6200    -7.3200    -0.1470 H     1 <1>   0.0800 
 37 H       -8.7640    -4.9860    -0.3350 H     1 <1>   0.0800 
 38 H       -8.6010    -5.5330     1.2920 H     1 <1>   0.0800 
 39 H       -8.0210    -6.6550    -3.4490 H     1 <1>   0.0800 
 40 H       -9.0930    -5.9300    -2.2770 H     1 <1>   0.0800 
 41 H       -8.9850    -7.9460     2.2540 H     1 <1>   0.1500 
 42 H       -8.7290    -8.8850    -2.8610 H     1 <1>   0.0800 
 43 H      -10.2010    -7.9470    -2.9730 H     1 <1>   0.0800 
 44 H      -11.0330    -9.6540     1.9640 H     1 <1>   0.1500 
@<TRIPOS>BOND
  1   1   2  1   
  2   2   3  ar  
  3   2   4  ar  
  4   3   5  ar  
  5   3  25  1   
  6   4   6  ar  
  7   4  26  1   
  8   5   7  ar  
  9   5  27  1   
 10   6   7  ar  
 11   6  28  1   
 12   7   8  1   
 13   8   9  1   
 14   8  29  1   
 15   8  30  1   
 16   9  10  2   
 17   9  11  am  
 18  11  12  1   
 19  11  13  1   
 20  12  14  1   
 21  12  31  1   
 22  12  32  1   
 23  13  15  1   
 24  13  33  1   
 25  13  34  1   
 26  14  16  1   
 27  14  35  1   
 28  14  36  1   
 29  15  16  1   
 30  15  37  1   
 31  15  38  1   
 32  16  17  1   
 33  16  18  1   
 34  17  19  1   
 35  18  20  2   
 36  18  21  1   
 37  19  22  1   
 38  19  39  1   
 39  19  40  1   
 40  20  22  1   
 41  20  23  1   
 42  21  24  2   
 43  21  41  1   
 44  22  42  1   
 45  22  43  1   
 46  23  24  1   
 47  24  44  1   
@<TRIPOS>SUBSTRUCTURE
  1 ****  13 GROUP 4 **** **** 0

# MOE 2024.06 (io_trps.svl 2023.06)
