@<TRIPOS>MOLECULE
NONAME
50 53 1 0 0 
SMALL
USER_CHARGES


@<TRIPOS>ATOM
  1 S        0.1990     0.4280     1.9430 S.3   1 <1>  -0.0800 
  2 C       -0.9380     1.1450     0.8130 C.2   1 <1>  -0.1400 
  3 C       -1.0090    -0.7380     2.4680 C.2   1 <1>  -0.1100 
  4 C       -2.1240     0.5260     0.8770 C.2   1 <1>  -0.1810 
  5 C       -0.5740     2.3150    -0.0940 C.3   1 <1>   0.4600 
  6 C       -2.1720    -0.5550     1.8140 C.2   1 <1>  -0.1500 
  7 C       -3.2590     0.9960    -0.0040 C.3   1 <1>   0.0210 
  8 O       -1.6530     2.5540    -0.9790 O.3   1 <1>  -0.5600 
  9 C        0.6350     1.9730    -0.9710 C.3   1 <1>  -0.1600 
 10 C       -0.3020     3.5920     0.7130 C.3   1 <1>  -0.1600 
 11 C       -2.9640     2.4330    -0.4770 C.3   1 <1>   0.1200 
 12 C        1.0360     3.1500    -1.8610 C.3   1 <1>   0.1400 
 13 C        0.1020     4.7560    -0.1940 C.3   1 <1>   0.1400 
 14 N        1.2780     4.3520    -1.0130 N.am  1 <1>  -0.6600 
 15 C        2.5400     4.8730    -0.8680 C.2   1 <1>   0.6900 
 16 O        3.5140     4.2390    -1.2300 O.2   1 <1>  -0.5700 
 17 N        2.6740     6.1230    -0.3380 N.am  1 <1>  -0.5470 
 18 C        3.8060     6.8590     0.0490 C.ar  1 <1>   0.1170 
 19 C        3.7680     8.2560     0.0290 C.ar  1 <1>  -0.1430 
 20 C        4.9670     6.2270     0.4830 C.ar  1 <1>  -0.1500 
 21 C        4.8750     8.9860     0.4360 C.ar  1 <1>  -0.1500 
 22 C        2.5250     9.0020    -0.4430 C.3   1 <1>  -0.0970 
 23 C        6.0670     6.9590     0.8850 C.ar  1 <1>  -0.1500 
 24 C        6.0310     8.3420     0.8660 C.ar  1 <1>   0.0830 
 25 O        7.1540     8.9890     1.2800 O.3   1 <1>  -0.3620 
 26 C        7.2300    10.3970     1.2580 C.3   1 <1>   0.0400 
 27 H       -0.7150    -1.4470     3.2210 H     1 <1>   0.1500 
 28 H       -3.0660    -1.1360     1.9510 H     1 <1>   0.1500 
 29 H       -4.1830     0.9830     0.5440 H     1 <1>   0.0800 
 30 H       -3.3550     0.3430    -0.8530 H     1 <1>   0.0800 
 31 H        0.4040     1.1160    -1.5760 H     1 <1>   0.0800 
 32 H        1.4750     1.7170    -0.3510 H     1 <1>   0.0800 
 33 H        0.4990     3.4050     1.4050 H     1 <1>   0.0800 
 34 H       -1.1670     3.8540     1.2920 H     1 <1>   0.0800 
 35 H       -3.0820     3.1250     0.3370 H     1 <1>   0.0800 
 36 H       -3.6430     2.7090    -1.2650 H     1 <1>   0.0800 
 37 H        0.2480     3.3660    -2.5610 H     1 <1>   0.0800 
 38 H        1.9180     2.8960    -2.4240 H     1 <1>   0.0800 
 39 H        0.3280     5.6130     0.4150 H     1 <1>   0.0800 
 40 H       -0.7130     5.0110    -0.8500 H     1 <1>   0.0800 
 41 H        1.8100     6.6470    -0.3600 H     1 <1>   0.3700 
 42 H        5.0130     5.1540     0.5080 H     1 <1>   0.1500 
 43 H        4.8280    10.0570     0.4130 H     1 <1>   0.1500 
 44 H        2.2560     8.6790    -1.4330 H     1 <1>   0.0800 
 45 H        2.7000    10.0620    -0.4750 H     1 <1>   0.0800 
 46 H        1.7060     8.8150     0.2280 H     1 <1>   0.0800 
 47 H        6.9610     6.4620     1.2160 H     1 <1>   0.1500 
 48 H        8.2050    10.6830     1.6080 H     1 <1>   0.0800 
 49 H        6.4750    10.7970     1.9110 H     1 <1>   0.0800 
 50 H        7.0900    10.7380     0.2480 H     1 <1>   0.0800 
@<TRIPOS>BOND
  1   1   2  1   
  2   1   3  1   
  3   2   4  2   
  4   2   5  1   
  5   3   6  2   
  6   3  27  1   
  7   4   6  1   
  8   4   7  1   
  9   5   8  1   
 10   5   9  1   
 11   5  10  1   
 12   6  28  1   
 13   7  11  1   
 14   7  29  1   
 15   7  30  1   
 16   8  11  1   
 17   9  12  1   
 18   9  31  1   
 19   9  32  1   
 20  10  13  1   
 21  10  33  1   
 22  10  34  1   
 23  11  35  1   
 24  11  36  1   
 25  12  14  1   
 26  12  37  1   
 27  12  38  1   
 28  13  14  1   
 29  13  39  1   
 30  13  40  1   
 31  14  15  am  
 32  15  16  2   
 33  15  17  am  
 34  17  18  1   
 35  17  41  1   
 36  18  19  ar  
 37  18  20  ar  
 38  19  21  ar  
 39  19  22  1   
 40  20  23  ar  
 41  20  42  1   
 42  21  24  ar  
 43  21  43  1   
 44  22  44  1   
 45  22  45  1   
 46  22  46  1   
 47  23  24  ar  
 48  23  47  1   
 49  24  25  1   
 50  25  26  1   
 51  26  48  1   
 52  26  49  1   
 53  26  50  1   
@<TRIPOS>SUBSTRUCTURE
  1 ****  14 GROUP 4 **** **** 0

# MOE 2024.06 (io_trps.svl 2023.06)
