@<TRIPOS>MOLECULE
NONAME
50 53 1 0 0 
SMALL
USER_CHARGES


@<TRIPOS>ATOM
  1 O       -1.4100    -0.3450     0.3750 O.3   1 <1>  -0.6800 
  2 C       -2.4150    -1.2960     0.2910 C.3   1 <1>   0.2000 
  3 C       -1.8100    -2.6630    -0.0780 C.3   1 <1>   0.2090 
  4 C       -3.4120    -0.8270    -0.7730 C.3   1 <1>  -0.1600 
  5 N       -2.8940    -3.6780    -0.3060 N.pl3 1 <1>  -0.8380 
  6 C       -4.4710    -1.9110    -1.0360 C.3   1 <1>  -0.1600 
  7 C       -2.9430    -4.9060     0.2740 C.ar  1 <1>   0.4100 
  8 C       -3.8410    -3.2640    -1.3890 C.3   1 <1>   0.2090 
  9 N       -3.4920    -5.8890    -0.4140 N.ar  1 <1>  -0.6200 
 10 C       -2.4330    -5.1270     1.5670 C.ar  1 <1>  -0.1500 
 11 C       -3.5340    -7.1050     0.1100 C.ar  1 <1>   0.7710 
 12 C       -2.4870    -6.3720     2.0930 C.ar  1 <1>   0.2110 
 13 N       -3.0410    -7.3530     1.3400 N.ar  1 <1>  -0.1790 
 14 N       -4.1010    -8.1110    -0.6150 N.pl3 1 <1>  -0.8380 
 15 C       -4.2950    -9.5360    -0.2020 C.3   1 <1>   0.3530 
 16 C       -4.6780    -7.8370    -1.9790 C.3   1 <1>   0.1290 
 17 C       -5.7700    -9.8480    -0.0070 C.ar  1 <1>  -0.1440 
 18 C       -6.5960    -8.9610     0.7050 C.ar  1 <1>   0.1600 
 19 C       -6.3200   -10.9920    -0.5090 C.ar  1 <1>  -0.1500 
 20 N       -7.8550    -9.1530     0.9430 N.ar  1 <1>  -0.6200 
 21 C       -7.6850   -11.2400    -0.2850 C.ar  1 <1>   0.0000 
 22 C       -8.4180   -10.2870     0.4540 C.ar  1 <1>   0.3100 
 23 C       -8.3440   -12.3900    -0.7630 C.ar  1 <1>  -0.1500 
 24 C       -9.7820   -10.5260     0.6880 C.ar  1 <1>  -0.1500 
 25 C       -9.6750   -12.5930    -0.5180 C.ar  1 <1>  -0.1500 
 26 C      -10.4030   -11.6510     0.2160 C.ar  1 <1>  -0.1500 
 27 H       -0.8790    -0.4640     1.1850 H     1 <1>   0.4000 
 28 H       -2.9000    -1.3550     1.2500 H     1 <1>   0.0800 
 29 H       -1.1320    -2.9840     0.6900 H     1 <1>   0.0800 
 30 H       -1.2500    -2.5560    -0.9920 H     1 <1>   0.0800 
 31 H       -2.8840    -0.6220    -1.6890 H     1 <1>   0.0800 
 32 H       -3.8930     0.0770    -0.4440 H     1 <1>   0.0800 
 33 H       -5.1090    -1.5990    -1.8440 H     1 <1>   0.0800 
 34 H       -5.0890    -2.0350    -0.1640 H     1 <1>   0.0800 
 35 H       -4.6250    -3.9900    -1.5150 H     1 <1>   0.0800 
 36 H       -3.3030    -3.1890    -2.3190 H     1 <1>   0.0800 
 37 H       -2.0240    -4.3040     2.1200 H     1 <1>   0.1500 
 38 H       -2.1150    -6.6070     3.0780 H     1 <1>   0.1500 
 39 H       -3.1170    -8.3030     1.6780 H     1 <1>   0.4570 
 40 H       -3.7710    -9.7600     0.7080 H     1 <1>   0.0800 
 41 H       -3.8890   -10.1790    -0.9670 H     1 <1>   0.0800 
 42 H       -4.0910    -7.1050    -2.5090 H     1 <1>   0.0800 
 43 H       -5.6850    -7.4650    -1.8800 H     1 <1>   0.0800 
 44 H       -4.7000    -8.7330    -2.5750 H     1 <1>   0.0800 
 45 H       -6.1670    -8.0510     1.0830 H     1 <1>   0.1500 
 46 H       -5.7490   -11.7140    -1.0670 H     1 <1>   0.1500 
 47 H       -7.7810   -13.1130    -1.3270 H     1 <1>   0.1500 
 48 H      -10.3250    -9.7910     1.2530 H     1 <1>   0.1500 
 49 H      -10.1770   -13.4730    -0.8830 H     1 <1>   0.1500 
 50 H      -11.4500   -11.8230     0.4010 H     1 <1>   0.1500 
@<TRIPOS>BOND
  1   1   2  1   
  2   1  27  1   
  3   2   3  1   
  4   2   4  1   
  5   2  28  1   
  6   3   5  1   
  7   3  29  1   
  8   3  30  1   
  9   4   6  1   
 10   4  31  1   
 11   4  32  1   
 12   5   7  1   
 13   5   8  1   
 14   6   8  1   
 15   6  33  1   
 16   6  34  1   
 17   7   9  ar  
 18   7  10  ar  
 19   8  35  1   
 20   8  36  1   
 21   9  11  ar  
 22  10  12  ar  
 23  10  37  1   
 24  11  13  ar  
 25  11  14  1   
 26  12  13  ar  
 27  12  38  1   
 28  13  39  1   
 29  14  15  1   
 30  14  16  1   
 31  15  17  1   
 32  15  40  1   
 33  15  41  1   
 34  16  42  1   
 35  16  43  1   
 36  16  44  1   
 37  17  18  ar  
 38  17  19  ar  
 39  18  20  ar  
 40  18  45  1   
 41  19  21  ar  
 42  19  46  1   
 43  20  22  ar  
 44  21  22  ar  
 45  21  23  ar  
 46  22  24  ar  
 47  23  25  ar  
 48  23  47  1   
 49  24  26  ar  
 50  24  48  1   
 51  25  26  ar  
 52  25  49  1   
 53  26  50  1   
@<TRIPOS>SUBSTRUCTURE
  1 ****  11 GROUP 4 **** **** 0

# MOE 2024.06 (io_trps.svl 2023.06)
