@<TRIPOS>MOLECULE
NONAME
49 52 1 0 0 
SMALL
USER_CHARGES


@<TRIPOS>ATOM
  1 CL       2.2060    -2.4740    -1.1540 Cl    1 <1>  -0.1770 
  2 C        0.5280    -2.9100    -0.9500 C.ar  1 <1>   0.1770 
  3 C       -0.3690    -2.6570    -1.9700 C.ar  1 <1>  -0.1500 
  4 C        0.1190    -3.5020     0.2300 C.ar  1 <1>  -0.1500 
  5 C       -1.6980    -3.0060    -1.8040 C.ar  1 <1>  -0.1500 
  6 C       -1.2120    -3.8480     0.3910 C.ar  1 <1>  -0.1500 
  7 C       -2.1380    -3.6110    -0.6260 C.ar  1 <1>  -0.0230 
  8 N       -3.5090    -3.9770    -0.4730 N.pl3 1 <1>   0.5930 
  9 N       -4.5370    -3.2970    -1.0400 N.2   1 <1>  -0.7070 
 10 C       -4.0040    -5.0430     0.2090 C.2   1 <1>  -0.3020 
 11 C       -5.6170    -3.9140    -0.6930 C.2   1 <1>   0.1390 
 12 C       -5.3510    -5.0330     0.0870 C.2   1 <1>  -0.1810 
 13 C       -6.3820    -5.9910     0.6440 C.3   1 <1>   0.5240 
 14 N       -6.8720    -6.8660    -0.4610 N.4   1 <1>  -0.9590 
 15 C       -8.0400    -7.6910    -0.0470 C.3   1 <1>   0.4230 
 16 C       -5.7540    -7.7040    -1.0080 C.3   1 <1>   0.2630 
 17 C       -8.6040    -8.4990    -1.2150 C.3   1 <1>  -0.1600 
 18 C       -9.2190    -6.8300     0.4040 C.3   1 <1>  -0.1600 
 19 C      -10.0690    -8.7660    -0.8520 C.3   1 <1>  -0.0800 
 20 C      -10.4610    -7.7030     0.1850 C.3   1 <1>  -0.0800 
 21 C      -10.3070   -10.1300    -0.1870 C.3   1 <1>  -0.1600 
 22 C      -10.9110    -8.4670     1.4400 C.3   1 <1>  -0.1600 
 23 C      -11.3040    -9.8420     0.9230 C.3   1 <1>   0.2000 
 24 O      -11.1950   -10.7810     1.9240 O.3   1 <1>  -0.6800 
 25 H       -0.0290    -2.1910    -2.8770 H     1 <1>   0.1500 
 26 H        0.8380    -3.6830     1.0090 H     1 <1>   0.1500 
 27 H       -2.4020    -2.8040    -2.5950 H     1 <1>   0.1500 
 28 H       -1.5220    -4.2980     1.3170 H     1 <1>   0.1500 
 29 H       -3.3580    -5.7270     0.7280 H     1 <1>   0.1500 
 30 H       -6.5980    -3.5760    -0.9920 H     1 <1>   0.1500 
 31 H       -7.1940    -5.4240     1.0680 H     1 <1>   0.0800 
 32 H       -5.9400    -6.5900     1.4230 H     1 <1>   0.0800 
 33 H       -7.1880    -6.2410    -1.2130 H     1 <1>   0.4500 
 34 H       -7.7700    -8.3670     0.7490 H     1 <1>   0.0800 
 35 H       -5.3820    -8.3760    -0.2520 H     1 <1>   0.0800 
 36 H       -4.9420    -7.0760    -1.3400 H     1 <1>   0.0800 
 37 H       -6.0940    -8.2850    -1.8490 H     1 <1>   0.0800 
 38 H       -8.5830    -7.9100    -2.1150 H     1 <1>   0.0800 
 39 H       -8.0640    -9.4160    -1.3770 H     1 <1>   0.0800 
 40 H       -9.1340    -6.5190     1.4300 H     1 <1>   0.0800 
 41 H       -9.3060    -5.9630    -0.2280 H     1 <1>   0.0800 
 42 H      -10.6990    -8.6810    -1.7240 H     1 <1>   0.0800 
 43 H      -11.2840    -7.1110    -0.1840 H     1 <1>   0.0800 
 44 H       -9.3940   -10.5130     0.2350 H     1 <1>   0.0800 
 45 H      -10.7060   -10.8450    -0.8870 H     1 <1>   0.0800 
 46 H      -11.7450    -7.9830     1.9180 H     1 <1>   0.0800 
 47 H      -10.1000    -8.5620     2.1400 H     1 <1>   0.0800 
 48 H      -12.3160    -9.8430     0.5500 H     1 <1>   0.0800 
 49 H      -10.2870   -10.8200     2.2730 H     1 <1>   0.4000 
@<TRIPOS>BOND
  1   1   2  1   
  2   2   3  ar  
  3   2   4  ar  
  4   3   5  ar  
  5   3  25  1   
  6   4   6  ar  
  7   4  26  1   
  8   5   7  ar  
  9   5  27  1   
 10   6   7  ar  
 11   6  28  1   
 12   7   8  1   
 13   8   9  1   
 14   8  10  1   
 15   9  11  2   
 16  10  12  2   
 17  10  29  1   
 18  11  12  1   
 19  11  30  1   
 20  12  13  1   
 21  13  14  1   
 22  13  31  1   
 23  13  32  1   
 24  14  15  1   
 25  14  16  1   
 26  14  33  1   
 27  15  17  1   
 28  15  18  1   
 29  15  34  1   
 30  16  35  1   
 31  16  36  1   
 32  16  37  1   
 33  17  19  1   
 34  17  38  1   
 35  17  39  1   
 36  18  20  1   
 37  18  40  1   
 38  18  41  1   
 39  19  20  1   
 40  19  21  1   
 41  19  42  1   
 42  20  22  1   
 43  20  43  1   
 44  21  23  1   
 45  21  44  1   
 46  21  45  1   
 47  22  23  1   
 48  22  46  1   
 49  22  47  1   
 50  23  24  1   
 51  23  48  1   
 52  24  49  1   
@<TRIPOS>SUBSTRUCTURE
  1 ****  12 GROUP 4 **** **** 0

# MOE 2024.06 (io_trps.svl 2023.06)
