@<TRIPOS>MOLECULE
NONAME
46 48 1 0 0 
SMALL
USER_CHARGES


@<TRIPOS>ATOM
  1 O        0.2280    -0.4910    -0.1130 O.3   1 <1>  -0.5600 
  2 C        1.4360    -1.1010    -0.5020 C.3   1 <1>   0.2000 
  3 C        0.0760     0.8460    -0.4900 C.3   1 <1>   0.1200 
  4 C        2.6610    -0.2960     0.0130 C.3   1 <1>   0.5660 
  5 C        1.4610    -2.5330     0.0570 C.3   1 <1>   0.1200 
  6 C        1.1930     1.7000     0.1330 C.3   1 <1>   0.3430 
  7 N        2.5500     1.1770    -0.2340 N.4   1 <1>  -0.9590 
  8 C        3.9520    -0.7800    -0.6330 C.ar  1 <1>  -0.1440 
  9 O        1.7190    -2.5110     1.4270 O.3   1 <1>  -0.6800 
 10 C        3.6380     1.9190     0.4510 C.3   1 <1>   0.5240 
 11 C        4.9110    -1.3950     0.1600 C.ar  1 <1>  -0.1500 
 12 C        4.1980    -0.6140    -1.9920 C.ar  1 <1>  -0.1500 
 13 C        3.6130     3.3400    -0.0580 C.2   1 <1>  -0.1810 
 14 C        6.1040    -1.8260    -0.3930 C.ar  1 <1>  -0.1500 
 15 C        5.3930    -1.0450    -2.5410 C.ar  1 <1>  -0.1500 
 16 C        4.1270     3.7680    -1.2770 C.2   1 <1>   0.1390 
 17 C        3.1120     4.4590     0.5130 C.2   1 <1>  -0.3020 
 18 C        6.3460    -1.6490    -1.7420 C.ar  1 <1>  -0.1500 
 19 N        3.9440     5.0350    -1.4600 N.2   1 <1>  -0.7070 
 20 N        3.3290     5.4740    -0.3490 N.pl3 1 <1>   0.3140 
 21 C        2.9780     6.8990    -0.1610 C.3   1 <1>   0.0960 
 22 C        3.9580     7.5900     0.7950 C.3   1 <1>  -0.2400 
 23 H        1.4410    -1.1490    -1.5760 H     1 <1>   0.0800 
 24 H        0.0840     0.9110    -1.5640 H     1 <1>   0.0800 
 25 H       -0.8840     1.1770    -0.1330 H     1 <1>   0.0800 
 26 H        2.7270    -0.4640     1.0750 H     1 <1>   0.0800 
 27 H        2.2390    -3.1110    -0.4140 H     1 <1>   0.0800 
 28 H        0.5120    -3.0140    -0.1110 H     1 <1>   0.0800 
 29 H        1.0730     1.6870     1.2040 H     1 <1>   0.0800 
 30 H        1.0900     2.7200    -0.2000 H     1 <1>   0.0800 
 31 H        2.6920     1.3230    -1.2360 H     1 <1>   0.4500 
 32 H        1.4960    -3.3760     1.8330 H     1 <1>   0.4000 
 33 H        3.4890     1.9050     1.5180 H     1 <1>   0.0800 
 34 H        4.5980     1.4780     0.2300 H     1 <1>   0.0800 
 35 H        4.7400    -1.5530     1.2130 H     1 <1>   0.1500 
 36 H        3.4760    -0.1560    -2.6450 H     1 <1>   0.1500 
 37 H        6.8460    -2.3040     0.2260 H     1 <1>   0.1500 
 38 H        5.5860    -0.9170    -3.5940 H     1 <1>   0.1500 
 39 H        4.6230     3.1430    -2.0020 H     1 <1>   0.1500 
 40 H        2.6300     4.6060     1.4630 H     1 <1>   0.1500 
 41 H        7.2750    -1.9860    -2.1710 H     1 <1>   0.1500 
 42 H        3.0060     7.3810    -1.1220 H     1 <1>   0.0800 
 43 H        1.9770     6.9590     0.2230 H     1 <1>   0.0800 
 44 H        4.9590     7.5320     0.4030 H     1 <1>   0.0800 
 45 H        3.9290     7.1310     1.7670 H     1 <1>   0.0800 
 46 H        3.6950     8.6270     0.8990 H     1 <1>   0.0800 
@<TRIPOS>BOND
  1   1   2  1   
  2   1   3  1   
  3   2   4  1   
  4   2   5  1   
  5   2  23  1   
  6   3   6  1   
  7   3  24  1   
  8   3  25  1   
  9   4   7  1   
 10   4   8  1   
 11   4  26  1   
 12   5   9  1   
 13   5  27  1   
 14   5  28  1   
 15   6   7  1   
 16   6  29  1   
 17   6  30  1   
 18   7  10  1   
 19   7  31  1   
 20   8  11  ar  
 21   8  12  ar  
 22   9  32  1   
 23  10  13  1   
 24  10  33  1   
 25  10  34  1   
 26  11  14  ar  
 27  11  35  1   
 28  12  15  ar  
 29  12  36  1   
 30  13  16  1   
 31  13  17  2   
 32  14  18  ar  
 33  14  37  1   
 34  15  18  ar  
 35  15  38  1   
 36  16  19  2   
 37  16  39  1   
 38  17  20  1   
 39  17  40  1   
 40  18  41  1   
 41  19  20  1   
 42  20  21  1   
 43  21  22  1   
 44  21  42  1   
 45  21  43  1   
 46  22  44  1   
 47  22  45  1   
 48  22  46  1   
@<TRIPOS>SUBSTRUCTURE
  1 ****   7 GROUP 4 **** **** 0

# MOE 2024.06 (io_trps.svl 2023.06)
