@<TRIPOS>MOLECULE
NONAME
45 48 1 0 0 
SMALL
USER_CHARGES


@<TRIPOS>ATOM
  1 O       -0.6000    -0.2960     1.6810 O.3   1 <1>  -0.5600 
  2 C        0.0930     0.8980     1.8100 C.3   1 <1>   0.1200 
  3 C       -1.9020    -0.0590     1.2380 C.3   1 <1>   0.1200 
  4 C       -0.4470     1.7620     0.6790 C.3   1 <1>   0.2890 
  5 C       -1.9120     1.3520     0.6360 C.3   1 <1>  -0.0800 
  6 N       -0.3040     3.2230     0.9400 N.pl3 1 <1>  -0.8690 
  7 C       -2.5200     1.4190    -0.7740 C.3   1 <1>  -0.0170 
  8 C        0.4790     4.1540     0.3660 C.ar  1 <1>   0.4610 
  9 C       -3.9910     1.0370    -0.7490 C.ar  1 <1>  -0.1440 
 10 N        1.3790     3.8410    -0.5800 N.ar  1 <1>  -0.1790 
 11 C        0.4140     5.5150     0.7120 C.ar  1 <1>   0.0000 
 12 C       -4.9630     1.9260    -0.3360 C.ar  1 <1>  -0.1500 
 13 C       -4.4330    -0.2130    -1.1350 C.ar  1 <1>  -0.1500 
 14 C        2.1860     4.7840    -1.1760 C.ar  1 <1>   0.5280 
 15 C        1.2430     6.4050     0.0800 C.ar  1 <1>   0.1050 
 16 C       -0.3240     6.3120     1.5960 C.2   1 <1>   0.1390 
 17 C       -6.2910     1.5320    -0.3220 C.ar  1 <1>   0.1600 
 18 C       -5.7850    -0.5060    -1.0830 C.ar  1 <1>   0.1600 
 19 N        2.1450     6.0370    -0.8800 N.ar  1 <1>  -0.5670 
 20 C        3.1640     4.3020    -2.2290 C.3   1 <1>  -0.0970 
 21 N        0.9720     7.6280     0.5910 N.pl3 1 <1>   0.3140 
 22 N       -0.0010     7.5600     1.5290 N.2   1 <1>  -0.7070 
 23 N       -6.7230     0.3360    -0.6830 N.ar  1 <1>  -0.6200 
 24 C        1.5980     8.9110     0.2360 C.3   1 <1>   0.0160 
 25 H       -0.1410     1.3120     2.7760 H     1 <1>   0.0800 
 26 H        1.1460     0.7000     1.7240 H     1 <1>   0.0800 
 27 H       -2.1480    -0.8200     0.5180 H     1 <1>   0.0800 
 28 H       -2.5700    -0.1340     2.0800 H     1 <1>   0.0800 
 29 H        0.0440     1.4740    -0.2340 H     1 <1>   0.0800 
 30 H       -2.4870     1.9750     1.2980 H     1 <1>   0.0800 
 31 H       -0.9390     3.5250     1.6920 H     1 <1>   0.4000 
 32 H       -1.9890     0.7610    -1.4400 H     1 <1>   0.0800 
 33 H       -2.4300     2.4200    -1.1600 H     1 <1>   0.0800 
 34 H        1.4750     2.8710    -0.8550 H     1 <1>   0.4570 
 35 H       -4.7080     2.9220    -0.0250 H     1 <1>   0.1500 
 36 H       -3.7460    -0.9650    -1.4760 H     1 <1>   0.1500 
 37 H       -1.0830     5.9390     2.2650 H     1 <1>   0.1500 
 38 H       -7.0370     2.2380     0.0020 H     1 <1>   0.1500 
 39 H       -6.1130    -1.4860    -1.3870 H     1 <1>   0.1500 
 40 H        3.7290     5.1340    -2.6130 H     1 <1>   0.0800 
 41 H        2.6400     3.8460    -3.0490 H     1 <1>   0.0800 
 42 H        3.8550     3.5960    -1.8050 H     1 <1>   0.0800 
 43 H        2.3450     8.7570    -0.5200 H     1 <1>   0.0800 
 44 H        2.0510     9.3340     1.1130 H     1 <1>   0.0800 
 45 H        0.8410     9.5790    -0.1320 H     1 <1>   0.0800 
@<TRIPOS>BOND
  1   1   2  1   
  2   1   3  1   
  3   2   4  1   
  4   2  25  1   
  5   2  26  1   
  6   3   5  1   
  7   3  27  1   
  8   3  28  1   
  9   4   5  1   
 10   4   6  1   
 11   4  29  1   
 12   5   7  1   
 13   5  30  1   
 14   6   8  1   
 15   6  31  1   
 16   7   9  1   
 17   7  32  1   
 18   7  33  1   
 19   8  10  ar  
 20   8  11  ar  
 21   9  12  ar  
 22   9  13  ar  
 23  10  14  ar  
 24  10  34  1   
 25  11  15  ar  
 26  11  16  1   
 27  12  17  ar  
 28  12  35  1   
 29  13  18  ar  
 30  13  36  1   
 31  14  19  ar  
 32  14  20  1   
 33  15  19  ar  
 34  15  21  1   
 35  16  22  2   
 36  16  37  1   
 37  17  23  ar  
 38  17  38  1   
 39  18  23  ar  
 40  18  39  1   
 41  20  40  1   
 42  20  41  1   
 43  20  42  1   
 44  21  22  1   
 45  21  24  1   
 46  24  43  1   
 47  24  44  1   
 48  24  45  1   
@<TRIPOS>SUBSTRUCTURE
  1 ****   6 GROUP 4 **** **** 0

# MOE 2024.06 (io_trps.svl 2023.06)
