@<TRIPOS>MOLECULE
NONAME
42 43 1 0 0 
SMALL
USER_CHARGES


@<TRIPOS>ATOM
  1 N        0.6410     0.5570     0.5880 N.ar  1 <1>  -0.6200 
  2 C        1.4730     0.2810    -0.4110 C.ar  1 <1>   0.1660 
  3 C       -0.1590    -0.4330     0.9620 C.ar  1 <1>   0.1600 
  4 C        1.5240    -0.9490    -1.0520 C.ar  1 <1>  -0.1500 
  5 C        2.4190     1.3940    -0.8770 C.3   1 <1>   0.4870 
  6 C       -0.1840    -1.6930     0.3860 C.ar  1 <1>  -0.1440 
  7 C        0.6800    -1.9630    -0.6540 C.ar  1 <1>  -0.1500 
  8 N        1.7120     2.6690    -1.2450 N.4   1 <1>  -0.9590 
  9 C       -1.1440    -2.7610     0.8890 C.3   1 <1>  -0.0170 
 10 C        1.3990     3.4500    -0.0140 C.3   1 <1>   0.5240 
 11 C        0.5200     2.4670    -2.1160 C.3   1 <1>   0.2630 
 12 C       -2.4710    -2.6930     0.1290 C.3   1 <1>  -0.2400 
 13 C        2.6820     4.1610     0.4010 C.2   1 <1>   0.1080 
 14 N        3.6650     4.3770    -0.4310 N.2   1 <1>  -0.7070 
 15 C        2.9590     4.6430     1.6740 C.2   1 <1>  -0.1500 
 16 N        4.6010     5.0200     0.3000 N.pl3 1 <1>   0.3140 
 17 C        4.1900     5.1850     1.5720 C.2   1 <1>  -0.3020 
 18 C        5.8900     5.4670    -0.2710 C.3   1 <1>   0.0960 
 19 C        6.9890     4.4240    -0.0380 C.3   1 <1>  -0.2400 
 20 H       -0.8360    -0.2290     1.7750 H     1 <1>   0.1500 
 21 H        2.2140    -1.1280    -1.8570 H     1 <1>   0.1500 
 22 H        2.9680     1.0380    -1.7310 H     1 <1>   0.0800 
 23 H        3.1320     1.5920    -0.0940 H     1 <1>   0.0800 
 24 H        0.6970    -2.9270    -1.1340 H     1 <1>   0.1500 
 25 H        2.4270     3.2780    -1.6870 H     1 <1>   0.4500 
 26 H       -1.3250    -2.6250     1.9420 H     1 <1>   0.0800 
 27 H       -0.7050    -3.7350     0.7590 H     1 <1>   0.0800 
 28 H        1.0450     2.8150     0.7800 H     1 <1>   0.0800 
 29 H        0.6500     4.1920    -0.2270 H     1 <1>   0.0800 
 30 H       -0.2240     1.8820    -1.5980 H     1 <1>   0.0800 
 31 H        0.7990     1.9470    -3.0180 H     1 <1>   0.0800 
 32 H        0.0870     3.4170    -2.3860 H     1 <1>   0.0800 
 33 H       -2.9340    -1.7320     0.2660 H     1 <1>   0.0800 
 34 H       -3.1410    -3.4530     0.4900 H     1 <1>   0.0800 
 35 H       -2.3070    -2.8520    -0.9220 H     1 <1>   0.0800 
 36 H        2.3240     4.5910     2.5430 H     1 <1>   0.1500 
 37 H        4.7880     5.6710     2.3230 H     1 <1>   0.1500 
 38 H        6.1610     6.4010     0.1870 H     1 <1>   0.0800 
 39 H        5.7540     5.6310    -1.3240 H     1 <1>   0.0800 
 40 H        7.1400     4.2650     1.0160 H     1 <1>   0.0800 
 41 H        7.9140     4.7680    -0.4660 H     1 <1>   0.0800 
 42 H        6.7240     3.4920    -0.5050 H     1 <1>   0.0800 
@<TRIPOS>BOND
  1   1   2  ar  
  2   1   3  ar  
  3   2   4  ar  
  4   2   5  1   
  5   3   6  ar  
  6   3  20  1   
  7   4   7  ar  
  8   4  21  1   
  9   5   8  1   
 10   5  22  1   
 11   5  23  1   
 12   6   7  ar  
 13   6   9  1   
 14   7  24  1   
 15   8  10  1   
 16   8  11  1   
 17   8  25  1   
 18   9  12  1   
 19   9  26  1   
 20   9  27  1   
 21  10  13  1   
 22  10  28  1   
 23  10  29  1   
 24  11  30  1   
 25  11  31  1   
 26  11  32  1   
 27  12  33  1   
 28  12  34  1   
 29  12  35  1   
 30  13  14  2   
 31  13  15  1   
 32  14  16  1   
 33  15  17  2   
 34  15  36  1   
 35  16  17  1   
 36  16  18  1   
 37  17  37  1   
 38  18  19  1   
 39  18  38  1   
 40  18  39  1   
 41  19  40  1   
 42  19  41  1   
 43  19  42  1   
@<TRIPOS>SUBSTRUCTURE
  1 ****   5 GROUP 4 **** **** 0

# MOE 2024.06 (io_trps.svl 2023.06)
