@<TRIPOS>MOLECULE
NONAME
50 52 1 0 0 
SMALL
USER_CHARGES


@<TRIPOS>ATOM
  1 O       -0.4970     0.6780    -0.1550 O.2   1 <1>  -0.5700 
  2 C       -0.3490     1.8580     0.0360 C.2   1 <1>   0.5690 
  3 N       -1.3880     2.6300     0.4180 N.am  1 <1>  -0.7300 
  4 C        1.0180     2.5070    -0.1940 C.3   1 <1>   0.1810 
  5 C       -1.2850     4.0880     0.6670 C.3   1 <1>   0.3640 
  6 O        1.1430     3.7780     0.4110 O.3   1 <1>  -0.5600 
  7 C       -2.4630     4.7810    -0.0170 C.ar  1 <1>  -0.1440 
  8 C        0.0630     4.6700     0.1600 C.3   1 <1>   0.2610 
  9 C       -3.1590     5.7760     0.6560 C.ar  1 <1>  -0.1500 
 10 C       -2.8520     4.4450    -1.3080 C.ar  1 <1>  -0.1500 
 11 C        0.3470     6.0590     0.7640 C.2   1 <1>   0.5690 
 12 C       -4.2240     6.4210     0.0530 C.ar  1 <1>  -0.1500 
 13 C       -3.9180     5.0890    -1.9120 C.ar  1 <1>  -0.1500 
 14 O       -0.2160     6.3720     1.7920 O.2   1 <1>  -0.5700 
 15 N        1.2090     6.9360     0.1450 N.am  1 <1>  -0.6600 
 16 C       -4.6050     6.0780    -1.2320 C.ar  1 <1>  -0.1500 
 17 C        2.1570     6.5830    -0.9560 C.3   1 <1>   0.1400 
 18 C        1.3870     8.3390     0.6340 C.3   1 <1>   0.1400 
 19 C        3.6070     6.9110    -0.5550 C.3   1 <1>   0.1100 
 20 C        2.8570     8.6180     0.9850 C.3   1 <1>   0.1100 
 21 N        3.7580     8.3250    -0.1550 N.3   1 <1>  -0.8100 
 22 C        5.1790     8.6230     0.2070 C.3   1 <1>   0.1710 
 23 C        5.5110    10.1150     0.3300 C.2   1 <1>   0.5690 
 24 O        6.4210    10.4630     1.0450 O.2   1 <1>  -0.5700 
 25 N        4.7650    11.0020    -0.3820 N.am  1 <1>  -0.7300 
 26 C        4.9350    12.4740    -0.4090 C.3   1 <1>   0.0600 
 27 H       -2.3020     2.1980     0.5630 H     1 <1>   0.3700 
 28 H        1.1880     2.6150    -1.2490 H     1 <1>   0.0800 
 29 H        1.7830     1.8740     0.2170 H     1 <1>   0.0800 
 30 H       -1.3560     4.2370     1.7310 H     1 <1>   0.0800 
 31 H       -0.0100     4.7910    -0.9040 H     1 <1>   0.0800 
 32 H       -2.8720     6.0600     1.6550 H     1 <1>   0.1500 
 33 H       -2.3320     3.6760    -1.8530 H     1 <1>   0.1500 
 34 H       -4.7540     7.1920     0.5840 H     1 <1>   0.1500 
 35 H       -4.2150     4.8200    -2.9110 H     1 <1>   0.1500 
 36 H       -5.4340     6.5790    -1.7000 H     1 <1>   0.1500 
 37 H        2.0970     5.5400    -1.2000 H     1 <1>   0.0800 
 38 H        1.9010     7.1480    -1.8360 H     1 <1>   0.0800 
 39 H        1.0730     9.0210    -0.1360 H     1 <1>   0.0800 
 40 H        0.7770     8.5210     1.5010 H     1 <1>   0.0800 
 41 H        4.2500     6.7070    -1.3930 H     1 <1>   0.0800 
 42 H        3.8990     6.2650     0.2560 H     1 <1>   0.0800 
 43 H        3.1300     8.0160     1.8360 H     1 <1>   0.0800 
 44 H        2.9520     9.6520     1.2680 H     1 <1>   0.0800 
 45 H        5.4290     8.1390     1.1340 H     1 <1>   0.0800 
 46 H        5.8260     8.2260    -0.5540 H     1 <1>   0.0800 
 47 H        3.9900    10.5980    -0.9190 H     1 <1>   0.3700 
 48 H        5.7710    12.7630     0.2060 H     1 <1>   0.0800 
 49 H        4.0460    12.9490    -0.0320 H     1 <1>   0.0800 
 50 H        5.1150    12.8010    -1.4180 H     1 <1>   0.0800 
@<TRIPOS>BOND
  1   1   2  2   
  2   2   3  am  
  3   2   4  1   
  4   3   5  1   
  5   3  27  1   
  6   4   6  1   
  7   4  28  1   
  8   4  29  1   
  9   5   7  1   
 10   5   8  1   
 11   5  30  1   
 12   6   8  1   
 13   7   9  ar  
 14   7  10  ar  
 15   8  11  1   
 16   8  31  1   
 17   9  12  ar  
 18   9  32  1   
 19  10  13  ar  
 20  10  33  1   
 21  11  14  2   
 22  11  15  am  
 23  12  16  ar  
 24  12  34  1   
 25  13  16  ar  
 26  13  35  1   
 27  15  17  1   
 28  15  18  1   
 29  16  36  1   
 30  17  19  1   
 31  17  37  1   
 32  17  38  1   
 33  18  20  1   
 34  18  39  1   
 35  18  40  1   
 36  19  21  1   
 37  19  41  1   
 38  19  42  1   
 39  20  21  1   
 40  20  43  1   
 41  20  44  1   
 42  21  22  1   
 43  22  23  1   
 44  22  45  1   
 45  22  46  1   
 46  23  24  2   
 47  23  25  am  
 48  25  26  1   
 49  25  47  1   
 50  26  48  1   
 51  26  49  1   
 52  26  50  1   
@<TRIPOS>SUBSTRUCTURE
  1 ****  15 GROUP 4 **** **** 0

# MOE 2024.06 (io_trps.svl 2023.06)
