@<TRIPOS>MOLECULE
NONAME
51 53 1 0 0 
SMALL
USER_CHARGES


@<TRIPOS>ATOM
  1 O       -0.1360     0.8930    -1.3150 O.2   1 <1>  -0.5700 
  2 C        1.0080     0.5330    -1.1830 C.2   1 <1>   0.5690 
  3 N        1.9890     1.2780    -0.6000 N.am  1 <1>  -0.4940 
  4 C        1.3660    -0.8590    -1.6640 C.3   1 <1>  -0.0990 
  5 C        1.9260     2.5500     0.0210 C.2   1 <1>  -0.0880 
  6 C        0.7830    -1.9230    -0.7190 C.3   1 <1>  -0.1600 
  7 N        2.9900     3.2450     0.5310 N.pl3 1 <1>   0.3140 
  8 C        0.8300     3.3140     0.2360 C.2   1 <1>  -0.1500 
  9 C        1.0060    -3.3340    -1.2590 C.3   1 <1>   0.3430 
 10 N        2.5770     4.4320     1.0520 N.2   1 <1>  -0.7070 
 11 C        4.4560     2.9090     0.4510 C.3   1 <1>   0.3190 
 12 C        1.2940     4.4540     0.8730 C.2   1 <1>   0.1390 
 13 N        0.4090    -4.3330    -0.3330 N.4   1 <1>  -0.9590 
 14 C        4.7060     1.4020     0.3090 C.ar  1 <1>  -0.1440 
 15 C        5.2480     3.4590     1.6510 C.3   1 <1>  -0.2400 
 16 C        0.7960    -5.7260    -0.6610 C.3   1 <1>   0.3430 
 17 C       -1.0770    -4.3250    -0.3100 C.3   1 <1>   0.3430 
 18 C        5.2540     0.8990    -0.8630 C.ar  1 <1>  -0.1500 
 19 C        4.3680     0.5200     1.3270 C.ar  1 <1>  -0.1500 
 20 C       -0.2360    -6.5840     0.0570 C.3   1 <1>  -0.1600 
 21 C       -1.4570    -5.6830     0.2650 C.3   1 <1>  -0.1600 
 22 C        5.4600    -0.4610    -1.0150 C.ar  1 <1>  -0.1500 
 23 C        4.5760    -0.8400     1.1770 C.ar  1 <1>  -0.1500 
 24 C        5.1220    -1.3320     0.0050 C.ar  1 <1>  -0.1500 
 25 H        2.9080     0.8250    -0.5450 H     1 <1>   0.3700 
 26 H        2.4350    -0.9590    -1.7320 H     1 <1>   0.0800 
 27 H        0.9560    -0.9770    -2.6520 H     1 <1>   0.0800 
 28 H       -0.2720    -1.7330    -0.6160 H     1 <1>   0.0800 
 29 H        1.2460    -1.8210     0.2470 H     1 <1>   0.0800 
 30 H       -0.1920     3.1050    -0.0240 H     1 <1>   0.1500 
 31 H        2.0650    -3.5120    -1.3530 H     1 <1>   0.0800 
 32 H        0.5590    -3.4270    -2.2370 H     1 <1>   0.0800 
 33 H        4.8260     3.4000    -0.4300 H     1 <1>   0.0800 
 34 H        0.6660     5.2730     1.1840 H     1 <1>   0.1500 
 35 H        0.7300    -4.1400     0.6250 H     1 <1>   0.4500 
 36 H        4.8450     3.0890     2.5760 H     1 <1>   0.0800 
 37 H        5.2080     4.5340     1.6580 H     1 <1>   0.0800 
 38 H        6.2780     3.1610     1.5780 H     1 <1>   0.0800 
 39 H        1.8000    -5.9520    -0.3360 H     1 <1>   0.0800 
 40 H        0.7180    -5.8870    -1.7240 H     1 <1>   0.0800 
 41 H       -1.4580    -4.2420    -1.3160 H     1 <1>   0.0800 
 42 H       -1.4660    -3.5150     0.2870 H     1 <1>   0.0800 
 43 H        5.5290     1.5630    -1.6670 H     1 <1>   0.1500 
 44 H        3.9390     0.8880     2.2450 H     1 <1>   0.1500 
 45 H        0.1560    -6.9090     1.0060 H     1 <1>   0.0800 
 46 H       -0.4760    -7.4550    -0.5280 H     1 <1>   0.0800 
 47 H       -2.3290    -6.0690    -0.2340 H     1 <1>   0.0800 
 48 H       -1.6800    -5.5870     1.3140 H     1 <1>   0.0800 
 49 H        5.8950    -0.8390    -1.9250 H     1 <1>   0.1500 
 50 H        4.3220    -1.5120     1.9790 H     1 <1>   0.1500 
 51 H        5.2990    -2.3870    -0.1080 H     1 <1>   0.1500 
@<TRIPOS>BOND
  1   1   2  2   
  2   2   3  am  
  3   2   4  1   
  4   3   5  1   
  5   3  25  1   
  6   4   6  1   
  7   4  26  1   
  8   4  27  1   
  9   5   7  1   
 10   5   8  2   
 11   6   9  1   
 12   6  28  1   
 13   6  29  1   
 14   7  10  1   
 15   7  11  1   
 16   8  12  1   
 17   8  30  1   
 18   9  13  1   
 19   9  31  1   
 20   9  32  1   
 21  10  12  2   
 22  11  14  1   
 23  11  15  1   
 24  11  33  1   
 25  12  34  1   
 26  13  16  1   
 27  13  17  1   
 28  13  35  1   
 29  14  18  ar  
 30  14  19  ar  
 31  15  36  1   
 32  15  37  1   
 33  15  38  1   
 34  16  20  1   
 35  16  39  1   
 36  16  40  1   
 37  17  21  1   
 38  17  41  1   
 39  17  42  1   
 40  18  22  ar  
 41  18  43  1   
 42  19  23  ar  
 43  19  44  1   
 44  20  21  1   
 45  20  45  1   
 46  20  46  1   
 47  21  47  1   
 48  21  48  1   
 49  22  24  ar  
 50  22  49  1   
 51  23  24  ar  
 52  23  50  1   
 53  24  51  1   
@<TRIPOS>SUBSTRUCTURE
  1 ****   3 GROUP 4 **** **** 0

# MOE 2024.06 (io_trps.svl 2023.06)
