@<TRIPOS>MOLECULE
NONAME
45 47 1 0 0 
SMALL
USER_CHARGES


@<TRIPOS>ATOM
  1 S       -0.1950     0.3000    -1.3240 S.3   1 <1>  -0.0800 
  2 C        0.9260    -0.9140    -0.7230 C.2   1 <1>  -0.1400 
  3 C        0.7250     1.5870    -0.5730 C.2   1 <1>  -0.1100 
  4 C        1.9170    -0.3350    -0.0150 C.2   1 <1>  -0.1810 
  5 C        0.6300    -2.3540    -1.0830 C.3   1 <1>   0.5230 
  6 C        1.7960     1.0900     0.0700 C.2   1 <1>  -0.1500 
  7 C        3.0930    -1.0190     0.6620 C.3   1 <1>  -0.0590 
  8 N       -0.2840    -2.9140    -0.0560 N.4   1 <1>  -0.9590 
  9 C       -1.6670    -2.3890    -0.1740 C.3   1 <1>   0.3430 
 10 C       -0.3960    -4.3940    -0.0910 C.3   1 <1>   0.3430 
 11 C       -2.5250    -3.3820     0.5980 C.3   1 <1>  -0.0800 
 12 C       -1.8060    -4.7350     0.4030 C.3   1 <1>  -0.0800 
 13 C       -4.0220    -3.3530     0.1990 C.3   1 <1>   0.2800 
 14 C       -2.5180    -5.6570    -0.6010 C.3   1 <1>  -0.1600 
 15 O       -4.1110    -3.1250    -1.1610 O.3   1 <1>  -0.6800 
 16 C       -4.6630    -4.7220     0.4870 C.3   1 <1>  -0.1600 
 17 C       -4.8270    -2.2390     0.9050 C.3   1 <1>  -0.1600 
 18 C       -3.9840    -5.9140    -0.2190 C.3   1 <1>  -0.1600 
 19 C       -4.3610    -0.7920     0.6610 C.3   1 <1>  -0.2400 
 20 H        0.3650     2.5950    -0.6960 H     1 <1>   0.1500 
 21 H        1.5540    -2.9070    -1.0870 H     1 <1>   0.0800 
 22 H        0.1880    -2.4110    -2.0640 H     1 <1>   0.0800 
 23 H        2.5190     1.6800     0.6080 H     1 <1>   0.1500 
 24 H        4.0150    -0.6430     0.2540 H     1 <1>   0.0800 
 25 H        3.0650    -2.0830     0.5170 H     1 <1>   0.0800 
 26 H        3.0790    -0.8130     1.7180 H     1 <1>   0.0800 
 27 H        0.0740    -2.6160     0.8590 H     1 <1>   0.4500 
 28 H       -1.7480    -1.3910     0.2230 H     1 <1>   0.0800 
 29 H       -1.9640    -2.3810    -1.2110 H     1 <1>   0.0800 
 30 H       -0.2820    -4.7460    -1.1040 H     1 <1>   0.0800 
 31 H        0.3560    -4.8560     0.5290 H     1 <1>   0.0800 
 32 H       -2.4570    -3.1330     1.6420 H     1 <1>   0.0800 
 33 H       -1.7410    -5.2480     1.3470 H     1 <1>   0.0800 
 34 H       -2.4990    -5.1990    -1.5760 H     1 <1>   0.0800 
 35 H       -2.0030    -6.5990    -0.6790 H     1 <1>   0.0800 
 36 H       -5.0480    -3.1740    -1.4350 H     1 <1>   0.4000 
 37 H       -4.6050    -4.8920     1.5490 H     1 <1>   0.0800 
 38 H       -5.7100    -4.7070     0.2380 H     1 <1>   0.0800 
 39 H       -5.8570    -2.3150     0.6000 H     1 <1>   0.0800 
 40 H       -4.8120    -2.4200     1.9660 H     1 <1>   0.0800 
 41 H       -4.0440    -6.7750     0.4260 H     1 <1>   0.0800 
 42 H       -4.5310    -6.1530    -1.1160 H     1 <1>   0.0800 
 43 H       -4.2780    -0.5850    -0.3920 H     1 <1>   0.0800 
 44 H       -3.4190    -0.6000     1.1390 H     1 <1>   0.0800 
 45 H       -5.0820    -0.1090     1.0770 H     1 <1>   0.0800 
@<TRIPOS>BOND
  1   1   2  1   
  2   1   3  1   
  3   2   4  2   
  4   2   5  1   
  5   3   6  2   
  6   3  20  1   
  7   4   6  1   
  8   4   7  1   
  9   5   8  1   
 10   5  21  1   
 11   5  22  1   
 12   6  23  1   
 13   7  24  1   
 14   7  25  1   
 15   7  26  1   
 16   8   9  1   
 17   8  10  1   
 18   8  27  1   
 19   9  11  1   
 20   9  28  1   
 21   9  29  1   
 22  10  12  1   
 23  10  30  1   
 24  10  31  1   
 25  11  12  1   
 26  11  13  1   
 27  11  32  1   
 28  12  14  1   
 29  12  33  1   
 30  13  15  1   
 31  13  16  1   
 32  13  17  1   
 33  14  18  1   
 34  14  34  1   
 35  14  35  1   
 36  15  36  1   
 37  16  18  1   
 38  16  37  1   
 39  16  38  1   
 40  17  19  1   
 41  17  39  1   
 42  17  40  1   
 43  18  41  1   
 44  18  42  1   
 45  19  43  1   
 46  19  44  1   
 47  19  45  1   
@<TRIPOS>SUBSTRUCTURE
  1 ****   9 GROUP 4 **** **** 0

# MOE 2024.06 (io_trps.svl 2023.06)
