@<TRIPOS>MOLECULE
NONAME
46 48 1 0 0 
SMALL
USER_CHARGES


@<TRIPOS>ATOM
  1 S       -2.2340     0.3010    -1.6070 S.3   1 <1>  -0.3320 
  2 C       -2.2360    -0.9300    -0.2950 C.ar  1 <1>   0.1020 
  3 C       -1.6310     1.8780    -0.8570 C.3   1 <1>  -0.0100 
  4 C       -2.6090    -2.2110    -0.6540 C.ar  1 <1>  -0.1500 
  5 C       -1.8920    -0.6270     1.0110 C.ar  1 <1>  -0.1500 
  6 C       -2.6620    -3.2130     0.3050 C.ar  1 <1>  -0.1430 
  7 C       -1.9250    -1.6290     1.9650 C.ar  1 <1>  -0.1500 
  8 C       -2.3050    -2.9150     1.6140 C.ar  1 <1>  -0.1500 
  9 C       -3.0850    -4.6170    -0.0960 C.3   1 <1>   0.4860 
 10 N       -4.5520    -4.8570     0.1160 N.4   1 <1>  -0.9590 
 11 C       -5.3970    -3.9360    -0.7100 C.3   1 <1>   0.4230 
 12 C       -4.8910    -4.8960     1.5750 C.3   1 <1>   0.2630 
 13 C       -6.6620    -4.6470    -1.1740 C.3   1 <1>  -0.1600 
 14 C       -5.9370    -2.6740    -0.0270 C.3   1 <1>  -0.1600 
 15 C       -7.5820    -3.5170    -1.6590 C.3   1 <1>  -0.0800 
 16 C       -7.1070    -2.2410    -0.9200 C.3   1 <1>  -0.0800 
 17 C       -9.0820    -3.8530    -1.5210 C.3   1 <1>   0.1400 
 18 C       -8.2180    -1.4920    -0.1530 C.3   1 <1>  -0.0990 
 19 N       -9.8690    -2.6070    -1.5760 N.am  1 <1>  -0.7300 
 20 C       -9.5020    -1.4670    -0.9540 C.2   1 <1>   0.5690 
 21 O      -10.1700    -0.4690    -1.0200 O.2   1 <1>  -0.5700 
 22 H       -1.5980     2.6170    -1.6380 H     1 <1>   0.0800 
 23 H       -0.6480     1.7030    -0.4580 H     1 <1>   0.0800 
 24 H       -2.3240     2.1690    -0.0880 H     1 <1>   0.0800 
 25 H       -2.8510    -2.4000    -1.6850 H     1 <1>   0.1500 
 26 H       -1.5990     0.3650     1.2970 H     1 <1>   0.1500 
 27 H       -1.6480    -1.4050     2.9830 H     1 <1>   0.1500 
 28 H       -2.3090    -3.6750     2.3770 H     1 <1>   0.1500 
 29 H       -2.5130    -5.3300     0.4760 H     1 <1>   0.0800 
 30 H       -2.8420    -4.7650    -1.1360 H     1 <1>   0.0800 
 31 H       -4.7320    -5.7970    -0.2560 H     1 <1>   0.4500 
 32 H       -4.8510    -3.6340    -1.5900 H     1 <1>   0.0800 
 33 H       -4.6970    -3.9370     2.0290 H     1 <1>   0.0800 
 34 H       -4.2990    -5.6410     2.0810 H     1 <1>   0.0800 
 35 H       -5.9340    -5.1340     1.7110 H     1 <1>   0.0800 
 36 H       -6.4610    -5.3460    -1.9680 H     1 <1>   0.0800 
 37 H       -7.1220    -5.1560    -0.3460 H     1 <1>   0.0800 
 38 H       -6.3190    -2.8860     0.9530 H     1 <1>   0.0800 
 39 H       -5.2010    -1.8930     0.0390 H     1 <1>   0.0800 
 40 H       -7.3930    -3.3630    -2.7090 H     1 <1>   0.0800 
 41 H       -6.7290    -1.5640    -1.6700 H     1 <1>   0.0800 
 42 H       -9.2790    -4.3340    -0.5780 H     1 <1>   0.0800 
 43 H       -9.3900    -4.5130    -2.3140 H     1 <1>   0.0800 
 44 H       -7.9100    -0.4840     0.0580 H     1 <1>   0.0800 
 45 H       -8.4360    -1.9780     0.7790 H     1 <1>   0.0800 
 46 H      -10.7580    -2.5990    -2.0840 H     1 <1>   0.3700 
@<TRIPOS>BOND
  1   1   2  1   
  2   1   3  1   
  3   2   4  ar  
  4   2   5  ar  
  5   3  22  1   
  6   3  23  1   
  7   3  24  1   
  8   4   6  ar  
  9   4  25  1   
 10   5   7  ar  
 11   5  26  1   
 12   6   8  ar  
 13   6   9  1   
 14   7   8  ar  
 15   7  27  1   
 16   8  28  1   
 17   9  10  1   
 18   9  29  1   
 19   9  30  1   
 20  10  11  1   
 21  10  12  1   
 22  10  31  1   
 23  11  13  1   
 24  11  14  1   
 25  11  32  1   
 26  12  33  1   
 27  12  34  1   
 28  12  35  1   
 29  13  15  1   
 30  13  36  1   
 31  13  37  1   
 32  14  16  1   
 33  14  38  1   
 34  14  39  1   
 35  15  16  1   
 36  15  17  1   
 37  15  40  1   
 38  16  18  1   
 39  16  41  1   
 40  17  19  1   
 41  17  42  1   
 42  17  43  1   
 43  18  20  1   
 44  18  44  1   
 45  18  45  1   
 46  19  20  am  
 47  19  46  1   
 48  20  21  2   
@<TRIPOS>SUBSTRUCTURE
  1 ****  14 GROUP 4 **** **** 0

# MOE 2024.06 (io_trps.svl 2023.06)
