@<TRIPOS>MOLECULE
NONAME
50 52 1 0 0 
SMALL
USER_CHARGES


@<TRIPOS>ATOM
  1 O       -0.9270    -2.2220    -1.0550 O.2   1 <1>  -0.5700 
  2 C        0.2270    -2.5550    -0.9760 C.2   1 <1>   0.5690 
  3 N        0.9940    -2.7170    -2.0740 N.am  1 <1>  -0.7300 
  4 C        0.8670    -2.8200     0.3690 C.3   1 <1>  -0.0990 
  5 C        2.4110    -3.1330    -2.0150 C.3   1 <1>   0.1400 
  6 C        2.2780    -2.2030     0.4310 C.3   1 <1>  -0.0800 
  7 C        3.1190    -2.4040    -0.8550 C.3   1 <1>  -0.0800 
  8 C        3.1210    -2.7450     1.5940 C.3   1 <1>  -0.1600 
  9 C        4.4080    -3.1070    -0.4120 C.3   1 <1>  -0.1600 
 10 C        4.5520    -2.7380     1.0600 C.3   1 <1>   0.2200 
 11 N        5.4970    -3.6430     1.7850 N.am  1 <1>  -0.6600 
 12 C        6.7840    -3.2660     2.1160 C.2   1 <1>   0.5690 
 13 C        5.0290    -5.0260     2.1130 C.3   1 <1>   0.0600 
 14 O        7.5140    -4.0060     2.7370 O.2   1 <1>  -0.5700 
 15 C        7.3570    -1.8960     1.7560 C.3   1 <1>   0.1810 
 16 O        7.3200    -1.6620     0.3580 O.3   1 <1>  -0.3630 
 17 C        7.8650    -0.4990    -0.0510 C.ar  1 <1>   0.0820 
 18 C        9.1880    -0.4440    -0.4870 C.ar  1 <1>  -0.1430 
 19 C        7.0720     0.6370    -0.0320 C.ar  1 <1>  -0.1500 
 20 C        9.7160     0.7840    -0.8780 C.ar  1 <1>  -0.1430 
 21 C       10.0410    -1.7120    -0.5280 C.3   1 <1>  -0.0970 
 22 C        7.6000     1.8490    -0.4300 C.ar  1 <1>  -0.1500 
 23 C        8.9170     1.9190    -0.8470 C.ar  1 <1>  -0.1500 
 24 C       11.1580     0.9240    -1.3450 C.3   1 <1>  -0.0970 
 25 H        0.5540    -2.5740    -2.9850 H     1 <1>   0.3700 
 26 H        0.2480    -2.4130     1.1480 H     1 <1>   0.0800 
 27 H        0.9140    -3.8850     0.4980 H     1 <1>   0.0800 
 28 H        2.4450    -4.1980    -1.8640 H     1 <1>   0.0800 
 29 H        2.9000    -2.9040    -2.9470 H     1 <1>   0.0800 
 30 H        2.1600    -1.1400     0.5670 H     1 <1>   0.0800 
 31 H        3.3910    -1.4250    -1.2140 H     1 <1>   0.0800 
 32 H        2.8030    -3.7440     1.8260 H     1 <1>   0.0800 
 33 H        3.0270    -2.1300     2.4710 H     1 <1>   0.0800 
 34 H        5.2560    -2.7760    -0.9850 H     1 <1>   0.0800 
 35 H        4.3030    -4.1710    -0.5140 H     1 <1>   0.0800 
 36 H        4.8990    -1.7210     1.1120 H     1 <1>   0.0800 
 37 H        4.4220    -5.4210     1.3190 H     1 <1>   0.0800 
 38 H        4.4560    -5.0060     3.0230 H     1 <1>   0.0800 
 39 H        5.8660    -5.6890     2.2520 H     1 <1>   0.0800 
 40 H        8.3830    -1.8440     2.0730 H     1 <1>   0.0800 
 41 H        6.7970    -1.1240     2.2490 H     1 <1>   0.0800 
 42 H        6.0500     0.5710     0.2910 H     1 <1>   0.1500 
 43 H       10.6120    -1.7530    -1.4370 H     1 <1>   0.0800 
 44 H        9.4360    -2.5990    -0.4910 H     1 <1>   0.0800 
 45 H       10.7140    -1.7240     0.3100 H     1 <1>   0.0800 
 46 H        6.9920     2.7370    -0.4160 H     1 <1>   0.1500 
 47 H        9.3170     2.8700    -1.1520 H     1 <1>   0.1500 
 48 H       11.4300     1.9590    -1.4520 H     1 <1>   0.0800 
 49 H       11.2830     0.4410    -2.2970 H     1 <1>   0.0800 
 50 H       11.8250     0.4760    -0.6320 H     1 <1>   0.0800 
@<TRIPOS>BOND
  1   1   2  2   
  2   2   3  am  
  3   2   4  1   
  4   3   5  1   
  5   3  25  1   
  6   4   6  1   
  7   4  26  1   
  8   4  27  1   
  9   5   7  1   
 10   5  28  1   
 11   5  29  1   
 12   6   7  1   
 13   6   8  1   
 14   6  30  1   
 15   7   9  1   
 16   7  31  1   
 17   8  10  1   
 18   8  32  1   
 19   8  33  1   
 20   9  10  1   
 21   9  34  1   
 22   9  35  1   
 23  10  11  1   
 24  10  36  1   
 25  11  12  am  
 26  11  13  1   
 27  12  14  2   
 28  12  15  1   
 29  13  37  1   
 30  13  38  1   
 31  13  39  1   
 32  15  16  1   
 33  15  40  1   
 34  15  41  1   
 35  16  17  1   
 36  17  18  ar  
 37  17  19  ar  
 38  18  20  ar  
 39  18  21  1   
 40  19  22  ar  
 41  19  42  1   
 42  20  23  ar  
 43  20  24  1   
 44  21  43  1   
 45  21  44  1   
 46  21  45  1   
 47  22  23  ar  
 48  22  46  1   
 49  23  47  1   
 50  24  48  1   
 51  24  49  1   
 52  24  50  1   
@<TRIPOS>SUBSTRUCTURE
  1 ****  10 GROUP 4 **** **** 0

# MOE 2024.06 (io_trps.svl 2023.06)
