@<TRIPOS>MOLECULE
NONAME
51 53 1 0 0 
SMALL
USER_CHARGES


@<TRIPOS>ATOM
  1 F        2.7500    -1.8760     2.2470 F     1 <1>  -0.1900 
  2 C        1.8370    -2.4470     1.5090 C.ar  1 <1>   0.1900 
  3 C        2.1640    -2.8930     0.2380 C.ar  1 <1>  -0.1440 
  4 C        0.5660    -2.5830     2.0340 C.ar  1 <1>  -0.1500 
  5 C        1.1670    -3.4970    -0.5120 C.ar  1 <1>  -0.1500 
  6 C        3.5680    -2.7250    -0.3230 C.3   1 <1>  -0.0960 
  7 C       -0.4100    -3.1890     1.2640 C.ar  1 <1>  -0.1500 
  8 C       -0.1320    -3.6660    -0.0210 C.ar  1 <1>   0.0860 
  9 C       -1.1520    -4.3120    -0.8320 C.2   1 <1>   0.5440 
 10 O       -1.1690    -4.1150    -2.0330 O.2   1 <1>  -0.5700 
 11 N       -2.0930    -5.1610    -0.2780 N.am  1 <1>  -0.6600 
 12 C       -3.3300    -5.5140    -1.0470 C.3   1 <1>   0.2200 
 13 C       -1.6670    -6.1250     0.7830 C.3   1 <1>   0.0600 
 14 C       -4.1040    -4.2740    -1.4940 C.3   1 <1>  -0.1600 
 15 C       -4.3760    -6.2680    -0.2220 C.3   1 <1>  -0.1600 
 16 C       -5.5280    -4.7660    -1.7810 C.3   1 <1>  -0.0800 
 17 C       -5.7080    -6.0460    -0.9520 C.3   1 <1>  -0.0800 
 18 C       -6.6150    -3.7870    -1.3250 C.3   1 <1>  -0.1600 
 19 C       -6.8930    -5.7920    -0.0110 C.3   1 <1>  -0.1600 
 20 C       -6.9920    -4.2710     0.0730 C.3   1 <1>   0.4230 
 21 N       -8.3220    -3.7950     0.5640 N.4   1 <1>  -0.9590 
 22 C       -9.4880    -4.1270    -0.3210 C.3   1 <1>   0.2630 
 23 C       -8.2850    -2.3240     0.8310 C.3   1 <1>   0.2630 
 24 H        0.3530    -2.2180     3.0220 H     1 <1>   0.1500 
 25 H        1.3830    -3.8500    -1.5060 H     1 <1>   0.1500 
 26 H        3.6360    -3.1220    -1.3200 H     1 <1>   0.0800 
 27 H        4.2760    -3.2410     0.3000 H     1 <1>   0.0800 
 28 H        3.8280    -1.6820    -0.3520 H     1 <1>   0.0800 
 29 H       -1.4060    -3.2950     1.6560 H     1 <1>   0.1500 
 30 H       -3.0590    -6.0970    -1.9120 H     1 <1>   0.0800 
 31 H       -2.2420    -5.9650     1.6780 H     1 <1>   0.0800 
 32 H       -0.6240    -6.0030     1.0180 H     1 <1>   0.0800 
 33 H       -1.8100    -7.1350     0.4420 H     1 <1>   0.0800 
 34 H       -4.0980    -3.5520    -0.6960 H     1 <1>   0.0800 
 35 H       -3.6700    -3.8340    -2.3750 H     1 <1>   0.0800 
 36 H       -4.1440    -7.3160    -0.1560 H     1 <1>   0.0800 
 37 H       -4.4220    -5.8410     0.7640 H     1 <1>   0.0800 
 38 H       -5.6230    -4.9860    -2.8320 H     1 <1>   0.0800 
 39 H       -5.9060    -6.8830    -1.6030 H     1 <1>   0.0800 
 40 H       -7.4420    -3.8750    -2.0050 H     1 <1>   0.0800 
 41 H       -6.2610    -2.7710    -1.3240 H     1 <1>   0.0800 
 42 H       -6.7430    -6.2410     0.9550 H     1 <1>   0.0800 
 43 H       -7.7700    -6.2130    -0.4660 H     1 <1>   0.0800 
 44 H       -6.2220    -3.9370     0.7520 H     1 <1>   0.0800 
 45 H       -8.4770    -4.2700     1.4650 H     1 <1>   0.4500 
 46 H       -9.3900    -3.6360    -1.2750 H     1 <1>   0.0800 
 47 H      -10.4070    -3.8010     0.1370 H     1 <1>   0.0800 
 48 H       -9.5510    -5.1900    -0.4850 H     1 <1>   0.0800 
 49 H       -8.1260    -1.7810    -0.0870 H     1 <1>   0.0800 
 50 H       -7.4850    -2.0870     1.5130 H     1 <1>   0.0800 
 51 H       -9.2150    -1.9980     1.2670 H     1 <1>   0.0800 
@<TRIPOS>BOND
  1   1   2  1   
  2   2   3  ar  
  3   2   4  ar  
  4   3   5  ar  
  5   3   6  1   
  6   4   7  ar  
  7   4  24  1   
  8   5   8  ar  
  9   5  25  1   
 10   6  26  1   
 11   6  27  1   
 12   6  28  1   
 13   7   8  ar  
 14   7  29  1   
 15   8   9  1   
 16   9  10  2   
 17   9  11  am  
 18  11  12  1   
 19  11  13  1   
 20  12  14  1   
 21  12  15  1   
 22  12  30  1   
 23  13  31  1   
 24  13  32  1   
 25  13  33  1   
 26  14  16  1   
 27  14  34  1   
 28  14  35  1   
 29  15  17  1   
 30  15  36  1   
 31  15  37  1   
 32  16  17  1   
 33  16  18  1   
 34  16  38  1   
 35  17  19  1   
 36  17  39  1   
 37  18  20  1   
 38  18  40  1   
 39  18  41  1   
 40  19  20  1   
 41  19  42  1   
 42  19  43  1   
 43  20  21  1   
 44  20  44  1   
 45  21  22  1   
 46  21  23  1   
 47  21  45  1   
 48  22  46  1   
 49  22  47  1   
 50  22  48  1   
 51  23  49  1   
 52  23  50  1   
 53  23  51  1   
@<TRIPOS>SUBSTRUCTURE
  1 ****  11 GROUP 4 **** **** 0

# MOE 2024.06 (io_trps.svl 2023.06)
