@<TRIPOS>MOLECULE
NONAME
23 23 1 0 0 
SMALL
USER_CHARGES


@<TRIPOS>ATOM
  1 O        0.8140    -0.5370    -0.5540 O.co2 1 <1>  -0.9000 
  2 C        1.7890    -0.9680     0.0870 C.2   1 <1>   0.9060 
  3 O        1.7840    -2.1050     0.5730 O.co2 1 <1>  -0.9000 
  4 C        2.9610    -0.0180     0.4010 C.3   1 <1>   0.0940 
  5 O        4.2210    -0.4350    -0.1230 O.3   1 <1>  -0.5600 
  6 C        2.6900     1.4070    -0.1130 C.3   1 <1>   0.2000 
  7 C        5.3160     0.3120     0.3030 C.3   1 <1>   0.4460 
  8 O        1.4690     1.8860     0.3490 O.3   1 <1>  -0.6800 
  9 C        3.8170     2.3310     0.3530 C.3   1 <1>   0.2000 
 10 N        6.4750    -0.3090    -0.2990 N.2   1 <1>  -0.5640 
 11 C        5.1640     1.7880    -0.1320 C.3   1 <1>   0.2000 
 12 O        3.6010     3.6300    -0.1040 O.3   1 <1>  -0.6800 
 13 N        7.3120    -0.7800     0.4910 N.1   1 <1>   0.6880 
 14 O        6.1830     2.5960     0.3820 O.3   1 <1>  -0.6800 
 15 N        8.1410    -1.2360     1.2840 N.1   1 <1>  -0.3700 
 16 H        3.0510    -0.0030     1.4700 H     1 <1>   0.0800 
 17 H        2.6380     1.3810    -1.1880 H     1 <1>   0.0800 
 18 H        5.3560     0.2480     1.3780 H     1 <1>   0.0800 
 19 H        0.8030     1.1910     0.0740 H     1 <1>   0.4000 
 20 H        3.8130     2.3560     1.4290 H     1 <1>   0.0800 
 21 H        5.2080     1.8370    -1.2060 H     1 <1>   0.0800 
 22 H        2.6360     3.7960    -0.0170 H     1 <1>   0.4000 
 23 H        5.9260     3.5270     0.2100 H     1 <1>   0.4000 
@<TRIPOS>BOND
  1   1   2  ar  
  2   2   3  ar  
  3   2   4  1   
  4   4   5  1   
  5   4   6  1   
  6   4  16  1   
  7   5   7  1   
  8   6   8  1   
  9   6   9  1   
 10   6  17  1   
 11   7  10  1   
 12   7  11  1   
 13   7  18  1   
 14   8  19  1   
 15   9  11  1   
 16   9  12  1   
 17   9  20  1   
 18  10  13  2   
 19  11  14  1   
 20  11  21  1   
 21  12  22  1   
 22  13  15  3   
 23  14  23  1   
@<TRIPOS>SUBSTRUCTURE
  1 ****   5 GROUP 4 **** **** 0

# MOE 2024.06 (io_trps.svl 2023.06)
