@<TRIPOS>MOLECULE
NONAME
48 51 1 0 0 
SMALL
USER_CHARGES


@<TRIPOS>ATOM
  1 O        0.0160     0.2540     2.2540 O.2   1 <1>  -0.5700 
  2 C        0.3670    -0.8620     1.9450 C.2   1 <1>   0.5690 
  3 N        1.3670    -1.0920     1.0110 N.am  1 <1>  -0.4770 
  4 C       -0.3770    -2.0170     2.6500 C.3   1 <1>   0.1710 
  5 C        1.8230    -0.1260     0.0610 C.ar  1 <1>   0.1170 
  6 C        2.2490    -2.2860     1.2040 C.3   1 <1>   0.1400 
  7 N       -1.4690    -2.7030     1.8870 N.3   1 <1>  -0.8100 
  8 C        3.1120    -0.2170    -0.4870 C.ar  1 <1>   0.0820 
  9 C        1.0260     0.9330    -0.3730 C.ar  1 <1>  -0.1500 
 10 C        3.2530    -2.4780     0.0640 C.3   1 <1>   0.1200 
 11 C       -2.1830    -1.8700     0.8990 C.3   1 <1>   0.1100 
 12 C       -1.1450    -3.9960     1.2630 C.3   1 <1>   0.1100 
 13 O        3.9200    -1.2670    -0.2000 O.3   1 <1>  -0.3630 
 14 C        3.5970     0.7370    -1.3640 C.ar  1 <1>  -0.1500 
 15 C        1.5030     1.8830    -1.2610 C.ar  1 <1>  -0.1500 
 16 C       -2.7940    -2.8670    -0.0760 C.3   1 <1>   0.2000 
 17 C       -1.7370    -3.9670    -0.1540 C.3   1 <1>  -0.0800 
 18 C        2.7930     1.7930    -1.7520 C.ar  1 <1>  -0.1500 
 19 O       -3.9220    -3.4020     0.5160 O.3   1 <1>  -0.6800 
 20 C       -0.6620    -3.6500    -1.2150 C.3   1 <1>  -0.0160 
 21 C        0.2370    -4.8500    -1.4850 C.ar  1 <1>   0.1670 
 22 N        1.3050    -5.0010    -0.7150 N.ar  1 <1>  -0.6200 
 23 C       -0.0960    -5.7300    -2.5150 C.ar  1 <1>   0.1600 
 24 C        2.0050    -6.0760    -1.0410 C.ar  1 <1>   0.1600 
 25 N        0.6040    -6.8030    -2.8420 N.ar  1 <1>  -0.6200 
 26 C        1.6660    -6.9470    -2.0700 C.ar  1 <1>   0.1600 
 27 H       -0.8350    -1.5870     3.5220 H     1 <1>   0.0800 
 28 H        0.3250    -2.7440     3.0130 H     1 <1>   0.0800 
 29 H        2.7940    -2.1660     2.1240 H     1 <1>   0.0800 
 30 H        1.6610    -3.1760     1.2790 H     1 <1>   0.0800 
 31 H        0.0190     1.0350    -0.0160 H     1 <1>   0.1500 
 32 H        2.7500    -2.7820    -0.8370 H     1 <1>   0.0800 
 33 H        3.9890    -3.2170     0.3210 H     1 <1>   0.0800 
 34 H       -2.9270    -1.2480     1.3680 H     1 <1>   0.0800 
 35 H       -1.4990    -1.2470     0.3520 H     1 <1>   0.0800 
 36 H       -0.0920    -4.1920     1.2580 H     1 <1>   0.0800 
 37 H       -1.6230    -4.7750     1.8340 H     1 <1>   0.0800 
 38 H        4.5970     0.6440    -1.7450 H     1 <1>   0.1500 
 39 H        0.8690     2.6970    -1.5660 H     1 <1>   0.1500 
 40 H       -3.0700    -2.4400    -1.0250 H     1 <1>   0.0800 
 41 H       -2.1940    -4.9110    -0.4000 H     1 <1>   0.0800 
 42 H        3.1670     2.5360    -2.4340 H     1 <1>   0.1500 
 43 H       -3.7010    -3.5540     1.4590 H     1 <1>   0.4000 
 44 H       -0.0600    -2.8130    -0.9040 H     1 <1>   0.0800 
 45 H       -1.1450    -3.3700    -2.1340 H     1 <1>   0.0800 
 46 H       -0.9820    -5.5390    -3.0950 H     1 <1>   0.1500 
 47 H        2.8910    -6.2820    -0.4690 H     1 <1>   0.1500 
 48 H        2.2990    -7.7960    -2.2600 H     1 <1>   0.1500 
@<TRIPOS>BOND
  1   1   2  2   
  2   2   3  am  
  3   2   4  1   
  4   3   5  1   
  5   3   6  1   
  6   4   7  1   
  7   4  27  1   
  8   4  28  1   
  9   5   8  ar  
 10   5   9  ar  
 11   6  10  1   
 12   6  29  1   
 13   6  30  1   
 14   7  11  1   
 15   7  12  1   
 16   8  13  1   
 17   8  14  ar  
 18   9  15  ar  
 19   9  31  1   
 20  10  13  1   
 21  10  32  1   
 22  10  33  1   
 23  11  16  1   
 24  11  34  1   
 25  11  35  1   
 26  12  17  1   
 27  12  36  1   
 28  12  37  1   
 29  14  18  ar  
 30  14  38  1   
 31  15  18  ar  
 32  15  39  1   
 33  16  17  1   
 34  16  19  1   
 35  16  40  1   
 36  17  20  1   
 37  17  41  1   
 38  18  42  1   
 39  19  43  1   
 40  20  21  1   
 41  20  44  1   
 42  20  45  1   
 43  21  22  ar  
 44  21  23  ar  
 45  22  24  ar  
 46  23  25  ar  
 47  23  46  1   
 48  24  26  ar  
 49  24  47  1   
 50  25  26  ar  
 51  26  48  1   
@<TRIPOS>SUBSTRUCTURE
  1 ****   3 GROUP 4 **** **** 0

# MOE 2024.06 (io_trps.svl 2023.06)
