@<TRIPOS>MOLECULE
NONAME
48 50 1 0 0 
SMALL
USER_CHARGES


@<TRIPOS>ATOM
  1 O        1.9230     1.6560    -1.1660 O.3   1 <1>  -0.0190 
  2 N        2.6450     0.6010    -0.9380 N.2   1 <1>  -0.4100 
  3 C        0.8520     1.6900    -0.4170 C.2   1 <1>  -0.0400 
  4 C        2.0150    -0.0740    -0.0430 C.2   1 <1>   0.1080 
  5 C        0.8450     0.5800     0.3360 C.2   1 <1>  -0.1500 
  6 C       -0.1030     2.8670    -0.5110 C.3   1 <1>   0.0200 
  7 C        2.4880    -1.3970     0.5170 C.3   1 <1>  -0.0590 
  8 C        0.5460     4.1520     0.0330 C.3   1 <1>  -0.0800 
  9 C       -0.3210     5.3940    -0.1430 C.3   1 <1>   0.2000 
 10 C        1.8560     4.5240    -0.6580 C.3   1 <1>   0.2090 
 11 O       -1.2450     5.4810     0.8850 O.3   1 <1>  -0.6800 
 12 C        0.6560     6.5760    -0.1420 C.3   1 <1>   0.2090 
 13 N        1.9900     6.0000    -0.5090 N.pl3 1 <1>  -0.8380 
 14 C        3.1280     6.7380    -0.6620 C.ar  1 <1>   0.4610 
 15 N        4.2600     6.1310    -1.0550 N.ar  1 <1>  -0.1790 
 16 C        3.2210     8.0950    -0.4440 C.ar  1 <1>  -0.1500 
 17 C        5.4130     6.8060    -1.2240 C.ar  1 <1>   0.7710 
 18 C        4.4310     8.7290    -0.6340 C.ar  1 <1>   0.3930 
 19 N        5.5340     8.0930    -1.0240 N.ar  1 <1>  -0.6200 
 20 N        6.5110     6.1570    -1.6160 N.pl3 1 <1>  -0.9000 
 21 O        4.4740    10.0400    -0.4100 O.3   1 <1>  -0.3620 
 22 C        5.6320    10.8420    -0.5190 C.3   1 <1>   0.2000 
 23 C        6.4130    10.7520     0.7930 C.3   1 <1>  -0.2400 
 24 C        5.1690    12.2700    -0.7910 C.3   1 <1>  -0.2400 
 25 H        0.1330     0.2430     1.0670 H     1 <1>   0.1500 
 26 H       -0.3960     2.9970    -1.5380 H     1 <1>   0.0800 
 27 H       -0.9900     2.6490     0.0590 H     1 <1>   0.0800 
 28 H        2.6230    -1.3180     1.5790 H     1 <1>   0.0800 
 29 H        3.4240    -1.6740     0.0660 H     1 <1>   0.0800 
 30 H        1.7630    -2.1610     0.3070 H     1 <1>   0.0800 
 31 H        0.7680     4.0150     1.0780 H     1 <1>   0.0800 
 32 H       -0.8580     5.3700    -1.0770 H     1 <1>   0.0800 
 33 H        1.8030     4.2770    -1.7070 H     1 <1>   0.0800 
 34 H        2.6800     4.0000    -0.2010 H     1 <1>   0.0800 
 35 H       -0.8140     5.4380     1.7610 H     1 <1>   0.4000 
 36 H        0.7110     7.0170     0.8390 H     1 <1>   0.0800 
 37 H        0.3480     7.3140    -0.8620 H     1 <1>   0.0800 
 38 H        4.2470     5.1410    -1.2400 H     1 <1>   0.4570 
 39 H        2.3740     8.6730    -0.1290 H     1 <1>   0.1500 
 40 H        6.6270     5.1630    -1.8180 H     1 <1>   0.4000 
 41 H        7.3690     6.7070    -1.7330 H     1 <1>   0.4000 
 42 H        6.2270    10.4930    -1.3470 H     1 <1>   0.0800 
 43 H        5.8040    11.0760     1.6180 H     1 <1>   0.0800 
 44 H        7.2830    11.3820     0.7430 H     1 <1>   0.0800 
 45 H        6.7430     9.7430     0.9650 H     1 <1>   0.0800 
 46 H        4.5520    12.6280     0.0150 H     1 <1>   0.0800 
 47 H        4.6130    12.3090    -1.7100 H     1 <1>   0.0800 
 48 H        6.0200    12.9200    -0.8840 H     1 <1>   0.0800 
@<TRIPOS>BOND
  1   1   2  1   
  2   1   3  1   
  3   2   4  2   
  4   3   5  2   
  5   3   6  1   
  6   4   5  1   
  7   4   7  1   
  8   5  25  1   
  9   6   8  1   
 10   6  26  1   
 11   6  27  1   
 12   7  28  1   
 13   7  29  1   
 14   7  30  1   
 15   8   9  1   
 16   8  10  1   
 17   8  31  1   
 18   9  11  1   
 19   9  12  1   
 20   9  32  1   
 21  10  13  1   
 22  10  33  1   
 23  10  34  1   
 24  11  35  1   
 25  12  13  1   
 26  12  36  1   
 27  12  37  1   
 28  13  14  1   
 29  14  15  ar  
 30  14  16  ar  
 31  15  17  ar  
 32  15  38  1   
 33  16  18  ar  
 34  16  39  1   
 35  17  19  ar  
 36  17  20  1   
 37  18  19  ar  
 38  18  21  1   
 39  20  40  1   
 40  20  41  1   
 41  21  22  1   
 42  22  23  1   
 43  22  24  1   
 44  22  42  1   
 45  23  43  1   
 46  23  44  1   
 47  23  45  1   
 48  24  46  1   
 49  24  47  1   
 50  24  48  1   
@<TRIPOS>SUBSTRUCTURE
  1 ****  13 GROUP 4 **** **** 0

# MOE 2024.06 (io_trps.svl 2023.06)
