@<TRIPOS>MOLECULE
NONAME
37 38 1 0 0 
SMALL
USER_CHARGES


@<TRIPOS>ATOM
  1 F       -1.0650    -0.7410     2.3390 F     1 <1>  -0.1900 
  2 C       -1.5500    -1.2770     1.2530 C.ar  1 <1>   0.1900 
  3 C       -2.0210    -2.5870     1.2450 C.ar  1 <1>  -0.1440 
  4 C       -1.5670    -0.4610     0.1390 C.ar  1 <1>  -0.1500 
  5 C       -2.5510    -3.0650     0.0350 C.ar  1 <1>  -0.1440 
  6 C       -1.9640    -3.4730     2.5040 C.3   1 <1>   1.1640 
  7 C       -2.0730    -0.9550    -1.0450 C.ar  1 <1>  -0.1500 
  8 C       -2.5580    -2.2480    -1.0910 C.ar  1 <1>  -0.1500 
  9 C       -3.1400    -4.4630    -0.1450 C.3   1 <1>   0.4860 
 10 F       -1.3580    -2.9700     3.5680 F     1 <1>  -0.3400 
 11 F       -3.1890    -3.7920     2.9020 F     1 <1>  -0.3400 
 12 F       -1.3530    -4.6210     2.2540 F     1 <1>  -0.3400 
 13 N       -4.6270    -4.3130    -0.2500 N.4   1 <1>  -0.9590 
 14 C       -5.1200    -5.0290    -1.4850 C.3   1 <1>   0.3430 
 15 C       -5.2600    -4.7980     1.0250 C.3   1 <1>   0.3430 
 16 C       -5.4760    -6.4840    -1.2030 C.3   1 <1>  -0.1860 
 17 C       -6.6650    -5.3290     0.7660 C.3   1 <1>  -0.1600 
 18 C       -4.1520    -7.1170    -0.8700 C.2   1 <1>   0.9060 
 19 C       -6.6070    -6.5560    -0.1530 C.3   1 <1>   0.2000 
 20 O       -3.2740    -7.0380    -1.7290 O.co2 1 <1>  -0.9000 
 21 O       -3.9020    -7.4410     0.2950 O.co2 1 <1>  -0.9000 
 22 O       -6.4400    -7.6650     0.6400 O.3   1 <1>  -0.6800 
 23 H       -1.1860     0.5440     0.2020 H     1 <1>   0.1500 
 24 H       -2.0840    -0.3350    -1.9270 H     1 <1>   0.1500 
 25 H       -2.9400    -2.6180    -2.0290 H     1 <1>   0.1500 
 26 H       -2.8840    -5.1350     0.6590 H     1 <1>   0.0800 
 27 H       -2.7440    -4.8950    -1.0510 H     1 <1>   0.0800 
 28 H       -4.8030    -3.3100    -0.3590 H     1 <1>   0.4500 
 29 H       -6.0000    -4.5320    -1.8570 H     1 <1>   0.0800 
 30 H       -4.3670    -4.9940    -2.2590 H     1 <1>   0.0800 
 31 H       -4.6720    -5.6020     1.4420 H     1 <1>   0.0800 
 32 H       -5.2930    -4.0000     1.7480 H     1 <1>   0.0800 
 33 H       -5.8200    -6.9390    -2.1110 H     1 <1>   0.0800 
 34 H       -7.2560    -4.5550     0.3110 H     1 <1>   0.0800 
 35 H       -7.1380    -5.5920     1.6960 H     1 <1>   0.0800 
 36 H       -7.5610    -6.6700    -0.6420 H     1 <1>   0.0800 
 37 H       -5.4520    -7.8130     0.7490 H     1 <1>   0.4000 
@<TRIPOS>BOND
  1   1   2  1   
  2   2   3  ar  
  3   2   4  ar  
  4   3   5  ar  
  5   3   6  1   
  6   4   7  ar  
  7   4  23  1   
  8   5   8  ar  
  9   5   9  1   
 10   6  10  1   
 11   6  11  1   
 12   6  12  1   
 13   7   8  ar  
 14   7  24  1   
 15   8  25  1   
 16   9  13  1   
 17   9  26  1   
 18   9  27  1   
 19  13  14  1   
 20  13  15  1   
 21  13  28  1   
 22  14  16  1   
 23  14  29  1   
 24  14  30  1   
 25  15  17  1   
 26  15  31  1   
 27  15  32  1   
 28  16  18  1   
 29  16  19  1   
 30  16  33  1   
 31  17  19  1   
 32  17  34  1   
 33  17  35  1   
 34  18  20  ar  
 35  18  21  ar  
 36  19  22  1   
 37  19  36  1   
 38  22  37  1   
@<TRIPOS>SUBSTRUCTURE
  1 ****   9 GROUP 4 **** **** 0

# MOE 2024.06 (io_trps.svl 2023.06)
