@<TRIPOS>MOLECULE
NONAME
50 53 1 0 0 
SMALL
USER_CHARGES


@<TRIPOS>ATOM
  1 O       -0.6610     0.0090    -0.0470 O.2   1 <1>  -0.5700 
  2 C       -1.4040     0.6770     0.6560 C.2   1 <1>   0.7160 
  3 N       -2.5780     0.0960     1.0880 N.am  1 <1>  -0.6600 
  4 C       -1.0820     2.0240     1.0020 C.2   1 <1>  -0.0860 
  5 C       -2.7410    -1.3910     1.0810 C.3   1 <1>   0.1400 
  6 C       -3.8820     0.8130     0.9440 C.3   1 <1>   0.1400 
  7 C       -0.3140     2.9570     0.3500 C.2   1 <1>  -0.0680 
  8 C       -1.5090     2.7230     2.1410 C.2   1 <1>   0.1390 
  9 C       -3.5970    -1.8420    -0.1150 C.3   1 <1>   0.3440 
 10 C       -4.6950     0.2470    -0.2440 C.3   1 <1>   0.2000 
 11 N       -0.3400     4.0810     1.0830 N.pl3 1 <1>   0.6010 
 12 N        0.4590     3.1580    -0.7760 N.pl3 1 <1>  -0.5530 
 13 N       -1.0900     3.9510     2.2050 N.2   1 <1>  -0.7070 
 14 O       -4.8150    -1.1430    -0.1110 O.3   1 <1>  -0.5600 
 15 C       -3.8640    -3.3430    -0.0460 C.ar  1 <1>  -0.1430 
 16 C       -6.1180     0.8450    -0.3480 C.3   1 <1>  -0.0800 
 17 C        0.4290     5.0270     0.4310 C.2   1 <1>  -0.1810 
 18 C        0.9160     4.4640    -0.6950 C.2   1 <1>  -0.0500 
 19 C        0.8180     2.1350    -1.7830 C.3   1 <1>   0.1290 
 20 C       -4.9560    -3.8560     0.6420 C.ar  1 <1>  -0.1500 
 21 C       -2.9900    -4.2210    -0.6720 C.ar  1 <1>  -0.1500 
 22 C       -6.9020     0.2300    -1.5200 C.3   1 <1>  -0.2400 
 23 C       -6.0960     2.3740    -0.5220 C.3   1 <1>  -0.2400 
 24 C       -5.1700    -5.2220     0.7040 C.ar  1 <1>  -0.1500 
 25 C       -3.2030    -5.5880    -0.6110 C.ar  1 <1>  -0.1500 
 26 C       -4.2930    -6.0890     0.0780 C.ar  1 <1>  -0.1500 
 27 H       -1.7820    -1.8770     1.0350 H     1 <1>   0.0800 
 28 H       -3.2200    -1.7020     1.9920 H     1 <1>   0.0800 
 29 H       -4.4500     0.7040     1.8510 H     1 <1>   0.0800 
 30 H       -3.7090     1.8620     0.7820 H     1 <1>   0.0800 
 31 H       -2.1320     2.2820     2.9030 H     1 <1>   0.1500 
 32 H       -3.0850    -1.6140    -1.0340 H     1 <1>   0.0800 
 33 H       -4.1680     0.4470    -1.1610 H     1 <1>   0.0800 
 34 H       -6.6440     0.6200     0.5650 H     1 <1>   0.0800 
 35 H        0.5480     6.0060     0.8480 H     1 <1>   0.1500 
 36 H        1.5570     4.8910    -1.4490 H     1 <1>   0.1500 
 37 H        1.3930     2.5820    -2.5730 H     1 <1>   0.0800 
 38 H       -0.0780     1.7040    -2.1920 H     1 <1>   0.0800 
 39 H        1.3970     1.3600    -1.3130 H     1 <1>   0.0800 
 40 H       -5.6460    -3.1890     1.1290 H     1 <1>   0.1500 
 41 H       -2.1380    -3.8460    -1.2110 H     1 <1>   0.1500 
 42 H       -6.3980     0.4130    -2.4520 H     1 <1>   0.0800 
 43 H       -7.8910     0.6480    -1.5730 H     1 <1>   0.0800 
 44 H       -7.0000    -0.8340    -1.3900 H     1 <1>   0.0800 
 45 H       -5.5190     2.6490    -1.3880 H     1 <1>   0.0800 
 46 H       -5.6800     2.8600     0.3420 H     1 <1>   0.0800 
 47 H       -7.0970     2.7470    -0.6510 H     1 <1>   0.0800 
 48 H       -6.0200    -5.6080     1.2380 H     1 <1>   0.1500 
 49 H       -2.5200    -6.2610    -1.0990 H     1 <1>   0.1500 
 50 H       -4.4590    -7.1510     0.1260 H     1 <1>   0.1500 
@<TRIPOS>BOND
  1   1   2  2   
  2   2   3  am  
  3   2   4  1   
  4   3   5  1   
  5   3   6  1   
  6   4   7  2   
  7   4   8  1   
  8   5   9  1   
  9   5  27  1   
 10   5  28  1   
 11   6  10  1   
 12   6  29  1   
 13   6  30  1   
 14   7  11  1   
 15   7  12  1   
 16   8  13  2   
 17   8  31  1   
 18   9  14  1   
 19   9  15  1   
 20   9  32  1   
 21  10  14  1   
 22  10  16  1   
 23  10  33  1   
 24  11  13  1   
 25  11  17  1   
 26  12  18  1   
 27  12  19  1   
 28  15  20  ar  
 29  15  21  ar  
 30  16  22  1   
 31  16  23  1   
 32  16  34  1   
 33  17  18  2   
 34  17  35  1   
 35  18  36  1   
 36  19  37  1   
 37  19  38  1   
 38  19  39  1   
 39  20  24  ar  
 40  20  40  1   
 41  21  25  ar  
 42  21  41  1   
 43  22  42  1   
 44  22  43  1   
 45  22  44  1   
 46  23  45  1   
 47  23  46  1   
 48  23  47  1   
 49  24  26  ar  
 50  24  48  1   
 51  25  26  ar  
 52  25  49  1   
 53  26  50  1   
@<TRIPOS>SUBSTRUCTURE
  1 ****   3 GROUP 4 **** **** 0

# MOE 2024.06 (io_trps.svl 2023.06)
