@<TRIPOS>MOLECULE
NONAME
40 41 1 0 0 
SMALL
USER_CHARGES


@<TRIPOS>ATOM
  1 N       -0.4180    -0.0770     0.5750 N.ar  1 <1>  -0.6200 
  2 C       -1.5680     0.4990     0.2730 C.ar  1 <1>   0.4100 
  3 C       -0.4680    -1.3840     0.7350 C.ar  1 <1>   0.4700 
  4 N       -1.5890     1.8700     0.1130 N.pl3 1 <1>  -0.8380 
  5 C       -2.7170    -0.2420     0.1380 C.ar  1 <1>  -0.1500 
  6 N       -1.5060    -2.1900     0.6310 N.ar  1 <1>  -0.6200 
  7 C       -0.4050     2.5550    -0.4690 C.3   1 <1>   0.2090 
  8 C       -2.3850     2.6730     1.0800 C.3   1 <1>   0.1290 
  9 C       -2.6460    -1.6000     0.3240 C.ar  1 <1>   0.4100 
 10 C       -0.8670     3.6060    -1.4720 C.3   1 <1>  -0.2400 
 11 N       -3.7660    -2.3850     0.1930 N.pl3 1 <1>  -0.8690 
 12 C       -3.7010    -3.8580     0.1810 C.3   1 <1>   0.2090 
 13 C       -5.1160    -4.4140     0.0590 C.3   1 <1>  -0.1600 
 14 C       -5.1000    -5.9460     0.0880 C.3   1 <1>   0.0960 
 15 N       -6.4680    -6.4740    -0.0630 N.pl3 1 <1>   0.0480 
 16 C       -7.0770    -6.8190    -1.2290 C.2   1 <1>  -0.3020 
 17 C       -7.3610    -6.7030     0.9360 C.2   1 <1>  -0.3020 
 18 C       -8.3360    -7.2610    -0.9720 C.2   1 <1>  -0.1500 
 19 C       -8.5170    -7.1870     0.4120 C.2   1 <1>  -0.1500 
 20 H        0.4670    -1.8570     0.9850 H     1 <1>   0.1500 
 21 H       -3.6390     0.2360    -0.1110 H     1 <1>   0.1500 
 22 H        0.2180     1.8380    -0.9780 H     1 <1>   0.0800 
 23 H        0.1770     3.0060     0.3160 H     1 <1>   0.0800 
 24 H       -2.9760     2.0290     1.7080 H     1 <1>   0.0800 
 25 H       -3.0430     3.3360     0.5460 H     1 <1>   0.0800 
 26 H       -1.7290     3.2520     1.7060 H     1 <1>   0.0800 
 27 H       -1.4740     3.1440    -2.2300 H     1 <1>   0.0800 
 28 H       -0.0110     4.0540    -1.9430 H     1 <1>   0.0800 
 29 H       -1.4290     4.3790    -0.9820 H     1 <1>   0.0800 
 30 H       -4.5480    -1.9820    -0.3260 H     1 <1>   0.4000 
 31 H       -3.2430    -4.1980     1.0960 H     1 <1>   0.0800 
 32 H       -3.0940    -4.1810    -0.6490 H     1 <1>   0.0800 
 33 H       -5.5500    -4.0820    -0.8670 H     1 <1>   0.0800 
 34 H       -5.7090    -4.0520     0.8820 H     1 <1>   0.0800 
 35 H       -4.6970    -6.2980     1.0210 H     1 <1>   0.0800 
 36 H       -4.4950    -6.3290    -0.7150 H     1 <1>   0.0800 
 37 H       -6.5870    -6.7340    -2.1830 H     1 <1>   0.1500 
 38 H       -7.1310    -6.5120     1.9690 H     1 <1>   0.1500 
 39 H       -9.0730    -7.6070    -1.6760 H     1 <1>   0.1500 
 40 H       -9.4160    -7.4670     0.9350 H     1 <1>   0.1500 
@<TRIPOS>BOND
  1   1   2  ar  
  2   1   3  ar  
  3   2   4  1   
  4   2   5  ar  
  5   3   6  ar  
  6   3  20  1   
  7   4   7  1   
  8   4   8  1   
  9   5   9  ar  
 10   5  21  1   
 11   6   9  ar  
 12   7  10  1   
 13   7  22  1   
 14   7  23  1   
 15   8  24  1   
 16   8  25  1   
 17   8  26  1   
 18   9  11  1   
 19  10  27  1   
 20  10  28  1   
 21  10  29  1   
 22  11  12  1   
 23  11  30  1   
 24  12  13  1   
 25  12  31  1   
 26  12  32  1   
 27  13  14  1   
 28  13  33  1   
 29  13  34  1   
 30  14  15  1   
 31  14  35  1   
 32  14  36  1   
 33  15  16  1   
 34  15  17  1   
 35  16  18  2   
 36  16  37  1   
 37  17  19  2   
 38  17  38  1   
 39  18  19  1   
 40  18  39  1   
 41  19  40  1   
@<TRIPOS>SUBSTRUCTURE
  1 ****  11 GROUP 4 **** **** 0

# MOE 2024.06 (io_trps.svl 2023.06)
