@<TRIPOS>MOLECULE
NONAME
50 52 1 0 0 
SMALL
USER_CHARGES


@<TRIPOS>ATOM
  1 O       -0.4430     1.1200    -0.7990 O.2   1 <1>  -0.5700 
  2 C       -0.6260     2.3130    -0.7210 C.2   1 <1>   0.5690 
  3 N       -1.4840     2.8980     0.1750 N.am  1 <1>  -0.6600 
  4 C        0.1420     3.2080    -1.6890 C.3   1 <1>   0.1810 
  5 C       -1.6710     4.3900     0.1880 C.3   1 <1>   0.3640 
  6 C       -2.2300     2.1690     1.2380 C.3   1 <1>   0.2200 
  7 O        0.4580     4.4440    -1.1070 O.3   1 <1>  -0.5600 
  8 C       -3.1070     4.7200    -0.2280 C.ar  1 <1>  -0.1440 
  9 C       -0.6760     5.1970    -0.6960 C.3   1 <1>   0.2610 
 10 C       -1.2510     1.5500     2.2350 C.3   1 <1>  -0.2400 
 11 C       -3.1770     1.1260     0.6430 C.3   1 <1>  -0.2400 
 12 C       -3.6980     4.1150    -1.3310 C.ar  1 <1>  -0.1500 
 13 C       -3.8400     5.6480     0.4990 C.ar  1 <1>  -0.1500 
 14 C       -0.2280     6.4580     0.0540 C.2   1 <1>   0.5690 
 15 C       -4.9960     4.4290    -1.6960 C.ar  1 <1>  -0.1500 
 16 C       -5.1370     5.9630     0.1350 C.ar  1 <1>  -0.1500 
 17 O       -1.0560     7.2000     0.5280 O.2   1 <1>  -0.5700 
 18 N        1.1020     6.7110     0.1810 N.am  1 <1>  -0.7300 
 19 C       -5.7170     5.3530    -0.9620 C.ar  1 <1>  -0.1500 
 20 C        1.7140     7.8900     0.8320 C.3   1 <1>   0.1400 
 21 C        2.7000     8.5610    -0.1280 C.3   1 <1>   0.0000 
 22 C        3.9720     7.7350    -0.4610 C.3   1 <1>   0.0000 
 23 C        3.6410     9.6000     0.5390 C.3   1 <1>   0.0000 
 24 C        4.7580     9.0710    -0.3990 C.3   1 <1>   0.0000 
 25 H       -0.4400     3.3770    -2.5760 H     1 <1>   0.0800 
 26 H        1.0650     2.7280    -1.9610 H     1 <1>   0.0800 
 27 H       -1.5340     4.7130     1.2060 H     1 <1>   0.0800 
 28 H       -2.8380     2.8760     1.7780 H     1 <1>   0.0800 
 29 H       -1.1800     5.5190    -1.5890 H     1 <1>   0.0800 
 30 H       -0.6620     0.7820     1.7660 H     1 <1>   0.0800 
 31 H       -1.7930     1.1070     3.0500 H     1 <1>   0.0800 
 32 H       -0.5970     2.3060     2.6310 H     1 <1>   0.0800 
 33 H       -2.6330     0.3360     0.1580 H     1 <1>   0.0800 
 34 H       -3.8420     1.5870    -0.0630 H     1 <1>   0.0800 
 35 H       -3.7690     0.6890     1.4260 H     1 <1>   0.0800 
 36 H       -3.1550     3.3890    -1.9100 H     1 <1>   0.1500 
 37 H       -3.4020     6.1420     1.3510 H     1 <1>   0.1500 
 38 H       -5.4450     3.9520    -2.5490 H     1 <1>   0.1500 
 39 H       -5.6940     6.6860     0.7060 H     1 <1>   0.1500 
 40 H        1.7420     6.0300    -0.2410 H     1 <1>   0.3700 
 41 H       -6.7260     5.5980    -1.2450 H     1 <1>   0.1500 
 42 H        0.9490     8.5950     1.1120 H     1 <1>   0.0800 
 43 H        2.2230     7.5710     1.7260 H     1 <1>   0.0800 
 44 H        2.2290     8.9650    -1.0090 H     1 <1>   0.0000 
 45 H        4.2540     7.0550     0.3250 H     1 <1>   0.0000 
 46 H        3.9550     7.2850    -1.4370 H     1 <1>   0.0000 
 47 H        3.3640    10.6220     0.3510 H     1 <1>   0.0000 
 48 H        3.8420     9.3900     1.5760 H     1 <1>   0.0000 
 49 H        4.7830     9.5830    -1.3460 H     1 <1>   0.0000 
 50 H        5.7200     8.9890     0.0740 H     1 <1>   0.0000 
@<TRIPOS>BOND
  1   1   2  2   
  2   2   3  am  
  3   2   4  1   
  4   3   5  1   
  5   3   6  1   
  6   4   7  1   
  7   4  25  1   
  8   4  26  1   
  9   5   8  1   
 10   5   9  1   
 11   5  27  1   
 12   6  10  1   
 13   6  11  1   
 14   6  28  1   
 15   7   9  1   
 16   8  12  ar  
 17   8  13  ar  
 18   9  14  1   
 19   9  29  1   
 20  10  30  1   
 21  10  31  1   
 22  10  32  1   
 23  11  33  1   
 24  11  34  1   
 25  11  35  1   
 26  12  15  ar  
 27  12  36  1   
 28  13  16  ar  
 29  13  37  1   
 30  14  17  2   
 31  14  18  am  
 32  15  19  ar  
 33  15  38  1   
 34  16  19  ar  
 35  16  39  1   
 36  18  20  1   
 37  18  40  1   
 38  19  41  1   
 39  20  21  1   
 40  20  42  1   
 41  20  43  1   
 42  21  22  1   
 43  21  23  1   
 44  21  44  1   
 45  22  24  1   
 46  22  45  1   
 47  22  46  1   
 48  23  24  1   
 49  23  47  1   
 50  23  48  1   
 51  24  49  1   
 52  24  50  1   
@<TRIPOS>SUBSTRUCTURE
  1 ****   9 GROUP 4 **** **** 0

# MOE 2024.06 (io_trps.svl 2023.06)
