@<TRIPOS>MOLECULE
NONAME
58 61 1 0 0 
SMALL
USER_CHARGES


@<TRIPOS>ATOM
  1 O       -1.3140     0.9950    -1.4340 O.2   1 <1>  -0.5700 
  2 C       -1.4520     1.1550    -0.2420 C.2   1 <1>   0.5690 
  3 N       -1.6780     0.0710     0.5560 N.am  1 <1>  -0.7300 
  4 C       -1.2870     2.6080     0.3500 C.3   1 <1>   0.5640 
  5 C       -1.9170    -1.3090     0.0760 C.3   1 <1>   0.2200 
  6 N        0.1850     2.9950     0.3780 N.4   1 <1>  -0.9590 
  7 C       -2.0900     3.6190    -0.5120 C.3   1 <1>  -0.1600 
  8 C       -1.8200     2.6950     1.8070 C.3   1 <1>  -0.1600 
  9 C       -3.4200    -1.5510     0.0140 C.3   1 <1>  -0.0800 
 10 C       -1.5060    -2.2780     1.1750 C.3   1 <1>   0.1200 
 11 C        0.5560     4.3420     0.8850 C.3   1 <1>   0.3430 
 12 C        0.8680     2.8670    -0.9400 C.3   1 <1>   0.3430 
 13 C       -3.6080     3.3810    -0.4370 C.3   1 <1>  -0.1600 
 14 C       -3.3440     2.4860     1.9210 C.3   1 <1>  -0.1600 
 15 C       -3.7550    -2.0020     1.4450 C.3   1 <1>   0.1200 
 16 C       -3.7780    -2.6200    -1.0350 C.3   1 <1>  -0.0170 
 17 O       -2.5370    -2.1940     2.1050 O.3   1 <1>  -0.5600 
 18 C        2.0030     4.5180     0.4510 C.3   1 <1>  -0.1600 
 19 C        2.1880     3.6030    -0.7620 C.3   1 <1>  -0.1600 
 20 C       -4.1050     3.4560     1.0110 C.3   1 <1>  -0.1600 
 21 C       -5.2800    -2.8500    -1.1040 C.ar  1 <1>  -0.1430 
 22 C       -5.8790    -3.9660    -0.5560 C.ar  1 <1>  -0.1500 
 23 C       -6.1230    -1.9490    -1.7240 C.ar  1 <1>  -0.1500 
 24 C       -7.2530    -4.1190    -0.6440 C.ar  1 <1>   0.1600 
 25 C       -7.4850    -2.1980    -1.7580 C.ar  1 <1>   0.1600 
 26 N       -8.0710    -3.2600    -1.2300 N.ar  1 <1>  -0.6200 
 27 H       -1.8870     0.1640     1.5560 H     1 <1>   0.3700 
 28 H       -1.4080    -1.4890    -0.8570 H     1 <1>   0.0800 
 29 H        0.6460     2.3110     0.9890 H     1 <1>   0.4500 
 30 H       -1.9100     4.6240    -0.1820 H     1 <1>   0.0800 
 31 H       -1.7950     3.5500    -1.5440 H     1 <1>   0.0800 
 32 H       -1.3180     1.9780     2.4320 H     1 <1>   0.0800 
 33 H       -1.6200     3.6700     2.2090 H     1 <1>   0.0800 
 34 H       -3.9480    -0.6460    -0.2330 H     1 <1>   0.0800 
 35 H       -0.5720    -2.0190     1.6400 H     1 <1>   0.0800 
 36 H       -1.4660    -3.2900     0.8100 H     1 <1>   0.0800 
 37 H       -0.0480     5.0990     0.4130 H     1 <1>   0.0800 
 38 H        0.4510     4.4140     1.9560 H     1 <1>   0.0800 
 39 H        1.0180     1.8340    -1.2150 H     1 <1>   0.0800 
 40 H        0.2860     3.3520    -1.7070 H     1 <1>   0.0800 
 41 H       -4.1190     4.1260    -1.0250 H     1 <1>   0.0800 
 42 H       -3.8560     2.4190    -0.8560 H     1 <1>   0.0800 
 43 H       -3.6180     1.4780     1.6630 H     1 <1>   0.0800 
 44 H       -3.6530     2.6450     2.9410 H     1 <1>   0.0800 
 45 H       -4.3020    -2.9280     1.4710 H     1 <1>   0.0800 
 46 H       -4.3080    -1.2480     1.9780 H     1 <1>   0.0800 
 47 H       -3.2810    -3.5480    -0.8090 H     1 <1>   0.0800 
 48 H       -3.4360    -2.2990    -2.0040 H     1 <1>   0.0800 
 49 H        2.2050     5.5480     0.2120 H     1 <1>   0.0800 
 50 H        2.6610     4.2180     1.2500 H     1 <1>   0.0800 
 51 H        2.9830     2.8970    -0.5880 H     1 <1>   0.0800 
 52 H        2.4210     4.1630    -1.6520 H     1 <1>   0.0800 
 53 H       -5.1580     3.2260     1.0420 H     1 <1>   0.0800 
 54 H       -3.9860     4.4620     1.3780 H     1 <1>   0.0800 
 55 H       -5.2950    -4.7200    -0.0600 H     1 <1>   0.1500 
 56 H       -5.7350    -1.0580    -2.1830 H     1 <1>   0.1500 
 57 H       -7.7030    -4.9950    -0.2100 H     1 <1>   0.1500 
 58 H       -8.1270    -1.4840    -2.2460 H     1 <1>   0.1500 
@<TRIPOS>BOND
  1   1   2  2   
  2   2   3  am  
  3   2   4  1   
  4   3   5  1   
  5   3  27  1   
  6   4   6  1   
  7   4   7  1   
  8   4   8  1   
  9   5   9  1   
 10   5  10  1   
 11   5  28  1   
 12   6  11  1   
 13   6  12  1   
 14   6  29  1   
 15   7  13  1   
 16   7  30  1   
 17   7  31  1   
 18   8  14  1   
 19   8  32  1   
 20   8  33  1   
 21   9  15  1   
 22   9  16  1   
 23   9  34  1   
 24  10  17  1   
 25  10  35  1   
 26  10  36  1   
 27  11  18  1   
 28  11  37  1   
 29  11  38  1   
 30  12  19  1   
 31  12  39  1   
 32  12  40  1   
 33  13  20  1   
 34  13  41  1   
 35  13  42  1   
 36  14  20  1   
 37  14  43  1   
 38  14  44  1   
 39  15  17  1   
 40  15  45  1   
 41  15  46  1   
 42  16  21  1   
 43  16  47  1   
 44  16  48  1   
 45  18  19  1   
 46  18  49  1   
 47  18  50  1   
 48  19  51  1   
 49  19  52  1   
 50  20  53  1   
 51  20  54  1   
 52  21  22  ar  
 53  21  23  ar  
 54  22  24  ar  
 55  22  55  1   
 56  23  25  ar  
 57  23  56  1   
 58  24  26  ar  
 59  24  57  1   
 60  25  26  ar  
 61  25  58  1   
@<TRIPOS>SUBSTRUCTURE
  1 ****   3 GROUP 4 **** **** 0

# MOE 2024.06 (io_trps.svl 2023.06)
