@<TRIPOS>MOLECULE
NONAME
56 59 1 0 0 
SMALL
USER_CHARGES


@<TRIPOS>ATOM
  1 O       -0.4490    -0.8030     0.1180 O.3   1 <1>  -0.5600 
  2 C       -1.5840    -1.5500    -0.2190 C.3   1 <1>   0.1200 
  3 C        0.5140    -1.5220     0.8250 C.3   1 <1>   0.1200 
  4 C       -1.2010    -2.7430    -1.1110 C.3   1 <1>   0.2090 
  5 C        1.0250    -2.7090    -0.0140 C.3   1 <1>   0.2090 
  6 N       -0.1140    -3.5800    -0.4760 N.pl3 1 <1>  -0.8380 
  7 C       -0.2260    -4.9330    -0.3650 C.ar  1 <1>   0.7710 
  8 N       -1.3640    -5.5240    -0.7040 N.ar  1 <1>  -0.6200 
  9 N        0.8270    -5.6440     0.0820 N.ar  1 <1>  -0.1790 
 10 C       -1.4420    -6.8300    -0.5930 C.ar  1 <1>   0.4100 
 11 C        0.7860    -6.9910     0.2180 C.ar  1 <1>   0.2180 
 12 N       -2.6180    -7.3640    -0.9550 N.pl3 1 <1>  -0.8690 
 13 C       -0.3700    -7.6080    -0.1220 C.ar  1 <1>  -0.1500 
 14 C        2.0150    -7.7270     0.7370 C.3   1 <1>  -0.0170 
 15 C       -2.9980    -8.7970    -1.0740 C.3   1 <1>   0.2090 
 16 C        3.2200    -7.5780    -0.2020 C.3   1 <1>  -0.2400 
 17 C       -3.5460    -9.3110     0.2520 C.3   1 <1>  -0.0170 
 18 C       -3.6840   -10.8130     0.1740 C.ar  1 <1>   0.4770 
 19 N       -2.5970   -11.5100     0.4860 N.ar  1 <1>  -0.6200 
 20 N       -4.8650   -11.2680    -0.2150 N.ar  1 <1>  -0.6200 
 21 C       -2.7120   -12.8200     0.4140 C.ar  1 <1>   0.1670 
 22 C       -4.9370   -12.5740    -0.2770 C.ar  1 <1>   0.1670 
 23 C       -3.8970   -13.4010     0.0250 C.ar  1 <1>  -0.1430 
 24 C       -1.4880   -13.6340     0.7810 C.3   1 <1>  -0.0970 
 25 C       -6.1670   -13.3400    -0.6850 C.3   1 <1>  -0.0170 
 26 C       -4.2890   -14.8530    -0.1350 C.3   1 <1>  -0.0170 
 27 C       -5.6630   -14.7880    -0.8290 C.3   1 <1>  -0.1600 
 28 H       -2.2600    -0.8980    -0.7430 H     1 <1>   0.0800 
 29 H       -2.0600    -1.8860     0.6850 H     1 <1>   0.0800 
 30 H        0.0810    -1.8610     1.7510 H     1 <1>   0.0800 
 31 H        1.3220    -0.8480     1.0490 H     1 <1>   0.0800 
 32 H       -0.8490    -2.3660    -2.0560 H     1 <1>   0.0800 
 33 H       -2.0900    -3.3150    -1.3080 H     1 <1>   0.0800 
 34 H        1.7320    -3.2590     0.5790 H     1 <1>   0.0800 
 35 H        1.5440    -2.3180    -0.8740 H     1 <1>   0.0800 
 36 H        1.6650    -5.1180     0.2820 H     1 <1>   0.4570 
 37 H       -3.3480    -6.7040    -1.2430 H     1 <1>   0.4000 
 38 H       -0.4900    -8.6730    -0.0390 H     1 <1>   0.1500 
 39 H        1.7860    -8.7750     0.8380 H     1 <1>   0.0800 
 40 H        2.2700    -7.3620     1.7170 H     1 <1>   0.0800 
 41 H       -2.1400    -9.3800    -1.3650 H     1 <1>   0.0800 
 42 H       -3.7450    -8.9120    -1.8420 H     1 <1>   0.0800 
 43 H        2.9770    -7.9410    -1.1860 H     1 <1>   0.0800 
 44 H        4.0460    -8.1590     0.1720 H     1 <1>   0.0800 
 45 H        3.5410    -6.5540    -0.2780 H     1 <1>   0.0800 
 46 H       -4.5040    -8.8680     0.4520 H     1 <1>   0.0800 
 47 H       -2.8760    -9.0650     1.0540 H     1 <1>   0.0800 
 48 H       -1.1560   -13.3570     1.7650 H     1 <1>   0.0800 
 49 H       -0.6990   -13.4310     0.0800 H     1 <1>   0.0800 
 50 H       -1.6970   -14.6860     0.7730 H     1 <1>   0.0800 
 51 H       -6.5650   -12.9630    -1.6100 H     1 <1>   0.0800 
 52 H       -6.9070   -13.2600     0.0910 H     1 <1>   0.0800 
 53 H       -4.3750   -15.3120     0.8340 H     1 <1>   0.0800 
 54 H       -3.5760   -15.3920    -0.7340 H     1 <1>   0.0800 
 55 H       -5.5370   -15.0110    -1.8750 H     1 <1>   0.0800 
 56 H       -6.3560   -15.4930    -0.4040 H     1 <1>   0.0800 
@<TRIPOS>BOND
  1   1   2  1   
  2   1   3  1   
  3   2   4  1   
  4   2  28  1   
  5   2  29  1   
  6   3   5  1   
  7   3  30  1   
  8   3  31  1   
  9   4   6  1   
 10   4  32  1   
 11   4  33  1   
 12   5   6  1   
 13   5  34  1   
 14   5  35  1   
 15   6   7  1   
 16   7   8  ar  
 17   7   9  ar  
 18   8  10  ar  
 19   9  11  ar  
 20   9  36  1   
 21  10  12  1   
 22  10  13  ar  
 23  11  13  ar  
 24  11  14  1   
 25  12  15  1   
 26  12  37  1   
 27  13  38  1   
 28  14  16  1   
 29  14  39  1   
 30  14  40  1   
 31  15  17  1   
 32  15  41  1   
 33  15  42  1   
 34  16  43  1   
 35  16  44  1   
 36  16  45  1   
 37  17  18  1   
 38  17  46  1   
 39  17  47  1   
 40  18  19  ar  
 41  18  20  ar  
 42  19  21  ar  
 43  20  22  ar  
 44  21  23  ar  
 45  21  24  1   
 46  22  23  ar  
 47  22  25  1   
 48  23  26  1   
 49  24  48  1   
 50  24  49  1   
 51  24  50  1   
 52  25  27  1   
 53  25  51  1   
 54  25  52  1   
 55  26  27  1   
 56  26  53  1   
 57  26  54  1   
 58  27  55  1   
 59  27  56  1   
@<TRIPOS>SUBSTRUCTURE
  1 ****  12 GROUP 4 **** **** 0

# MOE 2024.06 (io_trps.svl 2023.06)
