@<TRIPOS>MOLECULE
NONAME
57 60 1 0 0 
SMALL
USER_CHARGES


@<TRIPOS>ATOM
  1 O       -2.7620     1.2760    -1.6370 O.2   1 <1>  -0.5700 
  2 C       -2.4840     1.1960    -0.4650 C.2   1 <1>   0.5690 
  3 N       -2.4450    -0.0020     0.1760 N.am  1 <1>  -0.7300 
  4 C       -2.1350     2.4930     0.2870 C.3   1 <1>   0.4040 
  5 C       -2.7250    -1.3150    -0.4550 C.3   1 <1>   0.2200 
  6 N       -0.7450     3.0370     0.0040 N.4   1 <1>  -0.9590 
  7 C       -4.0410    -1.8560     0.0900 C.3   1 <1>  -0.0800 
  8 C       -1.7360    -2.3330     0.0940 C.3   1 <1>   0.1200 
  9 C       -0.3950     4.1380     0.9560 C.3   1 <1>   0.4230 
 10 C       -0.6090     3.3860    -1.4520 C.3   1 <1>   0.2630 
 11 C       -3.6080    -2.5840     1.3740 C.3   1 <1>   0.1200 
 12 C       -4.7230    -2.8060    -0.9150 C.3   1 <1>  -0.0170 
 13 O       -2.2090    -2.6100     1.3720 O.3   1 <1>  -0.5600 
 14 C       -1.1350     5.4470     0.6690 C.3   1 <1>  -0.1600 
 15 C        1.0830     4.5080     0.8480 C.3   1 <1>  -0.1600 
 16 C       -6.0570    -3.3240    -0.3850 C.ar  1 <1>  -0.1440 
 17 C       -0.2220     6.3020    -0.2180 C.3   1 <1>  -0.1600 
 18 C        1.1890     5.7210    -0.0840 C.3   1 <1>  -0.1600 
 19 C       -7.2270    -2.5260    -0.3620 C.ar  1 <1>   0.0000 
 20 C       -6.1560    -4.5980     0.0930 C.ar  1 <1>  -0.1500 
 21 C       -8.4030    -3.0980     0.1830 C.ar  1 <1>   0.3100 
 22 C       -7.3020    -1.2010    -0.8520 C.ar  1 <1>  -0.1500 
 23 C       -7.3720    -5.0700     0.6010 C.ar  1 <1>   0.1600 
 24 N       -8.4580    -4.3670     0.6590 N.ar  1 <1>  -0.6200 
 25 C       -9.5740    -2.3250     0.2350 C.ar  1 <1>  -0.1500 
 26 C       -8.4610    -0.4760    -0.7900 C.ar  1 <1>  -0.1500 
 27 C       -9.6120    -1.0420    -0.2370 C.ar  1 <1>  -0.1500 
 28 H       -2.2380    -0.1040     1.1760 H     1 <1>   0.3700 
 29 H       -2.2370     2.3020     1.3410 H     1 <1>   0.0800 
 30 H       -2.8680     3.2320     0.0150 H     1 <1>   0.0800 
 31 H       -2.6980    -1.2450    -1.5300 H     1 <1>   0.0800 
 32 H       -0.0810     2.2730     0.1850 H     1 <1>   0.4500 
 33 H       -4.7190    -1.0550     0.3260 H     1 <1>   0.0800 
 34 H       -0.7300    -1.9580     0.1490 H     1 <1>   0.0800 
 35 H       -1.7570    -3.2460    -0.4770 H     1 <1>   0.0800 
 36 H       -0.6070     3.8120     1.9630 H     1 <1>   0.0800 
 37 H       -1.3070     4.1630    -1.7190 H     1 <1>   0.0800 
 38 H       -0.8080     2.5240    -2.0690 H     1 <1>   0.0800 
 39 H        0.3890     3.7310    -1.6650 H     1 <1>   0.0800 
 40 H       -3.9640    -3.5980     1.4170 H     1 <1>   0.0800 
 41 H       -3.9310    -2.0570     2.2550 H     1 <1>   0.0800 
 42 H       -4.0750    -3.6400    -1.1240 H     1 <1>   0.0800 
 43 H       -4.8870    -2.3010    -1.8510 H     1 <1>   0.0800 
 44 H       -2.1100     5.3090     0.2360 H     1 <1>   0.0800 
 45 H       -1.2590     5.9630     1.6050 H     1 <1>   0.0800 
 46 H        1.4170     4.8130     1.8250 H     1 <1>   0.0800 
 47 H        1.7020     3.6890     0.5270 H     1 <1>   0.0800 
 48 H       -0.5420     6.2590    -1.2460 H     1 <1>   0.0800 
 49 H       -0.2450     7.3330     0.0950 H     1 <1>   0.0800 
 50 H        1.8660     6.4540     0.3270 H     1 <1>   0.0800 
 51 H        1.5640     5.4290    -1.0510 H     1 <1>   0.0800 
 52 H       -5.3160    -5.2680     0.0990 H     1 <1>   0.1500 
 53 H       -6.4340    -0.7470    -1.2890 H     1 <1>   0.1500 
 54 H       -7.4050    -6.0810     0.9700 H     1 <1>   0.1500 
 55 H      -10.4470    -2.7830     0.6610 H     1 <1>   0.1500 
 56 H       -8.5050     0.5320    -1.1660 H     1 <1>   0.1500 
 57 H      -10.5180    -0.4620    -0.1910 H     1 <1>   0.1500 
@<TRIPOS>BOND
  1   1   2  2   
  2   2   3  am  
  3   2   4  1   
  4   3   5  1   
  5   3  28  1   
  6   4   6  1   
  7   4  29  1   
  8   4  30  1   
  9   5   7  1   
 10   5   8  1   
 11   5  31  1   
 12   6   9  1   
 13   6  10  1   
 14   6  32  1   
 15   7  11  1   
 16   7  12  1   
 17   7  33  1   
 18   8  13  1   
 19   8  34  1   
 20   8  35  1   
 21   9  14  1   
 22   9  15  1   
 23   9  36  1   
 24  10  37  1   
 25  10  38  1   
 26  10  39  1   
 27  11  13  1   
 28  11  40  1   
 29  11  41  1   
 30  12  16  1   
 31  12  42  1   
 32  12  43  1   
 33  14  17  1   
 34  14  44  1   
 35  14  45  1   
 36  15  18  1   
 37  15  46  1   
 38  15  47  1   
 39  16  19  ar  
 40  16  20  ar  
 41  17  18  1   
 42  17  48  1   
 43  17  49  1   
 44  18  50  1   
 45  18  51  1   
 46  19  21  ar  
 47  19  22  ar  
 48  20  23  ar  
 49  20  52  1   
 50  21  24  ar  
 51  21  25  ar  
 52  22  26  ar  
 53  22  53  1   
 54  23  24  ar  
 55  23  54  1   
 56  25  27  ar  
 57  25  55  1   
 58  26  27  ar  
 59  26  56  1   
 60  27  57  1   
@<TRIPOS>SUBSTRUCTURE
  1 ****   3 GROUP 4 **** **** 0

# MOE 2024.06 (io_trps.svl 2023.06)
