@<TRIPOS>MOLECULE
NONAME
57 59 1 0 0 
SMALL
USER_CHARGES


@<TRIPOS>ATOM
  1 O        0.1040    -1.3830    -2.1850 O.2   1 <1>  -0.5700 
  2 C        0.8020    -1.9360    -1.3690 C.2   1 <1>   0.5690 
  3 N        0.3230    -2.4490    -0.1940 N.am  1 <1>  -0.6600 
  4 C        2.2870    -2.0750    -1.6390 C.3   1 <1>  -0.0990 
  5 C        1.2420    -3.1290     0.7530 C.3   1 <1>   0.1400 
  6 C       -1.1020    -2.3340     0.2120 C.3   1 <1>   0.0600 
  7 C        2.7700    -3.5030    -1.3170 C.3   1 <1>  -0.0800 
  8 C        2.1660    -4.0890    -0.0200 C.3   1 <1>  -0.0800 
  9 C        4.2920    -3.6100    -1.1650 C.3   1 <1>  -0.1600 
 10 C        3.3550    -4.5770     0.8200 C.3   1 <1>  -0.1600 
 11 C        4.4850    -4.7670    -0.1850 C.3   1 <1>   0.2200 
 12 N        5.8150    -4.8750     0.4850 N.am  1 <1>  -0.6600 
 13 C        6.8780    -4.0300     0.2400 C.2   1 <1>   0.5440 
 14 C        6.1130    -6.2490     0.9780 C.3   1 <1>   0.0600 
 15 O        7.8930    -4.5090    -0.2330 O.2   1 <1>  -0.5700 
 16 C        6.8310    -2.6130     0.5530 C.ar  1 <1>   0.0860 
 17 C        7.5130    -1.6850    -0.2320 C.ar  1 <1>  -0.1500 
 18 C        6.1060    -2.1250     1.6380 C.ar  1 <1>  -0.1500 
 19 C        7.4740    -0.3200     0.0290 C.ar  1 <1>   0.0820 
 20 C        6.0410    -0.7720     1.9040 C.ar  1 <1>  -0.1500 
 21 O        8.1770     0.5480    -0.7530 O.3   1 <1>  -0.3620 
 22 C        6.7050     0.1490     1.1100 C.ar  1 <1>   0.0820 
 23 C        9.3390     0.1370    -1.4370 C.3   1 <1>   0.1200 
 24 O        6.5290     1.4440     1.4910 O.3   1 <1>  -0.3630 
 25 C       10.0650     1.3880    -1.9210 C.3   1 <1>  -0.2400 
 26 C        6.9750     2.5480     0.7400 C.3   1 <1>   0.1200 
 27 C        6.4550     3.8160     1.4110 C.3   1 <1>  -0.2400 
 28 H        2.4910    -1.8390    -2.6680 H     1 <1>   0.0800 
 29 H        2.7940    -1.3550    -1.0240 H     1 <1>   0.0800 
 30 H        1.8240    -2.3780     1.2590 H     1 <1>   0.0800 
 31 H        0.6800    -3.6780     1.4890 H     1 <1>   0.0800 
 32 H       -1.1740    -1.8040     1.1450 H     1 <1>   0.0800 
 33 H       -1.5290    -3.3160     0.3240 H     1 <1>   0.0800 
 34 H       -1.6650    -1.7980    -0.5330 H     1 <1>   0.0800 
 35 H        2.4640    -4.1430    -2.1290 H     1 <1>   0.0800 
 36 H        1.5780    -4.9490    -0.2950 H     1 <1>   0.0800 
 37 H        4.6540    -2.6920    -0.7480 H     1 <1>   0.0800 
 38 H        4.7760    -3.8000    -2.1060 H     1 <1>   0.0800 
 39 H        3.1240    -5.4920     1.3350 H     1 <1>   0.0800 
 40 H        3.6370    -3.8230     1.5320 H     1 <1>   0.0800 
 41 H        4.3040    -5.6800    -0.7290 H     1 <1>   0.0800 
 42 H        5.3590    -6.5650     1.6760 H     1 <1>   0.0800 
 43 H        7.0690    -6.2640     1.4730 H     1 <1>   0.0800 
 44 H        6.1460    -6.9340     0.1490 H     1 <1>   0.0800 
 45 H        8.0740    -2.0710    -1.0620 H     1 <1>   0.1500 
 46 H        5.5930    -2.8180     2.2790 H     1 <1>   0.1500 
 47 H        5.4690    -0.4130     2.7410 H     1 <1>   0.1500 
 48 H        9.9580    -0.4240    -0.7570 H     1 <1>   0.0800 
 49 H        9.0480    -0.4780    -2.2710 H     1 <1>   0.0800 
 50 H       10.3420     2.0010    -1.0830 H     1 <1>   0.0800 
 51 H        9.4330     1.9480    -2.5860 H     1 <1>   0.0800 
 52 H       10.9580     1.1070    -2.4500 H     1 <1>   0.0800 
 53 H        8.0510     2.5380     0.7280 H     1 <1>   0.0800 
 54 H        6.5900     2.4590    -0.2600 H     1 <1>   0.0800 
 55 H        6.8350     3.8850     2.4140 H     1 <1>   0.0800 
 56 H        5.3800     3.8070     1.4310 H     1 <1>   0.0800 
 57 H        6.7820     4.6790     0.8590 H     1 <1>   0.0800 
@<TRIPOS>BOND
  1   1   2  2   
  2   2   3  am  
  3   2   4  1   
  4   3   5  1   
  5   3   6  1   
  6   4   7  1   
  7   4  28  1   
  8   4  29  1   
  9   5   8  1   
 10   5  30  1   
 11   5  31  1   
 12   6  32  1   
 13   6  33  1   
 14   6  34  1   
 15   7   8  1   
 16   7   9  1   
 17   7  35  1   
 18   8  10  1   
 19   8  36  1   
 20   9  11  1   
 21   9  37  1   
 22   9  38  1   
 23  10  11  1   
 24  10  39  1   
 25  10  40  1   
 26  11  12  1   
 27  11  41  1   
 28  12  13  am  
 29  12  14  1   
 30  13  15  2   
 31  13  16  1   
 32  14  42  1   
 33  14  43  1   
 34  14  44  1   
 35  16  17  ar  
 36  16  18  ar  
 37  17  19  ar  
 38  17  45  1   
 39  18  20  ar  
 40  18  46  1   
 41  19  21  1   
 42  19  22  ar  
 43  20  22  ar  
 44  20  47  1   
 45  21  23  1   
 46  22  24  1   
 47  23  25  1   
 48  23  48  1   
 49  23  49  1   
 50  24  26  1   
 51  25  50  1   
 52  25  51  1   
 53  25  52  1   
 54  26  27  1   
 55  26  53  1   
 56  26  54  1   
 57  27  55  1   
 58  27  56  1   
 59  27  57  1   
@<TRIPOS>SUBSTRUCTURE
  1 ****  18 GROUP 4 **** **** 0

# MOE 2024.06 (io_trps.svl 2023.06)
