@<TRIPOS>MOLECULE
NONAME
55 57 1 0 0 
SMALL
USER_CHARGES


@<TRIPOS>ATOM
  1 O       -2.0680    -0.7990    -1.5290 O.2   1 <1>  -0.5700 
  2 C       -1.9500    -1.4130    -0.5000 C.2   1 <1>   0.5690 
  3 N       -1.8290    -0.7500     0.6680 N.am  1 <1>  -0.8000 
  4 C       -1.9390    -2.9370    -0.5350 C.3   1 <1>   0.1810 
  5 O       -1.9030    -3.4870     0.7790 O.3   1 <1>  -0.3630 
  6 C       -2.1780    -4.8080     0.9080 C.ar  1 <1>   0.0820 
  7 C       -1.4400    -5.8120     0.2730 C.ar  1 <1>   0.0820 
  8 C       -3.2490    -5.1560     1.7130 C.ar  1 <1>  -0.1500 
  9 O       -0.3560    -5.5550    -0.4940 O.3   1 <1>  -0.3630 
 10 C       -1.8130    -7.1360     0.4200 C.ar  1 <1>  -0.1500 
 11 C       -3.6120    -6.4830     1.8640 C.ar  1 <1>  -0.1500 
 12 C        0.7950    -5.0930     0.1810 C.3   1 <1>   0.0400 
 13 C       -2.9030    -7.4790     1.2060 C.ar  1 <1>  -0.1440 
 14 C       -3.3060    -8.9330     1.3310 C.3   1 <1>   0.4860 
 15 N       -3.9740    -9.3200     0.0630 N.4   1 <1>  -0.9590 
 16 C       -4.0450   -10.8100    -0.0800 C.3   1 <1>   0.5660 
 17 C       -5.3210    -8.6800    -0.0880 C.3   1 <1>   0.3430 
 18 C       -2.6200   -11.3330    -0.2000 C.ar  1 <1>  -0.1440 
 19 C       -4.9180   -11.2740    -1.2770 C.3   1 <1>   0.2000 
 20 C       -6.0460    -9.1870    -1.3470 C.3   1 <1>   0.1200 
 21 C       -2.1590   -12.2500     0.7330 C.ar  1 <1>  -0.1500 
 22 C       -1.7680   -10.9080    -1.2140 C.ar  1 <1>  -0.1500 
 23 O       -6.1430   -10.5800    -1.3140 O.3   1 <1>  -0.5600 
 24 C       -5.2130   -12.7790    -1.1720 C.3   1 <1>   0.1200 
 25 C       -0.8620   -12.7260     0.6650 C.ar  1 <1>  -0.1500 
 26 C       -0.4710   -11.3850    -1.2800 C.ar  1 <1>  -0.1500 
 27 O       -5.6240   -13.1000     0.1200 O.3   1 <1>  -0.6800 
 28 C       -0.0170   -12.2920    -0.3400 C.ar  1 <1>  -0.1500 
 29 H       -1.8440     0.2690     0.6870 H     1 <1>   0.3700 
 30 H       -1.7400    -1.2400     1.5600 H     1 <1>   0.3700 
 31 H       -1.0760    -3.2680    -1.0790 H     1 <1>   0.0800 
 32 H       -2.8280    -3.2850    -1.0270 H     1 <1>   0.0800 
 33 H       -3.7970    -4.3800     2.2190 H     1 <1>   0.1500 
 34 H       -1.2260    -7.8860    -0.0840 H     1 <1>   0.1500 
 35 H       -4.4500    -6.7230     2.4980 H     1 <1>   0.1500 
 36 H        1.5820    -4.9680    -0.5410 H     1 <1>   0.0800 
 37 H        1.0840    -5.8230     0.9170 H     1 <1>   0.0800 
 38 H        0.5800    -4.1520     0.6540 H     1 <1>   0.0800 
 39 H       -3.9680    -9.0740     2.1700 H     1 <1>   0.0800 
 40 H       -2.4200    -9.5290     1.4880 H     1 <1>   0.0800 
 41 H       -3.3670    -8.9790    -0.6870 H     1 <1>   0.4500 
 42 H       -4.4860   -11.2210     0.8130 H     1 <1>   0.0800 
 43 H       -5.9340    -8.9080     0.7690 H     1 <1>   0.0800 
 44 H       -5.2150    -7.6080    -0.1450 H     1 <1>   0.0800 
 45 H       -4.4130   -11.0850    -2.2080 H     1 <1>   0.0800 
 46 H       -5.5300    -8.8920    -2.2450 H     1 <1>   0.0800 
 47 H       -7.0470    -8.7930    -1.3810 H     1 <1>   0.0800 
 48 H       -2.8020   -12.6090     1.5200 H     1 <1>   0.1500 
 49 H       -2.0900   -10.2100    -1.9680 H     1 <1>   0.1500 
 50 H       -4.3290   -13.3550    -1.3880 H     1 <1>   0.0800 
 51 H       -5.9920   -13.0540    -1.8640 H     1 <1>   0.0800 
 52 H       -0.5070   -13.4380     1.3910 H     1 <1>   0.1500 
 53 H        0.1910   -11.0570    -2.0650 H     1 <1>   0.1500 
 54 H       -6.0420   -13.9870     0.1380 H     1 <1>   0.4000 
 55 H        0.9930   -12.6640    -0.3930 H     1 <1>   0.1500 
@<TRIPOS>BOND
  1   1   2  2   
  2   2   3  am  
  3   2   4  1   
  4   3  29  1   
  5   3  30  1   
  6   4   5  1   
  7   4  31  1   
  8   4  32  1   
  9   5   6  1   
 10   6   7  ar  
 11   6   8  ar  
 12   7   9  1   
 13   7  10  ar  
 14   8  11  ar  
 15   8  33  1   
 16   9  12  1   
 17  10  13  ar  
 18  10  34  1   
 19  11  13  ar  
 20  11  35  1   
 21  12  36  1   
 22  12  37  1   
 23  12  38  1   
 24  13  14  1   
 25  14  15  1   
 26  14  39  1   
 27  14  40  1   
 28  15  16  1   
 29  15  17  1   
 30  15  41  1   
 31  16  18  1   
 32  16  19  1   
 33  16  42  1   
 34  17  20  1   
 35  17  43  1   
 36  17  44  1   
 37  18  21  ar  
 38  18  22  ar  
 39  19  23  1   
 40  19  24  1   
 41  19  45  1   
 42  20  23  1   
 43  20  46  1   
 44  20  47  1   
 45  21  25  ar  
 46  21  48  1   
 47  22  26  ar  
 48  22  49  1   
 49  24  27  1   
 50  24  50  1   
 51  24  51  1   
 52  25  28  ar  
 53  25  52  1   
 54  26  28  ar  
 55  26  53  1   
 56  27  54  1   
 57  28  55  1   
@<TRIPOS>SUBSTRUCTURE
  1 ****  10 GROUP 4 **** **** 0

# MOE 2024.06 (io_trps.svl 2023.06)
