@<TRIPOS>MOLECULE
NONAME
54 57 1 0 0 
SMALL
USER_CHARGES


@<TRIPOS>ATOM
  1 O       -1.0680     0.3960     0.0640 O.2   1 <1>  -0.5700 
  2 C       -1.2140     1.3390    -0.6710 C.2   1 <1>   0.5690 
  3 N       -0.5940     2.5170    -0.4490 N.am  1 <1>  -0.7300 
  4 C       -2.1050     1.2160    -1.8770 C.3   1 <1>  -0.1790 
  5 C        0.1030     2.9310     0.8150 C.3   1 <1>   0.2200 
  6 C        0.2630     4.4770     0.8340 C.3   1 <1>   0.4800 
  7 C        1.5030     2.2910     0.9760 C.3   1 <1>   0.2000 
  8 O        1.1700     4.9010    -0.1480 O.3   1 <1>  -0.5600 
  9 O       -0.9480     5.0710     0.5020 O.3   1 <1>  -0.5600 
 10 O        1.4430     0.9020     0.8850 O.3   1 <1>  -0.6800 
 11 C        2.4520     2.8740    -0.0800 C.3   1 <1>   0.2000 
 12 C        2.4600     4.3990     0.0360 C.3   1 <1>   0.2000 
 13 C       -0.9810     6.4580     0.6410 C.3   1 <1>   0.2630 
 14 O        3.7690     2.4450     0.0840 O.3   1 <1>  -0.5600 
 15 C        3.4200     4.9370    -1.0230 C.3   1 <1>   0.1200 
 16 C       -2.3770     6.9510     0.2920 C.ar  1 <1>  -0.1440 
 17 C        4.6210     2.8920    -0.9330 C.3   1 <1>   0.6240 
 18 O        4.6540     4.2970    -0.8570 O.3   1 <1>  -0.5600 
 19 C       -2.5530     7.9260    -0.6780 C.ar  1 <1>  -0.1500 
 20 C       -3.4870     6.4370     0.9450 C.ar  1 <1>  -0.1500 
 21 C        6.0220     2.3050    -0.7430 C.ar  1 <1>  -0.1440 
 22 C       -3.8220     8.3840    -0.9880 C.ar  1 <1>  -0.1500 
 23 C       -4.7570     6.8930     0.6370 C.ar  1 <1>  -0.1500 
 24 C        6.1820     1.0240    -0.2260 C.ar  1 <1>  -0.1500 
 25 C        7.1580     3.0230    -1.0990 C.ar  1 <1>  -0.1500 
 26 C       -4.9250     7.8680    -0.3300 C.ar  1 <1>  -0.1500 
 27 C        7.4420     0.4750    -0.0680 C.ar  1 <1>  -0.1500 
 28 C        8.4200     2.4770    -0.9420 C.ar  1 <1>  -0.1500 
 29 C        8.5640     1.2010    -0.4260 C.ar  1 <1>  -0.1500 
 30 H       -0.8640     3.3320    -1.0120 H     1 <1>   0.3700 
 31 H       -2.8910     1.9460    -1.8240 H     1 <1>   0.0800 
 32 H       -2.5410     0.2340    -1.9080 H     1 <1>   0.0800 
 33 H       -1.5300     1.3710    -2.7700 H     1 <1>   0.0800 
 34 H       -0.5040     2.6440     1.6570 H     1 <1>   0.0800 
 35 H        0.5850     4.8270     1.8010 H     1 <1>   0.0800 
 36 H        1.8900     2.5240     1.9520 H     1 <1>   0.0800 
 37 H        0.5500     0.6230     0.5450 H     1 <1>   0.4000 
 38 H        2.1180     2.5780    -1.0600 H     1 <1>   0.0800 
 39 H        2.8030     4.7030     1.0110 H     1 <1>   0.0800 
 40 H       -0.7460     6.7140     1.6600 H     1 <1>   0.0800 
 41 H       -0.2530     6.8950    -0.0200 H     1 <1>   0.0800 
 42 H        3.5750     5.9940    -0.8940 H     1 <1>   0.0800 
 43 H        3.0590     4.7360    -2.0160 H     1 <1>   0.0800 
 44 H        4.2240     2.5960    -1.8890 H     1 <1>   0.0800 
 45 H       -1.7050     8.3350    -1.1990 H     1 <1>   0.1500 
 46 H       -3.3630     5.6740     1.6940 H     1 <1>   0.1500 
 47 H       -3.9530     9.1420    -1.7410 H     1 <1>   0.1500 
 48 H       -5.6130     6.4890     1.1480 H     1 <1>   0.1500 
 49 H        5.3180     0.4480     0.0600 H     1 <1>   0.1500 
 50 H        7.0640     4.0180    -1.5000 H     1 <1>   0.1500 
 51 H       -5.9110     8.2240    -0.5710 H     1 <1>   0.1500 
 52 H        7.5470    -0.5160     0.3360 H     1 <1>   0.1500 
 53 H        9.2890     3.0460    -1.2190 H     1 <1>   0.1500 
 54 H        9.5440     0.7760    -0.3020 H     1 <1>   0.1500 
@<TRIPOS>BOND
  1   1   2  2   
  2   2   3  am  
  3   2   4  1   
  4   3   5  1   
  5   3  30  1   
  6   4  31  1   
  7   4  32  1   
  8   4  33  1   
  9   5   6  1   
 10   5   7  1   
 11   5  34  1   
 12   6   8  1   
 13   6   9  1   
 14   6  35  1   
 15   7  10  1   
 16   7  11  1   
 17   7  36  1   
 18   8  12  1   
 19   9  13  1   
 20  10  37  1   
 21  11  12  1   
 22  11  14  1   
 23  11  38  1   
 24  12  15  1   
 25  12  39  1   
 26  13  16  1   
 27  13  40  1   
 28  13  41  1   
 29  14  17  1   
 30  15  18  1   
 31  15  42  1   
 32  15  43  1   
 33  16  19  ar  
 34  16  20  ar  
 35  17  18  1   
 36  17  21  1   
 37  17  44  1   
 38  19  22  ar  
 39  19  45  1   
 40  20  23  ar  
 41  20  46  1   
 42  21  24  ar  
 43  21  25  ar  
 44  22  26  ar  
 45  22  47  1   
 46  23  26  ar  
 47  23  48  1   
 48  24  27  ar  
 49  24  49  1   
 50  25  28  ar  
 51  25  50  1   
 52  26  51  1   
 53  27  29  ar  
 54  27  52  1   
 55  28  29  ar  
 56  28  53  1   
 57  29  54  1   
@<TRIPOS>SUBSTRUCTURE
  1 ****   8 GROUP 4 **** **** 0

# MOE 2024.06 (io_trps.svl 2023.06)
