@<TRIPOS>MOLECULE
NONAME
44 45 1 0 0 
SMALL
USER_CHARGES


@<TRIPOS>ATOM
  1 O        1.6360    -0.4860     2.4910 O.2   1 <1>  -0.5700 
  2 C        1.9920    -0.9200     1.4120 C.2   1 <1>   0.5440 
  3 N        2.7410    -0.1120     0.5880 N.am  1 <1>  -0.6600 
  4 C        1.6150    -2.2590     1.0110 C.ar  1 <1>   0.0860 
  5 C        3.0560     1.2960     0.9310 C.3   1 <1>   0.1400 
  6 C        3.0000    -0.3830    -0.8430 C.3   1 <1>   0.1400 
  7 C        0.2760    -2.6010     0.8380 C.ar  1 <1>  -0.1500 
  8 C        2.5680    -3.2480     0.7770 C.ar  1 <1>  -0.1500 
  9 C        3.4100     1.9610    -0.3970 C.3   1 <1>  -0.0190 
 10 C        3.8220     0.8080    -1.3200 C.3   1 <1>  -0.1600 
 11 C       -0.1110    -3.8680     0.4340 C.ar  1 <1>  -0.1440 
 12 C        2.2030    -4.5170     0.3710 C.ar  1 <1>  -0.1500 
 13 C        4.4540     3.0570    -0.2460 C.2   1 <1>   0.5690 
 14 C        0.8590    -4.8380     0.1900 C.ar  1 <1>   0.0820 
 15 C       -1.5970    -4.1620     0.2610 C.3   1 <1>   0.1220 
 16 O        4.1640     4.1800    -0.5790 O.2   1 <1>  -0.5700 
 17 N        5.6810     2.7470     0.2550 N.am  1 <1>  -0.7300 
 18 O        0.4500    -6.0630    -0.2190 O.3   1 <1>  -0.3630 
 19 C       -2.0480    -3.7650    -1.1350 C.2   1 <1>  -0.2880 
 20 C        6.7890     3.7140     0.4610 C.3   1 <1>   0.0600 
 21 C        1.3550    -7.1100    -0.4910 C.3   1 <1>   0.0400 
 22 C       -2.9860    -2.8550    -1.4170 C.2   1 <1>  -0.3000 
 23 H        3.8850     1.3080     1.6160 H     1 <1>   0.0800 
 24 H        2.2100     1.7780     1.3930 H     1 <1>   0.0800 
 25 H        2.0610    -0.4300    -1.3690 H     1 <1>   0.0800 
 26 H        3.5370    -1.3070    -0.9750 H     1 <1>   0.0800 
 27 H       -0.4680    -1.8470     1.0260 H     1 <1>   0.1500 
 28 H        3.6070    -3.0090     0.9220 H     1 <1>   0.1500 
 29 H        2.5100     2.4040    -0.7860 H     1 <1>   0.0800 
 30 H        3.6350     1.0330    -2.3550 H     1 <1>   0.0800 
 31 H        4.8650     0.5770    -1.2000 H     1 <1>   0.0800 
 32 H        2.9750    -5.2430     0.2020 H     1 <1>   0.1500 
 33 H       -2.1590    -3.6140     0.9960 H     1 <1>   0.0800 
 34 H       -1.8000    -5.2060     0.4210 H     1 <1>   0.0800 
 35 H        5.8770     1.7810     0.5240 H     1 <1>   0.3700 
 36 H       -1.5150    -4.3080    -1.8980 H     1 <1>   0.1500 
 37 H        6.4880     4.7010     0.1520 H     1 <1>   0.0800 
 38 H        7.6450     3.4160    -0.1200 H     1 <1>   0.0800 
 39 H        7.0580     3.7450     1.5020 H     1 <1>   0.0800 
 40 H        0.7870    -7.9710    -0.7960 H     1 <1>   0.0800 
 41 H        1.9070    -7.3350     0.4040 H     1 <1>   0.0800 
 42 H        2.0120    -6.8060    -1.2860 H     1 <1>   0.0800 
 43 H       -3.2830    -2.5950    -2.4180 H     1 <1>   0.1500 
 44 H       -3.5330    -2.2960    -0.6780 H     1 <1>   0.1500 
@<TRIPOS>BOND
  1   1   2  2   
  2   2   3  am  
  3   2   4  1   
  4   3   5  1   
  5   3   6  1   
  6   4   7  ar  
  7   4   8  ar  
  8   5   9  1   
  9   5  23  1   
 10   5  24  1   
 11   6  10  1   
 12   6  25  1   
 13   6  26  1   
 14   7  11  ar  
 15   7  27  1   
 16   8  12  ar  
 17   8  28  1   
 18   9  10  1   
 19   9  13  1   
 20   9  29  1   
 21  10  30  1   
 22  10  31  1   
 23  11  14  ar  
 24  11  15  1   
 25  12  14  ar  
 26  12  32  1   
 27  13  16  2   
 28  13  17  am  
 29  14  18  1   
 30  15  19  1   
 31  15  33  1   
 32  15  34  1   
 33  17  20  1   
 34  17  35  1   
 35  18  21  1   
 36  19  22  2   
 37  19  36  1   
 38  20  37  1   
 39  20  38  1   
 40  20  39  1   
 41  21  40  1   
 42  21  41  1   
 43  21  42  1   
 44  22  43  1   
 45  22  44  1   
@<TRIPOS>SUBSTRUCTURE
  1 ****   4 GROUP 4 **** **** 0

# MOE 2024.06 (io_trps.svl 2023.06)
