@<TRIPOS>MOLECULE
NONAME
55 58 1 0 0 
SMALL
USER_CHARGES


@<TRIPOS>ATOM
  1 O       -0.2950    -2.8450     1.2810 O.2   1 <1>  -0.5700 
  2 C       -0.3200    -1.9730     0.4420 C.2   1 <1>   0.5690 
  3 N        0.8180    -1.5600    -0.2010 N.am  1 <1>  -0.6600 
  4 C       -1.6660    -1.3410     0.1220 C.3   1 <1>  -0.0990 
  5 C        0.8100    -0.6130    -1.3540 C.3   1 <1>   0.1400 
  6 C        2.1630    -2.0350     0.2310 C.3   1 <1>   0.1400 
  7 C       -1.7080    -0.6410    -1.2410 C.3   1 <1>  -0.1600 
  8 C       -0.4630     0.2340    -1.3990 C.3   1 <1>  -0.1600 
  9 C        2.8340    -2.9200    -0.8240 C.3   1 <1>  -0.0990 
 10 C        2.1770    -4.2570    -1.1080 C.2   1 <1>   0.5690 
 11 O        2.5050    -4.8270    -2.1190 O.2   1 <1>  -0.5700 
 12 N        1.3090    -4.8210    -0.2330 N.am  1 <1>  -0.7300 
 13 C        0.8750    -6.2420    -0.2890 C.3   1 <1>   0.2200 
 14 C       -0.6240    -6.3940    -0.1060 C.3   1 <1>  -0.0800 
 15 C        1.4040    -6.9930     0.9300 C.3   1 <1>   0.1200 
 16 C       -0.7600    -6.3650     1.4150 C.3   1 <1>   0.1200 
 17 C       -1.4950    -5.3870    -0.8790 C.3   1 <1>  -0.0170 
 18 O        0.4210    -6.9120     1.9220 O.3   1 <1>  -0.5600 
 19 C       -2.9700    -5.7840    -0.8520 C.ar  1 <1>  -0.1440 
 20 C       -3.8800    -5.3550     0.1450 C.ar  1 <1>   0.0000 
 21 C       -3.4540    -6.5970    -1.8350 C.ar  1 <1>  -0.1500 
 22 C       -5.2200    -5.8080     0.0500 C.ar  1 <1>   0.3100 
 23 C       -3.5500    -4.5060     1.2260 C.ar  1 <1>  -0.1500 
 24 C       -4.7980    -6.9840    -1.8370 C.ar  1 <1>   0.1600 
 25 N       -5.6620    -6.6200    -0.9430 N.ar  1 <1>  -0.6200 
 26 C       -6.1470    -5.4030     1.0240 C.ar  1 <1>  -0.1500 
 27 C       -4.4770    -4.1290     2.1590 C.ar  1 <1>  -0.1500 
 28 C       -5.7930    -4.5830     2.0600 C.ar  1 <1>  -0.1500 
 29 H       -2.4310    -2.0930     0.1550 H     1 <1>   0.0800 
 30 H       -1.8780    -0.6260     0.8960 H     1 <1>   0.0800 
 31 H        1.6650     0.0390    -1.2950 H     1 <1>   0.0800 
 32 H        0.8850    -1.1850    -2.2640 H     1 <1>   0.0800 
 33 H        2.7840    -1.1750     0.4160 H     1 <1>   0.0800 
 34 H        2.0920    -2.5740     1.1610 H     1 <1>   0.0800 
 35 H       -1.7300    -1.3800    -2.0240 H     1 <1>   0.0800 
 36 H       -2.5990    -0.0410    -1.3170 H     1 <1>   0.0800 
 37 H       -0.4280     0.9710    -0.6140 H     1 <1>   0.0800 
 38 H       -0.5040     0.7600    -2.3370 H     1 <1>   0.0800 
 39 H        3.8310    -3.1350    -0.4890 H     1 <1>   0.0800 
 40 H        2.9290    -2.3810    -1.7470 H     1 <1>   0.0800 
 41 H        0.9160    -4.2660     0.5430 H     1 <1>   0.3700 
 42 H        1.2150    -6.6990    -1.2030 H     1 <1>   0.0800 
 43 H       -0.8930    -7.3840    -0.4300 H     1 <1>   0.0800 
 44 H        2.3250    -6.5790     1.3020 H     1 <1>   0.0800 
 45 H        1.5400    -8.0350     0.6980 H     1 <1>   0.0800 
 46 H       -1.6000    -6.9390     1.7660 H     1 <1>   0.0800 
 47 H       -0.8200    -5.3580     1.7850 H     1 <1>   0.0800 
 48 H       -1.1610    -5.3700    -1.9020 H     1 <1>   0.0800 
 49 H       -1.3640    -4.3920    -0.5060 H     1 <1>   0.0800 
 50 H       -2.8220    -6.9600    -2.6250 H     1 <1>   0.1500 
 51 H       -2.5480    -4.1400     1.3270 H     1 <1>   0.1500 
 52 H       -5.1350    -7.6270    -2.6320 H     1 <1>   0.1500 
 53 H       -7.1540    -5.7650     0.9260 H     1 <1>   0.1500 
 54 H       -4.2040    -3.4830     2.9760 H     1 <1>   0.1500 
 55 H       -6.5140    -4.2800     2.8000 H     1 <1>   0.1500 
@<TRIPOS>BOND
  1   1   2  2   
  2   2   3  am  
  3   2   4  1   
  4   3   5  1   
  5   3   6  1   
  6   4   7  1   
  7   4  29  1   
  8   4  30  1   
  9   5   8  1   
 10   5  31  1   
 11   5  32  1   
 12   6   9  1   
 13   6  33  1   
 14   6  34  1   
 15   7   8  1   
 16   7  35  1   
 17   7  36  1   
 18   8  37  1   
 19   8  38  1   
 20   9  10  1   
 21   9  39  1   
 22   9  40  1   
 23  10  11  2   
 24  10  12  am  
 25  12  13  1   
 26  12  41  1   
 27  13  14  1   
 28  13  15  1   
 29  13  42  1   
 30  14  16  1   
 31  14  17  1   
 32  14  43  1   
 33  15  18  1   
 34  15  44  1   
 35  15  45  1   
 36  16  18  1   
 37  16  46  1   
 38  16  47  1   
 39  17  19  1   
 40  17  48  1   
 41  17  49  1   
 42  19  20  ar  
 43  19  21  ar  
 44  20  22  ar  
 45  20  23  ar  
 46  21  24  ar  
 47  21  50  1   
 48  22  25  ar  
 49  22  26  ar  
 50  23  27  ar  
 51  23  51  1   
 52  24  25  ar  
 53  24  52  1   
 54  26  28  ar  
 55  26  53  1   
 56  27  28  ar  
 57  27  54  1   
 58  28  55  1   
@<TRIPOS>SUBSTRUCTURE
  1 ****  17 GROUP 4 **** **** 0

# MOE 2024.06 (io_trps.svl 2023.06)
