@<TRIPOS>MOLECULE
NONAME
55 58 1 0 0 
SMALL
USER_CHARGES


@<TRIPOS>ATOM
  1 O        0.7890     1.5810    -1.1540 O.3   1 <1>  -0.0190 
  2 N        1.5160     0.5520    -1.4680 N.2   1 <1>  -0.4100 
  3 C        0.8350     1.8360     0.1270 C.2   1 <1>  -0.0400 
  4 C        2.0210     0.1200    -0.3680 C.2   1 <1>   0.1080 
  5 C        1.6210     0.9150     0.7030 C.2   1 <1>  -0.1500 
  6 C        0.0850     3.0300     0.6840 C.3   1 <1>   0.0200 
  7 C        2.9260    -1.0880    -0.2650 C.3   1 <1>  -0.0590 
  8 C        0.3570     4.2800    -0.1760 C.3   1 <1>  -0.0800 
  9 C       -0.1600     5.6120     0.3630 C.3   1 <1>   0.2000 
 10 C        1.8500     4.5260    -0.4260 C.3   1 <1>   0.3430 
 11 O        0.1760     5.7400     1.7090 O.3   1 <1>  -0.6800 
 12 C        0.6680     6.6200    -0.4400 C.3   1 <1>   0.3430 
 13 N        2.0270     6.0030    -0.5850 N.4   1 <1>  -0.9590 
 14 C        2.9610     6.5380     0.4450 C.3   1 <1>   0.4860 
 15 C        3.2060     8.0060     0.1580 C.ar  1 <1>  -0.1430 
 16 C        2.6450     8.9780     0.9750 C.ar  1 <1>  -0.1500 
 17 C        3.9890     8.3920    -0.9210 C.ar  1 <1>  -0.1500 
 18 C        2.8490    10.3210     0.7090 C.ar  1 <1>  -0.1500 
 19 C        4.1910     9.7340    -1.1870 C.ar  1 <1>  -0.1500 
 20 C        3.6240    10.7060    -0.3800 C.ar  1 <1>   0.0820 
 21 O        3.8740    11.9940    -0.7220 O.3   1 <1>  -0.3620 
 22 C        3.4310    13.0950     0.0490 C.3   1 <1>   0.2000 
 23 C        3.6540    14.3560    -0.7780 C.3   1 <1>  -0.1600 
 24 C        4.3620    13.2880     1.2450 C.3   1 <1>  -0.1600 
 25 C        5.1330    14.7140    -0.5960 C.3   1 <1>  -0.1600 
 26 C        5.5900    14.0190     0.6930 C.3   1 <1>  -0.1600 
 27 H        1.9020     0.7820     1.7320 H     1 <1>   0.1500 
 28 H       -0.9690     2.8130     0.6840 H     1 <1>   0.0800 
 29 H        0.3970     3.1800     1.7030 H     1 <1>   0.0800 
 30 H        3.8580    -0.8140     0.1940 H     1 <1>   0.0800 
 31 H        3.1250    -1.4840    -1.2450 H     1 <1>   0.0800 
 32 H        2.4510    -1.8500     0.3260 H     1 <1>   0.0800 
 33 H       -0.0970     4.1180    -1.1390 H     1 <1>   0.0800 
 34 H       -1.2210     5.7570     0.2440 H     1 <1>   0.0800 
 35 H        2.1790     3.9910    -1.3040 H     1 <1>   0.0800 
 36 H        2.4150     4.1760     0.4230 H     1 <1>   0.0800 
 37 H       -0.5260     5.3700     2.2860 H     1 <1>   0.4000 
 38 H        0.6980     7.5800     0.0490 H     1 <1>   0.0800 
 39 H        0.2250     6.7380    -1.4150 H     1 <1>   0.0800 
 40 H        2.4140     6.2420    -1.5060 H     1 <1>   0.4500 
 41 H        2.5370     6.4200     1.4290 H     1 <1>   0.0800 
 42 H        3.8980     6.0070     0.4090 H     1 <1>   0.0800 
 43 H        2.0440     8.7010     1.8260 H     1 <1>   0.1500 
 44 H        4.4530     7.6630    -1.5640 H     1 <1>   0.1500 
 45 H        2.4050    11.0510     1.3590 H     1 <1>   0.1500 
 46 H        4.7950    10.0440    -2.0210 H     1 <1>   0.1500 
 47 H        2.3960    12.9620     0.3070 H     1 <1>   0.0800 
 48 H        3.3870    14.2130    -1.8100 H     1 <1>   0.0800 
 49 H        3.0500    15.1470    -0.3690 H     1 <1>   0.0800 
 50 H        3.8720    13.9220     1.9620 H     1 <1>   0.0800 
 51 H        4.6220    12.3600     1.7230 H     1 <1>   0.0800 
 52 H        5.7020    14.3340    -1.4280 H     1 <1>   0.0800 
 53 H        5.2680    15.7800    -0.5400 H     1 <1>   0.0800 
 54 H        5.9770    14.7230     1.4090 H     1 <1>   0.0800 
 55 H        6.3580    13.3020     0.4570 H     1 <1>   0.0800 
@<TRIPOS>BOND
  1   1   2  1   
  2   1   3  1   
  3   2   4  2   
  4   3   5  2   
  5   3   6  1   
  6   4   5  1   
  7   4   7  1   
  8   5  27  1   
  9   6   8  1   
 10   6  28  1   
 11   6  29  1   
 12   7  30  1   
 13   7  31  1   
 14   7  32  1   
 15   8   9  1   
 16   8  10  1   
 17   8  33  1   
 18   9  11  1   
 19   9  12  1   
 20   9  34  1   
 21  10  13  1   
 22  10  35  1   
 23  10  36  1   
 24  11  37  1   
 25  12  13  1   
 26  12  38  1   
 27  12  39  1   
 28  13  14  1   
 29  13  40  1   
 30  14  15  1   
 31  14  41  1   
 32  14  42  1   
 33  15  16  ar  
 34  15  17  ar  
 35  16  18  ar  
 36  16  43  1   
 37  17  19  ar  
 38  17  44  1   
 39  18  20  ar  
 40  18  45  1   
 41  19  20  ar  
 42  19  46  1   
 43  20  21  1   
 44  21  22  1   
 45  22  23  1   
 46  22  24  1   
 47  22  47  1   
 48  23  25  1   
 49  23  48  1   
 50  23  49  1   
 51  24  26  1   
 52  24  50  1   
 53  24  51  1   
 54  25  26  1   
 55  25  52  1   
 56  25  53  1   
 57  26  54  1   
 58  26  55  1   
@<TRIPOS>SUBSTRUCTURE
  1 ****  14 GROUP 4 **** **** 0

# MOE 2024.06 (io_trps.svl 2023.06)
