@<TRIPOS>MOLECULE
NONAME
56 58 1 0 0 
SMALL
USER_CHARGES


@<TRIPOS>ATOM
  1 CL       0.9490     1.8020    -1.2640 Cl    1 <1>  -0.1770 
  2 C        1.7930     0.3200    -0.9030 C.ar  1 <1>   0.1770 
  3 C        1.4050    -0.8470    -1.5360 C.ar  1 <1>  -0.1500 
  4 C        2.8340     0.3350     0.0050 C.ar  1 <1>  -0.1500 
  5 C        2.0670    -2.0330    -1.2530 C.ar  1 <1>  -0.1440 
  6 C        3.5000    -0.8440     0.2920 C.ar  1 <1>  -0.1500 
  7 C        3.1140    -2.0290    -0.3290 C.ar  1 <1>   0.0830 
  8 C        1.6510    -3.3160    -1.9540 C.3   1 <1>   0.4870 
  9 O        3.7180    -3.2150    -0.0610 O.3   1 <1>  -0.3630 
 10 N        1.3750    -4.3460    -0.9120 N.4   1 <1>  -0.9590 
 11 C        4.3670    -3.4470     1.1700 C.3   1 <1>   0.2580 
 12 C        1.5210    -5.7580    -1.4030 C.3   1 <1>   0.3430 
 13 C        0.1000    -4.0750    -0.1880 C.3   1 <1>   0.3430 
 14 C        4.3660    -4.9510     1.3720 C.2   1 <1>  -0.2880 
 15 C        1.2950    -6.8210    -0.2770 C.3   1 <1>   0.4230 
 16 C       -0.0080    -5.0690     0.9680 C.3   1 <1>  -0.1600 
 17 C        3.6970    -5.6040     2.3280 C.2   1 <1>  -0.3000 
 18 N        1.4560    -8.2790    -0.7140 N.4   1 <1>  -0.9590 
 19 C       -0.0340    -6.5480     0.4860 C.3   1 <1>   0.0000 
 20 C        0.8090    -9.2750     0.2110 C.3   1 <1>   0.3430 
 21 C        1.0580    -8.6090    -2.1260 C.3   1 <1>   0.2630 
 22 C       -0.1180    -7.4610     1.7410 C.3   1 <1>  -0.1600 
 23 C       -1.2460    -6.8160    -0.4560 C.3   1 <1>   0.1200 
 24 C        0.7400    -8.7360     1.6380 C.3   1 <1>  -0.1600 
 25 O       -2.3610    -6.1040    -0.0580 O.3   1 <1>  -0.6800 
 26 H        0.5930    -0.7990    -2.2420 H     1 <1>   0.1500 
 27 H        3.1170     1.2610     0.4750 H     1 <1>   0.1500 
 28 H        4.3160    -0.8160     0.9920 H     1 <1>   0.1500 
 29 H        2.4630    -3.6360    -2.5870 H     1 <1>   0.0800 
 30 H        0.7790    -3.1490    -2.5660 H     1 <1>   0.0800 
 31 H        2.1420    -4.1580    -0.2370 H     1 <1>   0.4500 
 32 H        5.3690    -3.0540     1.1160 H     1 <1>   0.0800 
 33 H        3.8190    -2.9570     1.9570 H     1 <1>   0.0800 
 34 H        0.8060    -5.9230    -2.1910 H     1 <1>   0.0800 
 35 H        2.5120    -5.8860    -1.8070 H     1 <1>   0.0800 
 36 H        0.0980    -3.0680     0.1990 H     1 <1>   0.0800 
 37 H       -0.7470    -4.1860    -0.8480 H     1 <1>   0.0800 
 38 H        4.9990    -5.4500     0.6560 H     1 <1>   0.1500 
 39 H        2.0750    -6.6410     0.4450 H     1 <1>   0.0800 
 40 H        0.8170    -4.9020     1.6390 H     1 <1>   0.0800 
 41 H       -0.8990    -4.8410     1.5280 H     1 <1>   0.0800 
 42 H        3.7360    -6.6710     2.4720 H     1 <1>   0.1500 
 43 H        3.0750    -5.1290     3.0700 H     1 <1>   0.1500 
 44 H        2.4660    -8.4860    -0.6410 H     1 <1>   0.4500 
 45 H       -0.1950    -9.4870    -0.1210 H     1 <1>   0.0800 
 46 H        1.3610   -10.2030     0.1990 H     1 <1>   0.0800 
 47 H        0.0060    -8.4270    -2.2780 H     1 <1>   0.0800 
 48 H        1.2520    -9.6500    -2.3330 H     1 <1>   0.0800 
 49 H        1.6210    -8.0210    -2.8320 H     1 <1>   0.0800 
 50 H        0.2010    -6.9320     2.6250 H     1 <1>   0.0800 
 51 H       -1.1440    -7.7380     1.9180 H     1 <1>   0.0800 
 52 H       -1.5140    -7.8580    -0.4860 H     1 <1>   0.0800 
 53 H       -1.0410    -6.4950    -1.4620 H     1 <1>   0.0800 
 54 H        0.3220    -9.4920     2.2810 H     1 <1>   0.0800 
 55 H        1.7390    -8.5450     1.9920 H     1 <1>   0.0800 
 56 H       -2.8590    -6.5570     0.6560 H     1 <1>   0.4000 
@<TRIPOS>BOND
  1   1   2  1   
  2   2   3  ar  
  3   2   4  ar  
  4   3   5  ar  
  5   3  26  1   
  6   4   6  ar  
  7   4  27  1   
  8   5   7  ar  
  9   5   8  1   
 10   6   7  ar  
 11   6  28  1   
 12   7   9  1   
 13   8  10  1   
 14   8  29  1   
 15   8  30  1   
 16   9  11  1   
 17  10  12  1   
 18  10  13  1   
 19  10  31  1   
 20  11  14  1   
 21  11  32  1   
 22  11  33  1   
 23  12  15  1   
 24  12  34  1   
 25  12  35  1   
 26  13  16  1   
 27  13  36  1   
 28  13  37  1   
 29  14  17  2   
 30  14  38  1   
 31  15  18  1   
 32  15  19  1   
 33  15  39  1   
 34  16  19  1   
 35  16  40  1   
 36  16  41  1   
 37  17  42  1   
 38  17  43  1   
 39  18  20  1   
 40  18  21  1   
 41  18  44  1   
 42  19  22  1   
 43  19  23  1   
 44  20  24  1   
 45  20  45  1   
 46  20  46  1   
 47  21  47  1   
 48  21  48  1   
 49  21  49  1   
 50  22  24  1   
 51  22  50  1   
 52  22  51  1   
 53  23  25  1   
 54  23  52  1   
 55  23  53  1   
 56  24  54  1   
 57  24  55  1   
 58  25  56  1   
@<TRIPOS>SUBSTRUCTURE
  1 ****  10 GROUP 4 **** **** 0

# MOE 2024.06 (io_trps.svl 2023.06)
