@<TRIPOS>MOLECULE
NONAME
47 48 1 0 0 
SMALL
USER_CHARGES


@<TRIPOS>ATOM
  1 O        1.0970     0.7950    -0.2370 O.3   1 <1>  -0.5600 
  2 C        0.3300     1.9330    -0.4450 C.3   1 <1>   0.2000 
  3 C        1.2240    -0.0780    -1.3170 C.3   1 <1>   0.1200 
  4 C        0.7350     2.9170     0.6710 C.3   1 <1>   0.3430 
  5 C       -1.1550     1.5530    -0.3770 C.3   1 <1>  -0.2400 
  6 C        2.2120    -1.1630    -0.9090 C.3   1 <1>  -0.2400 
  7 N        0.8290     4.3510     0.2240 N.4   1 <1>  -0.9590 
  8 C        1.4670     5.1800     1.2860 C.3   1 <1>   0.4860 
  9 C       -0.4860     4.9290    -0.2020 C.3   1 <1>   0.2630 
 10 C        1.7840     6.5490     0.7160 C.ar  1 <1>  -0.1440 
 11 C        1.0260     7.6530     1.0780 C.ar  1 <1>  -0.1500 
 12 C        2.8370     6.7120    -0.1730 C.ar  1 <1>  -0.1500 
 13 C        1.3100     8.9010     0.5500 C.ar  1 <1>  -0.1500 
 14 C        3.1180     7.9600    -0.7000 C.ar  1 <1>  -0.1500 
 15 C        2.3570     9.0630    -0.3430 C.ar  1 <1>  -0.1440 
 16 C        2.6810    10.4350    -0.9300 C.3   1 <1>   0.2390 
 17 N        4.0730    10.8340    -0.6310 N.pl3 1 <1>   0.3140 
 18 N        5.0170    10.9060    -1.5910 N.2   1 <1>  -0.7070 
 19 C        4.5770    11.1770     0.5720 C.2   1 <1>  -0.3020 
 20 C        6.0920    11.2910    -0.9740 C.2   1 <1>   0.1390 
 21 C        5.8800    11.4780     0.3860 C.2   1 <1>  -0.1500 
 22 H        0.5900     2.3400    -1.4080 H     1 <1>   0.0800 
 23 H        1.5930     0.4630    -2.1720 H     1 <1>   0.0800 
 24 H        0.2650    -0.5140    -1.5390 H     1 <1>   0.0800 
 25 H        1.7010     2.6040     1.0330 H     1 <1>   0.0800 
 26 H        0.0340     2.8300     1.4840 H     1 <1>   0.0800 
 27 H       -1.3650     1.0320     0.5410 H     1 <1>   0.0800 
 28 H       -1.4240     0.9230    -1.2050 H     1 <1>   0.0800 
 29 H       -1.7790     2.4260    -0.4230 H     1 <1>   0.0800 
 30 H        3.1690    -0.7300    -0.6800 H     1 <1>   0.0800 
 31 H        2.3380    -1.8630    -1.7150 H     1 <1>   0.0800 
 32 H        1.8440    -1.6950    -0.0500 H     1 <1>   0.0800 
 33 H        1.4700     4.4000    -0.5800 H     1 <1>   0.4500 
 34 H        2.3830     4.7170     1.6180 H     1 <1>   0.0800 
 35 H        0.8080     5.2760     2.1330 H     1 <1>   0.0800 
 36 H       -1.1880     4.9100     0.6160 H     1 <1>   0.0800 
 37 H       -0.8960     4.3660    -1.0240 H     1 <1>   0.0800 
 38 H       -0.3590     5.9510    -0.5230 H     1 <1>   0.0800 
 39 H        0.2100     7.5610     1.7750 H     1 <1>   0.1500 
 40 H        3.4570     5.8810    -0.4630 H     1 <1>   0.1500 
 41 H        0.7120     9.7480     0.8440 H     1 <1>   0.1500 
 42 H        3.9410     8.0780    -1.3880 H     1 <1>   0.1500 
 43 H        2.0240    11.1850    -0.5320 H     1 <1>   0.0800 
 44 H        2.5610    10.4090    -1.9980 H     1 <1>   0.0800 
 45 H        3.9940    11.1840     1.4750 H     1 <1>   0.1500 
 46 H        7.0360    11.4460    -1.4700 H     1 <1>   0.1500 
 47 H        6.6140    11.7940     1.1060 H     1 <1>   0.1500 
@<TRIPOS>BOND
  1   1   2  1   
  2   1   3  1   
  3   2   4  1   
  4   2   5  1   
  5   2  22  1   
  6   3   6  1   
  7   3  23  1   
  8   3  24  1   
  9   4   7  1   
 10   4  25  1   
 11   4  26  1   
 12   5  27  1   
 13   5  28  1   
 14   5  29  1   
 15   6  30  1   
 16   6  31  1   
 17   6  32  1   
 18   7   8  1   
 19   7   9  1   
 20   7  33  1   
 21   8  10  1   
 22   8  34  1   
 23   8  35  1   
 24   9  36  1   
 25   9  37  1   
 26   9  38  1   
 27  10  11  ar  
 28  10  12  ar  
 29  11  13  ar  
 30  11  39  1   
 31  12  14  ar  
 32  12  40  1   
 33  13  15  ar  
 34  13  41  1   
 35  14  15  ar  
 36  14  42  1   
 37  15  16  1   
 38  16  17  1   
 39  16  43  1   
 40  16  44  1   
 41  17  18  1   
 42  17  19  1   
 43  18  20  2   
 44  19  21  2   
 45  19  45  1   
 46  20  21  1   
 47  20  46  1   
 48  21  47  1   
@<TRIPOS>SUBSTRUCTURE
  1 ****  12 GROUP 4 **** **** 0

# MOE 2024.06 (io_trps.svl 2023.06)
