@<TRIPOS>MOLECULE
NONAME
44 46 1 0 0 
SMALL
USER_CHARGES


@<TRIPOS>ATOM
  1 CL      -0.1590     0.0800     0.7210 Cl    1 <1>  -0.1770 
  2 C       -0.4010    -1.5890     0.2670 C.ar  1 <1>   0.1770 
  3 C       -1.5290    -2.3070     0.6580 C.ar  1 <1>  -0.0090 
  4 C        0.5960    -2.1500    -0.5160 C.ar  1 <1>  -0.1500 
  5 S       -2.8670    -1.6140     1.6650 S.o2  1 <1>   1.4470 
  6 C       -1.6270    -3.6230     0.2130 C.ar  1 <1>  -0.1500 
  7 C        0.4820    -3.4620    -0.9400 C.ar  1 <1>  -0.1500 
  8 O       -3.5040    -2.7200     2.3490 O.2   1 <1>  -0.6500 
  9 O       -2.4650    -0.4740     2.4570 O.2   1 <1>  -0.6500 
 10 N       -3.9770    -1.0520     0.5120 N.am  1 <1>  -0.8490 
 11 C       -0.6350    -4.1840    -0.5700 C.ar  1 <1>   0.1770 
 12 C       -5.3220    -0.9070     1.0960 C.3   1 <1>   0.1960 
 13 C       -3.5500     0.2040    -0.1130 C.3   1 <1>   0.1960 
 14 CL      -0.7980    -5.8360    -1.1020 Cl    1 <1>  -0.1770 
 15 C       -6.3950    -0.5440     0.0410 C.3   1 <1>   0.0000 
 16 C       -4.5180     0.6030    -1.2290 C.3   1 <1>  -0.1600 
 17 C       -7.7600    -0.3990     0.7460 C.3   1 <1>   0.2000 
 18 C       -5.9530     0.7360    -0.7040 C.3   1 <1>  -0.1600 
 19 C       -6.6310    -1.7260    -0.9170 C.3   1 <1>  -0.1600 
 20 O       -8.6420     0.3080    -0.0790 O.3   1 <1>  -0.5600 
 21 C       -8.2820    -1.8330     0.8990 C.3   1 <1>  -0.1600 
 22 C       -7.6130    -2.6630    -0.2050 C.3   1 <1>  -0.1600 
 23 C       -9.6900     0.9430     0.5820 C.3   1 <1>   0.0400 
 24 H        1.4530    -1.5610    -0.7900 H     1 <1>   0.1500 
 25 H       -2.4840    -4.2200     0.4760 H     1 <1>   0.1500 
 26 H        1.2420    -3.9200    -1.5490 H     1 <1>   0.1500 
 27 H       -5.6060    -1.8320     1.5700 H     1 <1>   0.0800 
 28 H       -5.2940    -0.1470     1.8600 H     1 <1>   0.0800 
 29 H       -3.5030     0.9880     0.6260 H     1 <1>   0.0800 
 30 H       -2.5710     0.0850    -0.5410 H     1 <1>   0.0800 
 31 H       -4.2040     1.5400    -1.6530 H     1 <1>   0.0800 
 32 H       -4.4790    -0.1370    -2.0090 H     1 <1>   0.0800 
 33 H       -7.6690     0.1160     1.6880 H     1 <1>   0.0800 
 34 H       -6.6190     0.9430    -1.5240 H     1 <1>   0.0800 
 35 H       -6.0050     1.5710    -0.0260 H     1 <1>   0.0800 
 36 H       -7.1000    -1.3640    -1.8160 H     1 <1>   0.0800 
 37 H       -5.7200    -2.2310    -1.1870 H     1 <1>   0.0800 
 38 H       -7.9810    -2.2180     1.8570 H     1 <1>   0.0800 
 39 H       -9.3550    -1.8820     0.8340 H     1 <1>   0.0800 
 40 H       -7.0860    -3.4960     0.2290 H     1 <1>   0.0800 
 41 H       -8.3430    -3.0380    -0.9020 H     1 <1>   0.0800 
 42 H      -10.3080     1.4210    -0.1570 H     1 <1>   0.0800 
 43 H       -9.2900     1.6840     1.2520 H     1 <1>   0.0800 
 44 H      -10.2700     0.2160     1.1230 H     1 <1>   0.0800 
@<TRIPOS>BOND
  1   1   2  1   
  2   2   3  ar  
  3   2   4  ar  
  4   3   5  1   
  5   3   6  ar  
  6   4   7  ar  
  7   4  24  1   
  8   5   8  2   
  9   5   9  2   
 10   5  10  am  
 11   6  11  ar  
 12   6  25  1   
 13   7  11  ar  
 14   7  26  1   
 15  10  12  1   
 16  10  13  1   
 17  11  14  1   
 18  12  15  1   
 19  12  27  1   
 20  12  28  1   
 21  13  16  1   
 22  13  29  1   
 23  13  30  1   
 24  15  17  1   
 25  15  18  1   
 26  15  19  1   
 27  16  18  1   
 28  16  31  1   
 29  16  32  1   
 30  17  20  1   
 31  17  21  1   
 32  17  33  1   
 33  18  34  1   
 34  18  35  1   
 35  19  22  1   
 36  19  36  1   
 37  19  37  1   
 38  20  23  1   
 39  21  22  1   
 40  21  38  1   
 41  21  39  1   
 42  22  40  1   
 43  22  41  1   
 44  23  42  1   
 45  23  43  1   
 46  23  44  1   
@<TRIPOS>SUBSTRUCTURE
  1 ****  10 GROUP 4 **** **** 0

# MOE 2024.06 (io_trps.svl 2023.06)
