@<TRIPOS>MOLECULE
NONAME
48 50 1 0 0 
SMALL
USER_CHARGES


@<TRIPOS>ATOM
  1 O        0.5650    -0.9280     2.0460 O.2   1 <1>  -0.5700 
  2 C        1.2240    -1.0990     1.0640 C.2   1 <1>   0.4480 
  3 C        1.0420    -2.3660     0.2240 C.3   1 <1>  -0.0190 
  4 C        2.2240    -0.0420     0.6150 C.3   1 <1>  -0.0990 
  5 C        0.1490    -3.3640     0.9810 C.3   1 <1>   0.2090 
  6 C        2.3690    -3.0530    -0.1640 C.3   1 <1>  -0.1600 
  7 C        1.9220     0.5580    -0.7730 C.3   1 <1>  -0.0800 
  8 N       -0.1050    -4.5810     0.1450 N.pl3 1 <1>  -0.8380 
  9 C        2.1020    -4.3430    -0.9560 C.3   1 <1>  -0.1600 
 10 C        3.0060     1.5730    -1.1510 C.3   1 <1>  -0.2400 
 11 C        0.5470     1.2390    -0.8050 C.3   1 <1>  -0.2400 
 12 C       -1.3260    -5.1950     0.0250 C.ar  1 <1>   0.7710 
 13 C        1.1560    -5.3000    -0.2210 C.3   1 <1>   0.2090 
 14 N       -2.4310    -4.3910     0.0070 N.ar  1 <1>  -0.1790 
 15 N       -1.4080    -6.4950    -0.0780 N.ar  1 <1>  -0.5670 
 16 C       -3.6820    -4.8550    -0.0910 C.ar  1 <1>   0.4610 
 17 C       -2.6600    -7.0080    -0.1760 C.ar  1 <1>   0.1050 
 18 N       -4.7270    -4.0090    -0.1000 N.pl3 1 <1>  -0.9000 
 19 C       -3.8030    -6.2450    -0.1850 C.ar  1 <1>   0.0000 
 20 N       -3.0550    -8.3010    -0.2790 N.pl3 1 <1>   0.3140 
 21 C       -4.8390    -7.1850    -0.2980 C.2   1 <1>   0.1390 
 22 N       -4.4050    -8.3980    -0.3540 N.2   1 <1>  -0.7070 
 23 C       -2.2050    -9.5010    -0.3120 C.3   1 <1>   0.0160 
 24 H        0.5280    -2.0760    -0.6750 H     1 <1>   0.0800 
 25 H        3.2090    -0.4690     0.6230 H     1 <1>   0.0800 
 26 H        2.2210     0.7490     1.3440 H     1 <1>   0.0800 
 27 H       -0.7710    -2.8850     1.2680 H     1 <1>   0.0800 
 28 H        0.6480    -3.6610     1.8910 H     1 <1>   0.0800 
 29 H        2.9250    -3.2900     0.7280 H     1 <1>   0.0800 
 30 H        2.9720    -2.3970    -0.7670 H     1 <1>   0.0800 
 31 H        1.9340    -0.2260    -1.5130 H     1 <1>   0.0800 
 32 H        3.0340    -4.8470    -1.1420 H     1 <1>   0.0800 
 33 H        1.6730    -4.1000    -1.9130 H     1 <1>   0.0800 
 34 H        3.0290     2.3860    -0.4460 H     1 <1>   0.0800 
 35 H        2.8170     1.9770    -2.1300 H     1 <1>   0.0800 
 36 H        3.9750     1.1050    -1.1650 H     1 <1>   0.0800 
 37 H        0.5000     2.0270    -0.0730 H     1 <1>   0.0800 
 38 H       -0.2400     0.5370    -0.5990 H     1 <1>   0.0800 
 39 H        0.3660     1.6680    -1.7750 H     1 <1>   0.0800 
 40 H        0.9500    -6.1440    -0.8590 H     1 <1>   0.0800 
 41 H        1.6300    -5.6660     0.6750 H     1 <1>   0.0800 
 42 H       -2.2410    -3.4020     0.0380 H     1 <1>   0.4570 
 43 H       -5.6970    -4.3430    -0.1770 H     1 <1>   0.4000 
 44 H       -4.6940    -2.9850    -0.0280 H     1 <1>   0.4000 
 45 H       -5.8860    -6.9310    -0.3350 H     1 <1>   0.1500 
 46 H       -1.1770    -9.2260    -0.1700 H     1 <1>   0.0800 
 47 H       -2.3230    -9.9870    -1.2630 H     1 <1>   0.0800 
 48 H       -2.5130   -10.1690     0.4700 H     1 <1>   0.0800 
@<TRIPOS>BOND
  1   1   2  2   
  2   2   3  1   
  3   2   4  1   
  4   3   5  1   
  5   3   6  1   
  6   3  24  1   
  7   4   7  1   
  8   4  25  1   
  9   4  26  1   
 10   5   8  1   
 11   5  27  1   
 12   5  28  1   
 13   6   9  1   
 14   6  29  1   
 15   6  30  1   
 16   7  10  1   
 17   7  11  1   
 18   7  31  1   
 19   8  12  1   
 20   8  13  1   
 21   9  13  1   
 22   9  32  1   
 23   9  33  1   
 24  10  34  1   
 25  10  35  1   
 26  10  36  1   
 27  11  37  1   
 28  11  38  1   
 29  11  39  1   
 30  12  14  ar  
 31  12  15  ar  
 32  13  40  1   
 33  13  41  1   
 34  14  16  ar  
 35  14  42  1   
 36  15  17  ar  
 37  16  18  1   
 38  16  19  ar  
 39  17  19  ar  
 40  17  20  1   
 41  18  43  1   
 42  18  44  1   
 43  19  21  1   
 44  20  22  1   
 45  20  23  1   
 46  21  22  2   
 47  21  45  1   
 48  23  46  1   
 49  23  47  1   
 50  23  48  1   
@<TRIPOS>SUBSTRUCTURE
  1 ****   8 GROUP 4 **** **** 0

# MOE 2024.06 (io_trps.svl 2023.06)
