@<TRIPOS>MOLECULE
NONAME
52 55 1 0 0 
SMALL
USER_CHARGES


@<TRIPOS>ATOM
  1 O       -1.2230    -0.1130    -0.2660 O.2   1 <1>  -0.5700 
  2 C       -2.1560    -0.8470     0.0680 C.2   1 <1>   0.5410 
  3 C       -2.0160    -2.2710     0.0760 C.2   1 <1>  -0.1240 
  4 C       -3.4080    -0.2900     0.4690 C.2   1 <1>  -0.1240 
  5 C       -3.0560    -3.0570     0.4900 C.2   1 <1>  -0.0380 
  6 C       -0.6780    -2.8420    -0.3980 C.3   1 <1>  -0.1020 
  7 C       -4.4220    -1.1090     0.8480 C.2   1 <1>  -0.0500 
  8 C       -3.5830     1.2240     0.4590 C.3   1 <1>  -0.1020 
  9 N       -4.2510    -2.4700     0.8560 N.pl3 1 <1>  -0.6000 
 10 C       -2.9920    -4.5840     0.6070 C.3   1 <1>   0.2480 
 11 N       -3.4010    -5.2910    -0.6280 N.3   1 <1>  -0.8100 
 12 C       -4.7120    -4.9050    -1.1710 C.3   1 <1>   0.1100 
 13 C       -3.5250    -6.7370    -0.4040 C.3   1 <1>   0.1100 
 14 C       -5.7500    -5.7330    -0.4150 C.3   1 <1>   0.2000 
 15 C       -5.0000    -7.0190    -0.0500 C.3   1 <1>  -0.0800 
 16 O       -6.1050    -5.0820     0.7600 O.3   1 <1>  -0.6800 
 17 C       -5.5570    -8.2410    -0.8010 C.3   1 <1>  -0.0170 
 18 C       -4.8540    -9.5200    -0.3770 C.ar  1 <1>   0.1670 
 19 N       -3.7960    -9.8730    -1.0410 N.ar  1 <1>  -0.6200 
 20 C       -5.3700   -10.2500     0.7060 C.ar  1 <1>  -0.1500 
 21 C       -3.1580   -11.0090    -0.6600 C.ar  1 <1>   0.3100 
 22 C       -4.7510   -11.3930     1.1100 C.ar  1 <1>  -0.1500 
 23 C       -3.6010   -11.8070     0.4180 C.ar  1 <1>   0.0000 
 24 C       -2.0100   -11.4100    -1.3610 C.ar  1 <1>  -0.1500 
 25 C       -2.8780   -12.9700     0.7510 C.ar  1 <1>  -0.1500 
 26 C       -1.3210   -12.5440    -1.0210 C.ar  1 <1>  -0.1500 
 27 C       -1.7610   -13.3320     0.0470 C.ar  1 <1>  -0.1500 
 28 H       -0.3580    -2.3300    -1.2880 H     1 <1>   0.0800 
 29 H       -0.7430    -3.8860    -0.6410 H     1 <1>   0.0800 
 30 H        0.0690    -2.7010     0.3620 H     1 <1>   0.0800 
 31 H       -5.3850    -0.7300     1.1470 H     1 <1>   0.1500 
 32 H       -2.8630     1.6770     1.1170 H     1 <1>   0.0800 
 33 H       -4.5700     1.5030     0.7790 H     1 <1>   0.0800 
 34 H       -3.4220     1.6010    -0.5360 H     1 <1>   0.0800 
 35 H       -5.0660    -3.0740     1.0500 H     1 <1>   0.4000 
 36 H       -3.5990    -4.8940     1.4360 H     1 <1>   0.0800 
 37 H       -1.9860    -4.8770     0.8460 H     1 <1>   0.0800 
 38 H       -4.9070    -3.8490    -1.1340 H     1 <1>   0.0800 
 39 H       -4.7350    -5.1990    -2.2060 H     1 <1>   0.0800 
 40 H       -3.2660    -7.2370    -1.3230 H     1 <1>   0.0800 
 41 H       -2.8530    -7.0880     0.3620 H     1 <1>   0.0800 
 42 H       -6.6420    -5.8890    -0.9980 H     1 <1>   0.0800 
 43 H       -5.0760    -7.2140     1.0050 H     1 <1>   0.0800 
 44 H       -5.3630    -5.1630     1.3860 H     1 <1>   0.4000 
 45 H       -5.4380    -8.1070    -1.8620 H     1 <1>   0.0800 
 46 H       -6.6100    -8.3370    -0.6030 H     1 <1>   0.0800 
 47 H       -6.2520    -9.8950     1.2080 H     1 <1>   0.1500 
 48 H       -5.1160   -11.9790     1.9340 H     1 <1>   0.1500 
 49 H       -1.6880   -10.7920    -2.1790 H     1 <1>   0.1500 
 50 H       -3.2220   -13.5720     1.5730 H     1 <1>   0.1500 
 51 H       -0.4410   -12.8400    -1.5670 H     1 <1>   0.1500 
 52 H       -1.2110   -14.2210     0.3030 H     1 <1>   0.1500 
@<TRIPOS>BOND
  1   1   2  2   
  2   2   3  1   
  3   2   4  1   
  4   3   5  2   
  5   3   6  1   
  6   4   7  2   
  7   4   8  1   
  8   5   9  1   
  9   5  10  1   
 10   6  28  1   
 11   6  29  1   
 12   6  30  1   
 13   7   9  1   
 14   7  31  1   
 15   8  32  1   
 16   8  33  1   
 17   8  34  1   
 18   9  35  1   
 19  10  11  1   
 20  10  36  1   
 21  10  37  1   
 22  11  12  1   
 23  11  13  1   
 24  12  14  1   
 25  12  38  1   
 26  12  39  1   
 27  13  15  1   
 28  13  40  1   
 29  13  41  1   
 30  14  15  1   
 31  14  16  1   
 32  14  42  1   
 33  15  17  1   
 34  15  43  1   
 35  16  44  1   
 36  17  18  1   
 37  17  45  1   
 38  17  46  1   
 39  18  19  ar  
 40  18  20  ar  
 41  19  21  ar  
 42  20  22  ar  
 43  20  47  1   
 44  21  23  ar  
 45  21  24  ar  
 46  22  23  ar  
 47  22  48  1   
 48  23  25  ar  
 49  24  26  ar  
 50  24  49  1   
 51  25  27  ar  
 52  25  50  1   
 53  26  27  ar  
 54  26  51  1   
 55  27  52  1   
@<TRIPOS>SUBSTRUCTURE
  1 ****  13 GROUP 4 **** **** 0

# MOE 2024.06 (io_trps.svl 2023.06)
