@<TRIPOS>MOLECULE
NONAME
46 48 1 0 0 
SMALL
USER_CHARGES


@<TRIPOS>ATOM
  1 O        0.0660    -0.1350    -1.0730 O.2   1 <1>  -0.5700 
  2 C        1.0020    -0.6710    -0.5350 C.2   1 <1>   0.5690 
  3 N        2.0650     0.0000     0.0020 N.am  1 <1>  -0.4940 
  4 C        0.9960    -2.1820    -0.4460 C.3   1 <1>  -0.0990 
  5 C        2.3710     1.3820     0.0710 C.2   1 <1>  -0.0880 
  6 C       -0.2060    -2.6780     0.3700 C.3   1 <1>   0.0200 
  7 N        1.5080     2.4390     0.1400 N.pl3 1 <1>   0.3140 
  8 C        3.6180     1.9130     0.1020 C.2   1 <1>  -0.1810 
  9 C       -0.1780    -4.1840     0.5260 C.2   1 <1>   0.2980 
 10 N        2.1740     3.6110     0.2140 N.2   1 <1>  -0.7070 
 11 C        0.0430     2.4420     0.2300 C.3   1 <1>   0.0160 
 12 C        3.4250     3.2890     0.1830 C.2   1 <1>   0.1080 
 13 C        4.9540     1.1900     0.0530 C.3   1 <1>   0.0210 
 14 O        0.7500    -4.7190     1.2760 O.3   1 <1>  -0.0190 
 15 N       -0.9810    -5.0020    -0.0140 N.2   1 <1>  -0.5650 
 16 C        4.5150     4.3370     0.2380 C.3   1 <1>  -0.0590 
 17 C        5.4060     1.0040    -1.3970 C.3   1 <1>  -0.2400 
 18 N        0.5170    -5.9910     1.2050 N.2   1 <1>  -0.4100 
 19 C       -0.5070    -6.1650     0.4450 C.2   1 <1>   0.4620 
 20 C       -1.1010    -7.4470     0.1010 C.ar  1 <1>   0.0540 
 21 C       -2.2110    -7.5410    -0.7430 C.ar  1 <1>  -0.1500 
 22 C       -0.5840    -8.6430     0.6040 C.ar  1 <1>  -0.1500 
 23 C       -2.7740    -8.7610    -1.0680 C.ar  1 <1>  -0.1500 
 24 C       -1.1430    -9.8680     0.2830 C.ar  1 <1>  -0.1500 
 25 C       -2.2410    -9.9290    -0.5550 C.ar  1 <1>  -0.1500 
 26 H        2.8290    -0.5930     0.3200 H     1 <1>   0.3700 
 27 H        1.9090    -2.5280     0.0010 H     1 <1>   0.0800 
 28 H        0.9380    -2.5810    -1.4430 H     1 <1>   0.0800 
 29 H       -1.1200    -2.3950    -0.1250 H     1 <1>   0.0800 
 30 H       -0.2040    -2.2270     1.3460 H     1 <1>   0.0800 
 31 H       -0.2810     1.6150     0.8310 H     1 <1>   0.0800 
 32 H       -0.3670     2.3620    -0.7590 H     1 <1>   0.0800 
 33 H       -0.2810     3.3630     0.6780 H     1 <1>   0.0800 
 34 H        4.8650     0.2310     0.5290 H     1 <1>   0.0800 
 35 H        5.6920     1.7540     0.5950 H     1 <1>   0.0800 
 36 H        5.2600     4.1350    -0.5070 H     1 <1>   0.0800 
 37 H        4.9680     4.3360     1.2110 H     1 <1>   0.0800 
 38 H        4.0930     5.3080     0.0510 H     1 <1>   0.0800 
 39 H        4.6750     0.4320    -1.9410 H     1 <1>   0.0800 
 40 H        6.3490     0.4890    -1.4310 H     1 <1>   0.0800 
 41 H        5.5150     1.9600    -1.8770 H     1 <1>   0.0800 
 42 H       -2.6400    -6.6420    -1.1510 H     1 <1>   0.1500 
 43 H        0.2700    -8.6150     1.2590 H     1 <1>   0.1500 
 44 H       -3.6290    -8.8020    -1.7210 H     1 <1>   0.1500 
 45 H       -0.7230   -10.7730     0.6860 H     1 <1>   0.1500 
 46 H       -2.6770   -10.8800    -0.8070 H     1 <1>   0.1500 
@<TRIPOS>BOND
  1   1   2  2   
  2   2   3  am  
  3   2   4  1   
  4   3   5  1   
  5   3  26  1   
  6   4   6  1   
  7   4  27  1   
  8   4  28  1   
  9   5   7  1   
 10   5   8  2   
 11   6   9  1   
 12   6  29  1   
 13   6  30  1   
 14   7  10  1   
 15   7  11  1   
 16   8  12  1   
 17   8  13  1   
 18   9  14  1   
 19   9  15  2   
 20  10  12  2   
 21  11  31  1   
 22  11  32  1   
 23  11  33  1   
 24  12  16  1   
 25  13  17  1   
 26  13  34  1   
 27  13  35  1   
 28  14  18  1   
 29  15  19  1   
 30  16  36  1   
 31  16  37  1   
 32  16  38  1   
 33  17  39  1   
 34  17  40  1   
 35  17  41  1   
 36  18  19  2   
 37  19  20  1   
 38  20  21  ar  
 39  20  22  ar  
 40  21  23  ar  
 41  21  42  1   
 42  22  24  ar  
 43  22  43  1   
 44  23  25  ar  
 45  23  44  1   
 46  24  25  ar  
 47  24  45  1   
 48  25  46  1   
@<TRIPOS>SUBSTRUCTURE
  1 ****   4 GROUP 4 **** **** 0

# MOE 2024.06 (io_trps.svl 2023.06)
