@<TRIPOS>MOLECULE
NONAME
56 58 1 0 0 
SMALL
USER_CHARGES


@<TRIPOS>ATOM
  1 O       -0.5690     0.0190    -0.3430 O.2   1 <1>  -0.5700 
  2 C       -1.5160     0.7330    -0.1130 C.2   1 <1>   0.5690 
  3 N       -2.6980     0.2270     0.3710 N.am  1 <1>  -0.6600 
  4 C       -1.3760     2.2220    -0.3930 C.3   1 <1>  -0.0990 
  5 C       -3.9480     1.0140     0.6190 C.3   1 <1>   0.1400 
  6 C       -2.8410    -1.2210     0.6820 C.3   1 <1>   0.1400 
  7 C        0.0470     2.6220    -0.7860 C.3   1 <1>   0.1200 
  8 C       -5.0690     0.4880    -0.3030 C.3   1 <1>   0.1900 
  9 C       -4.0300    -1.8240    -0.0880 C.3   1 <1>  -0.1600 
 10 O        0.0650     3.9810    -1.0540 O.3   1 <1>  -0.6800 
 11 N       -6.3410     1.2730    -0.2830 N.3   1 <1>  -0.8100 
 12 C       -5.3550    -1.0140    -0.0080 C.3   1 <1>   0.0000 
 13 C       -7.2300     0.8230    -1.3770 C.3   1 <1>   0.1100 
 14 C       -6.1450     2.7490    -0.3530 C.3   1 <1>   0.2900 
 15 C       -6.2870    -1.5260    -1.1320 C.3   1 <1>  -0.1600 
 16 C       -6.1040    -1.2200     1.3470 C.3   1 <1>   0.1200 
 17 C       -7.5560    -0.6680    -1.2500 C.3   1 <1>  -0.1600 
 18 C       -7.4360     3.5620    -0.3630 C.2   1 <1>   0.2980 
 19 O       -5.2840    -1.1800     2.4660 O.3   1 <1>  -0.6800 
 20 O       -8.2400     3.5360     0.6510 O.3   1 <1>  -0.2800 
 21 N       -7.8610     4.3210    -1.3010 N.2   1 <1>  -0.3380 
 22 C       -9.2070     4.3210     0.2980 C.2   1 <1>   0.2980 
 23 N       -9.0210     4.8170    -0.8690 N.2   1 <1>  -0.3380 
 24 C      -10.3770     4.5420     1.2560 C.3   1 <1>   0.1000 
 25 C      -11.5490     5.2780     0.5890 C.3   1 <1>  -0.2400 
 26 C       -9.9190     5.3120     2.5020 C.3   1 <1>  -0.2400 
 27 H       -2.0500     2.4770    -1.1880 H     1 <1>   0.0800 
 28 H       -1.6420     2.7620     0.4960 H     1 <1>   0.0800 
 29 H       -4.2350     0.9190     1.6510 H     1 <1>   0.0800 
 30 H       -3.7650     2.0490     0.4200 H     1 <1>   0.0800 
 31 H       -1.9460    -1.7570     0.4140 H     1 <1>   0.0800 
 32 H       -2.9650    -1.3320     1.7430 H     1 <1>   0.0800 
 33 H        0.3790     2.0920    -1.6630 H     1 <1>   0.0800 
 34 H        0.7310     2.4290     0.0240 H     1 <1>   0.0800 
 35 H       -4.6730     0.5550    -1.3020 H     1 <1>   0.0800 
 36 H       -3.7180    -1.8900    -1.1160 H     1 <1>   0.0800 
 37 H       -4.1960    -2.8310     0.2510 H     1 <1>   0.0800 
 38 H       -0.3880     4.1730    -1.8970 H     1 <1>   0.4000 
 39 H       -8.1600     1.3650    -1.3520 H     1 <1>   0.0800 
 40 H       -6.7600     1.0110    -2.3280 H     1 <1>   0.0800 
 41 H       -5.5910     3.0770     0.5070 H     1 <1>   0.0800 
 42 H       -5.5810     2.9940    -1.2360 H     1 <1>   0.0800 
 43 H       -5.7700    -1.4860    -2.0760 H     1 <1>   0.0800 
 44 H       -6.5590    -2.5530    -0.9570 H     1 <1>   0.0800 
 45 H       -6.5960    -2.1770     1.3560 H     1 <1>   0.0800 
 46 H       -6.8580    -0.4640     1.4830 H     1 <1>   0.0800 
 47 H       -8.1910    -0.8120    -0.3940 H     1 <1>   0.0800 
 48 H       -8.1170    -0.9770    -2.1150 H     1 <1>   0.0800 
 49 H       -4.7220    -1.9760     2.5010 H     1 <1>   0.4000 
 50 H      -10.7240     3.5710     1.5640 H     1 <1>   0.0800 
 51 H      -11.2420     6.2590     0.2700 H     1 <1>   0.0800 
 52 H      -12.3720     5.3770     1.2740 H     1 <1>   0.0800 
 53 H      -11.8850     4.7300    -0.2740 H     1 <1>   0.0800 
 54 H       -9.5470     6.2830     2.2240 H     1 <1>   0.0800 
 55 H       -9.1310     4.7750     3.0010 H     1 <1>   0.0800 
 56 H      -10.7360     5.4360     3.1900 H     1 <1>   0.0800 
@<TRIPOS>BOND
  1   1   2  2   
  2   2   3  am  
  3   2   4  1   
  4   3   5  1   
  5   3   6  1   
  6   4   7  1   
  7   4  27  1   
  8   4  28  1   
  9   5   8  1   
 10   5  29  1   
 11   5  30  1   
 12   6   9  1   
 13   6  31  1   
 14   6  32  1   
 15   7  10  1   
 16   7  33  1   
 17   7  34  1   
 18   8  11  1   
 19   8  12  1   
 20   8  35  1   
 21   9  12  1   
 22   9  36  1   
 23   9  37  1   
 24  10  38  1   
 25  11  13  1   
 26  11  14  1   
 27  12  15  1   
 28  12  16  1   
 29  13  17  1   
 30  13  39  1   
 31  13  40  1   
 32  14  18  1   
 33  14  41  1   
 34  14  42  1   
 35  15  17  1   
 36  15  43  1   
 37  15  44  1   
 38  16  19  1   
 39  16  45  1   
 40  16  46  1   
 41  17  47  1   
 42  17  48  1   
 43  18  20  1   
 44  18  21  2   
 45  19  49  1   
 46  20  22  1   
 47  21  23  1   
 48  22  23  2   
 49  22  24  1   
 50  24  25  1   
 51  24  26  1   
 52  24  50  1   
 53  25  51  1   
 54  25  52  1   
 55  25  53  1   
 56  26  54  1   
 57  26  55  1   
 58  26  56  1   
@<TRIPOS>SUBSTRUCTURE
  1 ****  11 GROUP 4 **** **** 0

# MOE 2024.06 (io_trps.svl 2023.06)
