@<TRIPOS>MOLECULE
NONAME
51 54 1 0 0 
SMALL
USER_CHARGES


@<TRIPOS>ATOM
  1 O       -1.4210     0.3810     0.1430 O.2   1 <1>  -0.5700 
  2 C       -2.2640     1.2050     0.4550 C.2   1 <1>   0.5440 
  3 N       -3.4780     0.7350     0.9030 N.am  1 <1>  -0.6600 
  4 C       -1.9840     2.6250     0.3270 C.ar  1 <1>   0.0860 
  5 C       -3.6080    -0.6750     1.3710 C.3   1 <1>   0.1400 
  6 C       -4.7680     1.3150     0.4310 C.3   1 <1>   0.1400 
  7 C       -2.5100     3.5630     1.2170 C.ar  1 <1>  -0.1500 
  8 C       -1.1630     3.1120    -0.6900 C.ar  1 <1>  -0.1500 
  9 C       -4.0780    -1.5480     0.1850 C.3   1 <1>   0.4230 
 10 C       -5.3050     0.4500    -0.7200 C.3   1 <1>  -0.1600 
 11 C       -2.2480     4.9140     1.0880 C.ar  1 <1>  -0.1500 
 12 C       -0.8960     4.4620    -0.8240 C.ar  1 <1>  -0.1500 
 13 N       -4.1330    -3.0210     0.4790 N.4   1 <1>  -0.9590 
 14 C       -5.4500    -1.0470    -0.3200 C.3   1 <1>  -0.1060 
 15 C       -1.4400     5.3920     0.0580 C.ar  1 <1>  -0.0230 
 16 C       -4.4710    -3.8140    -0.7290 C.3   1 <1>   0.3430 
 17 C       -2.9500    -3.5610     1.2000 C.3   1 <1>   0.2630 
 18 C       -6.4800    -1.2120     0.8150 C.2   1 <1>   0.9060 
 19 C       -5.8720    -1.8580    -1.5680 C.3   1 <1>  -0.1600 
 20 N       -1.1710     6.7850    -0.0920 N.pl3 1 <1>   0.5930 
 21 C       -5.8190    -3.3700    -1.3020 C.3   1 <1>  -0.1600 
 22 O       -6.3570    -2.1640     1.6040 O.co2 1 <1>  -0.9000 
 23 O       -7.3910    -0.3950     0.9320 O.co2 1 <1>  -0.9000 
 24 N       -0.0300     7.2740    -0.6460 N.2   1 <1>  -0.7070 
 25 C       -1.9780     7.8180     0.2620 C.2   1 <1>  -0.3020 
 26 C       -0.1470     8.5640    -0.6170 C.2   1 <1>   0.1390 
 27 C       -1.3520     8.9690    -0.0580 C.2   1 <1>  -0.1500 
 28 H       -2.6520    -1.0090     1.7320 H     1 <1>   0.0800 
 29 H       -4.3100    -0.7170     2.1860 H     1 <1>   0.0800 
 30 H       -5.4750     1.3330     1.2460 H     1 <1>   0.0800 
 31 H       -4.6330     2.3250     0.0860 H     1 <1>   0.0800 
 32 H       -3.1320     3.2200     2.0260 H     1 <1>   0.1500 
 33 H       -0.7250     2.4130    -1.3830 H     1 <1>   0.1500 
 34 H       -3.3590    -1.3990    -0.6030 H     1 <1>   0.0800 
 35 H       -6.2650     0.8370    -1.0190 H     1 <1>   0.0800 
 36 H       -4.6420     0.5520    -1.5610 H     1 <1>   0.0800 
 37 H       -2.6720     5.5990     1.8020 H     1 <1>   0.1500 
 38 H       -0.2550     4.8010    -1.6210 H     1 <1>   0.1500 
 39 H       -4.9810    -3.0620     1.1080 H     1 <1>   0.4500 
 40 H       -3.7030    -3.6800    -1.4730 H     1 <1>   0.0800 
 41 H       -4.5240    -4.8600    -0.4750 H     1 <1>   0.0800 
 42 H       -2.0560    -3.4070     0.6180 H     1 <1>   0.0800 
 43 H       -3.0770    -4.6160     1.3790 H     1 <1>   0.0800 
 44 H       -2.8380    -3.0680     2.1510 H     1 <1>   0.0800 
 45 H       -6.8730    -1.5780    -1.8520 H     1 <1>   0.0800 
 46 H       -5.2190    -1.6250    -2.3920 H     1 <1>   0.0800 
 47 H       -6.0060    -3.9010    -2.2180 H     1 <1>   0.0800 
 48 H       -6.6000    -3.6460    -0.6120 H     1 <1>   0.0800 
 49 H       -2.9410     7.6710     0.7110 H     1 <1>   0.1500 
 50 H        0.6080     9.2380    -0.9890 H     1 <1>   0.1500 
 51 H       -1.6800     9.9850     0.0730 H     1 <1>   0.1500 
@<TRIPOS>BOND
  1   1   2  2   
  2   2   3  am  
  3   2   4  1   
  4   3   5  1   
  5   3   6  1   
  6   4   7  ar  
  7   4   8  ar  
  8   5   9  1   
  9   5  28  1   
 10   5  29  1   
 11   6  10  1   
 12   6  30  1   
 13   6  31  1   
 14   7  11  ar  
 15   7  32  1   
 16   8  12  ar  
 17   8  33  1   
 18   9  13  1   
 19   9  14  1   
 20   9  34  1   
 21  10  14  1   
 22  10  35  1   
 23  10  36  1   
 24  11  15  ar  
 25  11  37  1   
 26  12  15  ar  
 27  12  38  1   
 28  13  16  1   
 29  13  17  1   
 30  13  39  1   
 31  14  18  1   
 32  14  19  1   
 33  15  20  1   
 34  16  21  1   
 35  16  40  1   
 36  16  41  1   
 37  17  42  1   
 38  17  43  1   
 39  17  44  1   
 40  18  22  ar  
 41  18  23  ar  
 42  19  21  1   
 43  19  45  1   
 44  19  46  1   
 45  20  24  1   
 46  20  25  1   
 47  21  47  1   
 48  21  48  1   
 49  24  26  2   
 50  25  27  2   
 51  25  49  1   
 52  26  27  1   
 53  26  50  1   
 54  27  51  1   
@<TRIPOS>SUBSTRUCTURE
  1 ****   2 GROUP 4 **** **** 0

# MOE 2024.06 (io_trps.svl 2023.06)
