@<TRIPOS>MOLECULE
NONAME
50 51 1 0 0 
SMALL
USER_CHARGES


@<TRIPOS>ATOM
  1 F       -1.4850     2.9340    -2.5070 F     1 <1>  -0.1900 
  2 C       -0.7830     3.7700    -1.7870 C.ar  1 <1>   0.1900 
  3 C       -0.2600     4.8950    -2.3920 C.ar  1 <1>  -0.1500 
  4 C       -0.5920     3.4990    -0.4480 C.ar  1 <1>  -0.1500 
  5 C        0.4870     5.7860    -1.6350 C.ar  1 <1>  -0.1440 
  6 C        0.1510     4.3920     0.3020 C.ar  1 <1>  -0.1500 
  7 C        0.7010     5.5390    -0.2730 C.ar  1 <1>   0.1170 
  8 C        1.0570     7.0200    -2.3220 C.3   1 <1>  -0.0960 
  9 N        1.4450     6.4490     0.5000 N.am  1 <1>  -0.5470 
 10 C        2.1980     6.2500     1.6240 C.2   1 <1>   0.5690 
 11 O        2.4030     5.1700     2.1190 O.2   1 <1>  -0.5700 
 12 C        2.8330     7.4570     2.2770 C.3   1 <1>  -0.0990 
 13 C        4.0050     7.9770     1.4380 C.3   1 <1>   0.1400 
 14 N        3.8200     9.4130     1.1120 N.am  1 <1>  -0.7300 
 15 C        2.8710     9.8950     0.2680 C.2   1 <1>   0.5690 
 16 O        2.0540     9.1610    -0.2360 O.2   1 <1>  -0.5700 
 17 C        2.8390    11.3910    -0.0390 C.3   1 <1>  -0.0190 
 18 C        1.4080    11.9630     0.0260 C.3   1 <1>  -0.1600 
 19 C        3.4900    11.6890    -1.4100 C.3   1 <1>  -0.1600 
 20 C        1.3790    13.4950    -0.1580 C.3   1 <1>   0.2000 
 21 C        3.0560    13.0340    -2.0280 C.3   1 <1>  -0.1600 
 22 O        0.1960    13.8330    -0.8390 O.3   1 <1>  -0.5600 
 23 C        2.5970    14.0290    -0.9590 C.3   1 <1>   0.2000 
 24 C       -0.9550    13.8650    -0.0540 C.3   1 <1>   0.0400 
 25 O        2.2450    15.2040    -1.5900 O.3   1 <1>  -0.6800 
 26 H       -0.4400     5.0600    -3.4380 H     1 <1>   0.1500 
 27 H       -1.0130     2.6150    -0.0070 H     1 <1>   0.1500 
 28 H        0.3000     4.1940     1.3480 H     1 <1>   0.1500 
 29 H        0.9550     6.9500    -3.3900 H     1 <1>   0.0800 
 30 H        2.1030     7.1260    -2.0940 H     1 <1>   0.0800 
 31 H        0.5340     7.8980    -1.9900 H     1 <1>   0.0800 
 32 H        1.4890     7.4050     0.1190 H     1 <1>   0.3700 
 33 H        2.0790     8.2090     2.4160 H     1 <1>   0.0800 
 34 H        3.1940     7.1680     3.2470 H     1 <1>   0.0800 
 35 H        4.0850     7.4210     0.5170 H     1 <1>   0.0800 
 36 H        4.9270     7.8470     1.9790 H     1 <1>   0.0800 
 37 H        4.5080    10.0500     1.5180 H     1 <1>   0.3700 
 38 H        3.4160    11.8890     0.7200 H     1 <1>   0.0800 
 39 H        0.9620    11.7100     0.9710 H     1 <1>   0.0800 
 40 H        0.8260    11.5000    -0.7540 H     1 <1>   0.0800 
 41 H        4.5600    11.6780    -1.2920 H     1 <1>   0.0800 
 42 H        3.2390    10.9070    -2.1070 H     1 <1>   0.0800 
 43 H        1.3780    13.9860     0.8000 H     1 <1>   0.0800 
 44 H        2.2330    12.8570    -2.7000 H     1 <1>   0.0800 
 45 H        3.8690    13.4530    -2.5940 H     1 <1>   0.0800 
 46 H        3.4160    14.2450    -0.2960 H     1 <1>   0.0800 
 47 H       -1.7800    14.1480    -0.6840 H     1 <1>   0.0800 
 48 H       -0.8320    14.5930     0.7290 H     1 <1>   0.0800 
 49 H       -1.1380    12.8880     0.3590 H     1 <1>   0.0800 
 50 H        1.2860    15.1190    -1.7960 H     1 <1>   0.4000 
@<TRIPOS>BOND
  1   1   2  1   
  2   2   3  ar  
  3   2   4  ar  
  4   3   5  ar  
  5   3  26  1   
  6   4   6  ar  
  7   4  27  1   
  8   5   7  ar  
  9   5   8  1   
 10   6   7  ar  
 11   6  28  1   
 12   7   9  1   
 13   8  29  1   
 14   8  30  1   
 15   8  31  1   
 16   9  10  am  
 17   9  32  1   
 18  10  11  2   
 19  10  12  1   
 20  12  13  1   
 21  12  33  1   
 22  12  34  1   
 23  13  14  1   
 24  13  35  1   
 25  13  36  1   
 26  14  15  am  
 27  14  37  1   
 28  15  16  2   
 29  15  17  1   
 30  17  18  1   
 31  17  19  1   
 32  17  38  1   
 33  18  20  1   
 34  18  39  1   
 35  18  40  1   
 36  19  21  1   
 37  19  41  1   
 38  19  42  1   
 39  20  22  1   
 40  20  23  1   
 41  20  43  1   
 42  21  23  1   
 43  21  44  1   
 44  21  45  1   
 45  22  24  1   
 46  23  25  1   
 47  23  46  1   
 48  24  47  1   
 49  24  48  1   
 50  24  49  1   
 51  25  50  1   
@<TRIPOS>SUBSTRUCTURE
  1 ****  16 GROUP 4 **** **** 0

# MOE 2024.06 (io_trps.svl 2023.06)
