@<TRIPOS>MOLECULE
NONAME
50 52 1 0 0 
SMALL
USER_CHARGES


@<TRIPOS>ATOM
  1 O       -0.2140    -1.0350     2.5960 O.2   1 <1>  -0.5700 
  2 C       -0.3620    -1.9110     1.7760 C.2   1 <1>   0.5690 
  3 N        0.5700    -2.1490     0.7930 N.am  1 <1>  -0.6600 
  4 C       -1.6420    -2.7530     1.8630 C.3   1 <1>   0.2010 
  5 C        0.3740    -3.2120    -0.2300 C.3   1 <1>   0.1400 
  6 C        1.8650    -1.4160     0.7290 C.3   1 <1>   0.0600 
  7 N       -1.8430    -3.7710     0.7640 N.am  1 <1>  -0.6600 
  8 C       -1.1140    -3.4700    -0.5040 C.3   1 <1>   0.1400 
  9 C       -2.6060    -4.8920     0.9930 C.2   1 <1>   0.5690 
 10 O       -3.0290    -5.1250     2.1050 O.2   1 <1>  -0.5700 
 11 C       -2.9640    -5.8550    -0.1530 C.3   1 <1>   0.2610 
 12 O       -1.8690    -6.7020    -0.4710 O.3   1 <1>  -0.5600 
 13 C       -4.2430    -6.6700     0.1670 C.3   1 <1>   0.3640 
 14 C       -2.0760    -7.5450    -1.5860 C.3   1 <1>   0.1810 
 15 N       -4.4110    -7.8120    -0.7630 N.am  1 <1>  -0.7300 
 16 C       -5.4710    -5.7690     0.0720 C.ar  1 <1>  -0.1430 
 17 C       -3.4250    -8.2730    -1.5630 C.2   1 <1>   0.5690 
 18 C       -5.9680    -5.3590    -1.1560 C.ar  1 <1>  -0.1500 
 19 C       -6.0940    -5.3210     1.2260 C.ar  1 <1>  -0.1500 
 20 O       -3.6050    -9.2280    -2.2730 O.2   1 <1>  -0.5700 
 21 C       -7.0580    -4.5100    -1.2490 C.ar  1 <1>   0.0820 
 22 C       -7.1820    -4.4700     1.1540 C.ar  1 <1>  -0.1500 
 23 O       -7.4280    -4.1960    -2.5220 O.3   1 <1>  -0.3630 
 24 C       -7.6750    -4.0420    -0.0770 C.ar  1 <1>   0.0820 
 25 C       -8.7810    -3.9720    -2.8530 C.3   1 <1>   0.0400 
 26 O       -8.7200    -3.1670    -0.1570 O.3   1 <1>  -0.3630 
 27 C       -9.2440    -2.5180     0.9810 C.3   1 <1>   0.0400 
 28 H       -2.4790    -2.0800     1.8610 H     1 <1>   0.0800 
 29 H       -1.6310    -3.2520     2.8150 H     1 <1>   0.0800 
 30 H        0.8500    -2.9170    -1.1490 H     1 <1>   0.0800 
 31 H        0.8380    -4.1210     0.1120 H     1 <1>   0.0800 
 32 H        1.9340    -0.8780    -0.2000 H     1 <1>   0.0800 
 33 H        2.6820    -2.1130     0.8000 H     1 <1>   0.0800 
 34 H        1.9460    -0.7120     1.5390 H     1 <1>   0.0800 
 35 H       -1.1930    -4.2850    -1.2000 H     1 <1>   0.0800 
 36 H       -1.5470    -2.5980    -0.9630 H     1 <1>   0.0800 
 37 H       -3.1670    -5.2590    -1.0230 H     1 <1>   0.0800 
 38 H       -4.1680    -7.0700     1.1640 H     1 <1>   0.0800 
 39 H       -2.0130    -6.9480    -2.4770 H     1 <1>   0.0800 
 40 H       -1.2840    -8.2700    -1.5990 H     1 <1>   0.0800 
 41 H       -5.3130    -8.2910    -0.7610 H     1 <1>   0.3700 
 42 H       -5.5130    -5.6960    -2.0710 H     1 <1>   0.1500 
 43 H       -5.7250    -5.6220     2.1930 H     1 <1>   0.1500 
 44 H       -7.6260    -4.1490     2.0770 H     1 <1>   0.1500 
 45 H       -8.8940    -4.1130    -3.9120 H     1 <1>   0.0800 
 46 H       -9.0400    -2.9630    -2.5910 H     1 <1>   0.0800 
 47 H       -9.3950    -4.6750    -2.3180 H     1 <1>   0.0800 
 48 H       -9.9960    -1.8240     0.6510 H     1 <1>   0.0800 
 49 H       -8.4500    -1.9870     1.4770 H     1 <1>   0.0800 
 50 H       -9.6850    -3.2520     1.6310 H     1 <1>   0.0800 
@<TRIPOS>BOND
  1   1   2  2   
  2   2   3  am  
  3   2   4  1   
  4   3   5  1   
  5   3   6  1   
  6   4   7  1   
  7   4  28  1   
  8   4  29  1   
  9   5   8  1   
 10   5  30  1   
 11   5  31  1   
 12   6  32  1   
 13   6  33  1   
 14   6  34  1   
 15   7   8  1   
 16   7   9  am  
 17   8  35  1   
 18   8  36  1   
 19   9  10  2   
 20   9  11  1   
 21  11  12  1   
 22  11  13  1   
 23  11  37  1   
 24  12  14  1   
 25  13  15  1   
 26  13  16  1   
 27  13  38  1   
 28  14  17  1   
 29  14  39  1   
 30  14  40  1   
 31  15  17  am  
 32  15  41  1   
 33  16  18  ar  
 34  16  19  ar  
 35  17  20  2   
 36  18  21  ar  
 37  18  42  1   
 38  19  22  ar  
 39  19  43  1   
 40  21  23  1   
 41  21  24  ar  
 42  22  24  ar  
 43  22  44  1   
 44  23  25  1   
 45  24  26  1   
 46  25  45  1   
 47  25  46  1   
 48  25  47  1   
 49  26  27  1   
 50  27  48  1   
 51  27  49  1   
 52  27  50  1   
@<TRIPOS>SUBSTRUCTURE
  1 ****  11 GROUP 4 **** **** 0

# MOE 2024.06 (io_trps.svl 2023.06)
