@<TRIPOS>MOLECULE
NONAME
41 43 1 0 0 
SMALL
USER_CHARGES


@<TRIPOS>ATOM
  1 S       -1.8060    -0.9350    -0.5650 S.3   1 <1>  -0.0800 
  2 C       -1.2880    -1.9980     0.7010 C.2   1 <1>   0.4420 
  3 C       -0.4430     0.0650    -0.1820 C.2   1 <1>   0.1980 
  4 N       -0.2210    -1.5830     1.2800 N.2   1 <1>  -0.3380 
  5 N       -2.0630    -3.1140     0.9150 N.am  1 <1>  -0.4940 
  6 N        0.2550    -0.4050     0.7720 N.2   1 <1>  -0.3380 
  7 C       -0.2130     1.3410    -0.9850 C.3   1 <1>   0.3800 
  8 C       -1.9010    -4.1590     1.7800 C.2   1 <1>   0.5690 
  9 O       -1.4100     2.0610    -1.0740 O.3   1 <1>  -0.5600 
 10 C        0.2720     1.0350    -2.4040 C.3   1 <1>  -0.2400 
 11 O       -0.9720    -4.2630     2.5390 O.2   1 <1>  -0.5700 
 12 C       -2.9560    -5.2530     1.7780 C.3   1 <1>   0.0820 
 13 C       -1.2740     3.4460    -1.1580 C.3   1 <1>   0.0400 
 14 C       -3.9900    -5.0630     0.6720 C.2   1 <1>  -0.1810 
 15 C       -3.7160    -5.3240    -0.6900 C.ar  1 <1>   0.0000 
 16 C       -5.2650    -4.6080     0.7570 C.2   1 <1>  -0.3320 
 17 C       -4.8750    -5.0040    -1.3940 C.ar  1 <1>  -0.1520 
 18 C       -2.5920    -5.7850    -1.3850 C.ar  1 <1>  -0.1500 
 19 N       -5.8170    -4.5770    -0.4940 N.pl3 1 <1>   0.0330 
 20 C       -6.0660    -4.1640     1.9700 C.3   1 <1>  -0.0600 
 21 C       -4.9480    -5.1350    -2.7860 C.ar  1 <1>  -0.1500 
 22 C       -2.6850    -5.9050    -2.7490 C.ar  1 <1>   0.1900 
 23 C       -3.8420    -5.5890    -3.4670 C.ar  1 <1>  -0.1500 
 24 F       -1.6470    -6.3340    -3.4210 F     1 <1>  -0.1900 
 25 H       -2.8870    -3.1970     0.3180 H     1 <1>   0.3700 
 26 H        0.5160     1.9360    -0.4610 H     1 <1>   0.0800 
 27 H       -0.4840     0.4960    -2.9470 H     1 <1>   0.0800 
 28 H        1.1580     0.4280    -2.3570 H     1 <1>   0.0800 
 29 H        0.5110     1.9410    -2.9280 H     1 <1>   0.0800 
 30 H       -3.4330    -5.2610     2.7380 H     1 <1>   0.0800 
 31 H       -2.4680    -6.2020     1.6530 H     1 <1>   0.0800 
 32 H       -2.2580     3.8740    -1.2240 H     1 <1>   0.0800 
 33 H       -0.7110     3.7020    -2.0390 H     1 <1>   0.0800 
 34 H       -0.7820     3.8100    -0.2720 H     1 <1>   0.0800 
 35 H       -1.6860    -6.0370    -0.8660 H     1 <1>   0.1500 
 36 H       -6.7700    -4.2860    -0.7320 H     1 <1>   0.2700 
 37 H       -5.4730    -4.2100     2.8650 H     1 <1>   0.0800 
 38 H       -6.9230    -4.8020     2.0990 H     1 <1>   0.0800 
 39 H       -6.4030    -3.1510     1.8410 H     1 <1>   0.0800 
 40 H       -5.8550    -4.8820    -3.3060 H     1 <1>   0.1500 
 41 H       -3.8460    -5.7070    -4.5350 H     1 <1>   0.1500 
@<TRIPOS>BOND
  1   1   2  1   
  2   1   3  1   
  3   2   4  2   
  4   2   5  1   
  5   3   6  2   
  6   3   7  1   
  7   4   6  1   
  8   5   8  am  
  9   5  25  1   
 10   7   9  1   
 11   7  10  1   
 12   7  26  1   
 13   8  11  2   
 14   8  12  1   
 15   9  13  1   
 16  10  27  1   
 17  10  28  1   
 18  10  29  1   
 19  12  14  1   
 20  12  30  1   
 21  12  31  1   
 22  13  32  1   
 23  13  33  1   
 24  13  34  1   
 25  14  15  1   
 26  14  16  2   
 27  15  17  ar  
 28  15  18  ar  
 29  16  19  1   
 30  16  20  1   
 31  17  19  1   
 32  17  21  ar  
 33  18  22  ar  
 34  18  35  1   
 35  19  36  1   
 36  20  37  1   
 37  20  38  1   
 38  20  39  1   
 39  21  23  ar  
 40  21  40  1   
 41  22  23  ar  
 42  22  24  1   
 43  23  41  1   
@<TRIPOS>SUBSTRUCTURE
  1 ****   5 GROUP 4 **** **** 0

# MOE 2024.06 (io_trps.svl 2023.06)
