@<TRIPOS>MOLECULE
NONAME
36 38 1 0 0 
SMALL
USER_CHARGES


@<TRIPOS>ATOM
  1 CL      -0.5910     2.6790    -1.1690 Cl    1 <1>  -0.1230 
  2 C        0.9080     3.0410    -0.3260 C.2   1 <1>   0.1230 
  3 C        1.0180     3.6000     0.9410 C.2   1 <1>   0.1080 
  4 C        2.1640     2.8440    -0.7730 C.2   1 <1>  -0.3320 
  5 N        2.2630     3.7480     1.2780 N.2   1 <1>  -0.7070 
  6 C       -0.1240     4.0090     1.8440 C.3   1 <1>  -0.0590 
  7 N        2.9730     3.2780     0.2240 N.pl3 1 <1>   0.3140 
  8 C        2.6280     2.2760    -2.1070 C.3   1 <1>  -0.0600 
  9 C        4.4410     3.3390     0.2390 C.3   1 <1>   0.1570 
 10 C        4.8940     4.7640     0.0070 C.2   1 <1>   0.5690 
 11 O        5.8160     4.9490    -0.7500 O.2   1 <1>  -0.5700 
 12 N        4.2570     5.7820     0.6560 N.am  1 <1>  -0.4940 
 13 C        4.4060     7.1700     0.5550 C.2   1 <1>   0.2510 
 14 N        3.3890     7.9570     0.7180 N.2   1 <1>  -0.3380 
 15 N        5.5410     7.8630     0.3100 N.pl3 1 <1>   0.3340 
 16 N        3.8180     9.2080     0.5630 N.2   1 <1>  -0.3380 
 17 C        5.0940     9.1530     0.3210 C.2   1 <1>   0.3120 
 18 C        6.9030     7.6190     0.1670 C.2   1 <1>  -0.1810 
 19 N        5.9220    10.2350     0.1140 N.2   1 <1>  -0.5760 
 20 C        7.7220     8.6810    -0.0220 C.2   1 <1>  -0.1360 
 21 C        7.1760     9.9950    -0.0520 C.2   1 <1>   0.3750 
 22 C        8.1180    11.1560    -0.2850 C.3   1 <1>  -0.1790 
 23 H       -1.0530     3.6040     1.4890 H     1 <1>   0.0800 
 24 H       -0.1940     5.0810     1.8700 H     1 <1>   0.0800 
 25 H        0.0570     3.6470     2.8390 H     1 <1>   0.0800 
 26 H        1.7810     2.0340    -2.7240 H     1 <1>   0.0800 
 27 H        3.2020     1.3800    -1.9530 H     1 <1>   0.0800 
 28 H        3.2320     2.9970    -2.6300 H     1 <1>   0.0800 
 29 H        4.8370     2.7000    -0.5260 H     1 <1>   0.0800 
 30 H        4.7900     3.0020     1.1950 H     1 <1>   0.0800 
 31 H        3.3810     5.4990     1.1240 H     1 <1>   0.3700 
 32 H        7.2390     6.6000     0.2140 H     1 <1>   0.1500 
 33 H        8.7840     8.5670    -0.1490 H     1 <1>   0.1500 
 34 H        8.6100    11.0440    -1.2330 H     1 <1>   0.0800 
 35 H        8.8520    11.1940     0.4980 H     1 <1>   0.0800 
 36 H        7.5710    12.0830    -0.2890 H     1 <1>   0.0800 
@<TRIPOS>BOND
  1   1   2  1   
  2   2   3  1   
  3   2   4  2   
  4   3   5  2   
  5   3   6  1   
  6   4   7  1   
  7   4   8  1   
  8   5   7  1   
  9   6  23  1   
 10   6  24  1   
 11   6  25  1   
 12   7   9  1   
 13   8  26  1   
 14   8  27  1   
 15   8  28  1   
 16   9  10  1   
 17   9  29  1   
 18   9  30  1   
 19  10  11  2   
 20  10  12  am  
 21  12  13  1   
 22  12  31  1   
 23  13  14  2   
 24  13  15  1   
 25  14  16  1   
 26  15  17  1   
 27  15  18  1   
 28  16  17  2   
 29  17  19  1   
 30  18  20  2   
 31  18  32  1   
 32  19  21  2   
 33  20  21  1   
 34  20  33  1   
 35  21  22  1   
 36  22  34  1   
 37  22  35  1   
 38  22  36  1   
@<TRIPOS>SUBSTRUCTURE
  1 ****  12 GROUP 4 **** **** 0

# MOE 2024.06 (io_trps.svl 2023.06)
