@<TRIPOS>MOLECULE
NONAME
46 48 1 0 0 
SMALL
USER_CHARGES


@<TRIPOS>ATOM
  1 O       -1.8480     0.6890     2.7840 O.2   1 <1>  -0.5700 
  2 C       -2.2690     1.2070     1.7670 C.2   1 <1>   0.5440 
  3 N       -3.3290     0.6180     1.1210 N.am  1 <1>  -0.6600 
  4 C       -1.6590     2.4180     1.2690 C.ar  1 <1>   0.0860 
  5 C       -4.0090     1.1650    -0.0800 C.3   1 <1>   0.1400 
  6 C       -3.6910    -0.8080     1.3170 C.3   1 <1>   0.1400 
  7 C       -0.9590     2.4830     0.0530 C.ar  1 <1>   0.0830 
  8 C       -1.7820     3.5940     2.0100 C.ar  1 <1>  -0.1500 
  9 C       -5.0660     0.1180    -0.4310 C.3   1 <1>   0.2000 
 10 C       -4.4630    -1.2050     0.0490 C.3   1 <1>  -0.0800 
 11 O       -0.7350     1.4100    -0.7390 O.3   1 <1>  -0.3630 
 12 C       -0.4590     3.6930    -0.4050 C.ar  1 <1>  -0.1500 
 13 C       -1.2680     4.7940     1.5560 C.ar  1 <1>  -0.1500 
 14 O       -6.2010     0.3700     0.3220 O.3   1 <1>  -0.6800 
 15 C       -3.5410    -1.8010    -1.0350 C.3   1 <1>  -0.0170 
 16 C       -0.1580     0.2380    -0.1980 C.3   1 <1>   0.1200 
 17 C       -0.6100     4.8460     0.3400 C.ar  1 <1>  -0.1500 
 18 C       -2.9170    -3.1190    -0.6050 C.ar  1 <1>   0.1670 
 19 C        0.5420    -0.5080    -1.3290 C.3   1 <1>  -0.2400 
 20 N       -1.6620    -3.0710    -0.1870 N.ar  1 <1>  -0.6200 
 21 C       -3.6690    -4.2830    -0.6700 C.ar  1 <1>  -0.1500 
 22 C       -1.1370    -4.2270     0.1880 C.ar  1 <1>   0.1600 
 23 C       -3.1090    -5.4800    -0.2770 C.ar  1 <1>  -0.1500 
 24 C       -1.8050    -5.4390     0.1630 C.ar  1 <1>  -0.1500 
 25 H       -4.4470     2.1290     0.1150 H     1 <1>   0.0800 
 26 H       -3.3010     1.2480    -0.8850 H     1 <1>   0.0800 
 27 H       -2.8110    -1.4080     1.4770 H     1 <1>   0.0800 
 28 H       -4.3240    -0.8880     2.1830 H     1 <1>   0.0800 
 29 H       -2.2940     3.5550     2.9560 H     1 <1>   0.1500 
 30 H       -5.3420     0.1230    -1.4720 H     1 <1>   0.0800 
 31 H       -5.2320    -1.9210     0.2790 H     1 <1>   0.0800 
 32 H        0.0560     3.7210    -1.3480 H     1 <1>   0.1500 
 33 H       -1.3800     5.6880     2.1460 H     1 <1>   0.1500 
 34 H       -5.9310     0.5180     1.2510 H     1 <1>   0.4000 
 35 H       -2.7560    -1.1080    -1.2820 H     1 <1>   0.0800 
 36 H       -4.1090    -1.9710    -1.9310 H     1 <1>   0.0800 
 37 H        0.5440     0.5180     0.5690 H     1 <1>   0.0800 
 38 H       -0.9330    -0.3750     0.2240 H     1 <1>   0.0800 
 39 H       -0.2140     5.7800    -0.0210 H     1 <1>   0.1500 
 40 H        1.3160     0.1020    -1.7560 H     1 <1>   0.0800 
 41 H       -0.1710    -0.7780    -2.0880 H     1 <1>   0.0800 
 42 H        0.9820    -1.4090    -0.9440 H     1 <1>   0.0800 
 43 H       -4.6840    -4.2550    -1.0220 H     1 <1>   0.1500 
 44 H       -0.1180    -4.2060     0.5340 H     1 <1>   0.1500 
 45 H       -3.6640    -6.4020    -0.3130 H     1 <1>   0.1500 
 46 H       -1.3070    -6.3360     0.4850 H     1 <1>   0.1500 
@<TRIPOS>BOND
  1   1   2  2   
  2   2   3  am  
  3   2   4  1   
  4   3   5  1   
  5   3   6  1   
  6   4   7  ar  
  7   4   8  ar  
  8   5   9  1   
  9   5  25  1   
 10   5  26  1   
 11   6  10  1   
 12   6  27  1   
 13   6  28  1   
 14   7  11  1   
 15   7  12  ar  
 16   8  13  ar  
 17   8  29  1   
 18   9  10  1   
 19   9  14  1   
 20   9  30  1   
 21  10  15  1   
 22  10  31  1   
 23  11  16  1   
 24  12  17  ar  
 25  12  32  1   
 26  13  17  ar  
 27  13  33  1   
 28  14  34  1   
 29  15  18  1   
 30  15  35  1   
 31  15  36  1   
 32  16  19  1   
 33  16  37  1   
 34  16  38  1   
 35  17  39  1   
 36  18  20  ar  
 37  18  21  ar  
 38  19  40  1   
 39  19  41  1   
 40  19  42  1   
 41  20  22  ar  
 42  21  23  ar  
 43  21  43  1   
 44  22  24  ar  
 45  22  44  1   
 46  23  24  ar  
 47  23  45  1   
 48  24  46  1   
@<TRIPOS>SUBSTRUCTURE
  1 ****   3 GROUP 4 **** **** 0

# MOE 2024.06 (io_trps.svl 2023.06)
