@<TRIPOS>MOLECULE
NONAME
34 35 1 0 0 
SMALL
USER_CHARGES


@<TRIPOS>ATOM
  1 F       -1.3530    -1.0380    -0.0260 F     1 <1>  -0.1900 
  2 C       -1.9520     0.0760     0.3100 C.ar  1 <1>   0.1900 
  3 C       -1.3570     0.9340     1.2200 C.ar  1 <1>   0.1900 
  4 C       -3.1840     0.3700    -0.2520 C.ar  1 <1>  -0.1440 
  5 F       -0.2010     0.6330     1.7500 F     1 <1>  -0.1900 
  6 C       -1.9760     2.1140     1.5880 C.ar  1 <1>  -0.1500 
  7 C       -3.8060     1.5590     0.1150 C.ar  1 <1>  -0.1500 
  8 C       -3.8250    -0.5860    -1.2390 C.3   1 <1>   0.4870 
  9 C       -3.2060     2.4220     1.0260 C.ar  1 <1>  -0.1500 
 10 N       -4.8350    -1.4020    -0.5270 N.4   1 <1>  -0.9590 
 11 C       -4.1740    -2.3920     0.4160 C.3   1 <1>   0.3430 
 12 C       -5.7620    -2.0880    -1.4730 C.3   1 <1>   0.3430 
 13 C       -5.0190    -3.6500     0.6970 C.3   1 <1>   0.2000 
 14 C       -6.9360    -2.6820    -0.6880 C.3   1 <1>  -0.1600 
 15 O       -4.7650    -4.5770    -0.3000 O.3   1 <1>  -0.6800 
 16 C       -6.5140    -3.3130     0.6650 C.3   1 <1>  -0.1860 
 17 C       -7.3170    -4.5480     1.0010 C.2   1 <1>   0.9060 
 18 O       -8.1260    -4.4810     1.9230 O.co2 1 <1>  -0.9000 
 19 O       -7.1020    -5.5710     0.3410 O.co2 1 <1>  -0.9000 
 20 H       -1.5030     2.7740     2.2950 H     1 <1>   0.1500 
 21 H       -4.7610     1.8340    -0.3030 H     1 <1>   0.1500 
 22 H       -3.0790    -1.2250    -1.6850 H     1 <1>   0.0800 
 23 H       -4.2970    -0.0180    -2.0240 H     1 <1>   0.0800 
 24 H       -3.6980     3.3420     1.3010 H     1 <1>   0.1500 
 25 H       -5.4140    -0.7830     0.0500 H     1 <1>   0.4500 
 26 H       -3.2300    -2.7200     0.0130 H     1 <1>   0.0800 
 27 H       -3.9760    -1.8980     1.3520 H     1 <1>   0.0800 
 28 H       -6.1340    -1.4030    -2.2170 H     1 <1>   0.0800 
 29 H       -5.2360    -2.8870    -1.9730 H     1 <1>   0.0800 
 30 H       -4.7420    -4.1010     1.6360 H     1 <1>   0.0800 
 31 H       -7.6910    -1.9350    -0.5150 H     1 <1>   0.0800 
 32 H       -7.3860    -3.4410    -1.3070 H     1 <1>   0.0800 
 33 H       -5.5130    -5.2500    -0.2390 H     1 <1>   0.4000 
 34 H       -6.7050    -2.6040     1.4490 H     1 <1>   0.0800 
@<TRIPOS>BOND
  1   1   2  1   
  2   2   3  ar  
  3   2   4  ar  
  4   3   5  1   
  5   3   6  ar  
  6   4   7  ar  
  7   4   8  1   
  8   6   9  ar  
  9   6  20  1   
 10   7   9  ar  
 11   7  21  1   
 12   8  10  1   
 13   8  22  1   
 14   8  23  1   
 15   9  24  1   
 16  10  11  1   
 17  10  12  1   
 18  10  25  1   
 19  11  13  1   
 20  11  26  1   
 21  11  27  1   
 22  12  14  1   
 23  12  28  1   
 24  12  29  1   
 25  13  15  1   
 26  13  16  1   
 27  13  30  1   
 28  14  16  1   
 29  14  31  1   
 30  14  32  1   
 31  15  33  1   
 32  16  17  1   
 33  16  34  1   
 34  17  18  ar  
 35  17  19  ar  
@<TRIPOS>SUBSTRUCTURE
  1 ****  11 GROUP 4 **** **** 0

# MOE 2024.06 (io_trps.svl 2023.06)
