@<TRIPOS>MOLECULE
NONAME
46 47 1 0 0 
SMALL
USER_CHARGES


@<TRIPOS>ATOM
  1 O       -1.4030     0.0680    -2.3340 O.2   1 <1>  -0.5700 
  2 C       -1.6180     0.6790    -1.3150 C.2   1 <1>   0.5690 
  3 N       -1.9330     0.0410    -0.1400 N.am  1 <1>  -0.6600 
  4 C       -1.5150     2.1910    -1.3940 C.3   1 <1>  -0.0990 
  5 C       -2.0200    -1.4440    -0.1180 C.3   1 <1>   0.3200 
  6 C       -2.0720     0.7330     1.1840 C.3   1 <1>   0.1400 
  7 C       -0.0930     2.6730    -1.0840 C.3   1 <1>  -0.0170 
  8 C       -3.4600    -1.8580    -0.3310 C.2   1 <1>  -0.3320 
  9 C       -3.4930     1.2510     1.4550 C.3   1 <1>   0.1200 
 10 C       -0.0590     4.1930    -0.9900 C.ar  1 <1>  -0.1440 
 11 N       -4.1810    -2.6060     0.5270 N.pl3 1 <1>   0.0330 
 12 C       -4.2790    -1.5740    -1.3660 C.2   1 <1>   0.0770 
 13 O       -4.3800     0.1960     1.5820 O.3   1 <1>  -0.6800 
 14 C       -0.4790     4.8560     0.1620 C.ar  1 <1>   0.0820 
 15 C        0.3960     4.9240    -2.0760 C.ar  1 <1>  -0.1500 
 16 C       -5.4030    -2.7090    -0.0360 C.2   1 <1>   0.0070 
 17 N       -5.5010    -2.1030    -1.1730 N.2   1 <1>  -0.5650 
 18 O       -0.9280     4.1040     1.2050 O.3   1 <1>  -0.3630 
 19 C       -0.4320     6.2490     0.2060 C.ar  1 <1>  -0.1500 
 20 C        0.4390     6.3060    -2.0250 C.ar  1 <1>  -0.1500 
 21 C       -6.5460    -3.4550     0.6180 C.3   1 <1>  -0.0600 
 22 C       -1.3060     4.6940     2.4300 C.3   1 <1>   0.0400 
 23 C        0.0260     6.9670    -0.8840 C.ar  1 <1>  -0.1500 
 24 H       -2.2170     2.6490    -0.7280 H     1 <1>   0.0800 
 25 H       -1.7780     2.5000    -2.3890 H     1 <1>   0.0800 
 26 H       -1.6520    -1.8190     0.8210 H     1 <1>   0.0800 
 27 H       -1.4100    -1.8670    -0.8990 H     1 <1>   0.0800 
 28 H       -1.3960     1.5660     1.2220 H     1 <1>   0.0800 
 29 H       -1.7850     0.0690     1.9810 H     1 <1>   0.0800 
 30 H        0.5730     2.3300    -1.8570 H     1 <1>   0.0800 
 31 H        0.2540     2.2510    -0.1580 H     1 <1>   0.0800 
 32 H       -3.8350     1.8890     0.6590 H     1 <1>   0.0800 
 33 H       -3.5140     1.8040     2.3780 H     1 <1>   0.0800 
 34 H       -3.8930    -2.9880     1.4320 H     1 <1>   0.2700 
 35 H       -4.0450    -1.0000    -2.2500 H     1 <1>   0.1500 
 36 H       -4.4210    -0.3010     0.7290 H     1 <1>   0.4000 
 37 H        0.7190     4.4210    -2.9710 H     1 <1>   0.1500 
 38 H       -0.7460     6.7930     1.0750 H     1 <1>   0.1500 
 39 H        0.7950     6.8650    -2.8730 H     1 <1>   0.1500 
 40 H       -6.2810    -4.4870     0.7590 H     1 <1>   0.0800 
 41 H       -7.4170    -3.4050    -0.0110 H     1 <1>   0.0800 
 42 H       -6.7800    -3.0110     1.5670 H     1 <1>   0.0800 
 43 H       -1.5900     3.9100     3.1070 H     1 <1>   0.0800 
 44 H       -2.1400     5.3510     2.2590 H     1 <1>   0.0800 
 45 H       -0.4660     5.2350     2.8300 H     1 <1>   0.0800 
 46 H        0.0610     8.0420    -0.8450 H     1 <1>   0.1500 
@<TRIPOS>BOND
  1   1   2  2   
  2   2   3  am  
  3   2   4  1   
  4   3   5  1   
  5   3   6  1   
  6   4   7  1   
  7   4  24  1   
  8   4  25  1   
  9   5   8  1   
 10   5  26  1   
 11   5  27  1   
 12   6   9  1   
 13   6  28  1   
 14   6  29  1   
 15   7  10  1   
 16   7  30  1   
 17   7  31  1   
 18   8  11  1   
 19   8  12  2   
 20   9  13  1   
 21   9  32  1   
 22   9  33  1   
 23  10  14  ar  
 24  10  15  ar  
 25  11  16  1   
 26  11  34  1   
 27  12  17  1   
 28  12  35  1   
 29  13  36  1   
 30  14  18  1   
 31  14  19  ar  
 32  15  20  ar  
 33  15  37  1   
 34  16  17  2   
 35  16  21  1   
 36  18  22  1   
 37  19  23  ar  
 38  19  38  1   
 39  20  23  ar  
 40  20  39  1   
 41  21  40  1   
 42  21  41  1   
 43  21  42  1   
 44  22  43  1   
 45  22  44  1   
 46  22  45  1   
 47  23  46  1   
@<TRIPOS>SUBSTRUCTURE
  1 ****   2 GROUP 4 **** **** 0

# MOE 2024.06 (io_trps.svl 2023.06)
