@<TRIPOS>MOLECULE
NONAME
53 55 1 0 0 
SMALL
USER_CHARGES


@<TRIPOS>ATOM
  1 O       -0.3510    -1.1430     1.8260 O.3   1 <1>  -0.5600 
  2 C       -0.0620    -2.0960     0.8350 C.3   1 <1>   0.2800 
  3 C       -1.6540    -0.6330     1.9290 C.3   1 <1>   0.1200 
  4 C       -1.3190    -2.4840     0.0020 C.3   1 <1>   0.2000 
  5 C        0.4730    -3.3260     1.6020 C.3   1 <1>  -0.1600 
  6 C        1.0400    -1.4450    -0.0310 C.3   1 <1>  -0.1600 
  7 C       -2.1140    -0.1260     0.5590 C.3   1 <1>  -0.1600 
  8 O       -0.9860    -3.3570    -1.0430 O.3   1 <1>  -0.6800 
  9 C       -2.1460    -1.2590    -0.4850 C.3   1 <1>   0.2800 
 10 C        1.5480    -4.0330     0.7880 C.3   1 <1>   0.3430 
 11 C        2.4070    -1.6710     0.5970 C.3   1 <1>   0.3430 
 12 O       -3.4510    -1.6950    -0.5920 O.3   1 <1>  -0.6800 
 13 C       -1.7870    -0.7220    -1.8790 C.3   1 <1>  -0.2400 
 14 N        2.7370    -3.1390     0.6020 N.4   1 <1>  -0.9590 
 15 C        3.4900    -3.5440    -0.6170 C.3   1 <1>   0.4860 
 16 C        4.8210    -2.8150    -0.6450 C.ar  1 <1>  -0.1440 
 17 C        5.0360    -1.7890    -1.5540 C.ar  1 <1>  -0.1500 
 18 C        5.8350    -3.1630     0.2360 C.ar  1 <1>  -0.1500 
 19 C        6.2440    -1.1140    -1.5690 C.ar  1 <1>  -0.1500 
 20 C        7.0400    -2.4810     0.2140 C.ar  1 <1>  -0.1500 
 21 C        7.2590    -1.4480    -0.6860 C.ar  1 <1>   0.0730 
 22 C        8.5050    -0.7430    -0.7040 C.1   1 <1>  -0.0730 
 23 C        9.5380    -0.1500    -0.7250 C.1   1 <1>  -0.2000 
 24 C       10.8260     0.5940    -0.7510 C.3   1 <1>   0.3200 
 25 O       11.2440     0.6480    -2.0630 O.3   1 <1>  -0.6800 
 26 H       -2.3040    -1.4070     2.3030 H     1 <1>   0.0800 
 27 H       -1.6340     0.1730     2.6430 H     1 <1>   0.0800 
 28 H       -1.9600    -3.0490     0.6570 H     1 <1>   0.0800 
 29 H        0.8890    -3.0350     2.5520 H     1 <1>   0.0800 
 30 H       -0.3250    -4.0180     1.8000 H     1 <1>   0.0800 
 31 H        1.0510    -1.8510    -1.0260 H     1 <1>   0.0800 
 32 H        0.8580    -0.3890    -0.1190 H     1 <1>   0.0800 
 33 H       -1.4220     0.6390     0.2560 H     1 <1>   0.0800 
 34 H       -3.0790     0.3390     0.6480 H     1 <1>   0.0800 
 35 H       -1.8110    -3.5560    -1.5370 H     1 <1>   0.4000 
 36 H        1.1280    -4.2890    -0.1730 H     1 <1>   0.0800 
 37 H        1.8440    -4.9460     1.2800 H     1 <1>   0.0800 
 38 H        2.3750    -1.3040     1.6110 H     1 <1>   0.0800 
 39 H        3.1610    -1.1110     0.0670 H     1 <1>   0.0800 
 40 H       -4.0120    -0.9800    -0.9480 H     1 <1>   0.4000 
 41 H       -0.7670    -0.3930    -1.9080 H     1 <1>   0.0800 
 42 H       -2.4090     0.1180    -2.1310 H     1 <1>   0.0800 
 43 H       -1.9140    -1.4830    -2.6290 H     1 <1>   0.0800 
 44 H        3.3770    -3.2800     1.3930 H     1 <1>   0.4500 
 45 H        3.6700    -4.6060    -0.6050 H     1 <1>   0.0800 
 46 H        2.9200    -3.3060    -1.5010 H     1 <1>   0.0800 
 47 H        4.2740    -1.5040    -2.2600 H     1 <1>   0.1500 
 48 H        5.7090    -3.9640     0.9440 H     1 <1>   0.1500 
 49 H        6.4070    -0.3180    -2.2760 H     1 <1>   0.1500 
 50 H        7.8250    -2.7520     0.8990 H     1 <1>   0.1500 
 51 H       11.5770     0.0810    -0.1740 H     1 <1>   0.0800 
 52 H       10.7080     1.6000    -0.3890 H     1 <1>   0.0800 
 53 H       11.0490    -0.2080    -2.4890 H     1 <1>   0.4000 
@<TRIPOS>BOND
  1   1   2  1   
  2   1   3  1   
  3   2   4  1   
  4   2   5  1   
  5   2   6  1   
  6   3   7  1   
  7   3  26  1   
  8   3  27  1   
  9   4   8  1   
 10   4   9  1   
 11   4  28  1   
 12   5  10  1   
 13   5  29  1   
 14   5  30  1   
 15   6  11  1   
 16   6  31  1   
 17   6  32  1   
 18   7   9  1   
 19   7  33  1   
 20   7  34  1   
 21   8  35  1   
 22   9  12  1   
 23   9  13  1   
 24  10  14  1   
 25  10  36  1   
 26  10  37  1   
 27  11  14  1   
 28  11  38  1   
 29  11  39  1   
 30  12  40  1   
 31  13  41  1   
 32  13  42  1   
 33  13  43  1   
 34  14  15  1   
 35  14  44  1   
 36  15  16  1   
 37  15  45  1   
 38  15  46  1   
 39  16  17  ar  
 40  16  18  ar  
 41  17  19  ar  
 42  17  47  1   
 43  18  20  ar  
 44  18  48  1   
 45  19  21  ar  
 46  19  49  1   
 47  20  21  ar  
 48  20  50  1   
 49  21  22  1   
 50  22  23  3   
 51  23  24  1   
 52  24  25  1   
 53  24  51  1   
 54  24  52  1   
 55  25  53  1   
@<TRIPOS>SUBSTRUCTURE
  1 ****  11 GROUP 4 **** **** 0

# MOE 2024.06 (io_trps.svl 2023.06)
