@<TRIPOS>MOLECULE
NONAME
65 68 1 0 0 
SMALL
USER_CHARGES


@<TRIPOS>ATOM
  1 O       -1.7310    -0.1010     0.5570 O.3   1 <1>  -0.3630 
  2 C       -2.5330     1.0000     0.5110 C.ar  1 <1>   0.0830 
  3 C       -0.3650    -0.0300     0.1870 C.3   1 <1>   0.1200 
  4 C       -3.8430     0.8770     0.9750 C.ar  1 <1>  -0.1440 
  5 C       -2.0970     2.2250     0.0110 C.ar  1 <1>  -0.1500 
  6 C        0.2560    -1.4240     0.3200 C.3   1 <1>   0.1100 
  7 C       -4.6960     1.9700     0.9300 C.ar  1 <1>  -0.1500 
  8 C       -4.3600    -0.4360     1.5320 C.3   1 <1>   0.4870 
  9 C       -2.9560     3.3070    -0.0290 C.ar  1 <1>  -0.1500 
 10 N        1.6590    -1.4460    -0.1480 N.3   1 <1>  -0.8100 
 11 C       -4.2540     3.1810     0.4290 C.ar  1 <1>  -0.1500 
 12 N       -4.1730    -1.4850     0.5040 N.4   1 <1>  -0.9590 
 13 C        2.5900    -0.7870     0.8080 C.3   1 <1>   0.1100 
 14 C        2.0990    -2.8400    -0.4090 C.3   1 <1>   0.1100 
 15 C       -4.8940    -1.2520    -0.7860 C.3   1 <1>   0.3430 
 16 C       -4.4580    -2.8730     0.9260 C.3   1 <1>   0.3430 
 17 C        4.0760    -0.8980     0.3800 C.3   1 <1>   0.3430 
 18 C        3.5580    -2.9230    -0.9270 C.3   1 <1>   0.3430 
 19 C       -5.3120    -2.6440    -1.2900 C.3   1 <1>   0.2000 
 20 C       -4.5670    -3.6390    -0.3950 C.3   1 <1>  -0.0800 
 21 N        4.2140    -1.5730    -0.9520 N.4   1 <1>  -0.9590 
 22 O       -6.6790    -2.8160    -1.1080 O.3   1 <1>  -0.6800 
 23 C       -3.1870    -3.9900    -1.0020 C.3   1 <1>  -0.0160 
 24 C        5.6160    -1.6090    -1.4570 C.3   1 <1>   0.2630 
 25 C       -2.3080    -4.7830    -0.0450 C.ar  1 <1>   0.1670 
 26 N       -1.6780    -4.0870     0.8910 N.ar  1 <1>  -0.6200 
 27 C       -2.2040    -6.1670    -0.1790 C.ar  1 <1>   0.1600 
 28 C       -0.9630    -4.8670     1.6900 C.ar  1 <1>   0.1600 
 29 N       -1.4820    -6.9380     0.6130 N.ar  1 <1>  -0.6200 
 30 C       -0.8690    -6.2460     1.5560 C.ar  1 <1>   0.1600 
 31 H       -0.3060     0.2980    -0.8360 H     1 <1>   0.0800 
 32 H        0.1200     0.6730     0.8400 H     1 <1>   0.0800 
 33 H       -1.0970     2.3680    -0.3540 H     1 <1>   0.1500 
 34 H       -0.3220    -2.0950    -0.2910 H     1 <1>   0.0800 
 35 H        0.2000    -1.7570     1.3430 H     1 <1>   0.0800 
 36 H       -5.7100     1.8990     1.2860 H     1 <1>   0.1500 
 37 H       -5.4020    -0.3460     1.7920 H     1 <1>   0.0800 
 38 H       -3.8010    -0.6860     2.4190 H     1 <1>   0.0800 
 39 H       -2.6150     4.2530    -0.4160 H     1 <1>   0.1500 
 40 H       -4.9180     4.0290     0.3970 H     1 <1>   0.1500 
 41 H       -3.1580    -1.4260     0.3010 H     1 <1>   0.4500 
 42 H        2.3400     0.2560     0.8910 H     1 <1>   0.0800 
 43 H        2.4790    -1.2220     1.7870 H     1 <1>   0.0800 
 44 H        2.0140    -3.4240     0.4920 H     1 <1>   0.0800 
 45 H        1.4500    -3.2900    -1.1420 H     1 <1>   0.0800 
 46 H       -5.7640    -0.6320    -0.6480 H     1 <1>   0.0800 
 47 H       -4.2300    -0.7770    -1.4910 H     1 <1>   0.0800 
 48 H       -3.6940    -3.2620     1.5770 H     1 <1>   0.0800 
 49 H       -5.4040    -2.9100     1.4400 H     1 <1>   0.0800 
 50 H        4.6170    -1.4520     1.1290 H     1 <1>   0.0800 
 51 H        4.5000     0.0920     0.3360 H     1 <1>   0.0800 
 52 H        3.5500    -3.3420    -1.9200 H     1 <1>   0.0800 
 53 H        4.1160    -3.5940    -0.2960 H     1 <1>   0.0800 
 54 H       -5.1080    -2.7730    -2.3400 H     1 <1>   0.0800 
 55 H       -5.1250    -4.5500    -0.2620 H     1 <1>   0.0800 
 56 H        3.6140    -1.0150    -1.5820 H     1 <1>   0.4500 
 57 H       -6.9490    -2.8350    -0.1700 H     1 <1>   0.4000 
 58 H       -2.6550    -3.0970    -1.2820 H     1 <1>   0.0800 
 59 H       -3.3360    -4.5610    -1.9020 H     1 <1>   0.0800 
 60 H        6.2380    -2.1930    -0.7980 H     1 <1>   0.0800 
 61 H        6.0170    -0.6100    -1.5160 H     1 <1>   0.0800 
 62 H        5.6480    -2.0480    -2.4420 H     1 <1>   0.0800 
 63 H       -2.7390    -6.6610    -0.9710 H     1 <1>   0.1500 
 64 H       -0.4250    -4.3960     2.4940 H     1 <1>   0.1500 
 65 H       -0.2650    -6.7990     2.2550 H     1 <1>   0.1500 
@<TRIPOS>BOND
  1   1   2  1   
  2   1   3  1   
  3   2   4  ar  
  4   2   5  ar  
  5   3   6  1   
  6   3  31  1   
  7   3  32  1   
  8   4   7  ar  
  9   4   8  1   
 10   5   9  ar  
 11   5  33  1   
 12   6  10  1   
 13   6  34  1   
 14   6  35  1   
 15   7  11  ar  
 16   7  36  1   
 17   8  12  1   
 18   8  37  1   
 19   8  38  1   
 20   9  11  ar  
 21   9  39  1   
 22  10  13  1   
 23  10  14  1   
 24  11  40  1   
 25  12  15  1   
 26  12  16  1   
 27  12  41  1   
 28  13  17  1   
 29  13  42  1   
 30  13  43  1   
 31  14  18  1   
 32  14  44  1   
 33  14  45  1   
 34  15  19  1   
 35  15  46  1   
 36  15  47  1   
 37  16  20  1   
 38  16  48  1   
 39  16  49  1   
 40  17  21  1   
 41  17  50  1   
 42  17  51  1   
 43  18  21  1   
 44  18  52  1   
 45  18  53  1   
 46  19  20  1   
 47  19  22  1   
 48  19  54  1   
 49  20  23  1   
 50  20  55  1   
 51  21  24  1   
 52  21  56  1   
 53  22  57  1   
 54  23  25  1   
 55  23  58  1   
 56  23  59  1   
 57  24  60  1   
 58  24  61  1   
 59  24  62  1   
 60  25  26  ar  
 61  25  27  ar  
 62  26  28  ar  
 63  27  29  ar  
 64  27  63  1   
 65  28  30  ar  
 66  28  64  1   
 67  29  30  ar  
 68  30  65  1   
@<TRIPOS>SUBSTRUCTURE
  1 ****   1 GROUP 4 **** **** 0

# MOE 2024.06 (io_trps.svl 2023.06)
