@<TRIPOS>MOLECULE
NONAME
55 59 1 0 0 
SMALL
USER_CHARGES


@<TRIPOS>ATOM
  1 O       -0.4780     0.2540    -0.8580 O.2   1 <1>  -0.5700 
  2 C       -1.5060     0.9130    -0.8430 C.2   1 <1>   0.7150 
  3 N       -2.7090     0.2300    -0.8780 N.am  1 <1>  -0.6600 
  4 C       -1.4210     2.3600    -0.7710 C.2   1 <1>   0.1020 
  5 C       -4.0430     0.8590    -0.6210 C.3   1 <1>   0.1400 
  6 C       -2.7970    -1.2190    -1.2420 C.3   1 <1>   0.1400 
  7 N       -2.2070     3.2070    -1.3860 N.2   1 <1>  -0.3380 
  8 N       -0.4970     3.0410    -0.0600 N.pl3 1 <1>   0.0480 
  9 C       -4.8820     0.0190     0.3610 C.3   1 <1>   0.1900 
 10 C       -3.6670    -1.9950    -0.2410 C.3   1 <1>   0.1100 
 11 N       -1.8050     4.4320    -1.0870 N.2   1 <1>  -0.3380 
 12 C       -0.7860     4.3140    -0.3070 C.2   1 <1>   0.0060 
 13 C        0.5820     2.5480     0.8310 C.3   1 <1>   0.0960 
 14 N       -5.0070    -1.3840    -0.1060 N.3   1 <1>  -0.8100 
 15 C       -6.2740     0.6540     0.5520 C.3   1 <1>   0.1200 
 16 C       -0.0100     5.4940     0.2480 C.3   1 <1>   0.0200 
 17 C        1.9670     2.9620     0.3150 C.3   1 <1>  -0.1600 
 18 C       -5.8760    -2.1500     0.8190 C.3   1 <1>   0.3330 
 19 O       -7.0390    -0.1030     1.4460 O.3   1 <1>  -0.5600 
 20 C        1.4650     5.4590    -0.1770 C.3   1 <1>  -0.1600 
 21 C        2.3190     4.4340     0.5880 C.3   1 <1>  -0.1600 
 22 C       -6.1330    -3.5600     0.2890 C.ar  1 <1>  -0.1430 
 23 C       -7.2250    -1.4290     1.0250 C.3   1 <1>   0.1200 
 24 C       -6.5020    -3.7680    -1.0330 C.ar  1 <1>  -0.1500 
 25 C       -6.0040    -4.6550     1.1320 C.ar  1 <1>  -0.1500 
 26 C       -6.7390    -5.0460    -1.5060 C.ar  1 <1>  -0.1500 
 27 C       -6.2410    -5.9350     0.6610 C.ar  1 <1>  -0.1500 
 28 C       -6.6090    -6.1320    -0.6580 C.ar  1 <1>  -0.1500 
 29 H       -3.9260     1.8410    -0.2000 H     1 <1>   0.0800 
 30 H       -4.5700     0.9560    -1.5540 H     1 <1>   0.0800 
 31 H       -3.2320    -1.3060    -2.2220 H     1 <1>   0.0800 
 32 H       -1.8190    -1.6660    -1.2770 H     1 <1>   0.0800 
 33 H       -4.3840     0.0350     1.3150 H     1 <1>   0.0800 
 34 H       -3.1720    -2.0190     0.7150 H     1 <1>   0.0800 
 35 H       -3.7610    -3.0080    -0.5920 H     1 <1>   0.0800 
 36 H        0.4220     2.9440     1.8180 H     1 <1>   0.0800 
 37 H        0.5350     1.4780     0.9010 H     1 <1>   0.0800 
 38 H       -6.7970     0.7120    -0.3870 H     1 <1>   0.0800 
 39 H       -6.1810     1.6440     0.9610 H     1 <1>   0.0800 
 40 H       -0.4570     6.3960    -0.1320 H     1 <1>   0.0800 
 41 H       -0.0950     5.5170     1.3200 H     1 <1>   0.0800 
 42 H        2.6970     2.3520     0.8180 H     1 <1>   0.0800 
 43 H        2.0440     2.7430    -0.7370 H     1 <1>   0.0800 
 44 H       -5.3910    -2.2200     1.7770 H     1 <1>   0.0800 
 45 H        1.5270     5.2710    -1.2360 H     1 <1>   0.0800 
 46 H        1.8830     6.4350    -0.0030 H     1 <1>   0.0800 
 47 H        2.2560     4.6310     1.6450 H     1 <1>   0.0800 
 48 H        3.3470     4.5840     0.3030 H     1 <1>   0.0800 
 49 H       -7.8010    -1.9360     1.7780 H     1 <1>   0.0800 
 50 H       -7.7880    -1.4220     0.1090 H     1 <1>   0.0800 
 51 H       -6.5990    -2.9260    -1.6980 H     1 <1>   0.1500 
 52 H       -5.7200    -4.5180     2.1610 H     1 <1>   0.1500 
 53 H       -7.0240    -5.1960    -2.5330 H     1 <1>   0.1500 
 54 H       -6.1390    -6.7790     1.3210 H     1 <1>   0.1500 
 55 H       -6.7930    -7.1260    -1.0240 H     1 <1>   0.1500 
@<TRIPOS>BOND
  1   1   2  2   
  2   2   3  am  
  3   2   4  1   
  4   3   5  1   
  5   3   6  1   
  6   4   7  2   
  7   4   8  1   
  8   5   9  1   
  9   5  29  1   
 10   5  30  1   
 11   6  10  1   
 12   6  31  1   
 13   6  32  1   
 14   7  11  1   
 15   8  12  1   
 16   8  13  1   
 17   9  14  1   
 18   9  15  1   
 19   9  33  1   
 20  10  14  1   
 21  10  34  1   
 22  10  35  1   
 23  11  12  2   
 24  12  16  1   
 25  13  17  1   
 26  13  36  1   
 27  13  37  1   
 28  14  18  1   
 29  15  19  1   
 30  15  38  1   
 31  15  39  1   
 32  16  20  1   
 33  16  40  1   
 34  16  41  1   
 35  17  21  1   
 36  17  42  1   
 37  17  43  1   
 38  18  22  1   
 39  18  23  1   
 40  18  44  1   
 41  19  23  1   
 42  20  21  1   
 43  20  45  1   
 44  20  46  1   
 45  21  47  1   
 46  21  48  1   
 47  22  24  ar  
 48  22  25  ar  
 49  23  49  1   
 50  23  50  1   
 51  24  26  ar  
 52  24  51  1   
 53  25  27  ar  
 54  25  52  1   
 55  26  28  ar  
 56  26  53  1   
 57  27  28  ar  
 58  27  54  1   
 59  28  55  1   
@<TRIPOS>SUBSTRUCTURE
  1 ****   3 GROUP 4 **** **** 0

# MOE 2024.06 (io_trps.svl 2023.06)
