@<TRIPOS>MOLECULE
NONAME
53 57 1 0 0 
SMALL
USER_CHARGES


@<TRIPOS>ATOM
  1 O       -1.1770     0.4850    -1.5760 O.2   1 <1>  -0.5700 
  2 C       -1.9420     0.9350    -0.7420 C.2   1 <1>   0.7160 
  3 N       -3.0280     0.1660    -0.4100 N.am  1 <1>  -0.6600 
  4 C       -1.6730     2.1950    -0.1170 C.2   1 <1>  -0.0860 
  5 C       -2.8070    -1.2330     0.0480 C.3   1 <1>   0.1400 
  6 C       -4.1950     0.1850    -1.3320 C.3   1 <1>   0.1400 
  7 C       -2.5930     3.1820     0.2610 C.2   1 <1>   0.3720 
  8 C       -0.4750     2.7450     0.2240 C.2   1 <1>   0.0870 
  9 C       -3.6640    -2.0870    -0.8810 C.3   1 <1>  -0.0800 
 10 C       -4.8640    -1.1790    -1.1610 C.3   1 <1>  -0.0800 
 11 N       -1.9980     4.2060     0.7640 N.2   1 <1>  -0.4100 
 12 N       -3.9840     3.1110     0.1330 N.pl3 1 <1>  -0.8210 
 13 O       -0.7260     3.9250     0.7290 O.3   1 <1>  -0.0190 
 14 C        0.8910     2.2860     0.1460 C.ar  1 <1>   0.0530 
 15 C       -4.0070    -3.4890    -0.3470 C.3   1 <1>  -0.0220 
 16 C       -5.8780    -1.1260     0.0050 C.3   1 <1>  -0.0220 
 17 C       -4.6440     2.6590     1.3940 C.3   1 <1>   0.2090 
 18 C       -4.6240     4.3730    -0.3510 C.3   1 <1>   0.2090 
 19 C        1.9330     3.1890    -0.0730 C.ar  1 <1>  -0.1500 
 20 C        1.2330     0.9420     0.3020 C.ar  1 <1>  -0.1500 
 21 C       -5.2400    -3.5030     0.5380 C.2   1 <1>  -0.2880 
 22 C       -6.0630    -2.4650     0.6920 C.2   1 <1>  -0.2880 
 23 C       -6.1730     2.5770     1.2240 C.3   1 <1>   0.1200 
 24 C       -6.1490     4.2070    -0.4640 C.3   1 <1>   0.1200 
 25 C        3.2500     2.7730    -0.1380 C.ar  1 <1>  -0.1500 
 26 C        2.5480     0.5190     0.2370 C.ar  1 <1>  -0.1500 
 27 O       -6.6980     3.7880     0.7550 O.3   1 <1>  -0.5600 
 28 C        3.5610     1.4340     0.0170 C.ar  1 <1>  -0.1500 
 29 H       -1.7680    -1.5110    -0.0140 H     1 <1>   0.0800 
 30 H       -3.1440    -1.3280     1.0660 H     1 <1>   0.0800 
 31 H       -4.8630     0.9950    -1.0990 H     1 <1>   0.0800 
 32 H       -3.8450     0.3000    -2.3450 H     1 <1>   0.0800 
 33 H       -3.1030    -2.2110    -1.7930 H     1 <1>   0.0800 
 34 H       -5.3690    -1.4850    -2.0600 H     1 <1>   0.0800 
 35 H       -4.1950    -4.1430    -1.1810 H     1 <1>   0.0800 
 36 H       -3.1650    -3.8850     0.1940 H     1 <1>   0.0800 
 37 H       -5.5510    -0.4270     0.7540 H     1 <1>   0.0800 
 38 H       -6.8250    -0.7830    -0.3730 H     1 <1>   0.0800 
 39 H       -4.2630     1.6910     1.6680 H     1 <1>   0.0800 
 40 H       -4.4120     3.3460     2.1900 H     1 <1>   0.0800 
 41 H       -4.4090     5.1800     0.3300 H     1 <1>   0.0800 
 42 H       -4.2170     4.6300    -1.3130 H     1 <1>   0.0800 
 43 H        1.7050     4.2330    -0.1960 H     1 <1>   0.1500 
 44 H        0.4610     0.2170     0.4760 H     1 <1>   0.1500 
 45 H       -5.3950    -4.4480     1.0320 H     1 <1>   0.1500 
 46 H       -6.9280    -2.4980     1.3330 H     1 <1>   0.1500 
 47 H       -6.6380     2.3620     2.1690 H     1 <1>   0.0800 
 48 H       -6.4320     1.8020     0.5260 H     1 <1>   0.0800 
 49 H       -6.3920     3.4820    -1.2200 H     1 <1>   0.0800 
 50 H       -6.6050     5.1460    -0.7220 H     1 <1>   0.0800 
 51 H        4.0340     3.4900    -0.3090 H     1 <1>   0.1500 
 52 H        2.7830    -0.5250     0.3550 H     1 <1>   0.1500 
 53 H        4.5840     1.1060    -0.0350 H     1 <1>   0.1500 
@<TRIPOS>BOND
  1   1   2  2   
  2   2   3  am  
  3   2   4  1   
  4   3   5  1   
  5   3   6  1   
  6   4   7  1   
  7   4   8  2   
  8   5   9  1   
  9   5  29  1   
 10   5  30  1   
 11   6  10  1   
 12   6  31  1   
 13   6  32  1   
 14   7  11  2   
 15   7  12  1   
 16   8  13  1   
 17   8  14  1   
 18   9  10  1   
 19   9  15  1   
 20   9  33  1   
 21  10  16  1   
 22  10  34  1   
 23  11  13  1   
 24  12  17  1   
 25  12  18  1   
 26  14  19  ar  
 27  14  20  ar  
 28  15  21  1   
 29  15  35  1   
 30  15  36  1   
 31  16  22  1   
 32  16  37  1   
 33  16  38  1   
 34  17  23  1   
 35  17  39  1   
 36  17  40  1   
 37  18  24  1   
 38  18  41  1   
 39  18  42  1   
 40  19  25  ar  
 41  19  43  1   
 42  20  26  ar  
 43  20  44  1   
 44  21  22  2   
 45  21  45  1   
 46  22  46  1   
 47  23  27  1   
 48  23  47  1   
 49  23  48  1   
 50  24  27  1   
 51  24  49  1   
 52  24  50  1   
 53  25  28  ar  
 54  25  51  1   
 55  26  28  ar  
 56  26  52  1   
 57  28  53  1   
@<TRIPOS>SUBSTRUCTURE
  1 ****   2 GROUP 4 **** **** 0

# MOE 2024.06 (io_trps.svl 2023.06)
