@<TRIPOS>MOLECULE
NONAME
48 50 1 0 0 
SMALL
USER_CHARGES


@<TRIPOS>ATOM
  1 O       -1.4360     0.4850     2.5770 O.2   1 <1>  -0.5700 
  2 C       -1.5280     0.6990     1.3890 C.2   1 <1>   0.5690 
  3 N       -1.6270    -0.3390     0.4900 N.am  1 <1>  -0.6600 
  4 C       -1.5480     2.1780     0.9770 C.3   1 <1>  -0.0190 
  5 C       -1.7360    -1.7430     0.9840 C.3   1 <1>   0.2840 
  6 C       -1.7570    -0.2360    -0.9930 C.3   1 <1>   0.0600 
  7 C       -2.8630     2.6080     0.2910 C.3   1 <1>  -0.1600 
  8 C       -0.2780     2.6180     0.2070 C.3   1 <1>  -0.1600 
  9 C       -3.1960    -2.1780     0.9790 C.ar  1 <1>  -0.1440 
 10 C       -2.9330     4.1330     0.0640 C.3   1 <1>   0.2000 
 11 C       -0.5230     3.8070    -0.7400 C.3   1 <1>  -0.1600 
 12 C       -3.7090    -2.9550    -0.0840 C.ar  1 <1>   0.3100 
 13 C       -4.0010    -1.8000     2.0240 C.ar  1 <1>  -0.1500 
 14 O       -3.7250     4.3660    -1.0760 O.3   1 <1>  -0.5600 
 15 C       -1.5370     4.7830    -0.1390 C.3   1 <1>   0.2000 
 16 N       -2.8990    -3.3180    -1.1190 N.ar  1 <1>  -0.6200 
 17 C       -5.0720    -3.3350    -0.0390 C.ar  1 <1>   0.0000 
 18 C       -5.3450    -2.1770     2.0620 C.ar  1 <1>  -0.1500 
 19 C       -5.1020     4.3020    -0.8650 C.3   1 <1>   0.0400 
 20 O       -1.6560     5.8550    -0.9990 O.3   1 <1>  -0.6800 
 21 C       -3.4130    -4.0340    -2.0720 C.ar  1 <1>   0.1600 
 22 C       -5.5850    -4.1100    -1.0930 C.ar  1 <1>  -0.1500 
 23 C       -5.8690    -2.9310     1.0500 C.ar  1 <1>  -0.1500 
 24 C       -4.7480    -4.4570    -2.1080 C.ar  1 <1>  -0.1500 
 25 H       -1.5280     2.7270     1.9030 H     1 <1>   0.0800 
 26 H       -1.1310    -2.3910     0.3750 H     1 <1>   0.0800 
 27 H       -1.3510    -1.8170     1.9870 H     1 <1>   0.0800 
 28 H       -1.1550    -0.9940    -1.4640 H     1 <1>   0.0800 
 29 H       -1.4370     0.7190    -1.3600 H     1 <1>   0.0800 
 30 H       -2.7840    -0.3920    -1.2750 H     1 <1>   0.0800 
 31 H       -3.6930     2.3020     0.9030 H     1 <1>   0.0800 
 32 H       -2.9540     2.1190    -0.6590 H     1 <1>   0.0800 
 33 H        0.4690     2.8940     0.9310 H     1 <1>   0.0800 
 34 H        0.1360     1.8020    -0.3580 H     1 <1>   0.0800 
 35 H       -3.3950     4.6110     0.9110 H     1 <1>   0.0800 
 36 H       -0.9070     3.4420    -1.6780 H     1 <1>   0.0800 
 37 H        0.4080     4.3140    -0.9280 H     1 <1>   0.0800 
 38 H       -3.6050    -1.2010     2.8290 H     1 <1>   0.1500 
 39 H       -1.1590     5.1520     0.7980 H     1 <1>   0.0800 
 40 H       -5.9520    -1.8670     2.8950 H     1 <1>   0.1500 
 41 H       -5.5930     4.5140    -1.7990 H     1 <1>   0.0800 
 42 H       -5.3850     5.0400    -0.1340 H     1 <1>   0.0800 
 43 H       -5.3720     3.3150    -0.5330 H     1 <1>   0.0800 
 44 H       -2.4430     5.6580    -1.5580 H     1 <1>   0.4000 
 45 H       -2.7740    -4.3240    -2.8880 H     1 <1>   0.1500 
 46 H       -6.6170    -4.4120    -1.0800 H     1 <1>   0.1500 
 47 H       -6.9020    -3.2260     1.0720 H     1 <1>   0.1500 
 48 H       -5.0850    -5.0490    -2.9390 H     1 <1>   0.1500 
@<TRIPOS>BOND
  1   1   2  2   
  2   2   3  am  
  3   2   4  1   
  4   3   5  1   
  5   3   6  1   
  6   4   7  1   
  7   4   8  1   
  8   4  25  1   
  9   5   9  1   
 10   5  26  1   
 11   5  27  1   
 12   6  28  1   
 13   6  29  1   
 14   6  30  1   
 15   7  10  1   
 16   7  31  1   
 17   7  32  1   
 18   8  11  1   
 19   8  33  1   
 20   8  34  1   
 21   9  12  ar  
 22   9  13  ar  
 23  10  14  1   
 24  10  15  1   
 25  10  35  1   
 26  11  15  1   
 27  11  36  1   
 28  11  37  1   
 29  12  16  ar  
 30  12  17  ar  
 31  13  18  ar  
 32  13  38  1   
 33  14  19  1   
 34  15  20  1   
 35  15  39  1   
 36  16  21  ar  
 37  17  22  ar  
 38  17  23  ar  
 39  18  23  ar  
 40  18  40  1   
 41  19  41  1   
 42  19  42  1   
 43  19  43  1   
 44  20  44  1   
 45  21  24  ar  
 46  21  45  1   
 47  22  24  ar  
 48  22  46  1   
 49  23  47  1   
 50  24  48  1   
@<TRIPOS>SUBSTRUCTURE
  1 ****   3 GROUP 4 **** **** 0

# MOE 2024.06 (io_trps.svl 2023.06)
