@<TRIPOS>MOLECULE
NONAME
46 48 1 0 0 
SMALL
USER_CHARGES


@<TRIPOS>ATOM
  1 F        0.1830    -0.4690    -1.0840 F     1 <1>  -0.3400 
  2 C       -0.2970    -1.6760    -0.8170 C.3   1 <1>   1.3000 
  3 F        0.4430    -2.5660    -1.4590 F     1 <1>  -0.3400 
  4 F       -0.1700    -1.9100     0.4830 F     1 <1>  -0.3400 
  5 O       -1.6520    -1.8130    -1.2170 O.3   1 <1>  -0.3630 
  6 C       -2.5770    -1.0610    -0.5760 C.ar  1 <1>   0.0830 
  7 C       -3.4260    -1.6530     0.3540 C.ar  1 <1>  -0.1440 
  8 C       -2.6910     0.2900    -0.8690 C.ar  1 <1>  -0.1500 
  9 C       -4.3650    -0.8690     1.0090 C.ar  1 <1>  -0.1500 
 10 C       -3.3560    -3.1390     0.6550 C.3   1 <1>   0.4870 
 11 C       -3.6330     1.0610    -0.2130 C.ar  1 <1>  -0.1500 
 12 C       -4.4660     0.4830     0.7280 C.ar  1 <1>  -0.1500 
 13 N       -3.8420    -3.9020    -0.5280 N.4   1 <1>  -0.9590 
 14 C       -5.2760    -3.5870    -0.8240 C.3   1 <1>   0.3430 
 15 C       -3.7810    -5.3730    -0.2600 C.3   1 <1>   0.3430 
 16 C       -6.0900    -4.6460    -0.0770 C.3   1 <1>   0.2000 
 17 C       -5.2250    -5.8960    -0.2400 C.3   1 <1>  -0.0800 
 18 O       -6.1630    -4.2830     1.2660 O.3   1 <1>  -0.6800 
 19 C       -5.4440    -7.0070     0.8060 C.3   1 <1>   0.0210 
 20 C       -4.6060    -8.2320     0.4950 C.2   1 <1>   0.1080 
 21 N       -3.3160    -8.1920     0.3500 N.2   1 <1>  -0.7070 
 22 C       -5.1140    -9.5170     0.3400 C.2   1 <1>  -0.1500 
 23 N       -2.9640    -9.4730     0.1060 N.pl3 1 <1>   0.3000 
 24 C       -4.0370   -10.2900     0.0900 C.2   1 <1>  -0.3320 
 25 C       -3.9660   -11.7850    -0.1600 C.3   1 <1>  -0.0600 
 26 H       -2.0530     0.7480    -1.6050 H     1 <1>   0.1500 
 27 H       -5.0280    -1.3000     1.7420 H     1 <1>   0.1500 
 28 H       -3.9650    -3.3650     1.5160 H     1 <1>   0.0800 
 29 H       -2.3380    -3.4120     0.8800 H     1 <1>   0.0800 
 30 H       -3.7190     2.1120    -0.4330 H     1 <1>   0.1500 
 31 H       -5.1950     1.0890     1.2410 H     1 <1>   0.1500 
 32 H       -3.2500    -3.6340    -1.3250 H     1 <1>   0.4500 
 33 H       -5.5550    -2.5920    -0.5200 H     1 <1>   0.0800 
 34 H       -5.4520    -3.6930    -1.8810 H     1 <1>   0.0800 
 35 H       -3.2130    -5.8890    -1.0180 H     1 <1>   0.0800 
 36 H       -3.3160    -5.5640     0.6950 H     1 <1>   0.0800 
 37 H       -7.0880    -4.7510    -0.4690 H     1 <1>   0.0800 
 38 H       -5.4220    -6.3150    -1.2110 H     1 <1>   0.0800 
 39 H       -6.8470    -4.8050     1.7380 H     1 <1>   0.4000 
 40 H       -6.4810    -7.2900     0.8240 H     1 <1>   0.0800 
 41 H       -5.1750    -6.6620     1.7890 H     1 <1>   0.0800 
 42 H       -6.1460    -9.8120     0.4110 H     1 <1>   0.1500 
 43 H       -1.9880    -9.7640    -0.0410 H     1 <1>   0.2700 
 44 H       -4.9510   -12.2150    -0.1200 H     1 <1>   0.0800 
 45 H       -3.3560   -12.2600     0.5880 H     1 <1>   0.0800 
 46 H       -3.5470   -11.9820    -1.1320 H     1 <1>   0.0800 
@<TRIPOS>BOND
  1   1   2  1   
  2   2   3  1   
  3   2   4  1   
  4   2   5  1   
  5   5   6  1   
  6   6   7  ar  
  7   6   8  ar  
  8   7   9  ar  
  9   7  10  1   
 10   8  11  ar  
 11   8  26  1   
 12   9  12  ar  
 13   9  27  1   
 14  10  13  1   
 15  10  28  1   
 16  10  29  1   
 17  11  12  ar  
 18  11  30  1   
 19  12  31  1   
 20  13  14  1   
 21  13  15  1   
 22  13  32  1   
 23  14  16  1   
 24  14  33  1   
 25  14  34  1   
 26  15  17  1   
 27  15  35  1   
 28  15  36  1   
 29  16  17  1   
 30  16  18  1   
 31  16  37  1   
 32  17  19  1   
 33  17  38  1   
 34  18  39  1   
 35  19  20  1   
 36  19  40  1   
 37  19  41  1   
 38  20  21  2   
 39  20  22  1   
 40  21  23  1   
 41  22  24  2   
 42  22  42  1   
 43  23  24  1   
 44  23  43  1   
 45  24  25  1   
 46  25  44  1   
 47  25  45  1   
 48  25  46  1   
@<TRIPOS>SUBSTRUCTURE
  1 ****  13 GROUP 4 **** **** 0

# MOE 2024.06 (io_trps.svl 2023.06)
