@<TRIPOS>MOLECULE
NONAME
37 37 1 0 0 
SMALL
USER_CHARGES


@<TRIPOS>ATOM
  1 S       -0.6910    -0.3020     0.3220 S.o2  1 <1>   1.3330 
  2 O       -0.4550     0.9350    -0.3740 O.2   1 <1>  -0.6500 
  3 O       -1.0920    -0.3160     1.7050 O.2   1 <1>  -0.6500 
  4 N        0.7930    -1.0280     0.3340 N.am  1 <1>  -0.9780 
  5 C       -1.7220    -1.4010    -0.6570 C.3   1 <1>  -0.0550 
  6 C       -1.8540    -2.8190    -0.0720 C.3   1 <1>  -0.1600 
  7 C       -2.8260    -3.6830    -0.8940 C.3   1 <1>  -0.0990 
  8 C       -3.0040    -5.0690    -0.2910 C.2   1 <1>   0.5690 
  9 O       -2.4060    -5.9820    -0.8110 O.2   1 <1>  -0.5700 
 10 N       -3.8260    -5.2790     0.7850 N.am  1 <1>  -0.6600 
 11 C       -3.9220    -6.6420     1.3880 C.3   1 <1>   0.3200 
 12 C       -4.7970    -4.2820     1.3250 C.3   1 <1>   0.1400 
 13 C       -4.9030    -7.4930     0.6030 C.2   1 <1>   0.0060 
 14 C       -6.1320    -4.3670     0.5760 C.3   1 <1>   0.1200 
 15 N       -6.0360    -7.9350     1.0500 N.2   1 <1>  -0.5650 
 16 N       -4.6460    -7.8500    -0.6720 N.pl3 1 <1>   0.0330 
 17 O       -6.9170    -3.2790     0.9310 O.3   1 <1>  -0.6800 
 18 C       -6.5430    -8.6220     0.0070 C.2   1 <1>   0.0770 
 19 C       -5.7090    -8.5800    -1.0550 C.2   1 <1>  -0.3020 
 20 H        1.0460    -1.0370     1.3200 H     1 <1>   0.4200 
 21 H        1.4000    -0.3340    -0.1000 H     1 <1>   0.4200 
 22 H       -1.3160    -1.4690    -1.6480 H     1 <1>   0.0800 
 23 H       -2.7000    -0.9670    -0.7360 H     1 <1>   0.0800 
 24 H       -2.1980    -2.7500     0.9450 H     1 <1>   0.0800 
 25 H       -0.8860    -3.2930    -0.0570 H     1 <1>   0.0800 
 26 H       -2.4380    -3.7990    -1.8910 H     1 <1>   0.0800 
 27 H       -3.7820    -3.2010    -0.9790 H     1 <1>   0.0800 
 28 H       -4.2450    -6.5740     2.4120 H     1 <1>   0.0800 
 29 H       -2.9540    -7.1140     1.3790 H     1 <1>   0.0800 
 30 H       -4.3990    -3.2890     1.2220 H     1 <1>   0.0800 
 31 H       -4.9590    -4.4650     2.3720 H     1 <1>   0.0800 
 32 H       -6.6660    -5.2700     0.8200 H     1 <1>   0.0800 
 33 H       -5.9730    -4.3180    -0.4860 H     1 <1>   0.0800 
 34 H       -3.8080    -7.5740    -1.2030 H     1 <1>   0.2700 
 35 H       -7.3170    -3.4140     1.8130 H     1 <1>   0.4000 
 36 H       -7.4970    -9.1170     0.0750 H     1 <1>   0.1500 
 37 H       -5.8090    -9.0150    -2.0330 H     1 <1>   0.1500 
@<TRIPOS>BOND
  1   1   2  2   
  2   1   3  2   
  3   1   4  am  
  4   1   5  1   
  5   4  20  1   
  6   4  21  1   
  7   5   6  1   
  8   5  22  1   
  9   5  23  1   
 10   6   7  1   
 11   6  24  1   
 12   6  25  1   
 13   7   8  1   
 14   7  26  1   
 15   7  27  1   
 16   8   9  2   
 17   8  10  am  
 18  10  11  1   
 19  10  12  1   
 20  11  13  1   
 21  11  28  1   
 22  11  29  1   
 23  12  14  1   
 24  12  30  1   
 25  12  31  1   
 26  13  15  2   
 27  13  16  1   
 28  14  17  1   
 29  14  32  1   
 30  14  33  1   
 31  15  18  1   
 32  16  19  1   
 33  16  34  1   
 34  17  35  1   
 35  18  19  2   
 36  18  36  1   
 37  19  37  1   
@<TRIPOS>SUBSTRUCTURE
  1 ****   8 GROUP 4 **** **** 0

# MOE 2024.06 (io_trps.svl 2023.06)
