@<TRIPOS>MOLECULE
NONAME
49 51 1 0 0 
SMALL
USER_CHARGES


@<TRIPOS>ATOM
  1 S       -0.2910    -0.2620    -1.2910 S.3   1 <1>  -0.0800 
  2 C        0.5410     0.8570    -0.2330 C.2   1 <1>   0.1980 
  3 C       -1.8120     0.4120    -0.7720 C.2   1 <1>  -0.1400 
  4 N       -0.2360     1.6270     0.4190 N.2   1 <1>  -0.5650 
  5 C        2.0580     0.7760    -0.2200 C.3   1 <1>   0.0200 
  6 C       -1.5650     1.3830     0.1240 C.2   1 <1>   0.0460 
  7 C       -3.0730    -0.1660    -1.3760 C.3   1 <1>   0.3200 
  8 C        2.7030     1.7910     0.7370 C.3   1 <1>  -0.1600 
  9 C       -2.5760     2.2420     0.8530 C.3   1 <1>  -0.0590 
 10 N       -3.2410    -1.5440    -0.8830 N.am  1 <1>  -0.7300 
 11 C        4.2320     1.6860     0.7310 C.3   1 <1>  -0.2400 
 12 C       -4.4340    -2.1130    -0.6020 C.2   1 <1>   0.5690 
 13 O       -5.4780    -1.5390    -0.7900 O.2   1 <1>  -0.5700 
 14 C       -4.4660    -3.5170    -0.0490 C.3   1 <1>  -0.0990 
 15 C       -5.0310    -4.4690    -1.1000 C.3   1 <1>   0.1400 
 16 N       -5.0620    -5.8440    -0.5640 N.am  1 <1>  -0.4770 
 17 C       -4.0670    -6.7750    -0.6650 C.2   1 <1>   0.7800 
 18 C       -6.0880    -6.4500     0.1290 C.ar  1 <1>   0.1170 
 19 O       -2.9820    -6.6140    -1.1920 O.2   1 <1>  -0.5700 
 20 O       -4.4270    -7.9190    -0.0810 O.3   1 <1>  -0.2330 
 21 C       -5.6670    -7.7300     0.4130 C.ar  1 <1>   0.0820 
 22 C       -7.3390    -6.0160     0.5420 C.ar  1 <1>  -0.1500 
 23 C       -6.4610    -8.6230     1.1070 C.ar  1 <1>  -0.1500 
 24 C       -8.1530    -6.8970     1.2420 C.ar  1 <1>  -0.1430 
 25 C       -7.7120    -8.1910     1.5200 C.ar  1 <1>  -0.1500 
 26 C       -9.5300    -6.4630     1.7120 C.3   1 <1>  -0.0970 
 27 H        2.4160     0.9510    -1.2180 H     1 <1>   0.0800 
 28 H        2.3430    -0.2190     0.0700 H     1 <1>   0.0800 
 29 H       -2.9940    -0.1740    -2.4490 H     1 <1>   0.0800 
 30 H       -3.9280     0.4280    -1.1010 H     1 <1>   0.0800 
 31 H        2.3360     1.6190     1.7350 H     1 <1>   0.0800 
 32 H        2.4110     2.7860     0.4480 H     1 <1>   0.0800 
 33 H       -3.5800     1.9750     0.5820 H     1 <1>   0.0800 
 34 H       -2.4100     3.2750     0.6100 H     1 <1>   0.0800 
 35 H       -2.4570     2.1120     1.9130 H     1 <1>   0.0800 
 36 H       -2.3640    -2.0330    -0.6970 H     1 <1>   0.3700 
 37 H        4.5450     0.7050     1.0440 H     1 <1>   0.0800 
 38 H        4.6510     2.4090     1.4090 H     1 <1>   0.0800 
 39 H        4.6200     1.8790    -0.2540 H     1 <1>   0.0800 
 40 H       -5.0930    -3.5240     0.8240 H     1 <1>   0.0800 
 41 H       -3.4750    -3.8230     0.2280 H     1 <1>   0.0800 
 42 H       -4.4130    -4.4490    -1.9830 H     1 <1>   0.0800 
 43 H       -6.0270    -4.1700    -1.3780 H     1 <1>   0.0800 
 44 H       -7.6600    -5.0150     0.3190 H     1 <1>   0.1500 
 45 H       -6.1090    -9.6170     1.3160 H     1 <1>   0.1500 
 46 H       -8.3510    -8.8670     2.0640 H     1 <1>   0.1500 
 47 H       -9.7770    -5.4870     1.3340 H     1 <1>   0.0800 
 48 H       -9.5540    -6.4310     2.7870 H     1 <1>   0.0800 
 49 H      -10.2730    -7.1600     1.3680 H     1 <1>   0.0800 
@<TRIPOS>BOND
  1   1   2  1   
  2   1   3  1   
  3   2   4  2   
  4   2   5  1   
  5   3   6  2   
  6   3   7  1   
  7   4   6  1   
  8   5   8  1   
  9   5  27  1   
 10   5  28  1   
 11   6   9  1   
 12   7  10  1   
 13   7  29  1   
 14   7  30  1   
 15   8  11  1   
 16   8  31  1   
 17   8  32  1   
 18   9  33  1   
 19   9  34  1   
 20   9  35  1   
 21  10  12  am  
 22  10  36  1   
 23  11  37  1   
 24  11  38  1   
 25  11  39  1   
 26  12  13  2   
 27  12  14  1   
 28  14  15  1   
 29  14  40  1   
 30  14  41  1   
 31  15  16  1   
 32  15  42  1   
 33  15  43  1   
 34  16  17  am  
 35  16  18  1   
 36  17  19  2   
 37  17  20  1   
 38  18  21  ar  
 39  18  22  ar  
 40  20  21  1   
 41  21  23  ar  
 42  22  24  ar  
 43  22  44  1   
 44  23  25  ar  
 45  23  45  1   
 46  24  25  ar  
 47  24  26  1   
 48  25  46  1   
 49  26  47  1   
 50  26  48  1   
 51  26  49  1   
@<TRIPOS>SUBSTRUCTURE
  1 ****  14 GROUP 4 **** **** 0

# MOE 2024.06 (io_trps.svl 2023.06)
