@<TRIPOS>MOLECULE
NONAME
56 60 1 0 0 
SMALL
USER_CHARGES


@<TRIPOS>ATOM
  1 O        0.0180    -0.3990    -0.3520 O.3   1 <1>  -0.5600 
  2 C        0.3900    -1.6340     0.2010 C.3   1 <1>   0.1200 
  3 C        1.0020     0.2280    -1.1250 C.3   1 <1>   0.1200 
  4 C        1.6390    -1.4800     1.1030 C.3   1 <1>   0.5180 
  5 C        2.2830     0.4610    -0.2930 C.3   1 <1>   0.4230 
  6 N        2.7560    -0.8190     0.3560 N.4   1 <1>  -0.9590 
  7 C        2.1450    -2.7970     1.7270 C.3   1 <1>  -0.1950 
  8 C        3.4010     1.1170    -1.1470 C.3   1 <1>   0.1100 
  9 C        3.4770    -1.6950    -0.6300 C.3   1 <1>   0.3430 
 10 C        2.1440    -4.1310     1.0360 C.3   1 <1>  -0.2000 
 11 C        1.2240    -3.8820     2.1980 C.3   1 <1>  -0.2000 
 12 N        4.7260     0.4800    -0.9240 N.3   1 <1>  -0.8100 
 13 C        4.6750    -0.9570    -1.2800 C.3   1 <1>   0.1100 
 14 C        5.8240     1.1800    -1.6210 C.3   1 <1>   0.2530 
 15 C        5.9610     2.5930    -1.0860 C.ar  1 <1>  -0.1440 
 16 C        6.1600     2.8320     0.2510 C.ar  1 <1>   0.1600 
 17 C        5.8790     3.6940    -1.9040 C.ar  1 <1>   0.1600 
 18 N        6.2520     4.0440     0.7410 N.ar  1 <1>  -0.6200 
 19 N        5.9680     4.9160    -1.4410 N.ar  1 <1>  -0.6200 
 20 C        6.1570     5.0600    -0.1240 C.ar  1 <1>   0.6200 
 21 C        6.2610     6.4150     0.4040 C.ar  1 <1>   0.0000 
 22 C        6.9490     6.6910     1.5890 C.ar  1 <1>  -0.1500 
 23 C        5.6760     7.5040    -0.2500 C.ar  1 <1>  -0.1500 
 24 C        7.0520     7.9740     2.1010 C.ar  1 <1>  -0.1440 
 25 C        5.7730     8.7900     0.2500 C.ar  1 <1>  -0.1500 
 26 C        6.4610     9.0260     1.4250 C.ar  1 <1>  -0.1500 
 27 C        7.8090     8.2320     3.3920 C.3   1 <1>  -0.0970 
 28 H       -0.4440    -1.9860     0.7820 H     1 <1>   0.0800 
 29 H        0.5650    -2.3300    -0.6000 H     1 <1>   0.0800 
 30 H        1.2000    -0.3810    -1.9890 H     1 <1>   0.0800 
 31 H        0.5990     1.1700    -1.4560 H     1 <1>   0.0800 
 32 H        1.3480    -0.8360     1.9180 H     1 <1>   0.0800 
 33 H        2.0260     1.1620     0.4840 H     1 <1>   0.0800 
 34 H        3.4800    -0.5220     1.0220 H     1 <1>   0.4500 
 35 H        2.9640    -2.5980     2.3980 H     1 <1>   0.1000 
 36 H        3.4410     2.1620    -0.8870 H     1 <1>   0.0800 
 37 H        3.1500     1.0610    -2.1930 H     1 <1>   0.0800 
 38 H        3.8470    -2.5810    -0.1410 H     1 <1>   0.0800 
 39 H        2.7970    -2.0120    -1.4030 H     1 <1>   0.0800 
 40 H        1.6840    -4.2730     0.0730 H     1 <1>   0.1000 
 41 H        2.9690    -4.8060     1.1910 H     1 <1>   0.1000 
 42 H        1.4390    -4.3770     3.1310 H     1 <1>   0.1000 
 43 H        0.1660    -3.8500     2.0010 H     1 <1>   0.1000 
 44 H        4.6150    -1.0720    -2.3500 H     1 <1>   0.0800 
 45 H        5.5870    -1.4320    -0.9580 H     1 <1>   0.0800 
 46 H        6.7510     0.6570    -1.4500 H     1 <1>   0.0800 
 47 H        5.6380     1.1960    -2.6820 H     1 <1>   0.0800 
 48 H        6.2370     2.0060     0.9370 H     1 <1>   0.1500 
 49 H        5.7340     3.5760    -2.9640 H     1 <1>   0.1500 
 50 H        7.4150     5.8790     2.1180 H     1 <1>   0.1500 
 51 H        5.1360     7.3430    -1.1660 H     1 <1>   0.1500 
 52 H        5.3130     9.6080    -0.2770 H     1 <1>   0.1500 
 53 H        6.5340    10.0280     1.8090 H     1 <1>   0.1500 
 54 H        7.2770     8.9430     3.9980 H     1 <1>   0.0800 
 55 H        8.7840     8.6240     3.1690 H     1 <1>   0.0800 
 56 H        7.9210     7.3230     3.9550 H     1 <1>   0.0800 
@<TRIPOS>BOND
  1   1   2  1   
  2   1   3  1   
  3   2   4  1   
  4   2  28  1   
  5   2  29  1   
  6   3   5  1   
  7   3  30  1   
  8   3  31  1   
  9   4   6  1   
 10   4   7  1   
 11   4  32  1   
 12   5   6  1   
 13   5   8  1   
 14   5  33  1   
 15   6   9  1   
 16   6  34  1   
 17   7  10  1   
 18   7  11  1   
 19   7  35  1   
 20   8  12  1   
 21   8  36  1   
 22   8  37  1   
 23   9  13  1   
 24   9  38  1   
 25   9  39  1   
 26  10  11  1   
 27  10  40  1   
 28  10  41  1   
 29  11  42  1   
 30  11  43  1   
 31  12  13  1   
 32  12  14  1   
 33  13  44  1   
 34  13  45  1   
 35  14  15  1   
 36  14  46  1   
 37  14  47  1   
 38  15  16  ar  
 39  15  17  ar  
 40  16  18  ar  
 41  16  48  1   
 42  17  19  ar  
 43  17  49  1   
 44  18  20  ar  
 45  19  20  ar  
 46  20  21  1   
 47  21  22  ar  
 48  21  23  ar  
 49  22  24  ar  
 50  22  50  1   
 51  23  25  ar  
 52  23  51  1   
 53  24  26  ar  
 54  24  27  1   
 55  25  26  ar  
 56  25  52  1   
 57  26  53  1   
 58  27  54  1   
 59  27  55  1   
 60  27  56  1   
@<TRIPOS>SUBSTRUCTURE
  1 ****  16 GROUP 4 **** **** 0

# MOE 2024.06 (io_trps.svl 2023.06)
