@<TRIPOS>MOLECULE
NONAME
41 42 1 0 0 
SMALL
USER_CHARGES


@<TRIPOS>ATOM
  1 F       -0.9750     0.9650     0.8550 F     1 <1>  -0.1900 
  2 C       -2.0550     0.2780     0.6070 C.ar  1 <1>   0.1900 
  3 C       -2.5530     0.2590    -0.6810 C.ar  1 <1>  -0.1500 
  4 C       -2.6620    -0.4070     1.6410 C.ar  1 <1>  -0.1500 
  5 C       -3.6960    -0.4780    -0.9410 C.ar  1 <1>  -0.1500 
  6 C       -3.8040    -1.1420     1.3720 C.ar  1 <1>  -0.1500 
  7 C       -4.3210    -1.1860     0.0810 C.ar  1 <1>  -0.1430 
  8 C       -5.5630    -2.0090    -0.2160 C.3   1 <1>   0.4870 
  9 N       -5.2230    -3.4590    -0.1670 N.4   1 <1>  -0.9590 
 10 C       -4.1230    -3.8430    -1.1090 C.3   1 <1>   0.3430 
 11 C       -6.4430    -4.3150    -0.3100 C.3   1 <1>   0.3430 
 12 C       -2.8310    -4.1030    -0.3090 C.3   1 <1>   0.1200 
 13 C       -6.2100    -5.7620     0.1460 C.3   1 <1>   0.0960 
 14 O       -3.1470    -4.6620     0.9350 O.3   1 <1>  -0.6800 
 15 N       -7.4480    -6.5320    -0.0530 N.pl3 1 <1>   0.3140 
 16 N       -8.4370    -6.0760    -0.8450 N.2   1 <1>  -0.7070 
 17 C       -7.7580    -7.7350     0.4790 C.2   1 <1>  -0.3320 
 18 C       -9.3520    -6.9960    -0.7980 C.2   1 <1>   0.1390 
 19 C       -8.9840    -8.0590     0.0150 C.2   1 <1>  -0.1500 
 20 C       -6.8710    -8.5420     1.4140 C.3   1 <1>  -0.0600 
 21 H       -2.0520     0.8150    -1.4550 H     1 <1>   0.1500 
 22 H       -2.2440    -0.3590     2.6320 H     1 <1>   0.1500 
 23 H       -4.0890    -0.4870    -1.9450 H     1 <1>   0.1500 
 24 H       -4.2810    -1.6740     2.1790 H     1 <1>   0.1500 
 25 H       -5.9490    -1.7520    -1.1890 H     1 <1>   0.0800 
 26 H       -6.3200    -1.7830     0.5170 H     1 <1>   0.0800 
 27 H       -4.7960    -3.6480     0.7590 H     1 <1>   0.4500 
 28 H       -3.9530    -3.0730    -1.8440 H     1 <1>   0.0800 
 29 H       -4.3860    -4.7460    -1.6350 H     1 <1>   0.0800 
 30 H       -6.7660    -4.3190    -1.3390 H     1 <1>   0.0800 
 31 H       -7.2440    -3.9070     0.2850 H     1 <1>   0.0800 
 32 H       -2.3030    -3.1790    -0.1390 H     1 <1>   0.0800 
 33 H       -2.1840    -4.7790    -0.8430 H     1 <1>   0.0800 
 34 H       -5.9550    -5.7880     1.1880 H     1 <1>   0.0800 
 35 H       -5.4360    -6.2290    -0.4310 H     1 <1>   0.0800 
 36 H       -2.3260    -4.8710     1.4360 H     1 <1>   0.4000 
 37 H      -10.2870    -6.9370    -1.3320 H     1 <1>   0.1500 
 38 H       -9.5740    -8.9380     0.2100 H     1 <1>   0.1500 
 39 H       -5.9340    -8.7700     0.9390 H     1 <1>   0.0800 
 40 H       -7.3550    -9.4680     1.6710 H     1 <1>   0.0800 
 41 H       -6.6850    -7.9950     2.3210 H     1 <1>   0.0800 
@<TRIPOS>BOND
  1   1   2  1   
  2   2   3  ar  
  3   2   4  ar  
  4   3   5  ar  
  5   3  21  1   
  6   4   6  ar  
  7   4  22  1   
  8   5   7  ar  
  9   5  23  1   
 10   6   7  ar  
 11   6  24  1   
 12   7   8  1   
 13   8   9  1   
 14   8  25  1   
 15   8  26  1   
 16   9  10  1   
 17   9  11  1   
 18   9  27  1   
 19  10  12  1   
 20  10  28  1   
 21  10  29  1   
 22  11  13  1   
 23  11  30  1   
 24  11  31  1   
 25  12  14  1   
 26  12  32  1   
 27  12  33  1   
 28  13  15  1   
 29  13  34  1   
 30  13  35  1   
 31  14  36  1   
 32  15  16  1   
 33  15  17  1   
 34  16  18  2   
 35  17  19  2   
 36  17  20  1   
 37  18  19  1   
 38  18  37  1   
 39  19  38  1   
 40  20  39  1   
 41  20  40  1   
 42  20  41  1   
@<TRIPOS>SUBSTRUCTURE
  1 ****   9 GROUP 4 **** **** 0

# MOE 2024.06 (io_trps.svl 2023.06)
