@<TRIPOS>MOLECULE
NONAME
45 46 1 0 0 
SMALL
USER_CHARGES


@<TRIPOS>ATOM
  1 O       -0.7890     0.5270    -1.9250 O.2   1 <1>  -0.5700 
  2 C       -1.5310     0.9230    -1.0490 C.2   1 <1>   0.5440 
  3 N       -2.3650     0.0170    -0.4260 N.am  1 <1>  -0.6600 
  4 C       -1.5420     2.3330    -0.7120 C.ar  1 <1>   0.0860 
  5 C       -2.1080    -1.4500    -0.6070 C.3   1 <1>   0.3200 
  6 C       -3.4470     0.4540     0.5270 C.3   1 <1>   0.1400 
  7 C       -2.0090     3.2810    -1.6200 C.ar  1 <1>  -0.1500 
  8 C       -1.0950     2.7900     0.5270 C.ar  1 <1>  -0.1500 
  9 C       -3.3170    -2.3290    -0.3340 C.2   1 <1>  -0.3320 
 10 C       -4.5960     1.1830    -0.1990 C.3   1 <1>   0.1200 
 11 C       -2.0540     4.6240    -1.2970 C.ar  1 <1>  -0.1500 
 12 C       -1.1380     4.1330     0.8540 C.ar  1 <1>  -0.1500 
 13 N       -4.5290    -2.1570    -0.8930 N.pl3 1 <1>   0.0330 
 14 C       -3.4270    -3.4090     0.4700 C.2   1 <1>   0.0770 
 15 O       -4.7920     0.6470    -1.4680 O.3   1 <1>  -0.6800 
 16 C       -1.6230     5.0600    -0.0540 C.ar  1 <1>  -0.1430 
 17 C       -5.3020    -3.1390    -0.3850 C.2   1 <1>   0.0060 
 18 N       -4.6750    -3.9150     0.4360 N.2   1 <1>  -0.5650 
 19 C       -1.6710     6.5370     0.3030 C.3   1 <1>  -0.0170 
 20 C       -6.7630    -3.2940    -0.7450 C.3   1 <1>  -0.0600 
 21 C       -0.3650     7.2320    -0.0990 C.3   1 <1>  -0.1600 
 22 C       -0.3890     8.7240     0.2510 C.3   1 <1>  -0.2400 
 23 H       -1.3040    -1.7390     0.0480 H     1 <1>   0.0800 
 24 H       -1.7820    -1.6360    -1.6170 H     1 <1>   0.0800 
 25 H       -3.0350     1.1080     1.2740 H     1 <1>   0.0800 
 26 H       -3.8500    -0.3870     1.0640 H     1 <1>   0.0800 
 27 H       -2.3380     2.9540    -2.5910 H     1 <1>   0.1500 
 28 H       -0.7080     2.0810     1.2360 H     1 <1>   0.1500 
 29 H       -4.3580     2.2270    -0.3150 H     1 <1>   0.0800 
 30 H       -5.5150     1.1000     0.3560 H     1 <1>   0.0800 
 31 H       -2.4220     5.3340    -2.0180 H     1 <1>   0.1500 
 32 H       -0.7870     4.4590     1.8180 H     1 <1>   0.1500 
 33 H       -4.8250    -1.3860    -1.5080 H     1 <1>   0.2700 
 34 H       -2.6650    -3.8610     1.0830 H     1 <1>   0.1500 
 35 H       -3.9110     0.5660    -1.8950 H     1 <1>   0.4000 
 36 H       -1.8310     6.6480     1.3610 H     1 <1>   0.0800 
 37 H       -2.5000     7.0030    -0.2020 H     1 <1>   0.0800 
 38 H       -7.3010    -2.4000    -0.4900 H     1 <1>   0.0800 
 39 H       -7.1850    -4.1200    -0.2030 H     1 <1>   0.0800 
 40 H       -6.8640    -3.4830    -1.7980 H     1 <1>   0.0800 
 41 H       -0.2120     7.1160    -1.1580 H     1 <1>   0.0800 
 42 H        0.4590     6.7600     0.4070 H     1 <1>   0.0800 
 43 H       -1.1930     9.2200    -0.2640 H     1 <1>   0.0800 
 44 H        0.5380     9.1840    -0.0410 H     1 <1>   0.0800 
 45 H       -0.5180     8.8610     1.3110 H     1 <1>   0.0800 
@<TRIPOS>BOND
  1   1   2  2   
  2   2   3  am  
  3   2   4  1   
  4   3   5  1   
  5   3   6  1   
  6   4   7  ar  
  7   4   8  ar  
  8   5   9  1   
  9   5  23  1   
 10   5  24  1   
 11   6  10  1   
 12   6  25  1   
 13   6  26  1   
 14   7  11  ar  
 15   7  27  1   
 16   8  12  ar  
 17   8  28  1   
 18   9  13  1   
 19   9  14  2   
 20  10  15  1   
 21  10  29  1   
 22  10  30  1   
 23  11  16  ar  
 24  11  31  1   
 25  12  16  ar  
 26  12  32  1   
 27  13  17  1   
 28  13  33  1   
 29  14  18  1   
 30  14  34  1   
 31  15  35  1   
 32  16  19  1   
 33  17  18  2   
 34  17  20  1   
 35  19  21  1   
 36  19  36  1   
 37  19  37  1   
 38  20  38  1   
 39  20  39  1   
 40  20  40  1   
 41  21  22  1   
 42  21  41  1   
 43  21  42  1   
 44  22  43  1   
 45  22  44  1   
 46  22  45  1   
@<TRIPOS>SUBSTRUCTURE
  1 ****   3 GROUP 4 **** **** 0

# MOE 2024.06 (io_trps.svl 2023.06)
