@<TRIPOS>MOLECULE
NONAME
53 56 1 0 0 
SMALL
USER_CHARGES


@<TRIPOS>ATOM
  1 S        0.4280    -0.1080    -0.4830 S.3   1 <1>  -0.3320 
  2 C       -1.2610    -0.6450    -0.1480 C.ar  1 <1>   0.1020 
  3 C        0.5970     1.5840     0.2340 C.3   1 <1>   0.0700 
  4 C       -1.6160    -1.9060    -0.5930 C.ar  1 <1>  -0.1500 
  5 C       -2.1700     0.1600     0.5260 C.ar  1 <1>  -0.1500 
  6 C        2.0280     2.0550    -0.0320 C.3   1 <1>  -0.0990 
  7 C       -2.8970    -2.3720    -0.3620 C.ar  1 <1>   0.0830 
  8 C       -3.4560    -0.3070     0.7510 C.ar  1 <1>  -0.1500 
  9 C        2.2940     3.4510     0.5030 C.2   1 <1>   0.5690 
 10 O       -3.2290    -3.6170    -0.7890 O.3   1 <1>  -0.3630 
 11 C       -3.8240    -1.5650     0.3050 C.ar  1 <1>   0.0830 
 12 O        1.3530     4.1680     0.7490 O.2   1 <1>  -0.5700 
 13 N        3.5770     3.9110     0.6610 N.am  1 <1>  -0.6600 
 14 C       -4.4180    -4.1780    -0.2640 C.3   1 <1>   0.1200 
 15 O       -5.0950    -1.9910     0.5250 O.3   1 <1>  -0.3630 
 16 C        3.8470     5.1200     1.5100 C.3   1 <1>   0.1400 
 17 C        4.7770     3.3370    -0.0170 C.3   1 <1>   0.1400 
 18 C       -5.5270    -3.1190    -0.2130 C.3   1 <1>   0.1200 
 19 C        4.3710     6.3710     0.7490 C.3   1 <1>   0.4230 
 20 C        5.3230     4.3040    -1.0930 C.3   1 <1>  -0.0800 
 21 N        3.9640     6.4790    -0.7090 N.4   1 <1>  -0.9590 
 22 C        5.8960     6.5470     0.9210 C.3   1 <1>   0.1200 
 23 C        6.6480     4.9740    -0.6970 C.3   1 <1>   0.1200 
 24 C        4.2600     5.2970    -1.5960 C.3   1 <1>   0.3430 
 25 C        2.5050     6.8050    -0.8040 C.3   1 <1>   0.2630 
 26 O        6.6160     5.3900     0.6290 O.3   1 <1>  -0.5600 
 27 H       -0.1270     2.2150    -0.2510 H     1 <1>   0.0800 
 28 H        0.3930     1.5150     1.2890 H     1 <1>   0.0800 
 29 H       -0.9040    -2.5200    -1.1110 H     1 <1>   0.1500 
 30 H       -1.9030     1.1370     0.8780 H     1 <1>   0.1500 
 31 H        2.7030     1.3650     0.4410 H     1 <1>   0.0800 
 32 H        2.2060     2.0490    -1.0910 H     1 <1>   0.0800 
 33 H       -4.1760     0.3000     1.2690 H     1 <1>   0.1500 
 34 H       -4.7020    -5.0010    -0.8950 H     1 <1>   0.0800 
 35 H       -4.2060    -4.5460     0.7240 H     1 <1>   0.0800 
 36 H        2.9480     5.4030     2.0280 H     1 <1>   0.0800 
 37 H        4.5530     4.8500     2.2770 H     1 <1>   0.0800 
 38 H        5.5340     3.1170     0.7180 H     1 <1>   0.0800 
 39 H        4.5250     2.4050    -0.4900 H     1 <1>   0.0800 
 40 H       -6.4080    -3.5090     0.2640 H     1 <1>   0.0800 
 41 H       -5.7780    -2.7920    -1.2070 H     1 <1>   0.0800 
 42 H        3.9440     7.2200     1.2560 H     1 <1>   0.0800 
 43 H        5.5630     3.6890    -1.9420 H     1 <1>   0.0800 
 44 H        4.4850     7.2760    -1.0940 H     1 <1>   0.4500 
 45 H        6.1040     6.7760     1.9520 H     1 <1>   0.0800 
 46 H        6.2730     7.3570     0.3220 H     1 <1>   0.0800 
 47 H        6.8950     5.8090    -1.3320 H     1 <1>   0.0800 
 48 H        7.4460     4.2540    -0.7680 H     1 <1>   0.0800 
 49 H        3.3490     4.7400    -1.7460 H     1 <1>   0.0800 
 50 H        4.5640     5.6630    -2.5630 H     1 <1>   0.0800 
 51 H        1.9130     5.9930    -0.4150 H     1 <1>   0.0800 
 52 H        2.2220     6.9720    -1.8300 H     1 <1>   0.0800 
 53 H        2.2780     7.6930    -0.2370 H     1 <1>   0.0800 
@<TRIPOS>BOND
  1   1   2  1   
  2   1   3  1   
  3   2   4  ar  
  4   2   5  ar  
  5   3   6  1   
  6   3  27  1   
  7   3  28  1   
  8   4   7  ar  
  9   4  29  1   
 10   5   8  ar  
 11   5  30  1   
 12   6   9  1   
 13   6  31  1   
 14   6  32  1   
 15   7  10  1   
 16   7  11  ar  
 17   8  11  ar  
 18   8  33  1   
 19   9  12  2   
 20   9  13  am  
 21  10  14  1   
 22  11  15  1   
 23  13  16  1   
 24  13  17  1   
 25  14  18  1   
 26  14  34  1   
 27  14  35  1   
 28  15  18  1   
 29  16  19  1   
 30  16  36  1   
 31  16  37  1   
 32  17  20  1   
 33  17  38  1   
 34  17  39  1   
 35  18  40  1   
 36  18  41  1   
 37  19  21  1   
 38  19  22  1   
 39  19  42  1   
 40  20  23  1   
 41  20  24  1   
 42  20  43  1   
 43  21  24  1   
 44  21  25  1   
 45  21  44  1   
 46  22  26  1   
 47  22  45  1   
 48  22  46  1   
 49  23  26  1   
 50  23  47  1   
 51  23  48  1   
 52  24  49  1   
 53  24  50  1   
 54  25  51  1   
 55  25  52  1   
 56  25  53  1   
@<TRIPOS>SUBSTRUCTURE
  1 ****   3 GROUP 4 **** **** 0

# MOE 2024.06 (io_trps.svl 2023.06)
