@<TRIPOS>MOLECULE
NONAME
42 44 1 0 0 
SMALL
USER_CHARGES


@<TRIPOS>ATOM
  1 F        2.0390     0.7600    -0.6800 F     1 <1>  -0.1900 
  2 C        2.1470     2.0610    -0.7760 C.ar  1 <1>   0.1900 
  3 C        1.8760     2.8360     0.3230 C.ar  1 <1>  -0.1500 
  4 C        2.5390     2.5940    -2.0090 C.ar  1 <1>  -0.1500 
  5 C        2.0000     4.2240     0.1900 C.ar  1 <1>   0.0000 
  6 C        2.6610     3.9580    -2.1410 C.ar  1 <1>  -0.1500 
  7 C        2.3870     4.7690    -1.0320 C.ar  1 <1>  -0.1520 
  8 C        1.8200     5.3080     1.0660 C.2   1 <1>  -0.1500 
  9 N        2.4350     6.1300    -0.8930 N.pl3 1 <1>   0.0330 
 10 C        2.0800     6.4670     0.3930 C.2   1 <1>  -0.2370 
 11 C        2.0420     7.8210     0.8730 C.2   1 <1>   0.7150 
 12 O        2.2530     8.0690     2.0410 O.2   1 <1>  -0.5700 
 13 N        1.7510     8.8250    -0.0120 N.am  1 <1>  -0.4940 
 14 C        1.9320    10.2260     0.0820 C.2   1 <1>  -0.0880 
 15 N        2.9840    10.8970     0.6430 N.pl3 1 <1>   0.3140 
 16 C        1.1000    11.1710    -0.4160 C.2   1 <1>  -0.1810 
 17 N        2.8380    12.2350     0.4980 N.2   1 <1>  -0.7070 
 18 C        4.2150    10.3660     1.2730 C.3   1 <1>   0.0960 
 19 C        1.7130    12.3840    -0.1250 C.2   1 <1>   0.1390 
 20 C       -0.2260    11.0140    -1.1370 C.3   1 <1>  -0.0590 
 21 C        5.1010     9.6280     0.2570 C.3   1 <1>  -0.1600 
 22 C        6.3460     9.0430     0.9330 C.3   1 <1>  -0.1600 
 23 C        7.2190     8.2930    -0.0760 C.3   1 <1>  -0.2400 
 24 H        1.5790     2.4020     1.2590 H     1 <1>   0.1500 
 25 H        2.7370     1.9270    -2.8290 H     1 <1>   0.1500 
 26 H        2.9620     4.3990    -3.0750 H     1 <1>   0.1500 
 27 H        1.5290     5.2120     2.0990 H     1 <1>   0.1500 
 28 H        2.7640     6.7770    -1.6180 H     1 <1>   0.2700 
 29 H        1.1480     8.5270    -0.7750 H     1 <1>   0.3700 
 30 H        3.9440     9.7250     2.0870 H     1 <1>   0.0800 
 31 H        4.7590    11.1970     1.6830 H     1 <1>   0.0800 
 32 H        1.3100    13.3480    -0.3850 H     1 <1>   0.1500 
 33 H       -0.5760    10.0000    -1.0760 H     1 <1>   0.0800 
 34 H       -0.1160    11.2860    -2.1710 H     1 <1>   0.0800 
 35 H       -0.9630    11.6540    -0.6860 H     1 <1>   0.0800 
 36 H        5.4000    10.3190    -0.5130 H     1 <1>   0.0800 
 37 H        4.5440     8.8290    -0.1970 H     1 <1>   0.0800 
 38 H        6.0480     8.3640     1.7150 H     1 <1>   0.0800 
 39 H        6.9220     9.8350     1.3810 H     1 <1>   0.0800 
 40 H        6.6740     7.4750    -0.5130 H     1 <1>   0.0800 
 41 H        8.0900     7.8960     0.4160 H     1 <1>   0.0800 
 42 H        7.5430     8.9550    -0.8600 H     1 <1>   0.0800 
@<TRIPOS>BOND
  1   1   2  1   
  2   2   3  ar  
  3   2   4  ar  
  4   3   5  ar  
  5   3  24  1   
  6   4   6  ar  
  7   4  25  1   
  8   5   7  ar  
  9   5   8  1   
 10   6   7  ar  
 11   6  26  1   
 12   7   9  1   
 13   8  10  2   
 14   8  27  1   
 15   9  10  1   
 16   9  28  1   
 17  10  11  1   
 18  11  12  2   
 19  11  13  am  
 20  13  14  1   
 21  13  29  1   
 22  14  15  1   
 23  14  16  2   
 24  15  17  1   
 25  15  18  1   
 26  16  19  1   
 27  16  20  1   
 28  17  19  2   
 29  18  21  1   
 30  18  30  1   
 31  18  31  1   
 32  19  32  1   
 33  20  33  1   
 34  20  34  1   
 35  20  35  1   
 36  21  22  1   
 37  21  36  1   
 38  21  37  1   
 39  22  23  1   
 40  22  38  1   
 41  22  39  1   
 42  23  40  1   
 43  23  41  1   
 44  23  42  1   
@<TRIPOS>SUBSTRUCTURE
  1 ****  10 GROUP 4 **** **** 0

# MOE 2024.06 (io_trps.svl 2023.06)
