@<TRIPOS>MOLECULE
NONAME
50 53 1 0 0 
SMALL
USER_CHARGES


@<TRIPOS>ATOM
  1 O       -1.1650    -0.2840     1.9160 O.2   1 <1>  -0.5700 
  2 C       -1.9790     0.4600     1.4060 C.2   1 <1>   0.5440 
  3 N       -3.2790     0.0320     1.2660 N.am  1 <1>  -0.6600 
  4 C       -1.5790     1.7660     0.9320 C.ar  1 <1>   0.0860 
  5 C       -4.2520     0.6510     0.3240 C.3   1 <1>   0.1400 
  6 C       -3.7100    -1.3500     1.6030 C.3   1 <1>   0.1400 
  7 C       -0.7020     1.9310    -0.1460 C.ar  1 <1>   0.1660 
  8 C       -2.0760     2.9150     1.5310 C.ar  1 <1>  -0.1500 
  9 C       -5.3670    -0.3860     0.1590 C.3   1 <1>   0.2000 
 10 C       -4.7080    -1.7240     0.5010 C.3   1 <1>  -0.0800 
 11 N       -0.3290     3.0990    -0.6420 N.ar  1 <1>  -0.6200 
 12 C       -0.1050     0.7190    -0.8420 C.3   1 <1>  -0.0970 
 13 C       -1.6850     4.1340     1.0250 C.ar  1 <1>  -0.1500 
 14 O       -6.3500    -0.1350     1.1030 O.3   1 <1>  -0.6800 
 15 C       -3.9930    -2.3130    -0.7340 C.3   1 <1>  -0.0170 
 16 C       -0.8190     4.1760    -0.0540 C.ar  1 <1>   0.1670 
 17 C       -3.3140    -3.6420    -0.4230 C.ar  1 <1>  -0.1440 
 18 C       -0.3740     5.5030    -0.6290 C.3   1 <1>  -0.0970 
 19 C       -4.0260    -4.8620    -0.3430 C.ar  1 <1>   0.0000 
 20 C       -1.9670    -3.6840    -0.2050 C.ar  1 <1>  -0.1500 
 21 C       -3.2900    -6.0350    -0.0420 C.ar  1 <1>   0.3100 
 22 C       -5.4210    -4.9890    -0.5430 C.ar  1 <1>  -0.1500 
 23 C       -1.3360    -4.8980     0.0870 C.ar  1 <1>   0.1600 
 24 N       -1.9500    -6.0360     0.1690 N.ar  1 <1>  -0.6200 
 25 C       -3.9700    -7.2600     0.0460 C.ar  1 <1>  -0.1500 
 26 C       -6.0530    -6.2000    -0.4500 C.ar  1 <1>  -0.1500 
 27 C       -5.3210    -7.3510    -0.1520 C.ar  1 <1>  -0.1500 
 28 H       -4.6310     1.5840     0.7050 H     1 <1>   0.0800 
 29 H       -3.7680     0.8200    -0.6220 H     1 <1>   0.0800 
 30 H       -2.8770    -2.0280     1.6580 H     1 <1>   0.0800 
 31 H       -4.2000    -1.3360     2.5610 H     1 <1>   0.0800 
 32 H       -2.7460     2.8460     2.3700 H     1 <1>   0.1500 
 33 H       -5.8260    -0.3620    -0.8150 H     1 <1>   0.0800 
 34 H       -5.4300    -2.4350     0.8630 H     1 <1>   0.0800 
 35 H       -0.8690     0.0020    -1.0760 H     1 <1>   0.0800 
 36 H        0.6260     0.2610    -0.2010 H     1 <1>   0.0800 
 37 H        0.3790     1.0120    -1.7580 H     1 <1>   0.0800 
 38 H       -2.0490     5.0440     1.4670 H     1 <1>   0.1500 
 39 H       -5.9380    -0.0550     1.9870 H     1 <1>   0.4000 
 40 H       -3.2520    -1.6170    -1.0880 H     1 <1>   0.0800 
 41 H       -4.6940    -2.4490    -1.5380 H     1 <1>   0.0800 
 42 H       -0.8150     6.3260    -0.0980 H     1 <1>   0.0800 
 43 H       -0.6610     5.5600    -1.6630 H     1 <1>   0.0800 
 44 H        0.6960     5.5800    -0.5640 H     1 <1>   0.0800 
 45 H       -1.3610    -2.7960    -0.2410 H     1 <1>   0.1500 
 46 H       -6.0040    -4.1190    -0.7740 H     1 <1>   0.1500 
 47 H       -0.2720    -4.8830     0.2560 H     1 <1>   0.1500 
 48 H       -3.3860    -8.1320     0.2760 H     1 <1>   0.1500 
 49 H       -7.1150    -6.2820    -0.6050 H     1 <1>   0.1500 
 50 H       -5.8280    -8.2980    -0.0810 H     1 <1>   0.1500 
@<TRIPOS>BOND
  1   1   2  2   
  2   2   3  am  
  3   2   4  1   
  4   3   5  1   
  5   3   6  1   
  6   4   7  ar  
  7   4   8  ar  
  8   5   9  1   
  9   5  28  1   
 10   5  29  1   
 11   6  10  1   
 12   6  30  1   
 13   6  31  1   
 14   7  11  ar  
 15   7  12  1   
 16   8  13  ar  
 17   8  32  1   
 18   9  10  1   
 19   9  14  1   
 20   9  33  1   
 21  10  15  1   
 22  10  34  1   
 23  11  16  ar  
 24  12  35  1   
 25  12  36  1   
 26  12  37  1   
 27  13  16  ar  
 28  13  38  1   
 29  14  39  1   
 30  15  17  1   
 31  15  40  1   
 32  15  41  1   
 33  16  18  1   
 34  17  19  ar  
 35  17  20  ar  
 36  18  42  1   
 37  18  43  1   
 38  18  44  1   
 39  19  21  ar  
 40  19  22  ar  
 41  20  23  ar  
 42  20  45  1   
 43  21  24  ar  
 44  21  25  ar  
 45  22  26  ar  
 46  22  46  1   
 47  23  24  ar  
 48  23  47  1   
 49  25  27  ar  
 50  25  48  1   
 51  26  27  ar  
 52  26  49  1   
 53  27  50  1   
@<TRIPOS>SUBSTRUCTURE
  1 ****   6 GROUP 4 **** **** 0

# MOE 2024.06 (io_trps.svl 2023.06)
