@<TRIPOS>MOLECULE
NONAME
44 46 1 0 0 
SMALL
USER_CHARGES


@<TRIPOS>ATOM
  1 O        1.5600     3.1360    -1.6420 O.3   1 <1>  -0.0190 
  2 N        2.8370     2.9610    -1.7840 N.2   1 <1>  -0.4100 
  3 C        1.0610     2.3490    -0.7290 C.2   1 <1>  -0.0400 
  4 C        3.1610     2.0040    -0.9900 C.2   1 <1>   0.1080 
  5 C        2.0510     1.5690    -0.2710 C.2   1 <1>  -0.1500 
  6 C       -0.4060     2.4520    -0.3510 C.3   1 <1>   0.0200 
  7 C        4.5580     1.4360    -0.8600 C.3   1 <1>  -0.0590 
  8 C       -0.8060     3.8340     0.2200 C.3   1 <1>  -0.0800 
  9 C       -0.9720     4.9090    -0.8620 C.3   1 <1>   0.2000 
 10 C        0.2520     4.4220     1.1600 C.3   1 <1>   0.3430 
 11 O       -2.0500     5.7170    -0.5210 O.3   1 <1>  -0.6800 
 12 C        0.3120     5.7500    -0.8520 C.3   1 <1>   0.3430 
 13 N        1.1290     5.2680     0.3080 N.4   1 <1>  -0.9590 
 14 C        1.8650     6.3440     1.0210 C.3   1 <1>   0.5240 
 15 C        2.6660     7.1220     0.0040 C.2   1 <1>  -0.1810 
 16 C        2.3620     8.3940    -0.4800 C.2   1 <1>   0.1080 
 17 C        3.8000     6.7650    -0.6450 C.2   1 <1>  -0.3320 
 18 N        3.2160     8.7900    -1.3620 N.2   1 <1>  -0.7070 
 19 C        1.2030     9.2860    -0.0840 C.3   1 <1>  -0.0590 
 20 N        4.1090     7.7920    -1.4650 N.pl3 1 <1>   0.3000 
 21 C        4.6500     5.5080    -0.5610 C.3   1 <1>  -0.0600 
 22 H        2.0390     0.7890     0.4700 H     1 <1>   0.1500 
 23 H       -1.0130     2.2160    -1.2100 H     1 <1>   0.0800 
 24 H       -0.6090     1.6990     0.3910 H     1 <1>   0.0800 
 25 H        4.9180     1.5630     0.1440 H     1 <1>   0.0800 
 26 H        5.2250     1.9370    -1.5380 H     1 <1>   0.0800 
 27 H        4.5480     0.3880    -1.1010 H     1 <1>   0.0800 
 28 H       -1.7330     3.6950     0.7500 H     1 <1>   0.0800 
 29 H       -1.1690     4.5030    -1.8410 H     1 <1>   0.0800 
 30 H        0.8130     3.6490     1.6600 H     1 <1>   0.0800 
 31 H       -0.2370     5.0380     1.8980 H     1 <1>   0.0800 
 32 H       -2.0330     6.0210     0.4060 H     1 <1>   0.4000 
 33 H        0.0670     6.7940    -0.7580 H     1 <1>   0.0800 
 34 H        0.8640     5.6020    -1.7670 H     1 <1>   0.0800 
 35 H        1.8500     4.6640    -0.1250 H     1 <1>   0.4500 
 36 H        1.1780     7.0000     1.5280 H     1 <1>   0.0800 
 37 H        2.5340     5.9150     1.7490 H     1 <1>   0.0800 
 38 H        0.4600     8.7550     0.4770 H     1 <1>   0.0800 
 39 H        0.7470     9.6890    -0.9700 H     1 <1>   0.0800 
 40 H        1.5730    10.1040     0.5070 H     1 <1>   0.0800 
 41 H        4.9160     7.8460    -2.1000 H     1 <1>   0.2700 
 42 H        4.2340     4.8030     0.1350 H     1 <1>   0.0800 
 43 H        5.6460     5.7580    -0.2370 H     1 <1>   0.0800 
 44 H        4.7140     5.0390    -1.5280 H     1 <1>   0.0800 
@<TRIPOS>BOND
  1   1   2  1   
  2   1   3  1   
  3   2   4  2   
  4   3   5  2   
  5   3   6  1   
  6   4   5  1   
  7   4   7  1   
  8   5  22  1   
  9   6   8  1   
 10   6  23  1   
 11   6  24  1   
 12   7  25  1   
 13   7  26  1   
 14   7  27  1   
 15   8   9  1   
 16   8  10  1   
 17   8  28  1   
 18   9  11  1   
 19   9  12  1   
 20   9  29  1   
 21  10  13  1   
 22  10  30  1   
 23  10  31  1   
 24  11  32  1   
 25  12  13  1   
 26  12  33  1   
 27  12  34  1   
 28  13  14  1   
 29  13  35  1   
 30  14  15  1   
 31  14  36  1   
 32  14  37  1   
 33  15  16  1   
 34  15  17  2   
 35  16  18  2   
 36  16  19  1   
 37  17  20  1   
 38  17  21  1   
 39  18  20  1   
 40  19  38  1   
 41  19  39  1   
 42  19  40  1   
 43  20  41  1   
 44  21  42  1   
 45  21  43  1   
 46  21  44  1   
@<TRIPOS>SUBSTRUCTURE
  1 ****  13 GROUP 4 **** **** 0

# MOE 2024.06 (io_trps.svl 2023.06)
