@<TRIPOS>MOLECULE
NONAME
41 43 1 0 0 
SMALL
USER_CHARGES


@<TRIPOS>ATOM
  1 O       -2.5950     0.0580    -2.5690 O.2   1 <1>  -0.5700 
  2 C       -2.5340    -0.4990    -1.5030 C.2   1 <1>   0.5690 
  3 N       -2.2600     0.1690    -0.3430 N.am  1 <1>  -0.6600 
  4 C       -2.8140    -1.9800    -1.4800 C.3   1 <1>  -0.0190 
  5 C       -2.2380    -0.4970     0.9900 C.3   1 <1>   0.2200 
  6 C       -1.9110     1.6240    -0.3510 C.3   1 <1>   0.0600 
  7 C       -1.6120    -2.7930    -0.9540 C.3   1 <1>   0.1200 
  8 C       -4.1670    -2.2150    -0.7990 C.3   1 <1>   0.3430 
  9 C       -1.1340    -1.5810     1.0480 C.3   1 <1>   0.1200 
 10 C       -3.6530    -1.0060     1.3800 C.3   1 <1>   0.3430 
 11 O       -1.5160    -2.7900     0.4450 O.3   1 <1>  -0.5600 
 12 N       -4.0910    -2.2740     0.6990 N.4   1 <1>  -0.9590 
 13 C       -5.3320    -2.8460     1.2870 C.3   1 <1>   0.4860 
 14 C       -5.4600    -4.2890     0.8570 C.ar  1 <1>  -0.1440 
 15 C       -6.3370    -4.6200    -0.1730 C.ar  1 <1>   0.4100 
 16 C       -4.7110    -5.2860     1.4470 C.ar  1 <1>  -0.1500 
 17 N       -6.4930    -5.8290    -0.6600 N.ar  1 <1>  -0.6200 
 18 N       -7.1040    -3.6920    -0.7950 N.pl3 1 <1>  -0.9000 
 19 C       -4.8820    -6.5650     0.9530 C.ar  1 <1>  -0.1500 
 20 C       -5.7700    -6.7770    -0.0860 C.ar  1 <1>   0.1600 
 21 H       -2.9410    -2.2660    -2.5080 H     1 <1>   0.0800 
 22 H       -1.9690     0.2550     1.7120 H     1 <1>   0.0800 
 23 H       -2.6230     2.1790     0.2340 H     1 <1>   0.0800 
 24 H       -1.9180     2.0180    -1.3540 H     1 <1>   0.0800 
 25 H       -0.9260     1.7680     0.0570 H     1 <1>   0.0800 
 26 H       -0.6880    -2.4240    -1.3680 H     1 <1>   0.0800 
 27 H       -1.7210    -3.8220    -1.2530 H     1 <1>   0.0800 
 28 H       -4.5490    -3.1540    -1.1650 H     1 <1>   0.0800 
 29 H       -4.8610    -1.4480    -1.1040 H     1 <1>   0.0800 
 30 H       -0.9180    -1.8090     2.0780 H     1 <1>   0.0800 
 31 H       -0.2240    -1.2290     0.5910 H     1 <1>   0.0800 
 32 H       -4.3650    -0.2210     1.1820 H     1 <1>   0.0800 
 33 H       -3.6500    -1.1790     2.4430 H     1 <1>   0.0800 
 34 H       -3.3220    -2.9510     0.8720 H     1 <1>   0.4500 
 35 H       -5.2850    -2.8050     2.3630 H     1 <1>   0.0800 
 36 H       -6.1910    -2.2820     0.9620 H     1 <1>   0.0800 
 37 H       -4.0200    -5.1010     2.2520 H     1 <1>   0.1500 
 38 H       -7.3210    -4.0370    -1.7380 H     1 <1>   0.4000 
 39 H       -8.0180    -3.5880    -0.3450 H     1 <1>   0.4000 
 40 H       -4.3310    -7.3910     1.3680 H     1 <1>   0.1500 
 41 H       -5.8920    -7.7780    -0.4650 H     1 <1>   0.1500 
@<TRIPOS>BOND
  1   1   2  2   
  2   2   3  am  
  3   2   4  1   
  4   3   5  1   
  5   3   6  1   
  6   4   7  1   
  7   4   8  1   
  8   4  21  1   
  9   5   9  1   
 10   5  10  1   
 11   5  22  1   
 12   6  23  1   
 13   6  24  1   
 14   6  25  1   
 15   7  11  1   
 16   7  26  1   
 17   7  27  1   
 18   8  12  1   
 19   8  28  1   
 20   8  29  1   
 21   9  11  1   
 22   9  30  1   
 23   9  31  1   
 24  10  12  1   
 25  10  32  1   
 26  10  33  1   
 27  12  13  1   
 28  12  34  1   
 29  13  14  1   
 30  13  35  1   
 31  13  36  1   
 32  14  15  ar  
 33  14  16  ar  
 34  15  17  ar  
 35  15  18  1   
 36  16  19  ar  
 37  16  37  1   
 38  17  20  ar  
 39  18  38  1   
 40  18  39  1   
 41  19  20  ar  
 42  19  40  1   
 43  20  41  1   
@<TRIPOS>SUBSTRUCTURE
  1 ****  12 GROUP 4 **** **** 0

# MOE 2024.06 (io_trps.svl 2023.06)
