@<TRIPOS>MOLECULE
NONAME
50 53 1 0 0 
SMALL
USER_CHARGES


@<TRIPOS>ATOM
  1 S       -3.1600    -3.1920     3.4930 S.3   1 <1>  -0.0800 
  2 C       -4.1940    -1.8330     3.1180 C.2   1 <1>   0.2280 
  3 C       -2.8340    -3.3770     1.7940 C.2   1 <1>  -0.1100 
  4 N       -4.2810    -1.5640     1.8740 N.2   1 <1>  -0.5650 
  5 C       -3.5070    -2.4350     1.1140 C.2   1 <1>   0.0460 
  6 C       -3.4900    -2.2600    -0.4010 C.3   1 <1>   0.5240 
  7 N       -4.7800    -2.7290    -0.9770 N.4   1 <1>  -0.9590 
  8 C       -4.6880    -3.1850    -2.3940 C.3   1 <1>   0.3430 
  9 C       -5.9340    -1.8280    -0.7060 C.3   1 <1>   0.3430 
 10 C       -5.8590    -4.1270    -2.7610 C.3   1 <1>   0.1400 
 11 C       -7.1060    -2.6370    -0.1370 C.3   1 <1>  -0.1600 
 12 N       -6.6290    -4.6120    -1.5640 N.am  1 <1>  -0.6600 
 13 C       -7.6960    -3.6940    -1.0840 C.3   1 <1>   0.1400 
 14 C       -6.1020    -5.5710    -0.7280 C.2   1 <1>   0.5440 
 15 O       -4.8960    -5.5480    -0.5660 O.2   1 <1>  -0.5700 
 16 C       -6.9350    -6.5010     0.0050 C.ar  1 <1>   0.0860 
 17 C       -6.5450    -6.9620     1.2590 C.ar  1 <1>   0.1600 
 18 C       -8.1450    -6.9730    -0.4860 C.ar  1 <1>  -0.1500 
 19 N       -7.2360    -7.7820     2.0300 N.ar  1 <1>  -0.6200 
 20 C       -8.8850    -7.8360     0.2940 C.ar  1 <1>  -0.1430 
 21 C       -8.3900    -8.2080     1.5410 C.ar  1 <1>   0.1670 
 22 C      -10.2110    -8.3640    -0.2450 C.3   1 <1>  -0.0170 
 23 C       -9.1700    -9.1420     2.4570 C.3   1 <1>  -0.0170 
 24 C      -11.1080    -8.9310     0.8600 C.3   1 <1>  -0.1600 
 25 C      -10.3110    -9.8880     1.7500 C.3   1 <1>  -0.1600 
 26 H       -4.6690    -1.3390     3.9480 H     1 <1>   0.1500 
 27 H       -2.1750    -4.1760     1.5000 H     1 <1>   0.1500 
 28 H       -2.6830    -2.8510    -0.8000 H     1 <1>   0.0800 
 29 H       -3.3160    -1.2260    -0.6470 H     1 <1>   0.0800 
 30 H       -4.9840    -3.6130    -0.4700 H     1 <1>   0.4500 
 31 H       -3.7740    -3.7400    -2.5260 H     1 <1>   0.0800 
 32 H       -4.6640    -2.3440    -3.0670 H     1 <1>   0.0800 
 33 H       -6.2350    -1.3240    -1.6100 H     1 <1>   0.0800 
 34 H       -5.6530    -1.0760     0.0140 H     1 <1>   0.0800 
 35 H       -5.4630    -4.9770    -3.2900 H     1 <1>   0.0800 
 36 H       -6.5260    -3.6210    -3.4380 H     1 <1>   0.0800 
 37 H       -7.8910    -1.9470     0.1170 H     1 <1>   0.0800 
 38 H       -6.8020    -3.1020     0.7850 H     1 <1>   0.0800 
 39 H       -8.1710    -3.2170    -1.9250 H     1 <1>   0.0800 
 40 H       -8.4530    -4.2540    -0.5610 H     1 <1>   0.0800 
 41 H       -5.6000    -6.6250     1.6490 H     1 <1>   0.1500 
 42 H       -8.4910    -6.6720    -1.4590 H     1 <1>   0.1500 
 43 H      -10.0010    -9.1400    -0.9600 H     1 <1>   0.0800 
 44 H      -10.7390    -7.5780    -0.7570 H     1 <1>   0.0800 
 45 H       -9.5740    -8.5510     3.2590 H     1 <1>   0.0800 
 46 H       -8.4940    -9.8580     2.8890 H     1 <1>   0.0800 
 47 H      -11.9410    -9.4500     0.4180 H     1 <1>   0.0800 
 48 H      -11.4970    -8.1250     1.4580 H     1 <1>   0.0800 
 49 H      -10.9570   -10.3340     2.4860 H     1 <1>   0.0800 
 50 H       -9.8980   -10.6780     1.1470 H     1 <1>   0.0800 
@<TRIPOS>BOND
  1   1   2  1   
  2   1   3  1   
  3   2   4  2   
  4   2  26  1   
  5   3   5  2   
  6   3  27  1   
  7   4   5  1   
  8   5   6  1   
  9   6   7  1   
 10   6  28  1   
 11   6  29  1   
 12   7   8  1   
 13   7   9  1   
 14   7  30  1   
 15   8  10  1   
 16   8  31  1   
 17   8  32  1   
 18   9  11  1   
 19   9  33  1   
 20   9  34  1   
 21  10  12  1   
 22  10  35  1   
 23  10  36  1   
 24  11  13  1   
 25  11  37  1   
 26  11  38  1   
 27  12  13  1   
 28  12  14  am  
 29  13  39  1   
 30  13  40  1   
 31  14  15  2   
 32  14  16  1   
 33  16  17  ar  
 34  16  18  ar  
 35  17  19  ar  
 36  17  41  1   
 37  18  20  ar  
 38  18  42  1   
 39  19  21  ar  
 40  20  21  ar  
 41  20  22  1   
 42  21  23  1   
 43  22  24  1   
 44  22  43  1   
 45  22  44  1   
 46  23  25  1   
 47  23  45  1   
 48  23  46  1   
 49  24  25  1   
 50  24  47  1   
 51  24  48  1   
 52  25  49  1   
 53  25  50  1   
@<TRIPOS>SUBSTRUCTURE
  1 ****  14 GROUP 4 **** **** 0

# MOE 2024.06 (io_trps.svl 2023.06)
