@<TRIPOS>MOLECULE
NONAME
42 43 1 0 0 
SMALL
USER_CHARGES


@<TRIPOS>ATOM
  1 O        2.5720    -1.1780    -0.9530 O.2   1 <1>  -0.5700 
  2 C        2.0960    -0.9790     0.1390 C.2   1 <1>   0.5690 
  3 N        1.7530     0.2640     0.5960 N.am  1 <1>  -0.4940 
  4 C        1.8480    -2.1800     1.0620 C.3   1 <1>   0.1710 
  5 C        1.7970     1.5310    -0.0350 C.2   1 <1>  -0.0880 
  6 N        0.4980    -2.8020     0.9700 N.3   1 <1>  -0.8100 
  7 N        2.7900     2.0520    -0.8190 N.pl3 1 <1>   0.3140 
  8 C        0.8440     2.4900     0.0580 C.2   1 <1>  -0.1810 
  9 C        0.2640    -3.3480    -0.3830 C.3   1 <1>   0.2530 
 10 C       -0.5840    -1.8970     1.3900 C.3   1 <1>   0.0300 
 11 N        2.4860     3.3110    -1.2130 N.2   1 <1>  -0.7070 
 12 C        4.1120     1.4870    -1.1820 C.3   1 <1>   0.0960 
 13 C        1.3270     3.5560    -0.6900 C.2   1 <1>   0.1390 
 14 C       -0.4830     2.4730     0.7940 C.3   1 <1>  -0.0590 
 15 C       -1.0000    -4.1960    -0.4250 C.ar  1 <1>  -0.1430 
 16 C        5.0130     1.2930     0.0460 C.3   1 <1>  -0.2400 
 17 C       -1.9920    -3.9870    -1.3630 C.ar  1 <1>  -0.1500 
 18 C       -1.2200    -5.2200     0.4740 C.ar  1 <1>  -0.1500 
 19 C       -3.1210    -4.7880    -1.3550 C.ar  1 <1>   0.1600 
 20 C       -2.3860    -5.9630     0.3960 C.ar  1 <1>   0.1600 
 21 N       -3.3430    -5.7720    -0.4980 N.ar  1 <1>  -0.6200 
 22 H        1.2580     0.2650     1.4870 H     1 <1>   0.3700 
 23 H        2.0210    -1.8770     2.0790 H     1 <1>   0.0800 
 24 H        2.5850    -2.9280     0.8310 H     1 <1>   0.0800 
 25 H        1.0970    -3.9680    -0.6670 H     1 <1>   0.0800 
 26 H        0.1910    -2.5450    -1.0970 H     1 <1>   0.0800 
 27 H       -0.3710    -1.4940     2.3650 H     1 <1>   0.0800 
 28 H       -1.5120    -2.4400     1.4530 H     1 <1>   0.0800 
 29 H       -0.7040    -1.0930     0.6850 H     1 <1>   0.0800 
 30 H        4.5850     2.1730    -1.8610 H     1 <1>   0.0800 
 31 H        3.9690     0.5640    -1.7070 H     1 <1>   0.0800 
 32 H        0.8070     4.4890    -0.8270 H     1 <1>   0.1500 
 33 H       -0.6740     1.5050     1.2180 H     1 <1>   0.0800 
 34 H       -1.2790     2.7110     0.1110 H     1 <1>   0.0800 
 35 H       -0.4720     3.2030     1.5830 H     1 <1>   0.0800 
 36 H        5.1480     2.2310     0.5550 H     1 <1>   0.0800 
 37 H        5.9750     0.9310    -0.2680 H     1 <1>   0.0800 
 38 H        4.5840     0.5760     0.7210 H     1 <1>   0.0800 
 39 H       -1.8960    -3.2090    -2.0990 H     1 <1>   0.1500 
 40 H       -0.4920    -5.4350     1.2350 H     1 <1>   0.1500 
 41 H       -3.8830    -4.6100    -2.0950 H     1 <1>   0.1500 
 42 H       -2.5380    -6.7560     1.1080 H     1 <1>   0.1500 
@<TRIPOS>BOND
  1   1   2  2   
  2   2   3  am  
  3   2   4  1   
  4   3   5  1   
  5   3  22  1   
  6   4   6  1   
  7   4  23  1   
  8   4  24  1   
  9   5   7  1   
 10   5   8  2   
 11   6   9  1   
 12   6  10  1   
 13   7  11  1   
 14   7  12  1   
 15   8  13  1   
 16   8  14  1   
 17   9  15  1   
 18   9  25  1   
 19   9  26  1   
 20  10  27  1   
 21  10  28  1   
 22  10  29  1   
 23  11  13  2   
 24  12  16  1   
 25  12  30  1   
 26  12  31  1   
 27  13  32  1   
 28  14  33  1   
 29  14  34  1   
 30  14  35  1   
 31  15  17  ar  
 32  15  18  ar  
 33  16  36  1   
 34  16  37  1   
 35  16  38  1   
 36  17  19  ar  
 37  17  39  1   
 38  18  20  ar  
 39  18  40  1   
 40  19  21  ar  
 41  19  41  1   
 42  20  21  ar  
 43  20  42  1   
@<TRIPOS>SUBSTRUCTURE
  1 ****   2 GROUP 4 **** **** 0

# MOE 2024.06 (io_trps.svl 2023.06)
