@<TRIPOS>MOLECULE
NONAME
61 64 1 0 0 
SMALL
USER_CHARGES


@<TRIPOS>ATOM
  1 O       -1.2410     1.2880     1.9410 O.2   1 <1>  -0.5700 
  2 C       -2.0560     1.3310     1.0460 C.2   1 <1>   0.5690 
  3 N       -3.2300     0.6200     1.0890 N.am  1 <1>  -0.6600 
  4 C       -1.6950     2.2220    -0.1570 C.3   1 <1>   0.4040 
  5 C       -4.3090     0.6500     0.0590 C.3   1 <1>   0.1400 
  6 C       -3.5690    -0.2450     2.2600 C.3   1 <1>   0.1400 
  7 N       -0.2180     2.5320    -0.2510 N.4   1 <1>  -0.9590 
  8 C       -4.5570    -0.7720    -0.4510 C.3   1 <1>  -0.1600 
  9 C       -3.8290    -1.6750     1.7800 C.3   1 <1>  -0.1600 
 10 C        0.0760     3.7000    -1.1260 C.3   1 <1>   0.3430 
 11 C        0.5700     1.3170    -0.6110 C.3   1 <1>   0.3430 
 12 C       -4.9160    -1.7300     0.6980 C.3   1 <1>   0.4240 
 13 C        1.5640     4.0440    -1.0410 C.3   1 <1>  -0.1600 
 14 C        2.0650     1.6290    -0.5200 C.3   1 <1>  -0.1600 
 15 O       -6.0800    -1.2380     1.3170 O.3   1 <1>  -0.5600 
 16 C       -5.0980    -3.1750     0.1870 C.ar  1 <1>  -0.1430 
 17 C        2.4490     2.8380    -1.3820 C.3   1 <1>  -0.1600 
 18 C       -7.3100    -1.5980     0.7660 C.3   1 <1>   0.1200 
 19 C       -6.3190    -3.8270     0.2880 C.ar  1 <1>  -0.1430 
 20 C       -4.0360    -3.8560    -0.3940 C.ar  1 <1>  -0.1500 
 21 C       -7.4960    -3.1060     0.9120 C.3   1 <1>  -0.0170 
 22 C       -6.4670    -5.1240    -0.1790 C.ar  1 <1>  -0.1500 
 23 C       -4.1630    -5.1530    -0.8620 C.ar  1 <1>   0.0820 
 24 C       -5.4030    -5.8040    -0.7650 C.ar  1 <1>   0.0820 
 25 O       -3.0180    -5.6740    -1.3920 O.3   1 <1>  -0.3630 
 26 O       -5.5560    -7.0700    -1.2550 O.3   1 <1>  -0.3620 
 27 C       -2.7670    -7.0610    -1.4030 C.3   1 <1>   0.0400 
 28 C       -6.8120    -7.7100    -1.3140 C.3   1 <1>   0.0400 
 29 H       -2.2460     3.1400    -0.0510 H     1 <1>   0.0800 
 30 H       -2.0200     1.7360    -1.0600 H     1 <1>   0.0800 
 31 H       -4.0530     1.2880    -0.7670 H     1 <1>   0.0800 
 32 H       -5.2110     1.0340     0.5080 H     1 <1>   0.0800 
 33 H       -4.4490     0.1440     2.7450 H     1 <1>   0.0800 
 34 H       -2.7700    -0.2490     2.9830 H     1 <1>   0.0800 
 35 H        0.0660     2.7600     0.7170 H     1 <1>   0.4500 
 36 H       -3.6700    -1.1210    -0.9460 H     1 <1>   0.0800 
 37 H       -5.3440    -0.7710    -1.1810 H     1 <1>   0.0800 
 38 H       -4.1320    -2.2870     2.6100 H     1 <1>   0.0800 
 39 H       -2.9070    -2.0780     1.4060 H     1 <1>   0.0800 
 40 H       -0.5070     4.5530    -0.8160 H     1 <1>   0.0800 
 41 H       -0.1790     3.4640    -2.1470 H     1 <1>   0.0800 
 42 H        0.3280     1.0050    -1.6140 H     1 <1>   0.0800 
 43 H        0.3350     0.5100     0.0660 H     1 <1>   0.0800 
 44 H        1.7910     4.3960    -0.0490 H     1 <1>   0.0800 
 45 H        1.7790     4.8480    -1.7230 H     1 <1>   0.0800 
 46 H        2.6240     0.7680    -0.8420 H     1 <1>   0.0800 
 47 H        2.3260     1.8130     0.5090 H     1 <1>   0.0800 
 48 H        3.4850     3.0880    -1.2190 H     1 <1>   0.0800 
 49 H        2.3340     2.5890    -2.4240 H     1 <1>   0.0800 
 50 H       -7.3370    -1.3040    -0.2680 H     1 <1>   0.0800 
 51 H       -8.0790    -1.0710     1.3030 H     1 <1>   0.0800 
 52 H       -3.0750    -3.3890    -0.4930 H     1 <1>   0.1500 
 53 H       -8.4120    -3.3960     0.4290 H     1 <1>   0.0800 
 54 H       -7.5670    -3.3590     1.9540 H     1 <1>   0.0800 
 55 H       -7.4280    -5.5880    -0.0750 H     1 <1>   0.1500 
 56 H       -1.7150    -7.2110    -1.5650 H     1 <1>   0.0800 
 57 H       -3.3250    -7.5080    -2.2050 H     1 <1>   0.0800 
 58 H       -3.0580    -7.4780    -0.4550 H     1 <1>   0.0800 
 59 H       -6.6780    -8.6630    -1.7930 H     1 <1>   0.0800 
 60 H       -7.4860    -7.1030    -1.8930 H     1 <1>   0.0800 
 61 H       -7.1790    -7.8530    -0.3140 H     1 <1>   0.0800 
@<TRIPOS>BOND
  1   1   2  2   
  2   2   3  am  
  3   2   4  1   
  4   3   5  1   
  5   3   6  1   
  6   4   7  1   
  7   4  29  1   
  8   4  30  1   
  9   5   8  1   
 10   5  31  1   
 11   5  32  1   
 12   6   9  1   
 13   6  33  1   
 14   6  34  1   
 15   7  10  1   
 16   7  11  1   
 17   7  35  1   
 18   8  12  1   
 19   8  36  1   
 20   8  37  1   
 21   9  12  1   
 22   9  38  1   
 23   9  39  1   
 24  10  13  1   
 25  10  40  1   
 26  10  41  1   
 27  11  14  1   
 28  11  42  1   
 29  11  43  1   
 30  12  15  1   
 31  12  16  1   
 32  13  17  1   
 33  13  44  1   
 34  13  45  1   
 35  14  17  1   
 36  14  46  1   
 37  14  47  1   
 38  15  18  1   
 39  16  19  ar  
 40  16  20  ar  
 41  17  48  1   
 42  17  49  1   
 43  18  21  1   
 44  18  50  1   
 45  18  51  1   
 46  19  21  1   
 47  19  22  ar  
 48  20  23  ar  
 49  20  52  1   
 50  21  53  1   
 51  21  54  1   
 52  22  24  ar  
 53  22  55  1   
 54  23  24  ar  
 55  23  25  1   
 56  24  26  1   
 57  25  27  1   
 58  26  28  1   
 59  27  56  1   
 60  27  57  1   
 61  27  58  1   
 62  28  59  1   
 63  28  60  1   
 64  28  61  1   
@<TRIPOS>SUBSTRUCTURE
  1 ****   8 GROUP 4 **** **** 0

# MOE 2024.06 (io_trps.svl 2023.06)
