@<TRIPOS>MOLECULE
NONAME
44 46 1 0 0 
SMALL
USER_CHARGES


@<TRIPOS>ATOM
  1 O        3.4230    -1.8420     1.8340 O.2   1 <1>  -0.5700 
  2 C        2.8290    -1.6290     0.7950 C.2   1 <1>   0.5440 
  3 N        2.9970    -0.3850     0.2330 N.am  1 <1>  -0.6600 
  4 C        2.0830    -2.6820     0.1260 C.ar  1 <1>   0.0860 
  5 C        3.2860     0.7950     1.1330 C.3   1 <1>   0.2200 
  6 C        3.2970    -0.2760    -1.2240 C.3   1 <1>   0.1400 
  7 C        0.7550    -2.5380    -0.3080 C.ar  1 <1>  -0.1440 
  8 C        2.7330    -3.8930    -0.1190 C.ar  1 <1>  -0.1500 
  9 C        2.8620     2.1410     0.5220 C.3   1 <1>   0.1200 
 10 C        4.7780     0.8330     1.5420 C.3   1 <1>   0.3430 
 11 C        4.4530     0.6910    -1.5480 C.3   1 <1>  -0.0800 
 12 C        0.1590    -3.5770    -1.0180 C.ar  1 <1>   0.0820 
 13 C       -0.0460    -1.2710     0.0010 C.3   1 <1>  -0.0970 
 14 C        2.1220    -4.9210    -0.8100 C.ar  1 <1>  -0.1500 
 15 O        3.8870     2.6660    -0.2690 O.3   1 <1>  -0.5600 
 16 N        5.6270    -0.0270     0.6490 N.4   1 <1>  -0.9590 
 17 C        3.9870     2.1560    -1.5550 C.3   1 <1>   0.1200 
 18 C        5.7680     0.4920    -0.7530 C.3   1 <1>   0.3430 
 19 O       -1.0940    -3.4710    -1.4900 O.3   1 <1>  -0.5330 
 20 C        0.8320    -4.7580    -1.2690 C.ar  1 <1>  -0.1500 
 21 C        6.9440    -0.3190     1.2790 C.3   1 <1>   0.2630 
 22 H        2.7030     0.6690     2.0290 H     1 <1>   0.0800 
 23 H        3.5530    -1.2520    -1.6030 H     1 <1>   0.0800 
 24 H        2.4050     0.0380    -1.7400 H     1 <1>   0.0800 
 25 H        3.7380    -4.0310     0.2400 H     1 <1>   0.1500 
 26 H        2.6980     2.8490     1.3150 H     1 <1>   0.0800 
 27 H        1.9530     2.0580    -0.0480 H     1 <1>   0.0800 
 28 H        4.8450     0.4610     2.5510 H     1 <1>   0.0800 
 29 H        5.1370     1.8490     1.5410 H     1 <1>   0.0800 
 30 H        4.7050     0.4950    -2.5750 H     1 <1>   0.0800 
 31 H        0.3450    -0.7570     0.8610 H     1 <1>   0.0800 
 32 H       -1.0690    -1.5110     0.2290 H     1 <1>   0.0800 
 33 H       -0.0210    -0.6040    -0.8420 H     1 <1>   0.0800 
 34 H        2.6440    -5.8460    -0.9890 H     1 <1>   0.1500 
 35 H        5.0740    -0.9040     0.6090 H     1 <1>   0.4500 
 36 H        3.0370     2.2720    -2.0520 H     1 <1>   0.0800 
 37 H        4.7070     2.7660    -2.0740 H     1 <1>   0.0800 
 38 H        6.2980     1.4310    -0.7310 H     1 <1>   0.0800 
 39 H        6.3780    -0.2040    -1.3040 H     1 <1>   0.0800 
 40 H       -1.5200    -2.6270    -1.2650 H     1 <1>   0.4500 
 41 H        0.3390    -5.5430    -1.8150 H     1 <1>   0.1500 
 42 H        7.5160     0.5880     1.3880 H     1 <1>   0.0800 
 43 H        7.5030    -1.0130     0.6730 H     1 <1>   0.0800 
 44 H        6.7990    -0.7580     2.2540 H     1 <1>   0.0800 
@<TRIPOS>BOND
  1   1   2  2   
  2   2   3  am  
  3   2   4  1   
  4   3   5  1   
  5   3   6  1   
  6   4   7  ar  
  7   4   8  ar  
  8   5   9  1   
  9   5  10  1   
 10   5  22  1   
 11   6  11  1   
 12   6  23  1   
 13   6  24  1   
 14   7  12  ar  
 15   7  13  1   
 16   8  14  ar  
 17   8  25  1   
 18   9  15  1   
 19   9  26  1   
 20   9  27  1   
 21  10  16  1   
 22  10  28  1   
 23  10  29  1   
 24  11  17  1   
 25  11  18  1   
 26  11  30  1   
 27  12  19  1   
 28  12  20  ar  
 29  13  31  1   
 30  13  32  1   
 31  13  33  1   
 32  14  20  ar  
 33  14  34  1   
 34  15  17  1   
 35  16  18  1   
 36  16  21  1   
 37  16  35  1   
 38  17  36  1   
 39  17  37  1   
 40  18  38  1   
 41  18  39  1   
 42  19  40  1   
 43  20  41  1   
 44  21  42  1   
 45  21  43  1   
 46  21  44  1   
@<TRIPOS>SUBSTRUCTURE
  1 ****   3 GROUP 4 **** **** 0

# MOE 2024.06 (io_trps.svl 2023.06)
