@<TRIPOS>MOLECULE
NONAME
46 48 1 0 0 
SMALL
USER_CHARGES


@<TRIPOS>ATOM
  1 CL       0.1500    -0.1210    -0.5390 Cl    1 <1>  -0.1770 
  2 C        0.9410    -1.6840    -0.6640 C.ar  1 <1>   0.1770 
  3 C        0.3070    -2.8250    -0.1860 C.ar  1 <1>  -0.1440 
  4 C        2.2100    -1.7160    -1.2600 C.ar  1 <1>  -0.1440 
  5 C        0.9740    -4.0530    -0.3250 C.ar  1 <1>   0.0000 
  6 C       -1.0680    -2.7780     0.4750 C.3   1 <1>  -0.0960 
  7 C        2.8610    -2.9260    -1.3800 C.ar  1 <1>  -0.1500 
  8 C        2.8730    -0.4440    -1.7690 C.3   1 <1>  -0.0960 
  9 C        2.2320    -4.0690    -0.9110 C.ar  1 <1>   0.1400 
 10 C        0.7240    -5.4160    -0.0140 C.2   1 <1>  -0.1810 
 11 O        2.7220    -5.3060    -0.9530 O.3   1 <1>  -0.2800 
 12 C        1.8140    -6.1020    -0.4110 C.2   1 <1>  -0.0100 
 13 C       -0.5360    -5.9740     0.6410 C.3   1 <1>   0.0820 
 14 C       -0.6280    -7.4910     0.6100 C.2   1 <1>   0.5690 
 15 O       -0.6990    -8.0960     1.6520 O.2   1 <1>  -0.5700 
 16 N       -0.6550    -8.1220    -0.5940 N.am  1 <1>  -0.7300 
 17 C       -0.9110    -9.5730    -0.8290 C.3   1 <1>   0.2200 
 18 C       -2.3150    -9.9920    -0.3550 C.3   1 <1>   0.2000 
 19 C        0.1510   -10.4610    -0.1600 C.3   1 <1>   0.1200 
 20 O       -3.2780    -9.3070    -1.1050 O.3   1 <1>  -0.5600 
 21 C       -2.5060   -11.5030    -0.5340 C.3   1 <1>  -0.1600 
 22 O       -0.1330   -11.8080    -0.4200 O.3   1 <1>  -0.5600 
 23 C       -4.4980    -9.1150    -0.4610 C.3   1 <1>   0.0400 
 24 C       -1.3410   -12.2640     0.1100 C.3   1 <1>   0.1200 
 25 H       -1.0380    -3.2900     1.4190 H     1 <1>   0.0800 
 26 H       -1.7940    -3.2490    -0.1620 H     1 <1>   0.0800 
 27 H       -1.3970    -1.7760     0.6690 H     1 <1>   0.0800 
 28 H        3.8360    -3.0120    -1.8250 H     1 <1>   0.1500 
 29 H        3.8390    -0.6540    -2.1910 H     1 <1>   0.0800 
 30 H        3.0000     0.2540    -0.9610 H     1 <1>   0.0800 
 31 H        2.2630     0.0110    -2.5290 H     1 <1>   0.0800 
 32 H        2.0410    -7.1540    -0.3520 H     1 <1>   0.1500 
 33 H       -1.4020    -5.5910     0.1370 H     1 <1>   0.0800 
 34 H       -0.5720    -5.6490     1.6650 H     1 <1>   0.0800 
 35 H       -0.6970    -7.5560    -1.4440 H     1 <1>   0.3700 
 36 H       -0.8500    -9.7540    -1.8880 H     1 <1>   0.0800 
 37 H       -2.4210    -9.7340     0.6850 H     1 <1>   0.0800 
 38 H        0.1710   -10.3190     0.9060 H     1 <1>   0.0800 
 39 H        1.1230   -10.2490    -0.5680 H     1 <1>   0.0800 
 40 H       -3.4240   -11.8180    -0.0760 H     1 <1>   0.0800 
 41 H       -2.5410   -11.7450    -1.5820 H     1 <1>   0.0800 
 42 H       -5.1440    -8.5670    -1.1250 H     1 <1>   0.0800 
 43 H       -4.3390    -8.5470     0.4390 H     1 <1>   0.0800 
 44 H       -4.9410   -10.0690    -0.2350 H     1 <1>   0.0800 
 45 H       -1.4150   -13.3160    -0.1020 H     1 <1>   0.0800 
 46 H       -1.3220   -12.1220     1.1780 H     1 <1>   0.0800 
@<TRIPOS>BOND
  1   1   2  1   
  2   2   3  ar  
  3   2   4  ar  
  4   3   5  ar  
  5   3   6  1   
  6   4   7  ar  
  7   4   8  1   
  8   5   9  ar  
  9   5  10  1   
 10   6  25  1   
 11   6  26  1   
 12   6  27  1   
 13   7   9  ar  
 14   7  28  1   
 15   8  29  1   
 16   8  30  1   
 17   8  31  1   
 18   9  11  1   
 19  10  12  2   
 20  10  13  1   
 21  11  12  1   
 22  12  32  1   
 23  13  14  1   
 24  13  33  1   
 25  13  34  1   
 26  14  15  2   
 27  14  16  am  
 28  16  17  1   
 29  16  35  1   
 30  17  18  1   
 31  17  19  1   
 32  17  36  1   
 33  18  20  1   
 34  18  21  1   
 35  18  37  1   
 36  19  22  1   
 37  19  38  1   
 38  19  39  1   
 39  20  23  1   
 40  21  24  1   
 41  21  40  1   
 42  21  41  1   
 43  22  24  1   
 44  23  42  1   
 45  23  43  1   
 46  23  44  1   
 47  24  45  1   
 48  24  46  1   
@<TRIPOS>SUBSTRUCTURE
  1 ****  13 GROUP 4 **** **** 0

# MOE 2024.06 (io_trps.svl 2023.06)
