@<TRIPOS>MOLECULE
NONAME
48 50 1 0 0 
SMALL
USER_CHARGES


@<TRIPOS>ATOM
  1 CL       0.2960     1.6500    -1.5380 Cl    1 <1>  -0.1770 
  2 C        1.6020     1.5470    -0.3840 C.ar  1 <1>   0.1770 
  3 C        2.2370     0.3330    -0.1820 C.ar  1 <1>  -0.1440 
  4 C        1.9660     2.6830     0.3180 C.ar  1 <1>  -0.1500 
  5 C        3.2480     0.2840     0.7630 C.ar  1 <1>   0.1770 
  6 C        1.8500    -0.8990    -0.9710 C.3   1 <1>   0.4870 
  7 C        2.9860     2.6120     1.2530 C.ar  1 <1>  -0.1500 
  8 CL       4.0490    -1.2370     1.0770 Cl    1 <1>  -0.1770 
  9 C        3.6300     1.4050     1.4790 C.ar  1 <1>  -0.1500 
 10 N        1.1320    -1.8560    -0.0750 N.4   1 <1>  -0.9590 
 11 C        0.9930    -3.2050    -0.7370 C.3   1 <1>   0.3430 
 12 C       -0.1900    -1.2880     0.3320 C.3   1 <1>   0.3430 
 13 C        0.1830    -4.2430     0.1080 C.3   1 <1>   0.4230 
 14 C       -0.9160    -2.2720     1.2540 C.3   1 <1>  -0.1600 
 15 N        0.0550    -5.6370    -0.5070 N.4   1 <1>  -0.9590 
 16 C       -1.1700    -3.6660     0.6180 C.3   1 <1>   0.0000 
 17 C       -1.0020    -6.4900     0.1390 C.3   1 <1>   0.3430 
 18 C       -0.1510    -5.6590    -1.9960 C.3   1 <1>   0.2630 
 19 C       -1.7200    -4.6110     1.7240 C.3   1 <1>  -0.1600 
 20 C       -2.2550    -3.5330    -0.4910 C.3   1 <1>   0.1200 
 21 C       -1.2420    -6.0720     1.5900 C.3   1 <1>  -0.1600 
 22 O       -1.7540    -2.9140    -1.6270 O.3   1 <1>  -0.6800 
 23 H        1.4560     3.6140     0.1360 H     1 <1>   0.1500 
 24 H        2.7470    -1.3560    -1.3560 H     1 <1>   0.0800 
 25 H        1.2260    -0.6310    -1.8080 H     1 <1>   0.0800 
 26 H        3.2780     3.4920     1.8040 H     1 <1>   0.1500 
 27 H        4.4230     1.3370     2.2050 H     1 <1>   0.1500 
 28 H        1.7220    -1.9330     0.7690 H     1 <1>   0.4500 
 29 H        0.5000    -3.0720    -1.6840 H     1 <1>   0.0800 
 30 H        1.9750    -3.6060    -0.9250 H     1 <1>   0.0800 
 31 H       -0.0480    -0.3530     0.8520 H     1 <1>   0.0800 
 32 H       -0.7930    -1.0900    -0.5400 H     1 <1>   0.0800 
 33 H        0.7700    -4.3770     1.0010 H     1 <1>   0.0800 
 34 H       -0.3330    -2.3680     2.1550 H     1 <1>   0.0800 
 35 H       -1.8550    -1.8320     1.5440 H     1 <1>   0.0800 
 36 H        0.9440    -6.1280    -0.3210 H     1 <1>   0.4500 
 37 H       -1.9300    -6.3930    -0.4010 H     1 <1>   0.0800 
 38 H       -0.7100    -7.5280     0.1020 H     1 <1>   0.0800 
 39 H       -1.0670    -5.1550    -2.2600 H     1 <1>   0.0800 
 40 H       -0.2110    -6.6770    -2.3490 H     1 <1>   0.0800 
 41 H        0.6670    -5.1760    -2.5050 H     1 <1>   0.0800 
 42 H       -1.4270    -4.2720     2.7050 H     1 <1>   0.0800 
 43 H       -2.7980    -4.5900     1.7190 H     1 <1>   0.0800 
 44 H       -3.0870    -2.9470    -0.1320 H     1 <1>   0.0800 
 45 H       -2.6370    -4.4940    -0.7870 H     1 <1>   0.0800 
 46 H       -1.9800    -6.7240     2.0260 H     1 <1>   0.0800 
 47 H       -0.3330    -6.2180     2.1500 H     1 <1>   0.0800 
 48 H       -2.4920    -2.6750    -2.2370 H     1 <1>   0.4000 
@<TRIPOS>BOND
  1   1   2  1   
  2   2   3  ar  
  3   2   4  ar  
  4   3   5  ar  
  5   3   6  1   
  6   4   7  ar  
  7   4  23  1   
  8   5   8  1   
  9   5   9  ar  
 10   6  10  1   
 11   6  24  1   
 12   6  25  1   
 13   7   9  ar  
 14   7  26  1   
 15   9  27  1   
 16  10  11  1   
 17  10  12  1   
 18  10  28  1   
 19  11  13  1   
 20  11  29  1   
 21  11  30  1   
 22  12  14  1   
 23  12  31  1   
 24  12  32  1   
 25  13  15  1   
 26  13  16  1   
 27  13  33  1   
 28  14  16  1   
 29  14  34  1   
 30  14  35  1   
 31  15  17  1   
 32  15  18  1   
 33  15  36  1   
 34  16  19  1   
 35  16  20  1   
 36  17  21  1   
 37  17  37  1   
 38  17  38  1   
 39  18  39  1   
 40  18  40  1   
 41  18  41  1   
 42  19  21  1   
 43  19  42  1   
 44  19  43  1   
 45  20  22  1   
 46  20  44  1   
 47  20  45  1   
 48  21  46  1   
 49  21  47  1   
 50  22  48  1   
@<TRIPOS>SUBSTRUCTURE
  1 ****  10 GROUP 4 **** **** 0

# MOE 2024.06 (io_trps.svl 2023.06)
