@<TRIPOS>MOLECULE
NONAME
52 55 1 0 0 
SMALL
USER_CHARGES


@<TRIPOS>ATOM
  1 O       -0.1080    -0.1170     1.0020 O.3   1 <1>  -0.5600 
  2 C        0.6330     1.0540     0.9880 C.3   1 <1>   0.1200 
  3 C       -1.4700     0.1720     0.9090 C.3   1 <1>   0.1200 
  4 C       -0.1330     1.9600     0.0340 C.3   1 <1>   0.2890 
  5 C       -1.5790     1.5900     0.3340 C.3   1 <1>  -0.0800 
  6 N        0.1230     3.4030     0.2790 N.pl3 1 <1>  -0.8690 
  7 C       -2.4970     1.6890    -0.8960 C.3   1 <1>  -0.0170 
  8 C        0.8100     4.3350    -0.3880 C.ar  1 <1>   0.7710 
  9 C       -3.9210     1.2850    -0.5500 C.ar  1 <1>  -0.1440 
 10 N        0.8080     5.5360     0.1480 N.ar  1 <1>  -0.6200 
 11 N        1.4580     4.0410    -1.5290 N.ar  1 <1>  -0.1790 
 12 C       -4.7680     2.1280     0.1430 C.ar  1 <1>  -0.1500 
 13 C       -4.4440     0.0580    -0.9080 C.ar  1 <1>  -0.1500 
 14 C        1.4900     6.4920    -0.4600 C.ar  1 <1>   0.4100 
 15 C        2.1470     4.9970    -2.2000 C.ar  1 <1>   0.2110 
 16 C       -6.0550     1.7120     0.4410 C.ar  1 <1>   0.1600 
 17 C       -5.7460    -0.2600    -0.5610 C.ar  1 <1>   0.1600 
 18 N        1.5170     7.7210     0.1210 N.pl3 1 <1>  -0.8380 
 19 C        2.1680     6.2430    -1.6710 C.ar  1 <1>  -0.1500 
 20 N       -6.5630     0.5370     0.1080 N.ar  1 <1>  -0.6200 
 21 C        2.6700     8.6670     0.0400 C.3   1 <1>   0.2090 
 22 C        0.4360     8.1980     1.0390 C.3   1 <1>   0.2090 
 23 C        2.1800    10.0140    -0.4880 C.3   1 <1>  -0.1600 
 24 C       -0.0820     9.5520     0.5500 C.3   1 <1>  -0.1600 
 25 C        1.0670    10.5500     0.4120 C.3   1 <1>   0.2000 
 26 O        0.5770    11.7110    -0.1430 O.3   1 <1>  -0.6800 
 27 H        0.6460     1.4490     1.9890 H     1 <1>   0.0800 
 28 H        1.6290     0.8320     0.6510 H     1 <1>   0.0800 
 29 H       -1.9220    -0.5720     0.2760 H     1 <1>   0.0800 
 30 H       -1.9000     0.1130     1.8950 H     1 <1>   0.0800 
 31 H        0.1190     1.6820    -0.9750 H     1 <1>   0.0800 
 32 H       -1.9660     2.2220     1.1150 H     1 <1>   0.0800 
 33 H       -0.2930     3.7530     1.1510 H     1 <1>   0.4000 
 34 H       -2.1280     1.0570    -1.6850 H     1 <1>   0.0800 
 35 H       -2.5040     2.7010    -1.2620 H     1 <1>   0.0800 
 36 H        1.4050     3.0820    -1.8530 H     1 <1>   0.4570 
 37 H       -4.4440     3.1030     0.4550 H     1 <1>   0.1500 
 38 H       -3.8570    -0.6580    -1.4540 H     1 <1>   0.1500 
 39 H        2.6470     4.7430    -3.1220 H     1 <1>   0.1500 
 40 H       -6.7020     2.3820     0.9820 H     1 <1>   0.1500 
 41 H       -6.1370    -1.2210    -0.8470 H     1 <1>   0.1500 
 42 H        2.6780     7.0490    -2.1620 H     1 <1>   0.1500 
 43 H        3.0840     8.7970     1.0270 H     1 <1>   0.0800 
 44 H        3.4530     8.2840    -0.5880 H     1 <1>   0.0800 
 45 H       -0.3840     7.5010     1.0700 H     1 <1>   0.0800 
 46 H        0.8320     8.2910     2.0370 H     1 <1>   0.0800 
 47 H        1.8220     9.8860    -1.4940 H     1 <1>   0.0800 
 48 H        2.9990    10.7110    -0.4960 H     1 <1>   0.0800 
 49 H       -0.8020     9.9280     1.2540 H     1 <1>   0.0800 
 50 H       -0.5690     9.4080    -0.3970 H     1 <1>   0.0800 
 51 H        1.4630    10.7960     1.3830 H     1 <1>   0.0800 
 52 H        0.1680    11.5230    -1.0090 H     1 <1>   0.4000 
@<TRIPOS>BOND
  1   1   2  1   
  2   1   3  1   
  3   2   4  1   
  4   2  27  1   
  5   2  28  1   
  6   3   5  1   
  7   3  29  1   
  8   3  30  1   
  9   4   5  1   
 10   4   6  1   
 11   4  31  1   
 12   5   7  1   
 13   5  32  1   
 14   6   8  1   
 15   6  33  1   
 16   7   9  1   
 17   7  34  1   
 18   7  35  1   
 19   8  10  ar  
 20   8  11  ar  
 21   9  12  ar  
 22   9  13  ar  
 23  10  14  ar  
 24  11  15  ar  
 25  11  36  1   
 26  12  16  ar  
 27  12  37  1   
 28  13  17  ar  
 29  13  38  1   
 30  14  18  1   
 31  14  19  ar  
 32  15  19  ar  
 33  15  39  1   
 34  16  20  ar  
 35  16  40  1   
 36  17  20  ar  
 37  17  41  1   
 38  18  21  1   
 39  18  22  1   
 40  19  42  1   
 41  21  23  1   
 42  21  43  1   
 43  21  44  1   
 44  22  24  1   
 45  22  45  1   
 46  22  46  1   
 47  23  25  1   
 48  23  47  1   
 49  23  48  1   
 50  24  25  1   
 51  24  49  1   
 52  24  50  1   
 53  25  26  1   
 54  25  51  1   
 55  26  52  1   
@<TRIPOS>SUBSTRUCTURE
  1 ****   6 GROUP 4 **** **** 0

# MOE 2024.06 (io_trps.svl 2023.06)
