@<TRIPOS>MOLECULE
NONAME
47 50 1 0 0 
SMALL
USER_CHARGES


@<TRIPOS>ATOM
  1 S       -0.3690    -1.4680     1.4320 S.3   1 <1>  -0.0800 
  2 C        0.3540    -2.2040     0.0080 C.2   1 <1>  -0.1400 
  3 C        1.2110    -1.1310     2.1140 C.2   1 <1>  -0.1100 
  4 C        1.6980    -2.1690     0.0900 C.2   1 <1>  -0.1500 
  5 C       -0.5970    -2.7440    -1.0370 C.3   1 <1>   0.5230 
  6 C        2.1840    -1.5590     1.2900 C.2   1 <1>  -0.1500 
  7 N       -1.4640    -3.7710    -0.3870 N.4   1 <1>  -0.9590 
  8 C       -0.6640    -4.9380     0.0850 C.3   1 <1>   0.3430 
  9 C       -2.6120    -4.1510    -1.2530 C.3   1 <1>   0.3430 
 10 C       -1.5660    -5.8970     0.8630 C.3   1 <1>  -0.1600 
 11 C       -3.5350    -5.1030    -0.4910 C.3   1 <1>  -0.1600 
 12 C       -2.7860    -6.3250     0.0450 C.3   1 <1>   0.2890 
 13 N       -3.6970    -7.0640     0.9380 N.pl3 1 <1>  -0.8690 
 14 C       -4.2150    -8.2980     0.9890 C.ar  1 <1>   0.7710 
 15 N       -5.0190    -8.5030     2.0210 N.ar  1 <1>  -0.6200 
 16 N       -3.9350    -9.2430     0.0640 N.ar  1 <1>  -0.1260 
 17 C       -5.5730    -9.6890     2.1490 C.ar  1 <1>   0.4100 
 18 C       -4.5010   -10.4900     0.1770 C.ar  1 <1>   0.1560 
 19 N       -6.3750    -9.8470     3.2060 N.pl3 1 <1>  -0.9000 
 20 C       -5.3320   -10.7300     1.2270 C.ar  1 <1>   0.0000 
 21 N       -4.4290   -11.6240    -0.5590 N.pl3 1 <1>   0.3140 
 22 C       -5.7240   -12.0630     1.0440 C.2   1 <1>   0.1390 
 23 N       -5.1920   -12.5920    -0.0090 N.2   1 <1>  -0.7070 
 24 C       -3.6700   -11.9000    -1.7940 C.3   1 <1>   0.0160 
 25 H        1.2460    -0.6400     3.0710 H     1 <1>   0.1500 
 26 H        2.3960    -2.5430    -0.6420 H     1 <1>   0.1500 
 27 H       -0.0430    -3.1760    -1.8540 H     1 <1>   0.0800 
 28 H       -1.1980    -1.9340    -1.4160 H     1 <1>   0.0800 
 29 H        3.2410    -1.4670     1.4770 H     1 <1>   0.1500 
 30 H       -1.8260    -3.2940     0.4540 H     1 <1>   0.4500 
 31 H        0.1360    -4.6030     0.7280 H     1 <1>   0.0800 
 32 H       -0.2250    -5.4480    -0.7570 H     1 <1>   0.0800 
 33 H       -2.2520    -4.6310    -2.1490 H     1 <1>   0.0800 
 34 H       -3.1650    -3.2700    -1.5410 H     1 <1>   0.0800 
 35 H       -1.8770    -5.4090     1.7710 H     1 <1>   0.0800 
 36 H       -0.9910    -6.7640     1.1380 H     1 <1>   0.0800 
 37 H       -4.3220    -5.4230    -1.1520 H     1 <1>   0.0800 
 38 H       -3.9900    -4.5600     0.3200 H     1 <1>   0.0800 
 39 H       -2.4710    -6.9470    -0.7780 H     1 <1>   0.0800 
 40 H       -4.0260    -6.4970     1.7310 H     1 <1>   0.4000 
 41 H       -3.3090    -9.0010    -0.6920 H     1 <1>   0.4570 
 42 H       -6.8790   -10.7040     3.4460 H     1 <1>   0.4000 
 43 H       -6.5300    -9.0720     3.8580 H     1 <1>   0.4000 
 44 H       -6.3940   -12.5900     1.7050 H     1 <1>   0.1500 
 45 H       -3.9940   -11.2380    -2.5760 H     1 <1>   0.0800 
 46 H       -3.8570   -12.9150    -2.0990 H     1 <1>   0.0800 
 47 H       -2.6190   -11.7810    -1.6100 H     1 <1>   0.0800 
@<TRIPOS>BOND
  1   1   2  1   
  2   1   3  1   
  3   2   4  2   
  4   2   5  1   
  5   3   6  2   
  6   3  25  1   
  7   4   6  1   
  8   4  26  1   
  9   5   7  1   
 10   5  27  1   
 11   5  28  1   
 12   6  29  1   
 13   7   8  1   
 14   7   9  1   
 15   7  30  1   
 16   8  10  1   
 17   8  31  1   
 18   8  32  1   
 19   9  11  1   
 20   9  33  1   
 21   9  34  1   
 22  10  12  1   
 23  10  35  1   
 24  10  36  1   
 25  11  12  1   
 26  11  37  1   
 27  11  38  1   
 28  12  13  1   
 29  12  39  1   
 30  13  14  1   
 31  13  40  1   
 32  14  15  ar  
 33  14  16  ar  
 34  15  17  ar  
 35  16  18  ar  
 36  16  41  1   
 37  17  19  1   
 38  17  20  ar  
 39  18  20  ar  
 40  18  21  1   
 41  19  42  1   
 42  19  43  1   
 43  20  22  1   
 44  21  23  1   
 45  21  24  1   
 46  22  23  2   
 47  22  44  1   
 48  24  45  1   
 49  24  46  1   
 50  24  47  1   
@<TRIPOS>SUBSTRUCTURE
  1 ****  12 GROUP 4 **** **** 0

# MOE 2024.06 (io_trps.svl 2023.06)
