@<TRIPOS>MOLECULE
NONAME
37 39 1 0 0 
SMALL
USER_CHARGES


@<TRIPOS>ATOM
  1 O        3.4590    -1.2000     2.3140 O.2   1 <1>  -0.5700 
  2 C        2.9480    -1.3600     1.2320 C.2   1 <1>   0.5690 
  3 N        2.7830    -0.3570     0.3170 N.am  1 <1>  -0.4940 
  4 C        2.4510    -2.7560     0.8680 C.3   1 <1>   0.2610 
  5 C        3.1190     0.9990     0.3920 C.2   1 <1>   0.2040 
  6 O        1.9250    -2.7670    -0.4620 O.3   1 <1>  -0.3630 
  7 C        1.3800    -3.2230     1.8640 C.3   1 <1>   0.1200 
  8 O        3.6760     1.5240     1.4570 O.3   1 <1>  -0.0190 
  9 C        2.9650     1.9840    -0.5150 C.2   1 <1>  -0.1810 
 10 C        1.1420    -3.8200    -0.8070 C.ar  1 <1>   0.0820 
 11 O        0.8560    -4.4820     1.4820 O.3   1 <1>  -0.3620 
 12 N        3.9010     2.8050     1.3080 N.2   1 <1>  -0.4100 
 13 C        3.4830     3.1060     0.1310 C.2   1 <1>   0.1080 
 14 C        2.3730     1.9290    -1.9140 C.3   1 <1>  -0.0590 
 15 C        0.6190    -4.6800     0.1610 C.ar  1 <1>   0.0820 
 16 C        0.8670    -4.0380    -2.1460 C.ar  1 <1>  -0.1500 
 17 C        3.5640     4.5100    -0.4430 C.3   1 <1>   0.0210 
 18 C       -0.1610    -5.7580    -0.2210 C.ar  1 <1>  -0.1500 
 19 C        0.0810    -5.1150    -2.5230 C.ar  1 <1>  -0.1500 
 20 C        4.8380     4.6990    -1.2730 C.3   1 <1>  -0.2400 
 21 C       -0.4300    -5.9740    -1.5630 C.ar  1 <1>  -0.1500 
 22 H        2.3470    -0.6570    -0.5550 H     1 <1>   0.3700 
 23 H        3.2840    -3.4350     0.8950 H     1 <1>   0.0800 
 24 H        0.5680    -2.5190     1.9020 H     1 <1>   0.0800 
 25 H        1.8000    -3.3240     2.8500 H     1 <1>   0.0800 
 26 H        2.0600     0.9300    -2.1560 H     1 <1>   0.0800 
 27 H        3.1060     2.2420    -2.6350 H     1 <1>   0.0800 
 28 H        1.5200     2.5800    -1.9770 H     1 <1>   0.0800 
 29 H        1.2680    -3.3720    -2.8880 H     1 <1>   0.1500 
 30 H        3.5600     5.2160     0.3690 H     1 <1>   0.0800 
 31 H        2.6980     4.7020    -1.0500 H     1 <1>   0.0800 
 32 H       -0.5550    -6.4190     0.5300 H     1 <1>   0.1500 
 33 H       -0.1330    -5.2860    -3.5640 H     1 <1>   0.1500 
 34 H        5.7030     4.5210    -0.6580 H     1 <1>   0.0800 
 35 H        4.8870     5.7030    -1.6540 H     1 <1>   0.0800 
 36 H        4.8560     4.0110    -2.0990 H     1 <1>   0.0800 
 37 H       -1.0380    -6.8120    -1.8600 H     1 <1>   0.1500 
@<TRIPOS>BOND
  1   1   2  2   
  2   2   3  am  
  3   2   4  1   
  4   3   5  1   
  5   3  22  1   
  6   4   6  1   
  7   4   7  1   
  8   4  23  1   
  9   5   8  1   
 10   5   9  2   
 11   6  10  1   
 12   7  11  1   
 13   7  24  1   
 14   7  25  1   
 15   8  12  1   
 16   9  13  1   
 17   9  14  1   
 18  10  15  ar  
 19  10  16  ar  
 20  11  15  1   
 21  12  13  2   
 22  13  17  1   
 23  14  26  1   
 24  14  27  1   
 25  14  28  1   
 26  15  18  ar  
 27  16  19  ar  
 28  16  29  1   
 29  17  20  1   
 30  17  30  1   
 31  17  31  1   
 32  18  21  ar  
 33  18  32  1   
 34  19  21  ar  
 35  19  33  1   
 36  20  34  1   
 37  20  35  1   
 38  20  36  1   
 39  21  37  1   
@<TRIPOS>SUBSTRUCTURE
  1 ****   3 GROUP 4 **** **** 0

# MOE 2024.06 (io_trps.svl 2023.06)
