@<TRIPOS>MOLECULE
NONAME
37 38 1 0 0 
SMALL
USER_CHARGES


@<TRIPOS>ATOM
  1 O       -1.3850     0.7960     0.2030 O.2   1 <1>  -0.5700 
  2 C       -0.8160     1.8510     0.3470 C.2   1 <1>   0.5690 
  3 N       -0.8600     2.8480    -0.5960 N.am  1 <1>  -0.6600 
  4 C       -0.0150     2.0410     1.6250 C.3   1 <1>  -0.0990 
  5 C       -0.2390     4.1980    -0.4070 C.3   1 <1>   0.1400 
  6 C       -1.6210     2.6900    -1.8660 C.3   1 <1>   0.0600 
  7 C        0.2350     3.5140     1.9820 C.3   1 <1>  -0.1600 
  8 C        0.7660     4.2570     0.7570 C.3   1 <1>   0.2890 
  9 N        1.0160     5.6580     1.1380 N.pl3 1 <1>  -0.8690 
 10 C        1.9190     6.4850     0.5860 C.ar  1 <1>   0.7200 
 11 N        2.1030     7.6210     1.2380 N.ar  1 <1>  -0.6200 
 12 N        2.5280     6.1040    -0.5290 N.ar  1 <1>  -0.6200 
 13 C        2.9680     8.4610     0.7290 C.ar  1 <1>   0.1670 
 14 C        3.3830     6.9640    -1.0240 C.ar  1 <1>   0.1600 
 15 C        3.6470     8.2040    -0.4620 C.ar  1 <1>   0.0860 
 16 C        3.1950     9.7200     1.5490 C.3   1 <1>  -0.0970 
 17 C        4.5620     9.0870    -1.1290 C.2   1 <1>   0.4230 
 18 O        5.5940     8.7020    -1.6120 O.2   1 <1>  -0.5700 
 19 C        4.2320    10.5550    -1.3190 C.3   1 <1>  -0.1790 
 20 H        0.9250     1.5370     1.4960 H     1 <1>   0.0800 
 21 H       -0.5370     1.5600     2.4330 H     1 <1>   0.0800 
 22 H       -1.0270     4.9060    -0.2220 H     1 <1>   0.0800 
 23 H        0.2710     4.4840    -1.3100 H     1 <1>   0.0800 
 24 H       -2.0420     1.7020    -1.9410 H     1 <1>   0.0800 
 25 H       -0.9660     2.8480    -2.7040 H     1 <1>   0.0800 
 26 H       -2.4230     3.4070    -1.9010 H     1 <1>   0.0800 
 27 H        0.9460     3.5730     2.7860 H     1 <1>   0.0800 
 28 H       -0.6920     3.9610     2.2970 H     1 <1>   0.0800 
 29 H        1.6920     3.8060     0.4400 H     1 <1>   0.0800 
 30 H        0.6140     5.9860     2.0140 H     1 <1>   0.4000 
 31 H        3.9050     6.6890    -1.9270 H     1 <1>   0.1500 
 32 H        2.9630     9.5320     2.5830 H     1 <1>   0.0800 
 33 H        2.5530    10.5080     1.1990 H     1 <1>   0.0800 
 34 H        4.2200    10.0350     1.4980 H     1 <1>   0.0800 
 35 H        3.1790    10.7300    -1.2020 H     1 <1>   0.0800 
 36 H        4.5180    10.8570    -2.3100 H     1 <1>   0.0800 
 37 H        4.7810    11.1480    -0.6120 H     1 <1>   0.0800 
@<TRIPOS>BOND
  1   1   2  2   
  2   2   3  am  
  3   2   4  1   
  4   3   5  1   
  5   3   6  1   
  6   4   7  1   
  7   4  20  1   
  8   4  21  1   
  9   5   8  1   
 10   5  22  1   
 11   5  23  1   
 12   6  24  1   
 13   6  25  1   
 14   6  26  1   
 15   7   8  1   
 16   7  27  1   
 17   7  28  1   
 18   8   9  1   
 19   8  29  1   
 20   9  10  1   
 21   9  30  1   
 22  10  11  ar  
 23  10  12  ar  
 24  11  13  ar  
 25  12  14  ar  
 26  13  15  ar  
 27  13  16  1   
 28  14  15  ar  
 29  14  31  1   
 30  15  17  1   
 31  16  32  1   
 32  16  33  1   
 33  16  34  1   
 34  17  18  2   
 35  17  19  1   
 36  19  35  1   
 37  19  36  1   
 38  19  37  1   
@<TRIPOS>SUBSTRUCTURE
  1 ****  10 GROUP 4 **** **** 0

# MOE 2024.06 (io_trps.svl 2023.06)
