@<TRIPOS>MOLECULE
NONAME
40 42 1 0 0 
SMALL
USER_CHARGES


@<TRIPOS>ATOM
  1 O        0.3110    -0.6260    -1.2330 O.2   1 <1>  -0.5700 
  2 C        1.0060    -1.4720    -0.7210 C.2   1 <1>   0.5690 
  3 N        0.6150    -2.2160     0.3570 N.am  1 <1>  -0.6600 
  4 C        2.3890    -1.7310    -1.2840 C.3   1 <1>  -0.0990 
  5 C        1.5310    -3.2350     0.9280 C.3   1 <1>   0.1400 
  6 C       -0.6970    -2.0330     1.0310 C.3   1 <1>   0.0600 
  7 C        2.6570    -3.2440    -1.4130 C.3   1 <1>  -0.0800 
  8 C        2.1550    -4.0700    -0.2060 C.3   1 <1>  -0.0800 
  9 C        4.1440    -3.5670    -1.6080 C.3   1 <1>  -0.1600 
 10 C        3.3340    -4.9240     0.2830 C.3   1 <1>  -0.1600 
 11 C        4.3960    -4.8460    -0.8090 C.3   1 <1>   0.2200 
 12 N        5.7780    -4.9940    -0.2600 N.am  1 <1>  -0.6600 
 13 C        6.6040    -3.9870     0.2490 C.2   1 <1>   0.6300 
 14 C        6.3260    -6.3710    -0.4500 C.3   1 <1>   0.0600 
 15 O        7.8100    -4.1720     0.1430 O.2   1 <1>  -0.5700 
 16 C        6.1770    -2.7400     0.8930 C.2   1 <1>   0.5100 
 17 N        5.0050    -2.3700     1.3270 N.2   1 <1>  -0.5120 
 18 N        7.1000    -1.7270     1.1290 N.am  1 <1>  -0.4900 
 19 N        5.1850    -1.1110     1.8340 N.am  1 <1>  -0.3680 
 20 C        6.4640    -0.7220     1.7190 C.2   1 <1>   0.6900 
 21 O        6.9510     0.3360     2.0830 O.2   1 <1>  -0.5700 
 22 H        2.4830    -1.2550    -2.2430 H     1 <1>   0.0800 
 23 H        3.0950    -1.2790    -0.6130 H     1 <1>   0.0800 
 24 H        2.3010    -2.7260     1.4820 H     1 <1>   0.0800 
 25 H        0.9970    -3.8800     1.6040 H     1 <1>   0.0800 
 26 H       -0.5430    -1.7690     2.0630 H     1 <1>   0.0800 
 27 H       -1.2640    -2.9450     0.9760 H     1 <1>   0.0800 
 28 H       -1.2590    -1.2480     0.5550 H     1 <1>   0.0800 
 29 H        2.1200    -3.5950    -2.2790 H     1 <1>   0.0800 
 30 H        1.3900    -4.7380    -0.5650 H     1 <1>   0.0800 
 31 H        4.7450    -2.7500    -1.2680 H     1 <1>   0.0800 
 32 H        4.3610    -3.7280    -2.6490 H     1 <1>   0.0800 
 33 H        3.0270    -5.9430     0.4350 H     1 <1>   0.0800 
 34 H        3.7180    -4.5500     1.2130 H     1 <1>   0.0800 
 35 H        4.2070    -5.6620    -1.4870 H     1 <1>   0.0800 
 36 H        5.5930    -7.1030    -0.1600 H     1 <1>   0.0800 
 37 H        7.2060    -6.5200     0.1530 H     1 <1>   0.0800 
 38 H        6.5880    -6.5170    -1.4830 H     1 <1>   0.0800 
 39 H        8.0960    -1.7800     0.9370 H     1 <1>   0.3700 
 40 H        4.4650    -0.5220     2.2620 H     1 <1>   0.3700 
@<TRIPOS>BOND
  1   1   2  2   
  2   2   3  am  
  3   2   4  1   
  4   3   5  1   
  5   3   6  1   
  6   4   7  1   
  7   4  22  1   
  8   4  23  1   
  9   5   8  1   
 10   5  24  1   
 11   5  25  1   
 12   6  26  1   
 13   6  27  1   
 14   6  28  1   
 15   7   8  1   
 16   7   9  1   
 17   7  29  1   
 18   8  10  1   
 19   8  30  1   
 20   9  11  1   
 21   9  31  1   
 22   9  32  1   
 23  10  11  1   
 24  10  33  1   
 25  10  34  1   
 26  11  12  1   
 27  11  35  1   
 28  12  13  am  
 29  12  14  1   
 30  13  15  2   
 31  13  16  1   
 32  14  36  1   
 33  14  37  1   
 34  14  38  1   
 35  16  17  2   
 36  16  18  1   
 37  17  19  1   
 38  18  20  am  
 39  18  39  1   
 40  19  20  am  
 41  19  40  1   
 42  20  21  2   
@<TRIPOS>SUBSTRUCTURE
  1 ****  17 GROUP 4 **** **** 0

# MOE 2024.06 (io_trps.svl 2023.06)
