@<TRIPOS>MOLECULE
NONAME
54 57 1 0 0 
SMALL
USER_CHARGES


@<TRIPOS>ATOM
  1 O       -0.8190     0.2930    -0.4580 O.3   1 <1>  -0.3630 
  2 C       -0.9570    -1.0110    -0.1100 C.ar  1 <1>   0.0820 
  3 C       -1.8590     1.2310    -0.2730 C.3   1 <1>   0.0400 
  4 C        0.1360    -1.8500    -0.3010 C.ar  1 <1>  -0.1440 
  5 C       -2.1350    -1.5280     0.4250 C.ar  1 <1>  -0.1500 
  6 C        0.0360    -3.1910     0.0390 C.ar  1 <1>  -0.1500 
  7 C        1.4470    -1.3130    -0.8780 C.3   1 <1>   0.2390 
  8 C       -2.2210    -2.8660     0.7640 C.ar  1 <1>  -0.1500 
  9 C       -1.1350    -3.7060     0.5700 C.ar  1 <1>  -0.1430 
 10 N        2.5890    -1.6980    -0.0270 N.pl3 1 <1>   0.3140 
 11 C       -1.2260    -5.1750     0.9400 C.3   1 <1>   0.4870 
 12 N        3.3840    -2.7310    -0.2920 N.2   1 <1>  -0.7070 
 13 C        2.9910    -1.1330     1.1140 C.2   1 <1>   0.0360 
 14 N       -1.2310    -5.9840    -0.3100 N.4   1 <1>  -0.9590 
 15 C        4.2140    -2.7000     0.7000 C.2   1 <1>   0.3660 
 16 N        4.0140    -1.7350     1.6050 N.2   1 <1>  -0.5650 
 17 C       -2.4850    -5.7370    -1.0940 C.3   1 <1>   0.3430 
 18 C       -1.2010    -7.4460     0.0070 C.3   1 <1>   0.3430 
 19 C       -3.4350    -6.8770    -0.7190 C.3   1 <1>   0.2000 
 20 C       -2.4760    -8.0590    -0.5850 C.3   1 <1>  -0.0800 
 21 O       -4.0050    -6.5850     0.5180 O.3   1 <1>  -0.6800 
 22 C       -2.9880    -9.2710     0.2170 C.3   1 <1>  -0.0170 
 23 C       -1.8790   -10.2990     0.3740 C.ar  1 <1>  -0.1430 
 24 C       -1.2330   -10.4980     1.5780 C.ar  1 <1>  -0.1500 
 25 C       -1.4560   -11.0800    -0.6830 C.ar  1 <1>  -0.1500 
 26 C       -0.2100   -11.4290     1.6590 C.ar  1 <1>   0.1600 
 27 C       -0.4210   -11.9830    -0.4960 C.ar  1 <1>   0.1600 
 28 N        0.2170   -12.1640     0.6480 N.ar  1 <1>  -0.6200 
 29 H       -1.5090     2.1900    -0.6110 H     1 <1>   0.0800 
 30 H       -2.1050     1.2800     0.7730 H     1 <1>   0.0800 
 31 H       -2.7110     0.9290    -0.8570 H     1 <1>   0.0800 
 32 H       -2.9930    -0.9040     0.5880 H     1 <1>   0.1500 
 33 H        0.8900    -3.8340    -0.1060 H     1 <1>   0.1500 
 34 H        1.4400    -0.2420    -0.9590 H     1 <1>   0.0800 
 35 H        1.6030    -1.7200    -1.8590 H     1 <1>   0.0800 
 36 H       -3.1400    -3.2420     1.1820 H     1 <1>   0.1500 
 37 H       -2.1260    -5.3580     1.5040 H     1 <1>   0.0800 
 38 H       -0.3780    -5.4390     1.5510 H     1 <1>   0.0800 
 39 H        2.5010    -0.2810     1.5510 H     1 <1>   0.1500 
 40 H       -0.4130    -5.6990    -0.8640 H     1 <1>   0.4500 
 41 H        5.0270    -3.4000     0.8160 H     1 <1>   0.1500 
 42 H       -2.9240    -4.7760    -0.8810 H     1 <1>   0.0800 
 43 H       -2.2660    -5.7950    -2.1470 H     1 <1>   0.0800 
 44 H       -0.3250    -7.9220    -0.4070 H     1 <1>   0.0800 
 45 H       -1.2000    -7.5910     1.0750 H     1 <1>   0.0800 
 46 H       -4.2180    -7.0220    -1.4460 H     1 <1>   0.0800 
 47 H       -2.2300    -8.3990    -1.5760 H     1 <1>   0.0800 
 48 H       -4.8080    -7.1280     0.6740 H     1 <1>   0.4000 
 49 H       -3.8230    -9.7220    -0.2910 H     1 <1>   0.0800 
 50 H       -3.3250    -8.9700     1.1940 H     1 <1>   0.0800 
 51 H       -1.5110    -9.9490     2.4590 H     1 <1>   0.1500 
 52 H       -1.9170   -11.0060    -1.6510 H     1 <1>   0.1500 
 53 H        0.2840   -11.5770     2.6060 H     1 <1>   0.1500 
 54 H       -0.1020   -12.5870    -1.3290 H     1 <1>   0.1500 
@<TRIPOS>BOND
  1   1   2  1   
  2   1   3  1   
  3   2   4  ar  
  4   2   5  ar  
  5   3  29  1   
  6   3  30  1   
  7   3  31  1   
  8   4   6  ar  
  9   4   7  1   
 10   5   8  ar  
 11   5  32  1   
 12   6   9  ar  
 13   6  33  1   
 14   7  10  1   
 15   7  34  1   
 16   7  35  1   
 17   8   9  ar  
 18   8  36  1   
 19   9  11  1   
 20  10  12  1   
 21  10  13  1   
 22  11  14  1   
 23  11  37  1   
 24  11  38  1   
 25  12  15  2   
 26  13  16  2   
 27  13  39  1   
 28  14  17  1   
 29  14  18  1   
 30  14  40  1   
 31  15  16  1   
 32  15  41  1   
 33  17  19  1   
 34  17  42  1   
 35  17  43  1   
 36  18  20  1   
 37  18  44  1   
 38  18  45  1   
 39  19  20  1   
 40  19  21  1   
 41  19  46  1   
 42  20  22  1   
 43  20  47  1   
 44  21  48  1   
 45  22  23  1   
 46  22  49  1   
 47  22  50  1   
 48  23  24  ar  
 49  23  25  ar  
 50  24  26  ar  
 51  24  51  1   
 52  25  27  ar  
 53  25  52  1   
 54  26  28  ar  
 55  26  53  1   
 56  27  28  ar  
 57  27  54  1   
@<TRIPOS>SUBSTRUCTURE
  1 ****  11 GROUP 4 **** **** 0

# MOE 2024.06 (io_trps.svl 2023.06)
