@<TRIPOS>MOLECULE
NONAME
50 53 1 0 0 
SMALL
USER_CHARGES


@<TRIPOS>ATOM
  1 S       -0.6590    -0.0430    -1.8020 S.3   1 <1>  -0.0800 
  2 C       -1.4480     1.1060    -0.7210 C.2   1 <1>   0.3330 
  3 C        0.7600     0.9520    -1.8360 C.2   1 <1>  -0.1100 
  4 N       -0.6760     2.1120    -0.4490 N.2   1 <1>  -0.5650 
  5 C       -2.7730     0.8580    -0.2540 C.2   1 <1>   0.0590 
  6 C        0.5660     2.0400    -1.0660 C.2   1 <1>   0.1730 
  7 C       -3.4290     1.6040     0.7150 C.2   1 <1>   0.2000 
  8 C       -3.6510    -0.1590    -0.6770 C.2   1 <1>   0.4950 
  9 C        1.5300     3.1040    -0.8430 C.ar  1 <1>   0.0540 
 10 N       -2.9690     2.6670     1.3850 N.pl3 1 <1>  -0.9000 
 11 N       -4.6710     1.1610     0.9690 N.pl3 1 <1>  -0.8380 
 12 O       -3.5120    -1.0380    -1.5110 O.2   1 <1>  -0.5700 
 13 C       -4.9520    -0.0180     0.1000 C.3   1 <1>   0.2700 
 14 C        1.1220     4.4120    -0.5810 C.ar  1 <1>  -0.1500 
 15 C        2.9020     2.8570    -0.8870 C.ar  1 <1>  -0.1500 
 16 C       -5.7870     1.7860     1.7650 C.3   1 <1>   0.2700 
 17 C        2.0400     5.4250    -0.3750 C.ar  1 <1>  -0.1500 
 18 C        3.8280     3.8650    -0.6840 C.ar  1 <1>  -0.1500 
 19 C       -7.0510     2.1050     0.9510 C.2   1 <1>   0.5690 
 20 C        3.3990     5.1640    -0.4260 C.ar  1 <1>   0.0830 
 21 O       -8.0390     1.4350     1.1530 O.2   1 <1>  -0.5700 
 22 N       -7.0580     3.1150     0.0240 N.am  1 <1>  -0.6600 
 23 O        4.2340     6.2100    -0.2150 O.3   1 <1>  -0.3620 
 24 C       -8.2600     3.4800    -0.7530 C.3   1 <1>   0.1400 
 25 C       -5.8900     3.9320    -0.3770 C.3   1 <1>   0.1400 
 26 C        5.6350     6.0510    -0.2430 C.3   1 <1>   0.0400 
 27 C       -7.8840     4.7810    -1.4520 C.3   1 <1>  -0.1600 
 28 C       -6.3650     4.7170    -1.5940 C.3   1 <1>  -0.1600 
 29 H        1.5910     0.6230    -2.4310 H     1 <1>   0.1500 
 30 H       -2.0120     3.0080     1.2130 H     1 <1>   0.4000 
 31 H       -3.4340     3.0690     2.1970 H     1 <1>   0.4000 
 32 H       -5.1420    -0.8950     0.6910 H     1 <1>   0.0800 
 33 H       -5.7700     0.1770    -0.5700 H     1 <1>   0.0800 
 34 H        0.0710     4.6360    -0.5400 H     1 <1>   0.1500 
 35 H        3.2520     1.8590    -1.0770 H     1 <1>   0.1500 
 36 H       -5.4450     2.6960     2.2180 H     1 <1>   0.0800 
 37 H       -6.0600     1.1130     2.5570 H     1 <1>   0.0800 
 38 H        1.7090     6.4280    -0.1750 H     1 <1>   0.1500 
 39 H        4.8730     3.6250    -0.7270 H     1 <1>   0.1500 
 40 H       -9.1130     3.6030    -0.1070 H     1 <1>   0.0800 
 41 H       -8.4600     2.7050    -1.4720 H     1 <1>   0.0800 
 42 H       -5.0450     3.3130    -0.6240 H     1 <1>   0.0800 
 43 H       -5.6300     4.6010     0.4260 H     1 <1>   0.0800 
 44 H        6.0830     7.0090    -0.0500 H     1 <1>   0.0800 
 45 H        5.9280     5.7000    -1.2160 H     1 <1>   0.0800 
 46 H        5.9220     5.3520     0.5230 H     1 <1>   0.0800 
 47 H       -8.1580     5.6080    -0.8210 H     1 <1>   0.0800 
 48 H       -8.3820     4.8830    -2.4000 H     1 <1>   0.0800 
 49 H       -6.1050     4.1700    -2.4840 H     1 <1>   0.0800 
 50 H       -5.9150     5.6930    -1.6410 H     1 <1>   0.0800 
@<TRIPOS>BOND
  1   1   2  1   
  2   1   3  1   
  3   2   4  2   
  4   2   5  1   
  5   3   6  2   
  6   3  29  1   
  7   4   6  1   
  8   5   7  2   
  9   5   8  1   
 10   6   9  1   
 11   7  10  1   
 12   7  11  1   
 13   8  12  2   
 14   8  13  1   
 15   9  14  ar  
 16   9  15  ar  
 17  10  30  1   
 18  10  31  1   
 19  11  13  1   
 20  11  16  1   
 21  13  32  1   
 22  13  33  1   
 23  14  17  ar  
 24  14  34  1   
 25  15  18  ar  
 26  15  35  1   
 27  16  19  1   
 28  16  36  1   
 29  16  37  1   
 30  17  20  ar  
 31  17  38  1   
 32  18  20  ar  
 33  18  39  1   
 34  19  21  2   
 35  19  22  am  
 36  20  23  1   
 37  22  24  1   
 38  22  25  1   
 39  23  26  1   
 40  24  27  1   
 41  24  40  1   
 42  24  41  1   
 43  25  28  1   
 44  25  42  1   
 45  25  43  1   
 46  26  44  1   
 47  26  45  1   
 48  26  46  1   
 49  27  28  1   
 50  27  47  1   
 51  27  48  1   
 52  28  49  1   
 53  28  50  1   
@<TRIPOS>SUBSTRUCTURE
  1 ****   4 GROUP 4 **** **** 0

# MOE 2024.06 (io_trps.svl 2023.06)
