@<TRIPOS>MOLECULE
NONAME
39 41 1 0 0 
SMALL
USER_CHARGES


@<TRIPOS>ATOM
  1 F        0.7890    -0.7700     1.6110 F     1 <1>  -0.3400 
  2 C       -0.0060    -1.7350     1.1560 C.3   1 <1>   1.1640 
  3 F       -0.2640    -2.4980     2.2150 F     1 <1>  -0.3400 
  4 F       -1.1420    -1.1250     0.8330 F     1 <1>  -0.3400 
  5 C        0.6320    -2.4950    -0.0020 C.ar  1 <1>  -0.1440 
  6 C       -0.0880    -3.5230    -0.6090 C.ar  1 <1>   0.4100 
  7 C        1.9000    -2.1970    -0.4690 C.ar  1 <1>  -0.1500 
  8 N        0.3760    -4.2390    -1.6280 N.ar  1 <1>  -0.6200 
  9 N       -1.3460    -3.8710    -0.1650 N.pl3 1 <1>  -0.8380 
 10 C        2.3830    -2.9460    -1.5220 C.ar  1 <1>  -0.1500 
 11 C        1.5890    -3.9420    -2.0550 C.ar  1 <1>   0.1600 
 12 C       -2.4490    -3.9000    -1.1700 C.3   1 <1>   0.2090 
 13 C       -1.4290    -5.1130     0.6620 C.3   1 <1>   0.2090 
 14 C       -3.4500    -4.9200    -0.6330 C.3   1 <1>   0.2000 
 15 C       -2.5840    -5.9480     0.0910 C.3   1 <1>  -0.0800 
 16 O       -4.2470    -4.2930     0.3120 O.3   1 <1>  -0.6800 
 17 C       -2.0700    -7.0390    -0.8710 C.3   1 <1>  -0.0170 
 18 C       -1.5520    -8.2530    -0.1120 C.ar  1 <1>   0.1670 
 19 N       -0.3210    -8.1770     0.3710 N.ar  1 <1>  -0.6200 
 20 C       -2.3730    -9.3610     0.0410 C.ar  1 <1>  -0.1500 
 21 C        0.1080    -9.2410     1.0280 C.ar  1 <1>   0.1600 
 22 C       -1.9150   -10.4630     0.7300 C.ar  1 <1>  -0.1500 
 23 C       -0.6350   -10.3910     1.2340 C.ar  1 <1>  -0.1500 
 24 H        2.5060    -1.4150    -0.0420 H     1 <1>   0.1500 
 25 H        3.3630    -2.7610    -1.9240 H     1 <1>   0.1500 
 26 H        1.9700    -4.5250    -2.8760 H     1 <1>   0.1500 
 27 H       -2.8970    -2.9280    -1.2840 H     1 <1>   0.0800 
 28 H       -2.0780    -4.2300    -2.1240 H     1 <1>   0.0800 
 29 H       -0.4950    -5.6490     0.6470 H     1 <1>   0.0800 
 30 H       -1.6470    -4.8380     1.6800 H     1 <1>   0.0800 
 31 H       -4.0870    -5.3350    -1.3940 H     1 <1>   0.0800 
 32 H       -3.1410    -6.4240     0.8790 H     1 <1>   0.0800 
 33 H       -3.6640    -3.7460     0.8800 H     1 <1>   0.4000 
 34 H       -1.2860    -6.6480    -1.4980 H     1 <1>   0.0800 
 35 H       -2.8690    -7.3550    -1.5160 H     1 <1>   0.0800 
 36 H       -3.3650    -9.3640    -0.3710 H     1 <1>   0.1500 
 37 H        1.1080    -9.1940     1.4250 H     1 <1>   0.1500 
 38 H       -2.5260   -11.3380     0.8680 H     1 <1>   0.1500 
 39 H       -0.2130   -11.2140     1.7810 H     1 <1>   0.1500 
@<TRIPOS>BOND
  1   1   2  1   
  2   2   3  1   
  3   2   4  1   
  4   2   5  1   
  5   5   6  ar  
  6   5   7  ar  
  7   6   8  ar  
  8   6   9  1   
  9   7  10  ar  
 10   7  24  1   
 11   8  11  ar  
 12   9  12  1   
 13   9  13  1   
 14  10  11  ar  
 15  10  25  1   
 16  11  26  1   
 17  12  14  1   
 18  12  27  1   
 19  12  28  1   
 20  13  15  1   
 21  13  29  1   
 22  13  30  1   
 23  14  15  1   
 24  14  16  1   
 25  14  31  1   
 26  15  17  1   
 27  15  32  1   
 28  16  33  1   
 29  17  18  1   
 30  17  34  1   
 31  17  35  1   
 32  18  19  ar  
 33  18  20  ar  
 34  19  21  ar  
 35  20  22  ar  
 36  20  36  1   
 37  21  23  ar  
 38  21  37  1   
 39  22  23  ar  
 40  22  38  1   
 41  23  39  1   
@<TRIPOS>SUBSTRUCTURE
  1 ****  13 GROUP 4 **** **** 0

# MOE 2024.06 (io_trps.svl 2023.06)
