@<TRIPOS>MOLECULE
NONAME
51 54 1 0 0 
SMALL
USER_CHARGES


@<TRIPOS>ATOM
  1 S       -0.5930     0.3590     0.0330 S.o2  1 <1>   1.0900 
  2 O        0.7800    -0.0190    -0.2050 O.2   1 <1>  -0.6500 
  3 O       -0.9420     1.5910     0.7000 O.2   1 <1>  -0.6500 
  4 C       -1.3970    -1.0170     0.8000 C.3   1 <1>  -0.0550 
  5 C       -1.4810     0.2030    -1.5090 C.3   1 <1>  -0.0550 
  6 C       -1.6300    -1.9970    -0.3470 C.3   1 <1>   0.1760 
  7 C       -2.1580    -1.1790    -1.5450 C.3   1 <1>  -0.1600 
  8 N       -2.5760    -3.0760     0.0320 N.pl3 1 <1>   0.3140 
  9 N       -3.7340    -2.7940     0.6560 N.2   1 <1>  -0.7070 
 10 C       -2.4590    -4.4050    -0.2220 C.2   1 <1>  -0.3320 
 11 C       -4.3360    -3.9360     0.7800 C.2   1 <1>   0.1080 
 12 C       -3.5850    -4.9880     0.2450 C.2   1 <1>   0.0630 
 13 C       -1.2690    -5.0470    -0.9220 C.3   1 <1>  -0.0600 
 14 C       -5.6880    -4.0470     1.4490 C.3   1 <1>  -0.0590 
 15 N       -3.8810    -6.3730     0.1980 N.am  1 <1>  -0.4930 
 16 C       -5.0330    -6.9950    -0.2090 C.2   1 <1>   0.5440 
 17 O       -6.0060    -6.3370    -0.5180 O.2   1 <1>  -0.5700 
 18 C       -5.0890    -8.4380    -0.2590 C.ar  1 <1>   0.0860 
 19 C       -4.0150    -9.1890    -0.7260 C.ar  1 <1>   0.1600 
 20 C       -6.2100    -9.1420     0.1540 C.ar  1 <1>  -0.1500 
 21 N       -3.9540   -10.5070    -0.7780 N.ar  1 <1>  -0.6200 
 22 C       -6.1830   -10.5200     0.1030 C.ar  1 <1>  -0.1430 
 23 C       -5.0350   -11.1530    -0.3670 C.ar  1 <1>   0.1670 
 24 C       -7.4170   -11.2970     0.5500 C.3   1 <1>  -0.0170 
 25 C       -4.9380   -12.6720    -0.4260 C.3   1 <1>  -0.0170 
 26 C       -7.1070   -12.7660     0.8540 C.3   1 <1>  -0.1600 
 27 C       -6.2910   -13.3820    -0.2860 C.3   1 <1>  -0.1600 
 28 H       -2.3380    -0.7000     1.2100 H     1 <1>   0.0800 
 29 H       -0.7900    -1.4490     1.5720 H     1 <1>   0.0800 
 30 H       -0.8020     0.3120    -2.3340 H     1 <1>   0.0800 
 31 H       -2.2300     0.9700    -1.5840 H     1 <1>   0.0800 
 32 H       -0.6860    -2.4380    -0.6120 H     1 <1>   0.0800 
 33 H       -1.9570    -1.6850    -2.4730 H     1 <1>   0.0800 
 34 H       -3.2230    -1.0430    -1.4450 H     1 <1>   0.0800 
 35 H       -1.1330    -4.6120    -1.8960 H     1 <1>   0.0800 
 36 H       -1.4260    -6.1030    -1.0480 H     1 <1>   0.0800 
 37 H       -0.3730    -4.9030    -0.3440 H     1 <1>   0.0800 
 38 H       -5.8040    -3.2620     2.1730 H     1 <1>   0.0800 
 39 H       -5.7840    -4.9960     1.9410 H     1 <1>   0.0800 
 40 H       -6.4600    -3.9560     0.7070 H     1 <1>   0.0800 
 41 H       -3.1100    -6.9700     0.4880 H     1 <1>   0.3700 
 42 H       -3.1470    -8.6640    -1.0850 H     1 <1>   0.1500 
 43 H       -7.0780    -8.6090     0.5030 H     1 <1>   0.1500 
 44 H       -8.1510   -11.2460    -0.2360 H     1 <1>   0.0800 
 45 H       -7.8410   -10.8370     1.4260 H     1 <1>   0.0800 
 46 H       -4.2860   -12.9900     0.3690 H     1 <1>   0.0800 
 47 H       -4.4820   -12.9610    -1.3560 H     1 <1>   0.0800 
 48 H       -8.0270   -13.3090     0.9830 H     1 <1>   0.0800 
 49 H       -6.5480   -12.8330     1.7720 H     1 <1>   0.0800 
 50 H       -6.1300   -14.4300    -0.1010 H     1 <1>   0.0800 
 51 H       -6.8390   -13.2880    -1.2080 H     1 <1>   0.0800 
@<TRIPOS>BOND
  1   1   2  2   
  2   1   3  2   
  3   1   4  1   
  4   1   5  1   
  5   4   6  1   
  6   4  28  1   
  7   4  29  1   
  8   5   7  1   
  9   5  30  1   
 10   5  31  1   
 11   6   7  1   
 12   6   8  1   
 13   6  32  1   
 14   7  33  1   
 15   7  34  1   
 16   8   9  1   
 17   8  10  1   
 18   9  11  2   
 19  10  12  2   
 20  10  13  1   
 21  11  12  1   
 22  11  14  1   
 23  12  15  1   
 24  13  35  1   
 25  13  36  1   
 26  13  37  1   
 27  14  38  1   
 28  14  39  1   
 29  14  40  1   
 30  15  16  am  
 31  15  41  1   
 32  16  17  2   
 33  16  18  1   
 34  18  19  ar  
 35  18  20  ar  
 36  19  21  ar  
 37  19  42  1   
 38  20  22  ar  
 39  20  43  1   
 40  21  23  ar  
 41  22  23  ar  
 42  22  24  1   
 43  23  25  1   
 44  24  26  1   
 45  24  44  1   
 46  24  45  1   
 47  25  27  1   
 48  25  46  1   
 49  25  47  1   
 50  26  27  1   
 51  26  48  1   
 52  26  49  1   
 53  27  50  1   
 54  27  51  1   
@<TRIPOS>SUBSTRUCTURE
  1 ****  15 GROUP 4 **** **** 0

# MOE 2024.06 (io_trps.svl 2023.06)
