@<TRIPOS>MOLECULE
NONAME
46 47 1 0 0 
SMALL
USER_CHARGES


@<TRIPOS>ATOM
  1 CL       2.2080    -1.5150    -0.5920 Cl    1 <1>  -0.1770 
  2 C        1.0340    -2.8050    -0.5090 C.ar  1 <1>   0.1770 
  3 C        1.3510    -4.0450    -1.0350 C.ar  1 <1>  -0.1500 
  4 C       -0.1940    -2.5640     0.0800 C.ar  1 <1>  -0.1500 
  5 C        0.4270    -5.0780    -0.9740 C.ar  1 <1>  -0.1440 
  6 C       -1.1190    -3.5900     0.1470 C.ar  1 <1>  -0.1500 
  7 C       -0.8060    -4.8410    -0.3660 C.ar  1 <1>   0.0830 
  8 C        0.7820    -6.4300    -1.5790 C.3   1 <1>  -0.0960 
  9 O       -1.7360    -5.8150    -0.2710 O.3   1 <1>  -0.3630 
 10 C       -1.5420    -6.7980     0.7350 C.3   1 <1>   0.2610 
 11 C       -1.6410    -8.2260     0.1550 C.2   1 <1>   0.5690 
 12 C       -2.5100    -6.5060     1.8890 C.3   1 <1>  -0.2400 
 13 O       -0.7040    -8.9530     0.4020 O.2   1 <1>  -0.5700 
 14 N       -2.7050    -8.6970    -0.5880 N.am  1 <1>  -0.6600 
 15 C       -2.5980   -10.0100    -1.2900 C.3   1 <1>   0.3200 
 16 C       -3.9490    -7.9240    -0.9090 C.3   1 <1>   0.1400 
 17 C       -3.5720   -11.0120    -0.7000 C.2   1 <1>  -0.3320 
 18 C       -5.1070    -8.2940     0.0270 C.3   1 <1>   0.1200 
 19 N       -3.4860   -11.5350     0.5390 N.pl3 1 <1>   0.0480 
 20 C       -4.6630   -11.5650    -1.2760 C.2   1 <1>   0.0770 
 21 O       -6.0920    -7.3180    -0.0560 O.3   1 <1>  -0.6800 
 22 C       -4.5470   -12.3690     0.6310 C.2   1 <1>   0.0360 
 23 C       -2.4630   -11.2890     1.5710 C.3   1 <1>   0.0160 
 24 N       -5.2780   -12.4140    -0.4350 N.2   1 <1>  -0.5650 
 25 H        2.3150    -4.1880    -1.4890 H     1 <1>   0.1500 
 26 H       -0.4160    -1.5890     0.4750 H     1 <1>   0.1500 
 27 H       -2.0820    -3.4260     0.5960 H     1 <1>   0.1500 
 28 H        1.5740    -6.3290    -2.2990 H     1 <1>   0.0800 
 29 H       -0.0720    -6.8520    -2.0790 H     1 <1>   0.0800 
 30 H        1.1050    -7.1070    -0.8090 H     1 <1>   0.0800 
 31 H       -0.5390    -6.6860     1.1110 H     1 <1>   0.0800 
 32 H       -3.5240    -6.4660     1.5430 H     1 <1>   0.0800 
 33 H       -2.2560    -5.5670     2.3450 H     1 <1>   0.0800 
 34 H       -2.4260    -7.2770     2.6340 H     1 <1>   0.0800 
 35 H       -1.5990   -10.4060    -1.2260 H     1 <1>   0.0800 
 36 H       -2.8160    -9.8680    -2.3340 H     1 <1>   0.0800 
 37 H       -4.2440    -8.1240    -1.9240 H     1 <1>   0.0800 
 38 H       -3.7610    -6.8710    -0.8330 H     1 <1>   0.0800 
 39 H       -4.7810    -8.3570     1.0500 H     1 <1>   0.0800 
 40 H       -5.5510    -9.2300    -0.2640 H     1 <1>   0.0800 
 41 H       -5.0490   -11.3940    -2.2670 H     1 <1>   0.1500 
 42 H       -5.7810    -6.4680     0.3100 H     1 <1>   0.4000 
 43 H       -4.7480   -12.9390     1.5210 H     1 <1>   0.1500 
 44 H       -1.4860   -11.3840     1.1340 H     1 <1>   0.0800 
 45 H       -2.5690   -12.0040     2.3660 H     1 <1>   0.0800 
 46 H       -2.5850   -10.2960     1.9610 H     1 <1>   0.0800 
@<TRIPOS>BOND
  1   1   2  1   
  2   2   3  ar  
  3   2   4  ar  
  4   3   5  ar  
  5   3  25  1   
  6   4   6  ar  
  7   4  26  1   
  8   5   7  ar  
  9   5   8  1   
 10   6   7  ar  
 11   6  27  1   
 12   7   9  1   
 13   8  28  1   
 14   8  29  1   
 15   8  30  1   
 16   9  10  1   
 17  10  11  1   
 18  10  12  1   
 19  10  31  1   
 20  11  13  2   
 21  11  14  am  
 22  12  32  1   
 23  12  33  1   
 24  12  34  1   
 25  14  15  1   
 26  14  16  1   
 27  15  17  1   
 28  15  35  1   
 29  15  36  1   
 30  16  18  1   
 31  16  37  1   
 32  16  38  1   
 33  17  19  1   
 34  17  20  2   
 35  18  21  1   
 36  18  39  1   
 37  18  40  1   
 38  19  22  1   
 39  19  23  1   
 40  20  24  1   
 41  20  41  1   
 42  21  42  1   
 43  22  24  2   
 44  22  43  1   
 45  23  44  1   
 46  23  45  1   
 47  23  46  1   
@<TRIPOS>SUBSTRUCTURE
  1 ****  11 GROUP 4 **** **** 0

# MOE 2024.06 (io_trps.svl 2023.06)
