@<TRIPOS>MOLECULE
NONAME
48 50 1 0 0 
SMALL
USER_CHARGES


@<TRIPOS>ATOM
  1 O       -0.3730     1.6840     2.2220 O.2   1 <1>  -0.5700 
  2 C       -0.1080     2.5260     1.3840 C.2   1 <1>   0.5440 
  3 N       -1.1280     3.2940     0.8570 N.am  1 <1>  -0.6600 
  4 C        1.2730     2.6970     0.9780 C.ar  1 <1>   0.0860 
  5 C       -2.5680     2.9380     1.0520 C.3   1 <1>   0.1400 
  6 C       -0.9300     4.5600     0.1030 C.3   1 <1>   0.1400 
  7 C        1.6510     2.6570    -0.3630 C.ar  1 <1>  -0.1500 
  8 C        2.2770     2.8970     1.9260 C.ar  1 <1>  -0.1500 
  9 C       -3.2790     2.7780    -0.3150 C.3   1 <1>   0.0000 
 10 C       -1.5970     4.4500    -1.2730 C.3   1 <1>  -0.1600 
 11 C        2.9680     2.8370    -0.7320 C.ar  1 <1>   0.0820 
 12 C        3.6020     3.0720     1.5620 C.ar  1 <1>  -0.1500 
 13 C       -4.7700     2.4470    -0.1370 C.3   1 <1>   0.2000 
 14 C       -3.0810     4.0610    -1.1540 C.3   1 <1>  -0.1600 
 15 C       -2.7670     1.5200    -1.0390 C.3   1 <1>  -0.1600 
 16 O        3.3010     2.8080    -2.0330 O.3   1 <1>  -0.5320 
 17 C        3.9630     3.0470     0.2190 C.ar  1 <1>   0.0820 
 18 O       -5.3410     3.1940     0.8970 O.3   1 <1>  -0.5600 
 19 C       -4.8300     0.9450     0.1570 C.3   1 <1>  -0.1600 
 20 C       -3.5400     0.3490    -0.4250 C.3   1 <1>  -0.1600 
 21 O        5.2370     3.2150    -0.2280 O.3   1 <1>  -0.3620 
 22 C       -6.7330     3.1790     0.9340 C.3   1 <1>   0.0400 
 23 C        6.3090     3.4030     0.6710 C.3   1 <1>   0.0400 
 24 H       -2.6610     2.0320     1.6240 H     1 <1>   0.0800 
 25 H       -3.0360     3.7240     1.6180 H     1 <1>   0.0800 
 26 H       -1.3840     5.3640     0.6580 H     1 <1>   0.0800 
 27 H        0.1150     4.7890    -0.0090 H     1 <1>   0.0800 
 28 H        0.9100     2.4820    -1.1210 H     1 <1>   0.1500 
 29 H        2.0010     2.9110     2.9670 H     1 <1>   0.1500 
 30 H       -1.5140     5.3940    -1.7810 H     1 <1>   0.0800 
 31 H       -1.0720     3.7190    -1.8610 H     1 <1>   0.0800 
 32 H        4.3320     3.2240     2.3350 H     1 <1>   0.1500 
 33 H       -5.2910     2.6620    -1.0550 H     1 <1>   0.0800 
 34 H       -3.5010     3.9330    -2.1370 H     1 <1>   0.0800 
 35 H       -3.6130     4.8670    -0.6770 H     1 <1>   0.0800 
 36 H       -3.0060     1.5820    -2.0870 H     1 <1>   0.0800 
 37 H       -1.7040     1.3840    -0.9410 H     1 <1>   0.0800 
 38 H        4.2670     2.9360    -2.1220 H     1 <1>   0.4500 
 39 H       -4.8540     0.7750     1.2200 H     1 <1>   0.0800 
 40 H       -5.6970     0.5040    -0.3010 H     1 <1>   0.0800 
 41 H       -2.9580    -0.0920     0.3680 H     1 <1>   0.0800 
 42 H       -3.7480    -0.4070    -1.1630 H     1 <1>   0.0800 
 43 H       -7.0510     3.8030     1.7510 H     1 <1>   0.0800 
 44 H       -7.0780     2.1730     1.0950 H     1 <1>   0.0800 
 45 H       -7.1180     3.5700     0.0090 H     1 <1>   0.0800 
 46 H        7.2140     3.5020     0.0970 H     1 <1>   0.0800 
 47 H        6.3790     2.5460     1.3170 H     1 <1>   0.0800 
 48 H        6.1370     4.3010     1.2370 H     1 <1>   0.0800 
@<TRIPOS>BOND
  1   1   2  2   
  2   2   3  am  
  3   2   4  1   
  4   3   5  1   
  5   3   6  1   
  6   4   7  ar  
  7   4   8  ar  
  8   5   9  1   
  9   5  24  1   
 10   5  25  1   
 11   6  10  1   
 12   6  26  1   
 13   6  27  1   
 14   7  11  ar  
 15   7  28  1   
 16   8  12  ar  
 17   8  29  1   
 18   9  13  1   
 19   9  14  1   
 20   9  15  1   
 21  10  14  1   
 22  10  30  1   
 23  10  31  1   
 24  11  16  1   
 25  11  17  ar  
 26  12  17  ar  
 27  12  32  1   
 28  13  18  1   
 29  13  19  1   
 30  13  33  1   
 31  14  34  1   
 32  14  35  1   
 33  15  20  1   
 34  15  36  1   
 35  15  37  1   
 36  16  38  1   
 37  17  21  1   
 38  18  22  1   
 39  19  20  1   
 40  19  39  1   
 41  19  40  1   
 42  20  41  1   
 43  20  42  1   
 44  21  23  1   
 45  22  43  1   
 46  22  44  1   
 47  22  45  1   
 48  23  46  1   
 49  23  47  1   
 50  23  48  1   
@<TRIPOS>SUBSTRUCTURE
  1 ****   3 GROUP 4 **** **** 0

# MOE 2024.06 (io_trps.svl 2023.06)
