@<TRIPOS>MOLECULE
NONAME
51 54 1 0 0 
SMALL
USER_CHARGES


@<TRIPOS>ATOM
  1 S       -2.0990     2.7220     1.0400 S.3   1 <1>  -0.0800 
  2 C       -0.8760     3.8080     0.4170 C.2   1 <1>  -0.1400 
  3 C       -0.8590     1.7150     1.7720 C.2   1 <1>  -0.1100 
  4 C        0.3600     3.4080     0.7380 C.2   1 <1>  -0.1810 
  5 C       -1.2230     5.0400    -0.3730 C.3   1 <1>   0.0200 
  6 C        0.3710     2.2070     1.5270 C.2   1 <1>  -0.1500 
  7 C        1.5820     4.2010     0.2780 C.3   1 <1>   0.4610 
  8 C        0.0110     5.9560    -0.3380 C.3   1 <1>   0.1200 
  9 O        1.1940     5.2350    -0.6160 O.3   1 <1>  -0.5600 
 10 C        2.3330     4.8320     1.4560 C.3   1 <1>  -0.1600 
 11 C        2.5460     3.3070    -0.5160 C.3   1 <1>  -0.1600 
 12 C        3.5460     5.6580     1.0110 C.3   1 <1>   0.3430 
 13 C        3.9380     3.9190    -0.7170 C.3   1 <1>   0.3430 
 14 N        3.9060     5.3700    -0.4110 N.4   1 <1>  -0.9590 
 15 C        5.1020     6.1160    -0.8790 C.3   1 <1>   0.4860 
 16 C        4.8240     7.6010    -0.7380 C.ar  1 <1>  -0.1440 
 17 C        3.8760     8.2140    -1.5450 C.ar  1 <1>  -0.1500 
 18 C        5.5080     8.3560     0.2050 C.ar  1 <1>  -0.1500 
 19 C        3.6090     9.5630    -1.4000 C.ar  1 <1>  -0.1500 
 20 C        5.2410     9.7060     0.3490 C.ar  1 <1>  -0.1500 
 21 C        4.2850    10.3180    -0.4560 C.ar  1 <1>   0.0820 
 22 O        3.9610    11.6310    -0.3820 O.3   1 <1>  -0.3620 
 23 C        4.6570    12.5150     0.4710 C.3   1 <1>   0.1200 
 24 C        4.1180    13.9270     0.2470 C.3   1 <1>   0.1200 
 25 O        4.7270    14.7980     1.1400 O.3   1 <1>  -0.6800 
 26 H       -1.1910     0.8490     2.3180 H     1 <1>   0.1500 
 27 H       -2.0650     5.5440     0.0660 H     1 <1>   0.0800 
 28 H       -1.4670     4.7740    -1.3860 H     1 <1>   0.0800 
 29 H        1.2850     1.7620     1.8770 H     1 <1>   0.1500 
 30 H        0.1060     6.4110     0.6320 H     1 <1>   0.0800 
 31 H       -0.0870     6.7340    -1.0750 H     1 <1>   0.0800 
 32 H        2.6750     4.0480     2.1070 H     1 <1>   0.0800 
 33 H        1.6680     5.4410     2.0400 H     1 <1>   0.0800 
 34 H        2.1030     3.0790    -1.4690 H     1 <1>   0.0800 
 35 H        2.6750     2.3700    -0.0080 H     1 <1>   0.0800 
 36 H        4.3820     5.4500     1.6590 H     1 <1>   0.0800 
 37 H        3.3050     6.7060     1.1050 H     1 <1>   0.0800 
 38 H        4.2510     3.7580    -1.7360 H     1 <1>   0.0800 
 39 H        4.6440     3.4300    -0.0650 H     1 <1>   0.0800 
 40 H        3.0940     5.7370    -0.9430 H     1 <1>   0.4500 
 41 H        5.3000     5.8890    -1.9140 H     1 <1>   0.0800 
 42 H        5.9660     5.8430    -0.2960 H     1 <1>   0.0800 
 43 H        3.3370     7.6590    -2.2940 H     1 <1>   0.1500 
 44 H        6.2560     7.9060     0.8370 H     1 <1>   0.1500 
 45 H        2.8760    10.0470    -2.0230 H     1 <1>   0.1500 
 46 H        5.7860    10.2660     1.0860 H     1 <1>   0.1500 
 47 H        5.7030    12.4750     0.2230 H     1 <1>   0.0800 
 48 H        4.4890    12.2020     1.4860 H     1 <1>   0.0800 
 49 H        3.0550    13.9670     0.4060 H     1 <1>   0.0800 
 50 H        4.3530    14.2610    -0.7500 H     1 <1>   0.0800 
 51 H        4.3870    14.6660     2.0460 H     1 <1>   0.4000 
@<TRIPOS>BOND
  1   1   2  1   
  2   1   3  1   
  3   2   4  2   
  4   2   5  1   
  5   3   6  2   
  6   3  26  1   
  7   4   6  1   
  8   4   7  1   
  9   5   8  1   
 10   5  27  1   
 11   5  28  1   
 12   6  29  1   
 13   7   9  1   
 14   7  10  1   
 15   7  11  1   
 16   8   9  1   
 17   8  30  1   
 18   8  31  1   
 19  10  12  1   
 20  10  32  1   
 21  10  33  1   
 22  11  13  1   
 23  11  34  1   
 24  11  35  1   
 25  12  14  1   
 26  12  36  1   
 27  12  37  1   
 28  13  14  1   
 29  13  38  1   
 30  13  39  1   
 31  14  15  1   
 32  14  40  1   
 33  15  16  1   
 34  15  41  1   
 35  15  42  1   
 36  16  17  ar  
 37  16  18  ar  
 38  17  19  ar  
 39  17  43  1   
 40  18  20  ar  
 41  18  44  1   
 42  19  21  ar  
 43  19  45  1   
 44  20  21  ar  
 45  20  46  1   
 46  21  22  1   
 47  22  23  1   
 48  23  24  1   
 49  23  47  1   
 50  23  48  1   
 51  24  25  1   
 52  24  49  1   
 53  24  50  1   
 54  25  51  1   
@<TRIPOS>SUBSTRUCTURE
  1 ****  12 GROUP 4 **** **** 0

# MOE 2024.06 (io_trps.svl 2023.06)
