@<TRIPOS>MOLECULE
NONAME
51 53 1 0 0 
SMALL
USER_CHARGES


@<TRIPOS>ATOM
  1 O       -1.2560    -0.0240     1.2280 O.2   1 <1>  -0.5700 
  2 C       -1.6050     0.4970     0.1830 C.2   1 <1>   0.7160 
  3 N       -2.0950    -0.3100    -0.8290 N.am  1 <1>  -0.6600 
  4 C       -1.4770     1.9120     0.0370 C.2   1 <1>  -0.0860 
  5 C       -2.2420    -1.7780    -0.6480 C.3   1 <1>   0.1400 
  6 C       -2.6070     0.2320    -2.1210 C.3   1 <1>   0.0600 
  7 C       -2.5260     2.8250    -0.1260 C.2   1 <1>   0.3720 
  8 C       -0.3630     2.6920     0.0220 C.2   1 <1>   0.0870 
  9 C       -3.6180    -2.0910    -0.0590 C.3   1 <1>  -0.1600 
 10 N       -2.0720     4.0230    -0.2530 N.2   1 <1>  -0.4100 
 11 N       -3.8920     2.4970    -0.1640 N.pl3 1 <1>  -0.8210 
 12 O       -0.7740     3.9230    -0.1530 O.3   1 <1>  -0.0190 
 13 C        1.0490     2.4130     0.1430 C.ar  1 <1>   0.0530 
 14 C       -3.7870    -3.5950     0.1400 C.3   1 <1>   0.1200 
 15 C       -4.4130     1.6910     0.9730 C.3   1 <1>   0.2090 
 16 C       -4.8600     3.5850    -0.4680 C.3   1 <1>   0.2090 
 17 C        1.5850     1.1440    -0.0930 C.ar  1 <1>  -0.1500 
 18 C        1.9460     3.4220     0.5000 C.ar  1 <1>  -0.1500 
 19 O       -5.0490    -3.8260     0.6480 O.3   1 <1>  -0.6800 
 20 C       -5.7080     2.3650     1.4100 C.3   1 <1>  -0.1600 
 21 C       -6.1610     3.1490     0.1870 C.3   1 <1>  -0.1600 
 22 C        2.9390     0.8920     0.0240 C.ar  1 <1>  -0.1500 
 23 C        3.3010     3.1780     0.6170 C.ar  1 <1>  -0.1500 
 24 C        3.8120     1.9140     0.3820 C.ar  1 <1>   0.0830 
 25 O        5.1490     1.7540     0.5190 O.3   1 <1>  -0.3620 
 26 C        5.7660     0.4990     0.3340 C.3   1 <1>   0.0400 
 27 H       -1.4720    -2.1410     0.0140 H     1 <1>   0.0800 
 28 H       -2.1210    -2.2740    -1.5950 H     1 <1>   0.0800 
 29 H       -2.1570     1.1830    -2.3460 H     1 <1>   0.0800 
 30 H       -3.6740     0.3630    -2.0590 H     1 <1>   0.0800 
 31 H       -2.3800    -0.4450    -2.9260 H     1 <1>   0.0800 
 32 H       -4.3810    -1.7350    -0.7280 H     1 <1>   0.0800 
 33 H       -3.7080    -1.5950     0.8910 H     1 <1>   0.0800 
 34 H       -3.0630    -3.9850     0.8350 H     1 <1>   0.0800 
 35 H       -3.7070    -4.1210    -0.7970 H     1 <1>   0.0800 
 36 H       -3.7070     1.6500     1.7870 H     1 <1>   0.0800 
 37 H       -4.6140     0.6930     0.6250 H     1 <1>   0.0800 
 38 H       -4.9710     3.7090    -1.5320 H     1 <1>   0.0800 
 39 H       -4.5300     4.5130    -0.0310 H     1 <1>   0.0800 
 40 H        0.9380     0.3350    -0.3760 H     1 <1>   0.1500 
 41 H        1.5770     4.4140     0.6930 H     1 <1>   0.1500 
 42 H       -5.1510    -3.3980     1.5200 H     1 <1>   0.4000 
 43 H       -5.4910     3.0410     2.2190 H     1 <1>   0.0800 
 44 H       -6.4410     1.6490     1.7350 H     1 <1>   0.0800 
 45 H       -6.6950     2.5050    -0.4900 H     1 <1>   0.0800 
 46 H       -6.7810     3.9900     0.4410 H     1 <1>   0.0800 
 47 H        3.2970    -0.1020    -0.1670 H     1 <1>   0.1500 
 48 H        3.9750     3.9690     0.8940 H     1 <1>   0.1500 
 49 H        6.8200     0.6170     0.5070 H     1 <1>   0.0800 
 50 H        5.5950     0.1720    -0.6760 H     1 <1>   0.0800 
 51 H        5.3540    -0.1990     1.0410 H     1 <1>   0.0800 
@<TRIPOS>BOND
  1   1   2  2   
  2   2   3  am  
  3   2   4  1   
  4   3   5  1   
  5   3   6  1   
  6   4   7  1   
  7   4   8  2   
  8   5   9  1   
  9   5  27  1   
 10   5  28  1   
 11   6  29  1   
 12   6  30  1   
 13   6  31  1   
 14   7  10  2   
 15   7  11  1   
 16   8  12  1   
 17   8  13  1   
 18   9  14  1   
 19   9  32  1   
 20   9  33  1   
 21  10  12  1   
 22  11  15  1   
 23  11  16  1   
 24  13  17  ar  
 25  13  18  ar  
 26  14  19  1   
 27  14  34  1   
 28  14  35  1   
 29  15  20  1   
 30  15  36  1   
 31  15  37  1   
 32  16  21  1   
 33  16  38  1   
 34  16  39  1   
 35  17  22  ar  
 36  17  40  1   
 37  18  23  ar  
 38  18  41  1   
 39  19  42  1   
 40  20  21  1   
 41  20  43  1   
 42  20  44  1   
 43  21  45  1   
 44  21  46  1   
 45  22  24  ar  
 46  22  47  1   
 47  23  24  ar  
 48  23  48  1   
 49  24  25  1   
 50  25  26  1   
 51  26  49  1   
 52  26  50  1   
 53  26  51  1   
@<TRIPOS>SUBSTRUCTURE
  1 ****   4 GROUP 4 **** **** 0

# MOE 2024.06 (io_trps.svl 2023.06)
