@<TRIPOS>MOLECULE
NONAME
42 44 1 0 0 
SMALL
USER_CHARGES


@<TRIPOS>ATOM
  1 F        2.7390     6.8330    -1.8930 F     1 <1>  -0.1900 
  2 C        3.5420     5.9380    -1.3830 C.ar  1 <1>   0.1900 
  3 C        3.4250     5.6230    -0.0450 C.ar  1 <1>  -0.1500 
  4 C        4.4840     5.3450    -2.2010 C.ar  1 <1>  -0.1500 
  5 C        4.2870     4.6800     0.4920 C.ar  1 <1>  -0.1500 
  6 C        5.3390     4.4040    -1.6520 C.ar  1 <1>  -0.1500 
  7 C        5.2480     4.0640    -0.3040 C.ar  1 <1>  -0.1430 
  8 C        6.1970     3.0430     0.3220 C.3   1 <1>   0.4330 
  9 N        7.5700     3.5440     0.2070 N.pl3 1 <1>  -0.8690 
 10 C        6.1240     1.6860    -0.3660 C.3   1 <1>  -0.2400 
 11 C        7.9740     4.4700     1.1240 C.ar  1 <1>   0.4100 
 12 N        8.0210     5.6900     0.6400 N.ar  1 <1>  -0.6200 
 13 C        8.2860     4.1550     2.4540 C.ar  1 <1>   0.1600 
 14 C        8.3430     6.6220     1.5530 C.ar  1 <1>   0.3960 
 15 N        8.6290     5.0370     3.3700 N.ar  1 <1>  -0.6200 
 16 C        8.3720     8.0420     1.2000 C.2   1 <1>   0.5440 
 17 C        8.6480     6.2680     2.8730 C.ar  1 <1>   0.1600 
 18 O        9.1620     8.7790     1.7670 O.2   1 <1>  -0.5700 
 19 N        7.5200     8.6180     0.2750 N.am  1 <1>  -0.6600 
 20 C        7.5690    10.0530    -0.0780 C.3   1 <1>   0.1400 
 21 C        6.3920     7.9440    -0.4090 C.3   1 <1>   0.1400 
 22 C        6.5470    10.2180    -1.1980 C.3   1 <1>  -0.1600 
 23 C        5.5550     9.0770    -0.9890 C.3   1 <1>  -0.1600 
 24 H        2.6790     6.1060     0.5600 H     1 <1>   0.1500 
 25 H        4.5440     5.6170    -3.2390 H     1 <1>   0.1500 
 26 H        4.2060     4.4330     1.5370 H     1 <1>   0.1500 
 27 H        6.0780     3.9410    -2.2830 H     1 <1>   0.1500 
 28 H        5.9510     2.9130     1.3630 H     1 <1>   0.0800 
 29 H        7.6760     3.9530    -0.7230 H     1 <1>   0.4000 
 30 H        6.4170     1.7600    -1.3970 H     1 <1>   0.0800 
 31 H        5.1180     1.3130    -0.3210 H     1 <1>   0.0800 
 32 H        6.7710     0.9890     0.1340 H     1 <1>   0.0800 
 33 H        8.2410     3.1210     2.7430 H     1 <1>   0.1500 
 34 H        8.9190     7.0580     3.5530 H     1 <1>   0.1500 
 35 H        7.2880    10.6360     0.7830 H     1 <1>   0.0800 
 36 H        8.5590    10.3340    -0.3960 H     1 <1>   0.0800 
 37 H        6.7790     7.3230    -1.1980 H     1 <1>   0.0800 
 38 H        5.8210     7.3420     0.2770 H     1 <1>   0.0800 
 39 H        6.0750    11.1840    -1.1700 H     1 <1>   0.0800 
 40 H        7.0460    10.0980    -2.1440 H     1 <1>   0.0800 
 41 H        5.0640     8.7840    -1.9000 H     1 <1>   0.0800 
 42 H        4.8100     9.3650    -0.2670 H     1 <1>   0.0800 
@<TRIPOS>BOND
  1   1   2  1   
  2   2   3  ar  
  3   2   4  ar  
  4   3   5  ar  
  5   3  24  1   
  6   4   6  ar  
  7   4  25  1   
  8   5   7  ar  
  9   5  26  1   
 10   6   7  ar  
 11   6  27  1   
 12   7   8  1   
 13   8   9  1   
 14   8  10  1   
 15   8  28  1   
 16   9  11  1   
 17   9  29  1   
 18  10  30  1   
 19  10  31  1   
 20  10  32  1   
 21  11  12  ar  
 22  11  13  ar  
 23  12  14  ar  
 24  13  15  ar  
 25  13  33  1   
 26  14  16  1   
 27  14  17  ar  
 28  15  17  ar  
 29  16  18  2   
 30  16  19  am  
 31  17  34  1   
 32  19  20  1   
 33  19  21  1   
 34  20  22  1   
 35  20  35  1   
 36  20  36  1   
 37  21  23  1   
 38  21  37  1   
 39  21  38  1   
 40  22  23  1   
 41  22  39  1   
 42  22  40  1   
 43  23  41  1   
 44  23  42  1   
@<TRIPOS>SUBSTRUCTURE
  1 ****  12 GROUP 4 **** **** 0

# MOE 2024.06 (io_trps.svl 2023.06)
