@<TRIPOS>MOLECULE
NONAME
48 50 1 0 0 
SMALL
USER_CHARGES


@<TRIPOS>ATOM
  1 S        0.0560    -0.0170     1.1100 S.o2  1 <1>   1.3330 
  2 O       -0.9020    -0.9280     1.6910 O.2   1 <1>  -0.6500 
  3 O        1.1910     0.4260     1.8910 O.2   1 <1>  -0.6500 
  4 N        0.6560    -0.7410    -0.3060 N.am  1 <1>  -0.8490 
  5 C       -0.7980     1.4390     0.5010 C.3   1 <1>  -0.0550 
  6 C        1.8200    -1.5900    -0.0340 C.3   1 <1>   0.1160 
  7 C       -0.3560    -1.5170    -1.0310 C.3   1 <1>   0.1160 
  8 C        0.1200     2.4390    -0.2360 C.3   1 <1>  -0.0800 
  9 C       -0.6090     3.5770    -0.9460 C.3   1 <1>   0.2000 
 10 C        1.1340     3.1480     0.6800 C.3   1 <1>   0.1100 
 11 O       -1.6360     4.0330    -0.1390 O.3   1 <1>  -0.6800 
 12 C        0.4560     4.6650    -0.9850 C.3   1 <1>   0.1100 
 13 N        1.0940     4.5830     0.3410 N.3   1 <1>  -0.8100 
 14 C        2.4350     5.2000     0.3870 C.3   1 <1>   0.2480 
 15 C        2.3720     6.7270     0.4040 C.2   1 <1>   0.2030 
 16 N        3.4980     7.4140     0.0440 N.pl3 1 <1>  -0.6450 
 17 C        1.2980     7.4670     0.7560 C.2   1 <1>  -0.1360 
 18 C        3.5840     8.7420     0.0140 C.cat 1 <1>   0.7390 
 19 C        1.3600     8.8860     0.7370 C.2   1 <1>   0.9370 
 20 N        2.5410     9.5190     0.3520 N.pl3 1 <1>  -0.5760 
 21 C        4.8260     9.2640    -0.3930 C.2   1 <1>  -0.1800 
 22 O        0.4020     9.5640     1.0490 O.2   1 <1>  -0.5700 
 23 C        2.7060    10.8870     0.2960 C.2   1 <1>   0.1910 
 24 O        5.7620     8.4660    -0.6990 O.3   1 <1>  -0.8500 
 25 C        4.9810    10.6390    -0.4470 C.2   1 <1>  -0.1500 
 26 C        3.9010    11.4460    -0.0950 C.2   1 <1>  -0.1500 
 27 H       -1.5780     1.1320    -0.1670 H     1 <1>   0.0800 
 28 H       -1.2680     1.9350     1.3280 H     1 <1>   0.0800 
 29 H        2.1860    -2.0280    -0.9470 H     1 <1>   0.0800 
 30 H        1.5580    -2.3750     0.6560 H     1 <1>   0.0800 
 31 H        2.6140    -1.0030     0.3980 H     1 <1>   0.0800 
 32 H        0.0540    -1.8870    -1.9550 H     1 <1>   0.0800 
 33 H       -1.2060    -0.8980    -1.2630 H     1 <1>   0.0800 
 34 H       -0.6900    -2.3520    -0.4370 H     1 <1>   0.0800 
 35 H        0.6800     1.9010    -0.9820 H     1 <1>   0.0800 
 36 H       -1.0070     3.3140    -1.9110 H     1 <1>   0.0800 
 37 H        2.1160     2.7300     0.5210 H     1 <1>   0.0800 
 38 H        0.8760     3.0270     1.7190 H     1 <1>   0.0800 
 39 H       -1.2150     4.4340     0.6510 H     1 <1>   0.4000 
 40 H        0.0270     5.6350    -1.1700 H     1 <1>   0.0800 
 41 H        1.1690     4.4340    -1.7590 H     1 <1>   0.0800 
 42 H        2.9440     4.8800     1.2810 H     1 <1>   0.0800 
 43 H        3.0140     4.8690    -0.4580 H     1 <1>   0.0800 
 44 H        4.4340     7.0710    -0.2580 H     1 <1>   0.4500 
 45 H        0.3680     7.0300     1.0620 H     1 <1>   0.1500 
 46 H        1.8710    11.5140     0.5670 H     1 <1>   0.1500 
 47 H        5.9270    11.0480    -0.7570 H     1 <1>   0.1500 
 48 H        4.0170    12.5140    -0.1350 H     1 <1>   0.1500 
@<TRIPOS>BOND
  1   1   2  2   
  2   1   3  2   
  3   1   4  am  
  4   1   5  1   
  5   4   6  1   
  6   4   7  1   
  7   5   8  1   
  8   5  27  1   
  9   5  28  1   
 10   6  29  1   
 11   6  30  1   
 12   6  31  1   
 13   7  32  1   
 14   7  33  1   
 15   7  34  1   
 16   8   9  1   
 17   8  10  1   
 18   8  35  1   
 19   9  11  1   
 20   9  12  1   
 21   9  36  1   
 22  10  13  1   
 23  10  37  1   
 24  10  38  1   
 25  11  39  1   
 26  12  13  1   
 27  12  40  1   
 28  12  41  1   
 29  13  14  1   
 30  14  15  1   
 31  14  42  1   
 32  14  43  1   
 33  15  16  1   
 34  15  17  2   
 35  16  18  ar  
 36  16  44  1   
 37  17  19  1   
 38  17  45  1   
 39  18  20  ar  
 40  18  21  1   
 41  19  20  1   
 42  19  22  2   
 43  20  23  1   
 44  21  24  1   
 45  21  25  2   
 46  23  26  2   
 47  23  46  1   
 48  25  26  1   
 49  25  47  1   
 50  26  48  1   
@<TRIPOS>SUBSTRUCTURE
  1 ****  13 GROUP 4 **** **** 0

# MOE 2024.06 (io_trps.svl 2023.06)
