@<TRIPOS>MOLECULE
NONAME
48 50 1 0 0 
SMALL
USER_CHARGES


@<TRIPOS>ATOM
  1 O        0.5970    -0.1930     0.3850 O.3   1 <1>  -0.6800 
  2 C        1.5620    -0.5710    -0.5430 C.3   1 <1>   0.2000 
  3 C        2.2850    -1.8030    -0.0030 C.3   1 <1>  -0.0800 
  4 C        2.6580     0.4940    -0.5460 C.3   1 <1>   0.3430 
  5 C        3.3160    -1.2280     0.9840 C.3   1 <1>   0.3430 
  6 C        2.9590    -2.5930    -1.1430 C.3   1 <1>   0.0210 
  7 N        3.4140     0.2410     0.7150 N.4   1 <1>  -0.9590 
  8 C        3.7980    -3.7360    -0.6110 C.2   1 <1>   0.1080 
  9 C        4.7980     0.7810     0.7960 C.3   1 <1>   0.4230 
 10 N        4.9960    -3.5650    -0.1460 N.2   1 <1>  -0.7070 
 11 C        3.3980    -5.0670    -0.5650 C.2   1 <1>  -0.1500 
 12 C        4.7060     2.3050     0.9510 C.3   1 <1>  -0.1600 
 13 C        5.6580     0.3170    -0.3950 C.3   1 <1>  -0.1600 
 14 N        5.4050    -4.8040     0.2010 N.pl3 1 <1>   0.3000 
 15 C        4.4510    -5.7260    -0.0380 C.2   1 <1>  -0.3320 
 16 C        6.0590     3.0170     1.1230 C.3   1 <1>  -0.1600 
 17 C        7.1570     0.4690    -0.1030 C.3   1 <1>  -0.1600 
 18 C        4.6080    -7.2090     0.2490 C.3   1 <1>  -0.0600 
 19 C        6.8660     3.0720    -0.1810 C.3   1 <1>  -0.1600 
 20 C        7.7480     1.8440    -0.4530 C.3   1 <1>  -0.1600 
 21 H       -0.1910    -0.7750     0.3370 H     1 <1>   0.4000 
 22 H        1.0960    -0.7050    -1.5050 H     1 <1>   0.0800 
 23 H        1.6100    -2.4660     0.5100 H     1 <1>   0.0800 
 24 H        2.2410     1.4870    -0.5760 H     1 <1>   0.0800 
 25 H        3.2980     0.3440    -1.3990 H     1 <1>   0.0800 
 26 H        4.2750    -1.6990     0.8690 H     1 <1>   0.0800 
 27 H        2.9800    -1.3890     1.9960 H     1 <1>   0.0800 
 28 H        3.5990    -1.9560    -1.7270 H     1 <1>   0.0800 
 29 H        2.2080    -2.9930    -1.8000 H     1 <1>   0.0800 
 30 H        2.8510     0.6890     1.4510 H     1 <1>   0.4500 
 31 H        5.2530     0.3930     1.6930 H     1 <1>   0.0800 
 32 H        2.4530    -5.4660    -0.8900 H     1 <1>   0.1500 
 33 H        4.1980     2.7350     0.1060 H     1 <1>   0.0800 
 34 H        4.1210     2.5170     1.8280 H     1 <1>   0.0800 
 35 H        5.4870    -0.7300    -0.5680 H     1 <1>   0.0800 
 36 H        5.4050     0.8480    -1.2950 H     1 <1>   0.0800 
 37 H        6.3380    -4.9910     0.5900 H     1 <1>   0.2700 
 38 H        5.8560     4.0310     1.4240 H     1 <1>   0.0800 
 39 H        6.6390     2.5660     1.9100 H     1 <1>   0.0800 
 40 H        7.3480     0.2520     0.9350 H     1 <1>   0.0800 
 41 H        7.6970    -0.2700    -0.6720 H     1 <1>   0.0800 
 42 H        3.7150    -7.7380    -0.0300 H     1 <1>   0.0800 
 43 H        4.7870    -7.3700     1.2980 H     1 <1>   0.0800 
 44 H        5.4320    -7.6120    -0.3130 H     1 <1>   0.0800 
 45 H        6.2030     3.2320    -1.0140 H     1 <1>   0.0800 
 46 H        7.5150     3.9320    -0.1430 H     1 <1>   0.0800 
 47 H        8.6700     1.9540     0.0930 H     1 <1>   0.0800 
 48 H        8.0080     1.8510    -1.4980 H     1 <1>   0.0800 
@<TRIPOS>BOND
  1   1   2  1   
  2   1  21  1   
  3   2   3  1   
  4   2   4  1   
  5   2  22  1   
  6   3   5  1   
  7   3   6  1   
  8   3  23  1   
  9   4   7  1   
 10   4  24  1   
 11   4  25  1   
 12   5   7  1   
 13   5  26  1   
 14   5  27  1   
 15   6   8  1   
 16   6  28  1   
 17   6  29  1   
 18   7   9  1   
 19   7  30  1   
 20   8  10  2   
 21   8  11  1   
 22   9  12  1   
 23   9  13  1   
 24   9  31  1   
 25  10  14  1   
 26  11  15  2   
 27  11  32  1   
 28  12  16  1   
 29  12  33  1   
 30  12  34  1   
 31  13  17  1   
 32  13  35  1   
 33  13  36  1   
 34  14  15  1   
 35  14  37  1   
 36  15  18  1   
 37  16  19  1   
 38  16  38  1   
 39  16  39  1   
 40  17  20  1   
 41  17  40  1   
 42  17  41  1   
 43  18  42  1   
 44  18  43  1   
 45  18  44  1   
 46  19  20  1   
 47  19  45  1   
 48  19  46  1   
 49  20  47  1   
 50  20  48  1   
@<TRIPOS>SUBSTRUCTURE
  1 ****   5 GROUP 4 **** **** 0

# MOE 2024.06 (io_trps.svl 2023.06)
