@<TRIPOS>MOLECULE
NONAME
57 61 1 0 0 
SMALL
USER_CHARGES


@<TRIPOS>ATOM
  1 O       -2.8600     2.8720     1.5130 O.2   1 <1>  -0.5700 
  2 C       -2.3000     2.4080     0.5380 C.2   1 <1>   0.5440 
  3 N       -2.2110     1.0360     0.4660 N.am  1 <1>  -0.6600 
  4 C       -1.8110     3.2880    -0.5090 C.ar  1 <1>   0.0860 
  5 C       -2.2810     0.1880     1.6910 C.3   1 <1>   0.1400 
  6 C       -2.2460     0.2700    -0.8080 C.3   1 <1>   0.1400 
  7 C       -0.5250     3.1650    -1.0690 C.ar  1 <1>   0.0000 
  8 C       -2.6480     4.2990    -0.9820 C.ar  1 <1>  -0.1500 
  9 C       -3.5450    -0.6930     1.6730 C.3   1 <1>   0.4230 
 10 C       -3.4980    -0.6270    -0.8460 C.3   1 <1>   0.3430 
 11 C        0.4250     2.1680    -0.6260 C.ar  1 <1>   0.0000 
 12 C       -0.1470     4.0390    -2.0860 C.ar  1 <1>  -0.1500 
 13 C       -2.2560     5.1550    -1.9920 C.ar  1 <1>  -0.1500 
 14 N       -3.6470    -1.4960     0.3850 N.4   1 <1>  -0.9590 
 15 C       -4.8160     0.1610     1.9000 C.3   1 <1>   0.1200 
 16 C        0.8370     2.1000     0.7020 C.ar  1 <1>  -0.1500 
 17 C        0.9520     1.2380    -1.5200 C.ar  1 <1>  -0.1500 
 18 C       -0.9990     5.0210    -2.5490 C.ar  1 <1>  -0.1500 
 19 C       -4.9280    -2.2750     0.4020 C.3   1 <1>   0.5180 
 20 O       -5.9590    -0.6520     1.8760 O.3   1 <1>  -0.5600 
 21 C        1.7200     1.1270     1.1370 C.ar  1 <1>  -0.1430 
 22 C        1.8380     0.2650    -1.0970 C.ar  1 <1>  -0.1500 
 23 C       -5.0780    -3.0570    -0.9090 C.3   1 <1>  -0.1950 
 24 C       -6.1500    -1.3730     0.6900 C.3   1 <1>   0.1200 
 25 C        2.2200     0.2070     0.2310 C.ar  1 <1>  -0.1500 
 26 C        2.1550     1.0730     2.5910 C.3   1 <1>  -0.0970 
 27 C       -5.6380    -4.4450    -0.8940 C.3   1 <1>  -0.2000 
 28 C       -4.1940    -4.2220    -1.2370 C.3   1 <1>  -0.2000 
 29 H       -1.4040    -0.4340     1.7350 H     1 <1>   0.0800 
 30 H       -2.2780     0.8010     2.5770 H     1 <1>   0.0800 
 31 H       -2.2660     0.9420    -1.6490 H     1 <1>   0.0800 
 32 H       -1.3560    -0.3310    -0.8870 H     1 <1>   0.0800 
 33 H       -3.6240     4.4160    -0.5430 H     1 <1>   0.1500 
 34 H       -3.4760    -1.3720     2.5060 H     1 <1>   0.0800 
 35 H       -3.4530    -1.2460    -1.7270 H     1 <1>   0.0800 
 36 H       -4.3600     0.0130    -0.9390 H     1 <1>   0.0800 
 37 H        0.8370     3.9520    -2.5150 H     1 <1>   0.1500 
 38 H       -2.9210     5.9260    -2.3410 H     1 <1>   0.1500 
 39 H       -2.8840    -2.1790     0.3750 H     1 <1>   0.4500 
 40 H       -4.9160     0.9290     1.1530 H     1 <1>   0.0800 
 41 H       -4.7740     0.6380     2.8640 H     1 <1>   0.0800 
 42 H        0.4560     2.8250     1.4010 H     1 <1>   0.1500 
 43 H        0.6670     1.2800    -2.5560 H     1 <1>   0.1500 
 44 H       -0.6840     5.6860    -3.3360 H     1 <1>   0.1500 
 45 H       -4.8740    -2.9950     1.2020 H     1 <1>   0.0800 
 46 H        2.2400    -0.4440    -1.8010 H     1 <1>   0.1500 
 47 H       -5.4240    -2.4410    -1.7230 H     1 <1>   0.1000 
 48 H       -7.0300    -1.9790     0.8160 H     1 <1>   0.0800 
 49 H       -6.3270    -0.6790    -0.1120 H     1 <1>   0.0800 
 50 H        2.9140    -0.5490     0.5540 H     1 <1>   0.1500 
 51 H        2.1720     0.0560     2.9380 H     1 <1>   0.0800 
 52 H        1.4820     1.6350     3.2130 H     1 <1>   0.0800 
 53 H        3.1420     1.4890     2.6890 H     1 <1>   0.0800 
 54 H       -5.8680    -4.9310     0.0400 H     1 <1>   0.1000 
 55 H       -6.3050    -4.7530    -1.6840 H     1 <1>   0.1000 
 56 H       -3.8890    -4.3850    -2.2580 H     1 <1>   0.1000 
 57 H       -3.4610    -4.5800    -0.5330 H     1 <1>   0.1000 
@<TRIPOS>BOND
  1   1   2  2   
  2   2   3  am  
  3   2   4  1   
  4   3   5  1   
  5   3   6  1   
  6   4   7  ar  
  7   4   8  ar  
  8   5   9  1   
  9   5  29  1   
 10   5  30  1   
 11   6  10  1   
 12   6  31  1   
 13   6  32  1   
 14   7  11  1   
 15   7  12  ar  
 16   8  13  ar  
 17   8  33  1   
 18   9  14  1   
 19   9  15  1   
 20   9  34  1   
 21  10  14  1   
 22  10  35  1   
 23  10  36  1   
 24  11  16  ar  
 25  11  17  ar  
 26  12  18  ar  
 27  12  37  1   
 28  13  18  ar  
 29  13  38  1   
 30  14  19  1   
 31  14  39  1   
 32  15  20  1   
 33  15  40  1   
 34  15  41  1   
 35  16  21  ar  
 36  16  42  1   
 37  17  22  ar  
 38  17  43  1   
 39  18  44  1   
 40  19  23  1   
 41  19  24  1   
 42  19  45  1   
 43  20  24  1   
 44  21  25  ar  
 45  21  26  1   
 46  22  25  ar  
 47  22  46  1   
 48  23  27  1   
 49  23  28  1   
 50  23  47  1   
 51  24  48  1   
 52  24  49  1   
 53  25  50  1   
 54  26  51  1   
 55  26  52  1   
 56  26  53  1   
 57  27  28  1   
 58  27  54  1   
 59  27  55  1   
 60  28  56  1   
 61  28  57  1   
@<TRIPOS>SUBSTRUCTURE
  1 ****   3 GROUP 4 **** **** 0

# MOE 2024.06 (io_trps.svl 2023.06)
