@<TRIPOS>MOLECULE
NONAME
48 50 1 0 0 
SMALL
USER_CHARGES


@<TRIPOS>ATOM
  1 CL       0.6680     0.9310    -2.0600 Cl    1 <1>  -0.1770 
  2 C        1.8100     1.3630    -0.8070 C.ar  1 <1>   0.1770 
  3 C        2.6180     0.4090    -0.1920 C.ar  1 <1>   0.0830 
  4 C        1.9020     2.6990    -0.4610 C.ar  1 <1>  -0.1500 
  5 O        2.5780    -0.9110    -0.4860 O.3   1 <1>  -0.3620 
  6 C        3.5290     0.8190     0.7670 C.ar  1 <1>  -0.1500 
  7 C        2.8160     3.1040     0.5030 C.ar  1 <1>  -0.1430 
  8 C        1.3490    -1.6060    -0.2950 C.3   1 <1>   0.1810 
  9 C        3.6250     2.1550     1.1160 C.ar  1 <1>  -0.1500 
 10 C        2.9420     4.5720     0.8690 C.3   1 <1>   0.4870 
 11 C        1.5900    -3.0440     0.1500 C.2   1 <1>   0.5690 
 12 N        4.2820     5.0430     0.4360 N.4   1 <1>  -0.9590 
 13 O        0.6970    -3.6570     0.6750 O.2   1 <1>  -0.5700 
 14 N        2.7890    -3.6320    -0.0420 N.am  1 <1>  -0.8000 
 15 C        4.6880     6.3410     1.0840 C.3   1 <1>   0.3430 
 16 C        4.4770     4.9640    -1.0500 C.3   1 <1>   0.3430 
 17 C        6.1880     6.7150     0.9260 C.3   1 <1>   0.2200 
 18 C        5.9460     5.0470    -1.4830 C.3   1 <1>  -0.0190 
 19 N        6.4610     7.2510    -0.4370 N.am  1 <1>  -0.6600 
 20 C        7.1680     5.5690     1.2770 C.3   1 <1>   0.1200 
 21 C        6.3380     6.4990    -1.5710 C.2   1 <1>   0.5690 
 22 C        6.9670     4.2150    -0.6790 C.3   1 <1>   0.1200 
 23 C        6.9290     8.6710    -0.4970 C.3   1 <1>   0.0600 
 24 O        6.8040     4.3380     0.7080 O.3   1 <1>  -0.5600 
 25 O        6.4940     6.9620    -2.6720 O.2   1 <1>  -0.5700 
 26 H        1.2550     3.4020    -0.9580 H     1 <1>   0.1500 
 27 H        4.1580     0.0850     1.2400 H     1 <1>   0.1500 
 28 H        0.7720    -1.0980     0.4570 H     1 <1>   0.0800 
 29 H        0.8100    -1.6090    -1.2230 H     1 <1>   0.0800 
 30 H        4.3400     2.4370     1.8720 H     1 <1>   0.1500 
 31 H        2.8370     4.6780     1.9370 H     1 <1>   0.0800 
 32 H        2.1680     5.1470     0.3880 H     1 <1>   0.0800 
 33 H        4.9720     4.3530     0.7940 H     1 <1>   0.4500 
 34 H        2.9430    -4.5930     0.2620 H     1 <1>   0.3700 
 35 H        3.5790    -3.1330    -0.4520 H     1 <1>   0.3700 
 36 H        4.0890     7.1480     0.6940 H     1 <1>   0.0800 
 37 H        4.4860     6.2680     2.1390 H     1 <1>   0.0800 
 38 H        4.0930     4.0200    -1.4010 H     1 <1>   0.0800 
 39 H        3.9170     5.7460    -1.5390 H     1 <1>   0.0800 
 40 H        6.3840     7.5120     1.6230 H     1 <1>   0.0800 
 41 H        5.9850     4.6760    -2.4910 H     1 <1>   0.0800 
 42 H        7.1730     5.4230     2.3440 H     1 <1>   0.0800 
 43 H        8.1730     5.8160     0.9750 H     1 <1>   0.0800 
 44 H        7.9770     4.4900    -0.9370 H     1 <1>   0.0800 
 45 H        6.8400     3.1710    -0.9140 H     1 <1>   0.0800 
 46 H        6.1720     9.3280    -0.1050 H     1 <1>   0.0800 
 47 H        7.1390     8.9670    -1.5120 H     1 <1>   0.0800 
 48 H        7.8320     8.7860     0.0770 H     1 <1>   0.0800 
@<TRIPOS>BOND
  1   1   2  1   
  2   2   3  ar  
  3   2   4  ar  
  4   3   5  1   
  5   3   6  ar  
  6   4   7  ar  
  7   4  26  1   
  8   5   8  1   
  9   6   9  ar  
 10   6  27  1   
 11   7   9  ar  
 12   7  10  1   
 13   8  11  1   
 14   8  28  1   
 15   8  29  1   
 16   9  30  1   
 17  10  12  1   
 18  10  31  1   
 19  10  32  1   
 20  11  13  2   
 21  11  14  am  
 22  12  15  1   
 23  12  16  1   
 24  12  33  1   
 25  14  34  1   
 26  14  35  1   
 27  15  17  1   
 28  15  36  1   
 29  15  37  1   
 30  16  18  1   
 31  16  38  1   
 32  16  39  1   
 33  17  19  1   
 34  17  20  1   
 35  17  40  1   
 36  18  21  1   
 37  18  22  1   
 38  18  41  1   
 39  19  21  am  
 40  19  23  1   
 41  20  24  1   
 42  20  42  1   
 43  20  43  1   
 44  21  25  2   
 45  22  24  1   
 46  22  44  1   
 47  22  45  1   
 48  23  46  1   
 49  23  47  1   
 50  23  48  1   
@<TRIPOS>SUBSTRUCTURE
  1 ****   7 GROUP 4 **** **** 0

# MOE 2024.06 (io_trps.svl 2023.06)
