@<TRIPOS>MOLECULE
NONAME
44 45 1 0 0 
SMALL
USER_CHARGES


@<TRIPOS>ATOM
  1 O       -0.5850    -0.1660    -0.5550 O.2   1 <1>  -0.5700 
  2 C       -1.1460    -1.1270    -0.0690 C.2   1 <1>   0.7800 
  3 O       -0.5130    -2.2940     0.0790 O.3   1 <1>  -0.4300 
  4 N       -2.4610    -1.0790     0.3230 N.am  1 <1>  -0.6600 
  5 C        0.8210    -2.5950    -0.2700 C.3   1 <1>   0.2800 
  6 C       -3.1780    -2.2680     0.8620 C.3   1 <1>   0.1400 
  7 C       -3.2800     0.1440     0.0970 C.3   1 <1>   0.1400 
  8 C        1.0190    -2.4480    -1.7840 C.3   1 <1>  -0.2400 
  9 C        1.0130    -4.0610     0.1220 C.3   1 <1>  -0.2400 
 10 C        1.7920    -1.7250     0.5360 C.3   1 <1>  -0.2400 
 11 C       -3.9750    -2.9610    -0.2470 C.3   1 <1>   0.0960 
 12 C       -4.1230    -0.0060    -1.1720 C.3   1 <1>   0.0200 
 13 N       -5.2260    -2.2150    -0.5600 N.pl3 1 <1>   0.0480 
 14 C       -5.3000    -0.9450    -0.9640 C.2   1 <1>   0.0070 
 15 C       -6.5230    -2.6060    -0.5150 C.2   1 <1>   0.1010 
 16 N       -6.5170    -0.5760    -1.1600 N.2   1 <1>  -0.3380 
 17 N       -7.2890    -1.6110    -0.8840 N.2   1 <1>  -0.3380 
 18 C       -7.0140    -3.9070    -0.1170 C.2   1 <1>   0.8050 
 19 O       -6.3150    -4.7740     0.3760 O.2   1 <1>  -0.5700 
 20 O       -8.3130    -4.1770    -0.2950 O.3   1 <1>  -0.4300 
 21 C       -8.8830    -5.4120     0.0730 C.3   1 <1>   0.1200 
 22 C      -10.3680    -5.3650    -0.2700 C.3   1 <1>  -0.2400 
 23 H       -3.8310    -1.9760     1.6670 H     1 <1>   0.0800 
 24 H       -2.4670    -2.9670     1.2680 H     1 <1>   0.0800 
 25 H       -2.6350     1.0000    -0.0100 H     1 <1>   0.0800 
 26 H       -3.9180     0.3230     0.9450 H     1 <1>   0.0800 
 27 H        0.2780    -3.0150    -2.3160 H     1 <1>   0.0800 
 28 H        1.9910    -2.8110    -2.0630 H     1 <1>   0.0800 
 29 H        0.9610    -1.4180    -2.0840 H     1 <1>   0.0800 
 30 H        0.3240    -4.6860    -0.4160 H     1 <1>   0.0800 
 31 H        0.8540    -4.1880     1.1780 H     1 <1>   0.0800 
 32 H        2.0130    -4.3810    -0.1100 H     1 <1>   0.0800 
 33 H        1.7340    -0.6960     0.2340 H     1 <1>   0.0800 
 34 H        2.8020    -2.0530     0.3710 H     1 <1>   0.0800 
 35 H        1.5770    -1.7980     1.5870 H     1 <1>   0.0800 
 36 H       -4.1990    -3.9570     0.0710 H     1 <1>   0.0800 
 37 H       -3.3740    -3.0320    -1.1350 H     1 <1>   0.0800 
 38 H       -3.5090    -0.3450    -1.9870 H     1 <1>   0.0800 
 39 H       -4.5070     0.9620    -1.4380 H     1 <1>   0.0800 
 40 H       -8.7370    -5.5550     1.1310 H     1 <1>   0.0800 
 41 H       -8.3860    -6.1960    -0.4730 H     1 <1>   0.0800 
 42 H      -10.8490    -4.5700     0.2720 H     1 <1>   0.0800 
 43 H      -10.8340    -6.2950     0.0000 H     1 <1>   0.0800 
 44 H      -10.5000    -5.2090    -1.3260 H     1 <1>   0.0800 
@<TRIPOS>BOND
  1   1   2  2   
  2   2   3  1   
  3   2   4  am  
  4   3   5  1   
  5   4   6  1   
  6   4   7  1   
  7   5   8  1   
  8   5   9  1   
  9   5  10  1   
 10   6  11  1   
 11   6  23  1   
 12   6  24  1   
 13   7  12  1   
 14   7  25  1   
 15   7  26  1   
 16   8  27  1   
 17   8  28  1   
 18   8  29  1   
 19   9  30  1   
 20   9  31  1   
 21   9  32  1   
 22  10  33  1   
 23  10  34  1   
 24  10  35  1   
 25  11  13  1   
 26  11  36  1   
 27  11  37  1   
 28  12  14  1   
 29  12  38  1   
 30  12  39  1   
 31  13  14  1   
 32  13  15  1   
 33  14  16  2   
 34  15  17  2   
 35  15  18  1   
 36  16  17  1   
 37  18  19  2   
 38  18  20  1   
 39  20  21  1   
 40  21  22  1   
 41  21  40  1   
 42  21  41  1   
 43  22  42  1   
 44  22  43  1   
 45  22  44  1   
@<TRIPOS>SUBSTRUCTURE
  1 ****  11 GROUP 4 **** **** 0

# MOE 2024.06 (io_trps.svl 2023.06)
