@<TRIPOS>MOLECULE
NONAME
44 46 1 0 0 
SMALL
USER_CHARGES


@<TRIPOS>ATOM
  1 O        4.1500     0.4610     1.8660 O.co2 1 <1>  -0.9000 
  2 C        3.0350     0.0180     1.5480 C.2   1 <1>   0.9470 
  3 O        2.2690    -0.4740     2.3790 O.co2 1 <1>  -0.9000 
  4 C        2.6060     0.1470     0.0980 C.3   1 <1>  -0.1470 
  5 C        2.4860     1.6160    -0.2820 C.2   1 <1>   0.6300 
  6 C        3.1680    -0.8170    -0.9180 C.3   1 <1>  -0.2000 
  7 C        1.7250    -0.9060    -0.5330 C.3   1 <1>  -0.2000 
  8 O        1.8130     1.9240    -1.2400 O.2   1 <1>  -0.5700 
  9 N        3.2050     2.5350     0.4310 N.am  1 <1>  -0.4940 
 10 C        3.3420     3.9290     0.2690 C.2   1 <1>  -0.0880 
 11 N        4.5300     4.6030     0.2890 N.pl3 1 <1>   0.3140 
 12 C        2.3510     4.8500     0.0760 C.2   1 <1>  -0.0540 
 13 N        4.3210     5.9370     0.0940 N.2   1 <1>  -0.7070 
 14 C        5.9220     4.0360     0.5240 C.3   1 <1>   0.2560 
 15 C        0.9160     4.7000     0.0290 C.ar  1 <1>   0.0540 
 16 C        3.0400     6.0580    -0.0310 C.2   1 <1>   0.1390 
 17 C        6.0440     3.5480     1.9780 C.3   1 <1>  -0.2400 
 18 C        6.2240     2.8760    -0.4450 C.3   1 <1>  -0.2400 
 19 C        7.0020     5.1160     0.2970 C.3   1 <1>  -0.2400 
 20 C        0.1480     5.3980    -0.9010 C.ar  1 <1>  -0.1500 
 21 C        0.2480     3.8650     0.9220 C.ar  1 <1>  -0.1500 
 22 C       -1.2300     5.2750    -0.9330 C.ar  1 <1>  -0.1500 
 23 C       -1.1280     3.7340     0.8940 C.ar  1 <1>  -0.1500 
 24 C       -1.8710     4.4420    -0.0340 C.ar  1 <1>  -0.1500 
 25 H        3.8520    -1.5700    -0.5690 H     1 <1>   0.1000 
 26 H        3.4220    -0.4410    -1.8930 H     1 <1>   0.1000 
 27 H        0.9700    -0.5860    -1.2290 H     1 <1>   0.1000 
 28 H        1.3910    -1.7110     0.1000 H     1 <1>   0.1000 
 29 H        3.8000     2.0710     1.1450 H     1 <1>   0.3700 
 30 H        2.5520     7.0040    -0.1910 H     1 <1>   0.1500 
 31 H        5.3520     2.7510     2.1790 H     1 <1>   0.0800 
 32 H        5.8450     4.3560     2.6590 H     1 <1>   0.0800 
 33 H        7.0340     3.1760     2.1680 H     1 <1>   0.0800 
 34 H        5.6350     2.0080    -0.2150 H     1 <1>   0.0800 
 35 H        7.2550     2.5840    -0.3690 H     1 <1>   0.0800 
 36 H        6.0270     3.1770    -1.4580 H     1 <1>   0.0800 
 37 H        6.8600     5.9370     0.9770 H     1 <1>   0.0800 
 38 H        6.9500     5.4880    -0.7110 H     1 <1>   0.0800 
 39 H        7.9850     4.7130     0.4610 H     1 <1>   0.0800 
 40 H        0.6410     6.0360    -1.6110 H     1 <1>   0.1500 
 41 H        0.8210     3.3080     1.6430 H     1 <1>   0.1500 
 42 H       -1.8020     5.8220    -1.6620 H     1 <1>   0.1500 
 43 H       -1.6150     3.0760     1.5920 H     1 <1>   0.1500 
 44 H       -2.9420     4.3400    -0.0580 H     1 <1>   0.1500 
@<TRIPOS>BOND
  1   1   2  ar  
  2   2   3  ar  
  3   2   4  1   
  4   4   5  1   
  5   4   6  1   
  6   4   7  1   
  7   5   8  2   
  8   5   9  am  
  9   6   7  1   
 10   6  25  1   
 11   6  26  1   
 12   7  27  1   
 13   7  28  1   
 14   9  10  1   
 15   9  29  1   
 16  10  11  1   
 17  10  12  2   
 18  11  13  1   
 19  11  14  1   
 20  12  15  1   
 21  12  16  1   
 22  13  16  2   
 23  14  17  1   
 24  14  18  1   
 25  14  19  1   
 26  15  20  ar  
 27  15  21  ar  
 28  16  30  1   
 29  17  31  1   
 30  17  32  1   
 31  17  33  1   
 32  18  34  1   
 33  18  35  1   
 34  18  36  1   
 35  19  37  1   
 36  19  38  1   
 37  19  39  1   
 38  20  22  ar  
 39  20  40  1   
 40  21  23  ar  
 41  21  41  1   
 42  22  24  ar  
 43  22  42  1   
 44  23  24  ar  
 45  23  43  1   
 46  24  44  1   
@<TRIPOS>SUBSTRUCTURE
  1 ****   9 GROUP 4 **** **** 0

# MOE 2024.06 (io_trps.svl 2023.06)
