@<TRIPOS>MOLECULE
NONAME
53 55 1 0 0 
SMALL
USER_CHARGES


@<TRIPOS>ATOM
  1 O        0.0620     1.5590    -1.2610 O.2   1 <1>  -0.5700 
  2 C       -0.2450     2.7060    -1.0340 C.2   1 <1>   0.5690 
  3 N       -1.3060     3.0710    -0.2430 N.am  1 <1>  -0.6600 
  4 C        0.5960     3.8020    -1.6810 C.3   1 <1>   0.1810 
  5 C       -1.6320     4.5220    -0.0270 C.3   1 <1>   0.3640 
  6 C       -2.1560     2.1210     0.5280 C.3   1 <1>   0.2200 
  7 O        0.6730     4.9420    -0.8680 O.3   1 <1>  -0.5600 
  8 C       -3.0030     4.8240    -0.6400 C.ar  1 <1>  -0.1440 
  9 C       -0.5850     5.5330    -0.5760 C.3   1 <1>   0.2610 
 10 C       -1.3160     1.4060     1.5860 C.3   1 <1>  -0.2400 
 11 C       -2.8730     1.1360    -0.3960 C.3   1 <1>  -0.2400 
 12 C       -3.3320     4.3910    -1.9190 C.ar  1 <1>  -0.1500 
 13 C       -3.9380     5.5510     0.0820 C.ar  1 <1>  -0.1500 
 14 C       -0.4070     6.6870     0.4200 C.2   1 <1>   0.5690 
 15 C       -4.5730     4.6750    -2.4620 C.ar  1 <1>  -0.1500 
 16 C       -5.1800     5.8360    -0.4590 C.ar  1 <1>  -0.1500 
 17 O       -1.3760     7.2680     0.8500 O.2   1 <1>  -0.5700 
 18 N        0.8420     7.0400     0.8130 N.am  1 <1>  -0.7300 
 19 C       -5.4990     5.3980    -1.7310 C.ar  1 <1>  -0.1500 
 20 C        1.1790     8.1760     1.6790 C.3   1 <1>   0.3210 
 21 C        2.5650     8.6520     1.3000 C.2   1 <1>  -0.1810 
 22 C        2.9530     9.5160     0.3360 C.2   1 <1>  -0.3320 
 23 C        3.7460     8.2520     1.9130 C.2   1 <1>   0.1390 
 24 N        4.3010     9.6000     0.4110 N.pl3 1 <1>   0.3140 
 25 C        2.1000    10.2730    -0.6700 C.3   1 <1>  -0.0600 
 26 N        4.7880     8.8150     1.3860 N.2   1 <1>  -0.7070 
 27 C        5.1930    10.4130    -0.4250 C.3   1 <1>   0.0160 
 28 H        0.1760     4.0770    -2.6310 H     1 <1>   0.0800 
 29 H        1.5970     3.4390    -1.8310 H     1 <1>   0.0800 
 30 H       -1.7000     4.6720     1.0370 H     1 <1>   0.0800 
 31 H       -2.9180     2.6820     1.0440 H     1 <1>   0.0800 
 32 H       -0.9520     5.9570    -1.4930 H     1 <1>   0.0800 
 33 H       -0.5840     0.7680     1.1260 H     1 <1>   0.0800 
 34 H       -1.9510     0.7970     2.2030 H     1 <1>   0.0800 
 35 H       -0.8190     2.1240     2.2120 H     1 <1>   0.0800 
 36 H       -2.1770     0.4790    -0.8830 H     1 <1>   0.0800 
 37 H       -3.4420     1.6660    -1.1370 H     1 <1>   0.0800 
 38 H       -3.5520     0.5320     0.1790 H     1 <1>   0.0800 
 39 H       -2.6270     3.8220    -2.5000 H     1 <1>   0.1500 
 40 H       -3.7060     5.9080     1.0710 H     1 <1>   0.1500 
 41 H       -4.8200     4.3320    -3.4520 H     1 <1>   0.1500 
 42 H       -5.8960     6.4020     0.1110 H     1 <1>   0.1500 
 43 H        1.6410     6.5540     0.3930 H     1 <1>   0.3700 
 44 H       -6.4640     5.6200    -2.1520 H     1 <1>   0.1500 
 45 H        0.4620     8.9680     1.5430 H     1 <1>   0.0800 
 46 H        1.1590     7.8640     2.7090 H     1 <1>   0.0800 
 47 H        3.8060     7.5550     2.7320 H     1 <1>   0.1500 
 48 H        1.0620    10.0180    -0.5530 H     1 <1>   0.0800 
 49 H        2.3980    10.0220    -1.6720 H     1 <1>   0.0800 
 50 H        2.2090    11.3340    -0.5260 H     1 <1>   0.0800 
 51 H        4.9200    11.4460    -0.3290 H     1 <1>   0.0800 
 52 H        5.1010    10.0990    -1.4470 H     1 <1>   0.0800 
 53 H        6.2060    10.2750    -0.0950 H     1 <1>   0.0800 
@<TRIPOS>BOND
  1   1   2  2   
  2   2   3  am  
  3   2   4  1   
  4   3   5  1   
  5   3   6  1   
  6   4   7  1   
  7   4  28  1   
  8   4  29  1   
  9   5   8  1   
 10   5   9  1   
 11   5  30  1   
 12   6  10  1   
 13   6  11  1   
 14   6  31  1   
 15   7   9  1   
 16   8  12  ar  
 17   8  13  ar  
 18   9  14  1   
 19   9  32  1   
 20  10  33  1   
 21  10  34  1   
 22  10  35  1   
 23  11  36  1   
 24  11  37  1   
 25  11  38  1   
 26  12  15  ar  
 27  12  39  1   
 28  13  16  ar  
 29  13  40  1   
 30  14  17  2   
 31  14  18  am  
 32  15  19  ar  
 33  15  41  1   
 34  16  19  ar  
 35  16  42  1   
 36  18  20  1   
 37  18  43  1   
 38  19  44  1   
 39  20  21  1   
 40  20  45  1   
 41  20  46  1   
 42  21  22  2   
 43  21  23  1   
 44  22  24  1   
 45  22  25  1   
 46  23  26  2   
 47  23  47  1   
 48  24  26  1   
 49  24  27  1   
 50  25  48  1   
 51  25  49  1   
 52  25  50  1   
 53  27  51  1   
 54  27  52  1   
 55  27  53  1   
@<TRIPOS>SUBSTRUCTURE
  1 ****   9 GROUP 4 **** **** 0

# MOE 2024.06 (io_trps.svl 2023.06)
