@<TRIPOS>MOLECULE
NONAME
47 49 1 0 0 
SMALL
USER_CHARGES


@<TRIPOS>ATOM
  1 O       -0.8500     0.3760     0.6310 O.2   1 <1>  -0.5700 
  2 C       -1.5890     1.3150     0.3780 C.2   1 <1>   0.7160 
  3 N       -2.9340     1.0350     0.1710 N.am  1 <1>  -0.6600 
  4 C       -1.0060     2.6490     0.3210 C.2   1 <1>   0.1410 
  5 C       -3.4010    -0.3630    -0.0840 C.3   1 <1>   0.1400 
  6 C       -4.0120     2.0550     0.3050 C.3   1 <1>   0.1400 
  7 N       -1.5220     3.7030    -0.3570 N.2   1 <1>  -0.2270 
  8 C        0.1480     3.0720     0.8920 C.2   1 <1>  -0.3020 
  9 C       -4.2190    -0.4790    -1.3800 C.3   1 <1>   0.1400 
 10 C       -4.5220     2.4570    -1.0820 C.3   1 <1>  -0.1600 
 11 N       -0.7500     4.7180    -0.2110 N.2   1 <1>  -0.4180 
 12 N        0.2800     4.3470     0.5490 N.pl3 1 <1>   0.3000 
 13 N       -5.5710     0.1440    -1.2350 N.am  1 <1>  -0.6600 
 14 C       -5.6730     1.5880    -1.6120 C.3   1 <1>   0.1400 
 15 C       -6.6970    -0.5490    -0.8560 C.2   1 <1>   0.5690 
 16 O       -7.7860    -0.0240    -0.8310 O.2   1 <1>  -0.5700 
 17 C       -6.6010    -2.0170    -0.4580 C.3   1 <1>  -0.0990 
 18 C       -7.8770    -2.5550     0.2000 C.3   1 <1>   0.0210 
 19 C       -7.7930    -3.9960     0.7000 C.2   1 <1>  -0.1810 
 20 C       -6.8710    -4.9800     0.6430 C.2   1 <1>  -0.0400 
 21 C       -8.8410    -4.5960     1.4040 C.2   1 <1>   0.1080 
 22 O       -7.3610    -6.0210     1.2620 O.3   1 <1>  -0.0190 
 23 C       -5.4790    -5.1420     0.0600 C.3   1 <1>  -0.0600 
 24 N       -8.5520    -5.8030     1.7270 N.2   1 <1>  -0.4100 
 25 C      -10.1600    -3.9410     1.7600 C.3   1 <1>  -0.0590 
 26 H       -3.9850    -0.7000     0.7530 H     1 <1>   0.0800 
 27 H       -2.5550    -1.0220    -0.1720 H     1 <1>   0.0800 
 28 H       -3.6340     2.9220     0.8180 H     1 <1>   0.0800 
 29 H       -4.8180     1.6620     0.9030 H     1 <1>   0.0800 
 30 H        0.8470     2.5260     1.4980 H     1 <1>   0.1500 
 31 H       -4.3240    -1.5180    -1.6330 H     1 <1>   0.0800 
 32 H       -3.6810    -0.0130    -2.1880 H     1 <1>   0.0800 
 33 H       -3.7080     2.4600    -1.7850 H     1 <1>   0.0800 
 34 H       -4.8820     3.4680    -1.0300 H     1 <1>   0.0800 
 35 H        1.0400     4.9890     0.8000 H     1 <1>   0.2700 
 36 H       -5.7190     1.6690    -2.6840 H     1 <1>   0.0800 
 37 H       -6.5930     1.9900    -1.2230 H     1 <1>   0.0800 
 38 H       -5.7920    -2.1320     0.2360 H     1 <1>   0.0800 
 39 H       -6.4020    -2.5870    -1.3450 H     1 <1>   0.0800 
 40 H       -8.6880    -2.4840    -0.5040 H     1 <1>   0.0800 
 41 H       -8.1190    -1.9220     1.0370 H     1 <1>   0.0800 
 42 H       -5.1470    -4.2670    -0.4570 H     1 <1>   0.0800 
 43 H       -5.4790    -5.9660    -0.6310 H     1 <1>   0.0800 
 44 H       -4.7850    -5.3590     0.8510 H     1 <1>   0.0800 
 45 H      -10.6580    -3.6120     0.8680 H     1 <1>   0.0800 
 46 H       -9.9880    -3.0990     2.4050 H     1 <1>   0.0800 
 47 H      -10.7920    -4.6440     2.2710 H     1 <1>   0.0800 
@<TRIPOS>BOND
  1   1   2  2   
  2   2   3  am  
  3   2   4  1   
  4   3   5  1   
  5   3   6  1   
  6   4   7  1   
  7   4   8  2   
  8   5   9  1   
  9   5  26  1   
 10   5  27  1   
 11   6  10  1   
 12   6  28  1   
 13   6  29  1   
 14   7  11  2   
 15   8  12  1   
 16   8  30  1   
 17   9  13  1   
 18   9  31  1   
 19   9  32  1   
 20  10  14  1   
 21  10  33  1   
 22  10  34  1   
 23  11  12  1   
 24  12  35  1   
 25  13  14  1   
 26  13  15  am  
 27  14  36  1   
 28  14  37  1   
 29  15  16  2   
 30  15  17  1   
 31  17  18  1   
 32  17  38  1   
 33  17  39  1   
 34  18  19  1   
 35  18  40  1   
 36  18  41  1   
 37  19  20  2   
 38  19  21  1   
 39  20  22  1   
 40  20  23  1   
 41  21  24  2   
 42  21  25  1   
 43  22  24  1   
 44  23  42  1   
 45  23  43  1   
 46  23  44  1   
 47  25  45  1   
 48  25  46  1   
 49  25  47  1   
@<TRIPOS>SUBSTRUCTURE
  1 ****   5 GROUP 4 **** **** 0

# MOE 2024.06 (io_trps.svl 2023.06)
