@<TRIPOS>MOLECULE
NONAME
59 63 1 0 0 
SMALL
USER_CHARGES


@<TRIPOS>ATOM
  1 S        0.1750     0.1020     1.1140 S.3   1 <1>  -0.0800 
  2 C        1.6500    -0.1240     0.1970 C.2   1 <1>  -0.1400 
  3 C        0.9960     1.1950     2.2160 C.2   1 <1>  -0.1100 
  4 C        2.6600     0.5960     0.7090 C.2   1 <1>  -0.1810 
  5 C        1.6740    -1.0430    -1.0040 C.3   1 <1>   0.0200 
  6 C        2.2900     1.3560     1.8710 C.2   1 <1>  -0.1810 
  7 C        4.0510     0.5570     0.0890 C.3   1 <1>   0.0210 
  8 C        3.1360    -1.3130    -1.4060 C.3   1 <1>  -0.1600 
  9 C        3.2740     2.2460     2.6020 C.3   1 <1>   0.3210 
 10 C        4.0030    -0.0380    -1.3330 C.3   1 <1>  -0.1600 
 11 N        3.4570     3.4580     1.7880 N.am  1 <1>  -0.7300 
 12 C        4.6530     4.0320     1.5040 C.2   1 <1>   0.5690 
 13 O        5.6690     3.6110     2.0050 O.2   1 <1>  -0.5700 
 14 C        4.7270     5.1650     0.4630 C.3   1 <1>   0.0610 
 15 C        5.8310     6.2000     0.8200 C.3   1 <1>   0.2200 
 16 C        3.4630     6.0840     0.4370 C.3   1 <1>  -0.1600 
 17 C        4.9580     4.4650    -0.9120 C.3   1 <1>  -0.1600 
 18 N        5.3300     7.3920     0.1400 N.am  1 <1>  -0.6600 
 19 C        5.7070     6.7080     2.2700 C.3   1 <1>  -0.1600 
 20 C        4.0160     7.4810     0.7520 C.3   1 <1>   0.2200 
 21 C        5.2290     5.3450    -2.1440 C.3   1 <1>  -0.2400 
 22 C        6.0520     8.2950    -0.6090 C.2   1 <1>   0.7160 
 23 C        4.4130     7.5430     2.2310 C.3   1 <1>  -0.1600 
 24 O        7.2490     8.0880    -0.7280 O.2   1 <1>  -0.5700 
 25 C        5.4620     9.4580    -1.2590 C.2   1 <1>   0.2030 
 26 N        4.2010     9.7510    -1.4040 N.2   1 <1>  -0.4100 
 27 C        6.2020    10.4670    -1.8600 C.2   1 <1>  -0.1500 
 28 O        4.0610    10.8810    -2.0520 O.3   1 <1>  -0.0190 
 29 C        5.2750    11.3070    -2.3250 C.2   1 <1>  -0.0400 
 30 C        5.4350    12.6080    -3.0840 C.3   1 <1>  -0.0600 
 31 H        0.4100     1.6090     3.0170 H     1 <1>   0.1500 
 32 H        1.1800    -1.9690    -0.7710 H     1 <1>   0.0800 
 33 H        1.1480    -0.5680    -1.8130 H     1 <1>   0.0800 
 34 H        4.4690     1.5450     0.0400 H     1 <1>   0.0800 
 35 H        4.6870    -0.0450     0.7130 H     1 <1>   0.0800 
 36 H        3.5480    -2.0480    -0.7350 H     1 <1>   0.0800 
 37 H        3.1640    -1.7220    -2.4000 H     1 <1>   0.0800 
 38 H        4.2100     1.7330     2.7470 H     1 <1>   0.0800 
 39 H        2.8810     2.5230     3.5650 H     1 <1>   0.0800 
 40 H        3.5930     0.6980    -2.0020 H     1 <1>   0.0800 
 41 H        5.0040    -0.2590    -1.6590 H     1 <1>   0.0800 
 42 H        2.6310     3.7030     1.2430 H     1 <1>   0.3700 
 43 H        6.8290     5.9090     0.5340 H     1 <1>   0.0800 
 44 H        2.7140     5.8200     1.1590 H     1 <1>   0.0800 
 45 H        2.9990     6.0960    -0.5320 H     1 <1>   0.0800 
 46 H        5.7960     3.7960    -0.8090 H     1 <1>   0.0800 
 47 H        4.0980     3.8530    -1.1250 H     1 <1>   0.0800 
 48 H        5.6720     5.9260     3.0060 H     1 <1>   0.0800 
 49 H        6.5510     7.3380     2.4920 H     1 <1>   0.0800 
 50 H        3.3940     8.2950     0.4240 H     1 <1>   0.0800 
 51 H        6.1730     5.8510    -2.0450 H     1 <1>   0.0800 
 52 H        4.4550     6.0770    -2.2880 H     1 <1>   0.0800 
 53 H        5.2780     4.7300    -3.0250 H     1 <1>   0.0800 
 54 H        4.6100     8.5610     2.5180 H     1 <1>   0.0800 
 55 H        3.6460     7.1400     2.8690 H     1 <1>   0.0800 
 56 H        7.2740    10.5100    -1.9110 H     1 <1>   0.1500 
 57 H        6.4760    12.8260    -3.2340 H     1 <1>   0.0800 
 58 H        4.9850    13.4110    -2.5280 H     1 <1>   0.0800 
 59 H        4.9510    12.5320    -4.0410 H     1 <1>   0.0800 
@<TRIPOS>BOND
  1   1   2  1   
  2   1   3  1   
  3   2   4  2   
  4   2   5  1   
  5   3   6  2   
  6   3  31  1   
  7   4   6  1   
  8   4   7  1   
  9   5   8  1   
 10   5  32  1   
 11   5  33  1   
 12   6   9  1   
 13   7  10  1   
 14   7  34  1   
 15   7  35  1   
 16   8  10  1   
 17   8  36  1   
 18   8  37  1   
 19   9  11  1   
 20   9  38  1   
 21   9  39  1   
 22  10  40  1   
 23  10  41  1   
 24  11  12  am  
 25  11  42  1   
 26  12  13  2   
 27  12  14  1   
 28  14  15  1   
 29  14  16  1   
 30  14  17  1   
 31  15  18  1   
 32  15  19  1   
 33  15  43  1   
 34  16  20  1   
 35  16  44  1   
 36  16  45  1   
 37  17  21  1   
 38  17  46  1   
 39  17  47  1   
 40  18  20  1   
 41  18  22  am  
 42  19  23  1   
 43  19  48  1   
 44  19  49  1   
 45  20  23  1   
 46  20  50  1   
 47  21  51  1   
 48  21  52  1   
 49  21  53  1   
 50  22  24  2   
 51  22  25  1   
 52  23  54  1   
 53  23  55  1   
 54  25  26  2   
 55  25  27  1   
 56  26  28  1   
 57  27  29  2   
 58  27  56  1   
 59  28  29  1   
 60  29  30  1   
 61  30  57  1   
 62  30  58  1   
 63  30  59  1   
@<TRIPOS>SUBSTRUCTURE
  1 ****  14 GROUP 4 **** **** 0

# MOE 2024.06 (io_trps.svl 2023.06)
