@<TRIPOS>MOLECULE
NONAME
53 56 1 0 0 
SMALL
USER_CHARGES


@<TRIPOS>ATOM
  1 O        1.2420    -2.2950    -0.9840 O.2   1 <1>  -0.5700 
  2 C        0.0690    -2.5570    -0.9370 C.2   1 <1>   0.5690 
  3 N       -0.8700    -2.0150    -1.7260 N.am  1 <1>  -0.7300 
  4 C       -0.5460    -3.5430     0.0140 C.3   1 <1>  -0.0990 
  5 C       -2.2230    -2.5130    -1.4490 C.3   1 <1>   0.1400 
  6 C       -1.9600    -3.7510    -0.5790 C.3   1 <1>  -0.0190 
  7 C       -3.0850    -3.9690     0.4290 C.2   1 <1>   0.5690 
  8 O       -2.9630    -3.4690     1.5230 O.2   1 <1>  -0.5700 
  9 N       -4.2030    -4.6970     0.0990 N.am  1 <1>  -0.6600 
 10 C       -4.5410    -5.2480    -1.2450 C.3   1 <1>   0.1400 
 11 C       -5.2240    -5.0460     1.1280 C.3   1 <1>   0.1400 
 12 C       -4.5910    -6.7740    -1.1550 C.3   1 <1>  -0.1600 
 13 C       -5.3000    -6.5690     1.2550 C.3   1 <1>  -0.1600 
 14 C       -5.5990    -7.2440    -0.0950 C.3   1 <1>   0.4240 
 15 O       -6.8470    -6.7770    -0.5500 O.3   1 <1>  -0.5600 
 16 C       -5.5730    -8.7830     0.0260 C.ar  1 <1>  -0.1430 
 17 C       -7.9890    -7.4140    -0.0650 C.3   1 <1>   0.1200 
 18 C       -6.7100    -9.5440    -0.2050 C.ar  1 <1>  -0.1430 
 19 C       -4.4020    -9.4420     0.3770 C.ar  1 <1>  -0.1500 
 20 C       -8.0060    -8.8520    -0.5770 C.3   1 <1>  -0.0170 
 21 C       -6.6690   -10.9250    -0.0950 C.ar  1 <1>  -0.1500 
 22 C       -4.3380   -10.8200     0.4870 C.ar  1 <1>   0.0820 
 23 C       -5.4940   -11.5850     0.2570 C.ar  1 <1>   0.0820 
 24 O       -3.1040   -11.2980     0.8240 O.3   1 <1>  -0.3630 
 25 O       -5.4600   -12.9440     0.3940 O.3   1 <1>  -0.3620 
 26 C       -2.6970   -12.6130     0.5200 C.3   1 <1>   0.0400 
 27 C       -6.6190   -13.7420     0.2970 C.3   1 <1>   0.0400 
 28 H       -0.6610    -1.2590    -2.3810 H     1 <1>   0.3700 
 29 H       -0.5690    -3.0960     0.9900 H     1 <1>   0.0800 
 30 H        0.0180    -4.4560     0.0420 H     1 <1>   0.0800 
 31 H       -2.7390    -2.7650    -2.3590 H     1 <1>   0.0800 
 32 H       -2.7740    -1.7650    -0.9020 H     1 <1>   0.0800 
 33 H       -1.8920    -4.6070    -1.2230 H     1 <1>   0.0800 
 34 H       -3.8330    -4.9480    -1.9940 H     1 <1>   0.0800 
 35 H       -5.5050    -4.8710    -1.5440 H     1 <1>   0.0800 
 36 H       -6.1800    -4.6500     0.8280 H     1 <1>   0.0800 
 37 H       -4.9720    -4.6170     2.0830 H     1 <1>   0.0800 
 38 H       -3.6070    -7.1320    -0.9180 H     1 <1>   0.0800 
 39 H       -4.8660    -7.1900    -2.1070 H     1 <1>   0.0800 
 40 H       -6.0440    -6.8420     1.9790 H     1 <1>   0.0800 
 41 H       -4.3570    -6.9180     1.6320 H     1 <1>   0.0800 
 42 H       -8.8470    -6.8750    -0.4270 H     1 <1>   0.0800 
 43 H       -7.9820    -7.3860     1.0100 H     1 <1>   0.0800 
 44 H       -3.5030    -8.8880     0.5720 H     1 <1>   0.1500 
 45 H       -8.1240    -8.8500    -1.6460 H     1 <1>   0.0800 
 46 H       -8.8430    -9.3690    -0.1450 H     1 <1>   0.0800 
 47 H       -7.5710   -11.4710    -0.2870 H     1 <1>   0.1500 
 48 H       -1.6290   -12.6650     0.6200 H     1 <1>   0.0800 
 49 H       -2.9860   -12.8460    -0.4900 H     1 <1>   0.0800 
 50 H       -3.1610   -13.2890     1.2170 H     1 <1>   0.0800 
 51 H       -6.3390   -14.7610     0.4940 H     1 <1>   0.0800 
 52 H       -7.0190   -13.6600    -0.6980 H     1 <1>   0.0800 
 53 H       -7.3330   -13.4120     1.0320 H     1 <1>   0.0800 
@<TRIPOS>BOND
  1   1   2  2   
  2   2   3  am  
  3   2   4  1   
  4   3   5  1   
  5   3  28  1   
  6   4   6  1   
  7   4  29  1   
  8   4  30  1   
  9   5   6  1   
 10   5  31  1   
 11   5  32  1   
 12   6   7  1   
 13   6  33  1   
 14   7   8  2   
 15   7   9  am  
 16   9  10  1   
 17   9  11  1   
 18  10  12  1   
 19  10  34  1   
 20  10  35  1   
 21  11  13  1   
 22  11  36  1   
 23  11  37  1   
 24  12  14  1   
 25  12  38  1   
 26  12  39  1   
 27  13  14  1   
 28  13  40  1   
 29  13  41  1   
 30  14  15  1   
 31  14  16  1   
 32  15  17  1   
 33  16  18  ar  
 34  16  19  ar  
 35  17  20  1   
 36  17  42  1   
 37  17  43  1   
 38  18  20  1   
 39  18  21  ar  
 40  19  22  ar  
 41  19  44  1   
 42  20  45  1   
 43  20  46  1   
 44  21  23  ar  
 45  21  47  1   
 46  22  23  ar  
 47  22  24  1   
 48  23  25  1   
 49  24  26  1   
 50  25  27  1   
 51  26  48  1   
 52  26  49  1   
 53  26  50  1   
 54  27  51  1   
 55  27  52  1   
 56  27  53  1   
@<TRIPOS>SUBSTRUCTURE
  1 ****  12 GROUP 4 **** **** 0

# MOE 2024.06 (io_trps.svl 2023.06)
