@<TRIPOS>MOLECULE
NONAME
45 46 1 0 0 
SMALL
USER_CHARGES


@<TRIPOS>ATOM
  1 O       -6.1210     0.2170     0.8740 O.co2 1 <1>  -0.9000 
  2 C       -4.9120    -0.0450     0.9020 C.2   1 <1>   0.9790 
  3 O       -4.4080    -0.4470     1.9650 O.co2 1 <1>  -0.9000 
  4 C       -4.1590    -0.1060    -0.3350 C.ar  1 <1>  -0.1790 
  5 C       -3.5580    -1.3020    -0.7430 C.ar  1 <1>  -0.1440 
  6 C       -4.0430     1.0050    -1.1680 C.ar  1 <1>  -0.1500 
  7 C       -2.8600    -1.3680    -1.9380 C.ar  1 <1>  -0.1500 
  8 C       -3.6850    -2.5390     0.1440 C.3   1 <1>   0.4870 
  9 C       -3.3450     0.9380    -2.3590 C.ar  1 <1>  -0.1500 
 10 C       -2.7500    -0.2490    -2.7450 C.ar  1 <1>  -0.1500 
 11 N       -5.0470    -3.1550     0.1090 N.4   1 <1>  -0.9590 
 12 C       -5.9800    -2.6430    -0.9420 C.3   1 <1>   0.3430 
 13 C       -5.7370    -3.0630     1.4280 C.3   1 <1>   0.3430 
 14 C       -7.1270    -3.6590    -1.0660 C.3   1 <1>   0.2000 
 15 C       -6.9150    -4.0430     1.4240 C.3   1 <1>  -0.1600 
 16 O       -6.5300    -4.8910    -1.3570 O.3   1 <1>  -0.6800 
 17 C       -7.9230    -3.7740     0.2620 C.3   1 <1>  -0.1060 
 18 C       -8.8800    -4.9670     0.0720 C.2   1 <1>   0.9060 
 19 C       -8.6880    -2.4300     0.5030 C.3   1 <1>  -0.1600 
 20 O      -10.0860    -4.7940    -0.1170 O.co2 1 <1>  -0.9000 
 21 O       -8.3750    -6.0980     0.0080 O.co2 1 <1>  -0.9000 
 22 C       -9.4990    -2.3440     1.8100 C.3   1 <1>  -0.1600 
 23 C      -10.3010    -1.0410     1.8620 C.3   1 <1>  -0.2400 
 24 H       -4.5160     1.9250    -0.8680 H     1 <1>   0.1500 
 25 H       -2.3960    -2.2870    -2.2510 H     1 <1>   0.1500 
 26 H       -3.4320    -2.2720     1.1570 H     1 <1>   0.0800 
 27 H       -2.9640    -3.2680    -0.1840 H     1 <1>   0.0800 
 28 H       -3.2660     1.8110    -2.9830 H     1 <1>   0.1500 
 29 H       -2.2040    -0.3000    -3.6720 H     1 <1>   0.1500 
 30 H       -4.9840    -4.1570    -0.1240 H     1 <1>   0.4500 
 31 H       -6.3550    -1.6690    -0.6730 H     1 <1>   0.0800 
 32 H       -5.4760    -2.5640    -1.8900 H     1 <1>   0.0800 
 33 H       -5.0550    -3.3100     2.2250 H     1 <1>   0.0800 
 34 H       -6.0970    -2.0600     1.5960 H     1 <1>   0.0800 
 35 H       -7.7870    -3.4060    -1.8780 H     1 <1>   0.0800 
 36 H       -6.5170    -5.0390     1.3400 H     1 <1>   0.0800 
 37 H       -7.4150    -4.0080     2.3720 H     1 <1>   0.0800 
 38 H       -7.1590    -5.6020    -1.0080 H     1 <1>   0.4000 
 39 H       -8.0100    -1.5960     0.4970 H     1 <1>   0.0800 
 40 H       -9.3700    -2.2840    -0.3180 H     1 <1>   0.0800 
 41 H      -10.1780    -3.1770     1.8790 H     1 <1>   0.0800 
 42 H       -8.8440    -2.3670     2.6610 H     1 <1>   0.0800 
 43 H      -10.9930    -0.9970     1.0400 H     1 <1>   0.0800 
 44 H       -9.6370    -0.1940     1.8060 H     1 <1>   0.0800 
 45 H      -10.8540    -0.9850     2.7820 H     1 <1>   0.0800 
@<TRIPOS>BOND
  1   1   2  ar  
  2   2   3  ar  
  3   2   4  1   
  4   4   5  ar  
  5   4   6  ar  
  6   5   7  ar  
  7   5   8  1   
  8   6   9  ar  
  9   6  24  1   
 10   7  10  ar  
 11   7  25  1   
 12   8  11  1   
 13   8  26  1   
 14   8  27  1   
 15   9  10  ar  
 16   9  28  1   
 17  10  29  1   
 18  11  12  1   
 19  11  13  1   
 20  11  30  1   
 21  12  14  1   
 22  12  31  1   
 23  12  32  1   
 24  13  15  1   
 25  13  33  1   
 26  13  34  1   
 27  14  16  1   
 28  14  17  1   
 29  14  35  1   
 30  15  17  1   
 31  15  36  1   
 32  15  37  1   
 33  16  38  1   
 34  17  18  1   
 35  17  19  1   
 36  18  20  ar  
 37  18  21  ar  
 38  19  22  1   
 39  19  39  1   
 40  19  40  1   
 41  22  23  1   
 42  22  41  1   
 43  22  42  1   
 44  23  43  1   
 45  23  44  1   
 46  23  45  1   
@<TRIPOS>SUBSTRUCTURE
  1 ****  12 GROUP 4 **** **** 0

# MOE 2024.06 (io_trps.svl 2023.06)
