@<TRIPOS>MOLECULE
NONAME
32 33 1 0 0 
SMALL
USER_CHARGES


@<TRIPOS>ATOM
  1 F        1.7190     3.4990     1.9490 F     1 <1>  -0.3400 
  2 C        1.7650     2.6430     0.9350 C.3   1 <1>   1.0200 
  3 F        0.7100     1.8490     1.0650 F     1 <1>  -0.3400 
  4 F        1.5680     3.3520    -0.1680 F     1 <1>  -0.3400 
  5 C        3.0930     1.8350     0.9070 C.3   1 <1>   0.2090 
  6 N        4.3880     2.6220     0.9100 N.pl3 1 <1>  -0.8690 
  7 C        4.8190     3.1960    -0.2540 C.ar  1 <1>   0.4100 
  8 N        4.8770     4.5060    -0.1920 N.ar  1 <1>  -0.6200 
  9 C        5.1590     2.4610    -1.3990 C.ar  1 <1>   0.1600 
 10 C        5.2740     5.0890    -1.3390 C.ar  1 <1>   0.3960 
 11 N        5.5480     2.9920    -2.5380 N.ar  1 <1>  -0.6200 
 12 C        5.3870     6.5480    -1.4640 C.2   1 <1>   0.5440 
 13 C        5.5880     4.3170    -2.4660 C.ar  1 <1>   0.1600 
 14 O        5.3230     7.0460    -2.5770 O.2   1 <1>  -0.5700 
 15 N        5.5870     7.4200    -0.4050 N.am  1 <1>  -0.6600 
 16 C        5.7900     8.8730    -0.5990 C.3   1 <1>   0.1400 
 17 C        5.7610     7.0550     1.0210 C.3   1 <1>   0.1400 
 18 C        6.4670     9.3450     0.6810 C.3   1 <1>  -0.1600 
 19 C        5.9740     8.3770     1.7510 C.3   1 <1>  -0.1600 
 20 H        3.0670     1.2010     0.0400 H     1 <1>   0.0800 
 21 H        3.0940     1.1940     1.7700 H     1 <1>   0.0800 
 22 H        4.3900     3.3330     1.6520 H     1 <1>   0.4000 
 23 H        5.1030     1.3900    -1.3420 H     1 <1>   0.1500 
 24 H        5.8930     4.8310    -3.3610 H     1 <1>   0.1500 
 25 H        4.8300     9.3460    -0.7180 H     1 <1>   0.0800 
 26 H        6.3990     9.0700    -1.4660 H     1 <1>   0.0800 
 27 H        6.6250     6.4210     1.1230 H     1 <1>   0.0800 
 28 H        4.8880     6.5500     1.3970 H     1 <1>   0.0800 
 29 H        6.2260    10.3680     0.9060 H     1 <1>   0.0800 
 30 H        7.5330     9.2520     0.5650 H     1 <1>   0.0800 
 31 H        6.6700     8.2760     2.5660 H     1 <1>   0.0800 
 32 H        5.0290     8.7150     2.1390 H     1 <1>   0.0800 
@<TRIPOS>BOND
  1   1   2  1   
  2   2   3  1   
  3   2   4  1   
  4   2   5  1   
  5   5   6  1   
  6   5  20  1   
  7   5  21  1   
  8   6   7  1   
  9   6  22  1   
 10   7   8  ar  
 11   7   9  ar  
 12   8  10  ar  
 13   9  11  ar  
 14   9  23  1   
 15  10  12  1   
 16  10  13  ar  
 17  11  13  ar  
 18  12  14  2   
 19  12  15  am  
 20  13  24  1   
 21  15  16  1   
 22  15  17  1   
 23  16  18  1   
 24  16  25  1   
 25  16  26  1   
 26  17  19  1   
 27  17  27  1   
 28  17  28  1   
 29  18  19  1   
 30  18  29  1   
 31  18  30  1   
 32  19  31  1   
 33  19  32  1   
@<TRIPOS>SUBSTRUCTURE
  1 ****   8 GROUP 4 **** **** 0

# MOE 2024.06 (io_trps.svl 2023.06)
