@<TRIPOS>MOLECULE
NONAME
54 57 1 0 0 
SMALL
USER_CHARGES


@<TRIPOS>ATOM
  1 O        4.7910    -1.9490     0.2300 O.2   1 <1>  -0.5700 
  2 C        3.6120    -1.9120    -0.0710 C.2   1 <1>   0.5440 
  3 N        3.2090    -0.8380    -0.8300 N.am  1 <1>  -0.6600 
  4 C        2.6780    -2.9000     0.4320 C.ar  1 <1>   0.0860 
  5 C        4.0790    -0.3080    -1.9320 C.3   1 <1>   0.1400 
  6 C        2.1960     0.1120    -0.3050 C.3   1 <1>   0.1400 
  7 C        2.9560    -3.6070     1.5980 C.ar  1 <1>   0.1600 
  8 C        1.4780    -3.1880    -0.2030 C.ar  1 <1>  -0.1500 
  9 C        5.2670     0.5430    -1.4290 C.3   1 <1>   0.3430 
 10 C        2.8100     0.9790     0.8030 C.3   1 <1>  -0.1600 
 11 N        2.1680    -4.5020     2.1650 N.ar  1 <1>  -0.6200 
 12 C        0.6370    -4.1240     0.3620 C.ar  1 <1>  -0.1430 
 13 N        5.1720     0.8440     0.0340 N.4   1 <1>  -0.9590 
 14 C        4.0630     1.7660     0.4010 C.3   1 <1>   0.3430 
 15 C        1.0260    -4.7500     1.5440 C.ar  1 <1>   0.1670 
 16 C       -0.6790    -4.4510    -0.3350 C.3   1 <1>  -0.0170 
 17 C        6.4900     1.2350     0.6140 C.3   1 <1>   0.5230 
 18 C        0.1330    -5.7770     2.2280 C.3   1 <1>  -0.0170 
 19 C       -1.6790    -5.1460     0.5950 C.3   1 <1>  -0.1600 
 20 C        7.0110     2.5690     0.0950 C.2   1 <1>  -0.0400 
 21 C       -1.0000    -6.3010     1.3340 C.3   1 <1>  -0.1600 
 22 O        8.1900     2.9410     0.5500 O.3   1 <1>  -0.2800 
 23 C        6.5290     3.5050    -0.7580 C.2   1 <1>  -0.1500 
 24 C        8.4910     4.1020     0.0100 C.2   1 <1>  -0.0400 
 25 C        7.5030     4.5090    -0.8120 C.2   1 <1>  -0.1500 
 26 C        9.8080     4.7540     0.3720 C.3   1 <1>  -0.0600 
 27 H        3.4830     0.2760    -2.6120 H     1 <1>   0.0800 
 28 H        4.4700    -1.1380    -2.4960 H     1 <1>   0.0800 
 29 H        1.3570    -0.4350     0.0940 H     1 <1>   0.0800 
 30 H        1.8270     0.7320    -1.1060 H     1 <1>   0.0800 
 31 H        3.8910    -3.4150     2.0950 H     1 <1>   0.1500 
 32 H        1.2130    -2.6950    -1.1210 H     1 <1>   0.1500 
 33 H        5.3340     1.4520    -2.0010 H     1 <1>   0.0800 
 34 H        6.1690    -0.0190    -1.6120 H     1 <1>   0.0800 
 35 H        3.0280     0.3680     1.6610 H     1 <1>   0.0800 
 36 H        2.0630     1.6870     1.1150 H     1 <1>   0.0800 
 37 H        4.9420    -0.0900     0.4340 H     1 <1>   0.4500 
 38 H        4.3660     2.3770     1.2360 H     1 <1>   0.0800 
 39 H        3.8380     2.4220    -0.4240 H     1 <1>   0.0800 
 40 H       -0.4680    -5.0980    -1.1700 H     1 <1>   0.0800 
 41 H       -1.1250    -3.5510    -0.7200 H     1 <1>   0.0800 
 42 H        7.2190     0.4740     0.3890 H     1 <1>   0.0800 
 43 H        6.4060     1.2960     1.6860 H     1 <1>   0.0800 
 44 H       -0.2880    -5.3140     3.1020 H     1 <1>   0.0800 
 45 H        0.7360    -6.6050     2.5570 H     1 <1>   0.0800 
 46 H       -2.5100    -5.5160     0.0190 H     1 <1>   0.0800 
 47 H       -2.0590    -4.4360     1.3100 H     1 <1>   0.0800 
 48 H       -1.7190    -6.8280     1.9380 H     1 <1>   0.0800 
 49 H       -0.5950    -6.9960     0.6180 H     1 <1>   0.0800 
 50 H        5.6100     3.5440    -1.3120 H     1 <1>   0.1500 
 51 H        7.4470     5.4110    -1.3980 H     1 <1>   0.1500 
 52 H       10.6220     4.1090     0.0940 H     1 <1>   0.0800 
 53 H        9.8490     4.9300     1.4310 H     1 <1>   0.0800 
 54 H        9.9140     5.6920    -0.1420 H     1 <1>   0.0800 
@<TRIPOS>BOND
  1   1   2  2   
  2   2   3  am  
  3   2   4  1   
  4   3   5  1   
  5   3   6  1   
  6   4   7  ar  
  7   4   8  ar  
  8   5   9  1   
  9   5  27  1   
 10   5  28  1   
 11   6  10  1   
 12   6  29  1   
 13   6  30  1   
 14   7  11  ar  
 15   7  31  1   
 16   8  12  ar  
 17   8  32  1   
 18   9  13  1   
 19   9  33  1   
 20   9  34  1   
 21  10  14  1   
 22  10  35  1   
 23  10  36  1   
 24  11  15  ar  
 25  12  15  ar  
 26  12  16  1   
 27  13  14  1   
 28  13  17  1   
 29  13  37  1   
 30  14  38  1   
 31  14  39  1   
 32  15  18  1   
 33  16  19  1   
 34  16  40  1   
 35  16  41  1   
 36  17  20  1   
 37  17  42  1   
 38  17  43  1   
 39  18  21  1   
 40  18  44  1   
 41  18  45  1   
 42  19  21  1   
 43  19  46  1   
 44  19  47  1   
 45  20  22  1   
 46  20  23  2   
 47  21  48  1   
 48  21  49  1   
 49  22  24  1   
 50  23  25  1   
 51  23  50  1   
 52  24  25  2   
 53  24  26  1   
 54  25  51  1   
 55  26  52  1   
 56  26  53  1   
 57  26  54  1   
@<TRIPOS>SUBSTRUCTURE
  1 ****   2 GROUP 4 **** **** 0

# MOE 2024.06 (io_trps.svl 2023.06)
