@<TRIPOS>MOLECULE
NONAME
51 54 1 0 0 
SMALL
USER_CHARGES


@<TRIPOS>ATOM
  1 O        1.8880    -1.7710     2.3440 O.2   1 <1>  -0.5700 
  2 C        2.6660    -1.0580     1.7650 C.2   1 <1>   0.5690 
  3 N        2.5040     0.2620     1.5990 N.am  1 <1>  -0.7300 
  4 C        3.9450    -1.5190     1.1280 C.3   1 <1>  -0.0990 
  5 C        3.5590     0.8980     0.8170 C.3   1 <1>   0.3000 
  6 C        4.6730    -0.1830     0.8560 C.3   1 <1>  -0.1860 
  7 C        3.9530     2.2110     1.4870 C.3   1 <1>  -0.1600 
  8 C        2.9660     1.2260    -0.5600 C.3   1 <1>  -0.1600 
  9 C        5.5740    -0.1710    -0.3550 C.2   1 <1>   0.9060 
 10 C        5.0220     2.9170     0.6640 C.3   1 <1>   0.3430 
 11 C        3.9300     2.0060    -1.4550 C.3   1 <1>   0.3430 
 12 O        5.2160    -0.7420    -1.3850 O.co2 1 <1>  -0.9000 
 13 O        6.5400     0.5970    -0.3510 O.co2 1 <1>  -0.9000 
 14 N        4.6020     3.1500    -0.7600 N.4   1 <1>  -0.9590 
 15 C        5.8430     3.4330    -1.5340 C.3   1 <1>   0.4860 
 16 C        6.4610     4.7200    -1.0220 C.ar  1 <1>  -0.1440 
 17 C        7.5890     4.6660    -0.2330 C.ar  1 <1>  -0.1500 
 18 C        5.8820     5.9590    -1.3390 C.ar  1 <1>  -0.1500 
 19 C        8.1400     5.8470     0.2680 C.ar  1 <1>   0.0000 
 20 C        6.4200     7.1290    -0.8530 C.ar  1 <1>  -0.1500 
 21 C        7.5550     7.0710    -0.0390 C.ar  1 <1>  -0.1520 
 22 C        9.2500     6.1260     1.0890 C.2   1 <1>  -0.1500 
 23 N        8.2840     8.0650     0.5750 N.pl3 1 <1>   0.0480 
 24 C        9.3080     7.4680     1.2550 C.2   1 <1>  -0.3020 
 25 C        8.0220     9.5180     0.5160 C.3   1 <1>   0.0960 
 26 C        8.6500    10.1270    -0.7410 C.3   1 <1>  -0.2400 
 27 H        1.6590     0.7390     1.9080 H     1 <1>   0.3700 
 28 H        3.7110    -2.0410     0.2180 H     1 <1>   0.0800 
 29 H        4.5040    -2.1580     1.7860 H     1 <1>   0.0800 
 30 H        5.3040     0.0080     1.7040 H     1 <1>   0.0800 
 31 H        4.3440     2.0180     2.4700 H     1 <1>   0.0800 
 32 H        3.1000     2.8570     1.5860 H     1 <1>   0.0800 
 33 H        2.0680     1.8050    -0.4430 H     1 <1>   0.0800 
 34 H        2.7040     0.3120    -1.0650 H     1 <1>   0.0800 
 35 H        5.9210     2.3260     0.6880 H     1 <1>   0.0800 
 36 H        5.2610     3.8610     1.1260 H     1 <1>   0.0800 
 37 H        3.3930     2.3690    -2.3150 H     1 <1>   0.0800 
 38 H        4.6830     1.3340    -1.8320 H     1 <1>   0.0800 
 39 H        4.0080     3.9820    -0.7880 H     1 <1>   0.4500 
 40 H        5.6180     3.5350    -2.5820 H     1 <1>   0.0800 
 41 H        6.5410     2.6160    -1.4180 H     1 <1>   0.0800 
 42 H        8.0630     3.7300     0.0170 H     1 <1>   0.1500 
 43 H        5.0130     6.0030    -1.9710 H     1 <1>   0.1500 
 44 H        5.9830     8.0820    -1.0940 H     1 <1>   0.1500 
 45 H        9.9090     5.3750     1.4890 H     1 <1>   0.1500 
 46 H       10.0240     8.0380     1.8190 H     1 <1>   0.1500 
 47 H        8.4370     9.9780     1.3950 H     1 <1>   0.0800 
 48 H        6.9590     9.6790     0.5180 H     1 <1>   0.0800 
 49 H        9.7150     9.9740    -0.7350 H     1 <1>   0.0800 
 50 H        8.4560    11.1840    -0.7710 H     1 <1>   0.0800 
 51 H        8.2330     9.6760    -1.6240 H     1 <1>   0.0800 
@<TRIPOS>BOND
  1   1   2  2   
  2   2   3  am  
  3   2   4  1   
  4   3   5  1   
  5   3  27  1   
  6   4   6  1   
  7   4  28  1   
  8   4  29  1   
  9   5   6  1   
 10   5   7  1   
 11   5   8  1   
 12   6   9  1   
 13   6  30  1   
 14   7  10  1   
 15   7  31  1   
 16   7  32  1   
 17   8  11  1   
 18   8  33  1   
 19   8  34  1   
 20   9  12  ar  
 21   9  13  ar  
 22  10  14  1   
 23  10  35  1   
 24  10  36  1   
 25  11  14  1   
 26  11  37  1   
 27  11  38  1   
 28  14  15  1   
 29  14  39  1   
 30  15  16  1   
 31  15  40  1   
 32  15  41  1   
 33  16  17  ar  
 34  16  18  ar  
 35  17  19  ar  
 36  17  42  1   
 37  18  20  ar  
 38  18  43  1   
 39  19  21  ar  
 40  19  22  1   
 41  20  21  ar  
 42  20  44  1   
 43  21  23  1   
 44  22  24  2   
 45  22  45  1   
 46  23  24  1   
 47  23  25  1   
 48  24  46  1   
 49  25  26  1   
 50  25  47  1   
 51  25  48  1   
 52  26  49  1   
 53  26  50  1   
 54  26  51  1   
@<TRIPOS>SUBSTRUCTURE
  1 ****  10 GROUP 4 **** **** 0

# MOE 2024.06 (io_trps.svl 2023.06)
