@<TRIPOS>MOLECULE
NONAME
41 42 1 0 0 
SMALL
USER_CHARGES


@<TRIPOS>ATOM
  1 O        2.7560    -0.2850    -2.4710 O.2   1 <1>  -0.5700 
  2 C        1.9200    -0.7860    -1.7570 C.2   1 <1>   0.5690 
  3 N        2.1120    -1.1900    -0.4810 N.am  1 <1>  -0.6600 
  4 C        0.5000    -1.0270    -2.1840 C.3   1 <1>  -0.0990 
  5 C        0.8950    -1.7320     0.1430 C.3   1 <1>   0.1400 
  6 C        3.4020    -1.1510     0.2340 C.3   1 <1>   0.1400 
  7 C       -0.2120    -1.4200    -0.8760 C.3   1 <1>  -0.1600 
  8 C        3.6590     0.2770     0.7180 C.3   1 <1>  -0.1600 
  9 C        5.0980     0.4490     1.2300 C.3   1 <1>  -0.0990 
 10 C        5.4230     1.8970     1.5440 C.2   1 <1>   0.5690 
 11 O        5.6550     2.1990     2.6870 O.2   1 <1>  -0.5700 
 12 N        5.4310     2.7740     0.4990 N.am  1 <1>  -0.4940 
 13 C        5.7140     4.1440     0.4790 C.2   1 <1>   0.2040 
 14 O        6.1610     4.7870     1.5320 O.3   1 <1>  -0.0190 
 15 C        5.6120     5.0320    -0.5300 C.2   1 <1>  -0.1810 
 16 N        6.3650     6.0550     1.2770 N.2   1 <1>  -0.4100 
 17 C        6.0420     6.2280     0.0450 C.2   1 <1>   0.1080 
 18 C        5.1430     4.8220    -1.9600 C.3   1 <1>  -0.0590 
 19 C        6.1310     7.5730    -0.6550 C.3   1 <1>   0.0210 
 20 C        7.4610     7.7250    -1.4010 C.3   1 <1>  -0.2400 
 21 H        0.4820    -1.8320    -2.8940 H     1 <1>   0.0800 
 22 H        0.0790    -0.1390    -2.6190 H     1 <1>   0.0800 
 23 H        0.7050    -1.2530     1.0880 H     1 <1>   0.0800 
 24 H        1.0040    -2.7940     0.2810 H     1 <1>   0.0800 
 25 H        4.1790    -1.4500    -0.4500 H     1 <1>   0.0800 
 26 H        3.3900    -1.8390     1.0620 H     1 <1>   0.0800 
 27 H       -0.8670    -2.2620    -1.0120 H     1 <1>   0.0800 
 28 H       -0.7920    -0.5880    -0.5150 H     1 <1>   0.0800 
 29 H        2.9640     0.5240     1.5020 H     1 <1>   0.0800 
 30 H        3.4920     0.9500    -0.1050 H     1 <1>   0.0800 
 31 H        5.7980     0.1010     0.4920 H     1 <1>   0.0800 
 32 H        5.2380    -0.1390     2.1200 H     1 <1>   0.0800 
 33 H        5.1660     2.3810    -0.4000 H     1 <1>   0.3700 
 34 H        4.8590     3.7980    -2.1230 H     1 <1>   0.0800 
 35 H        5.9320     5.0710    -2.6460 H     1 <1>   0.0800 
 36 H        4.2930     5.4480    -2.1630 H     1 <1>   0.0800 
 37 H        6.0450     8.3520     0.0820 H     1 <1>   0.0800 
 38 H        5.3110     7.6770    -1.3410 H     1 <1>   0.0800 
 39 H        8.2800     7.6350    -0.7080 H     1 <1>   0.0800 
 40 H        7.5130     8.6880    -1.8750 H     1 <1>   0.0800 
 41 H        7.5610     6.9610    -2.1510 H     1 <1>   0.0800 
@<TRIPOS>BOND
  1   1   2  2   
  2   2   3  am  
  3   2   4  1   
  4   3   5  1   
  5   3   6  1   
  6   4   7  1   
  7   4  21  1   
  8   4  22  1   
  9   5   7  1   
 10   5  23  1   
 11   5  24  1   
 12   6   8  1   
 13   6  25  1   
 14   6  26  1   
 15   7  27  1   
 16   7  28  1   
 17   8   9  1   
 18   8  29  1   
 19   8  30  1   
 20   9  10  1   
 21   9  31  1   
 22   9  32  1   
 23  10  11  2   
 24  10  12  am  
 25  12  13  1   
 26  12  33  1   
 27  13  14  1   
 28  13  15  2   
 29  14  16  1   
 30  15  17  1   
 31  15  18  1   
 32  16  17  2   
 33  17  19  1   
 34  18  34  1   
 35  18  35  1   
 36  18  36  1   
 37  19  20  1   
 38  19  37  1   
 39  19  38  1   
 40  20  39  1   
 41  20  40  1   
 42  20  41  1   
@<TRIPOS>SUBSTRUCTURE
  1 ****  12 GROUP 4 **** **** 0

# MOE 2024.06 (io_trps.svl 2023.06)
