@<TRIPOS>MOLECULE
NONAME
45 47 1 0 0 
SMALL
USER_CHARGES


@<TRIPOS>ATOM
  1 O        0.1760     1.4860    -0.9150 O.co2 1 <1>  -0.9000 
  2 C       -0.6890     0.6280    -0.6740 C.2   1 <1>   0.9060 
  3 O       -0.5130    -0.5850    -0.7910 O.co2 1 <1>  -0.9000 
  4 C       -2.0470     1.1750    -0.1950 C.3   1 <1>   0.3170 
  5 N       -1.9800     2.6710     0.0030 N.4   1 <1>  -0.9590 
  6 C       -3.1840     0.9460    -1.1970 C.3   1 <1>  -0.1600 
  7 C       -3.0900     3.2930    -0.7670 C.3   1 <1>   0.3430 
  8 C       -1.9290     3.0340     1.4320 C.3   1 <1>   0.4860 
  9 C       -4.0820     2.1600    -1.0370 C.3   1 <1>   0.2000 
 10 C       -1.7590     4.5370     1.5480 C.ar  1 <1>  -0.1430 
 11 O       -4.8690     1.9680     0.0940 O.3   1 <1>  -0.6800 
 12 C       -0.5700     5.1300     1.1540 C.ar  1 <1>  -0.1500 
 13 C       -2.7880     5.3290     2.0360 C.ar  1 <1>  -0.1500 
 14 C       -0.4050     6.5020     1.2320 C.ar  1 <1>   0.0830 
 15 C       -2.6270     6.7020     2.1230 C.ar  1 <1>  -0.1500 
 16 O        0.7870     6.9870     0.8080 O.3   1 <1>  -0.3620 
 17 C       -1.4410     7.2920     1.7220 C.ar  1 <1>  -0.1500 
 18 C        1.0390     8.3670     0.6310 C.3   1 <1>   0.2000 
 19 C        0.3690     8.8470    -0.6550 C.3   1 <1>  -0.1600 
 20 C        2.5250     8.5230     0.3300 C.3   1 <1>  -0.1600 
 21 C        1.2960     8.4000    -1.7900 C.3   1 <1>  -0.1600 
 22 C        2.6780     8.1890    -1.1580 C.3   1 <1>  -0.1600 
 23 H       -2.2940     0.6930     0.7330 H     1 <1>   0.0800 
 24 H       -1.0470     2.8900    -0.4180 H     1 <1>   0.4500 
 25 H       -3.6850     0.0100    -1.0250 H     1 <1>   0.0800 
 26 H       -2.7700     0.9290    -2.1910 H     1 <1>   0.0800 
 27 H       -3.5560     4.1030    -0.2330 H     1 <1>   0.0800 
 28 H       -2.7040     3.6590    -1.7040 H     1 <1>   0.0800 
 29 H       -2.8400     2.7270     1.9180 H     1 <1>   0.0800 
 30 H       -1.0960     2.5390     1.9040 H     1 <1>   0.0800 
 31 H       -4.7190     2.3510    -1.8840 H     1 <1>   0.0800 
 32 H       -5.5070     1.2390    -0.0520 H     1 <1>   0.4000 
 33 H        0.2470     4.5380     0.7750 H     1 <1>   0.1500 
 34 H       -3.7190     4.8880     2.3510 H     1 <1>   0.1500 
 35 H       -3.4270     7.3140     2.5040 H     1 <1>   0.1500 
 36 H       -1.3410     8.3570     1.7980 H     1 <1>   0.1500 
 37 H        0.7470     8.9040     1.5160 H     1 <1>   0.0800 
 38 H       -0.6310     8.4690    -0.7700 H     1 <1>   0.0800 
 39 H        0.3310     9.9220    -0.6400 H     1 <1>   0.0800 
 40 H        2.8020     9.5500     0.4890 H     1 <1>   0.0800 
 41 H        3.1320     7.8970     0.9600 H     1 <1>   0.0800 
 42 H        0.9450     7.4660    -2.1960 H     1 <1>   0.0800 
 43 H        1.3270     9.1330    -2.5770 H     1 <1>   0.0800 
 44 H        3.4260     8.8090    -1.6200 H     1 <1>   0.0800 
 45 H        2.9650     7.1560    -1.2670 H     1 <1>   0.0800 
@<TRIPOS>BOND
  1   1   2  ar  
  2   2   3  ar  
  3   2   4  1   
  4   4   5  1   
  5   4   6  1   
  6   4  23  1   
  7   5   7  1   
  8   5   8  1   
  9   5  24  1   
 10   6   9  1   
 11   6  25  1   
 12   6  26  1   
 13   7   9  1   
 14   7  27  1   
 15   7  28  1   
 16   8  10  1   
 17   8  29  1   
 18   8  30  1   
 19   9  11  1   
 20   9  31  1   
 21  10  12  ar  
 22  10  13  ar  
 23  11  32  1   
 24  12  14  ar  
 25  12  33  1   
 26  13  15  ar  
 27  13  34  1   
 28  14  16  1   
 29  14  17  ar  
 30  15  17  ar  
 31  15  35  1   
 32  16  18  1   
 33  17  36  1   
 34  18  19  1   
 35  18  20  1   
 36  18  37  1   
 37  19  21  1   
 38  19  38  1   
 39  19  39  1   
 40  20  22  1   
 41  20  40  1   
 42  20  41  1   
 43  21  22  1   
 44  21  42  1   
 45  21  43  1   
 46  22  44  1   
 47  22  45  1   
@<TRIPOS>SUBSTRUCTURE
  1 ****  12 GROUP 4 **** **** 0

# MOE 2024.06 (io_trps.svl 2023.06)
