@<TRIPOS>MOLECULE
NONAME
46 49 1 0 0 
SMALL
USER_CHARGES


@<TRIPOS>ATOM
  1 O       -2.8220    -0.7940    -2.9570 O.2   1 <1>  -0.5700 
  2 C       -2.7500    -1.1310    -1.8080 C.2   1 <1>   0.5690 
  3 N       -2.4330    -0.2370    -0.8560 N.am  1 <1>  -0.7300 
  4 C       -3.0570    -2.5540    -1.4280 C.3   1 <1>  -0.0190 
  5 C       -2.3230    -0.5200     0.5930 C.3   1 <1>   0.2200 
  6 C       -1.8420    -3.2460    -0.7710 C.3   1 <1>   0.1200 
  7 C       -4.3720    -2.5750    -0.6370 C.3   1 <1>   0.3430 
  8 C       -1.2320    -1.5890     0.8530 C.3   1 <1>   0.1200 
  9 C       -3.7140    -0.8920     1.1810 C.3   1 <1>   0.3430 
 10 O       -1.6680    -2.8960     0.5780 O.3   1 <1>  -0.5600 
 11 N       -4.2170    -2.2690     0.8290 N.4   1 <1>  -0.9590 
 12 C       -5.4030    -2.6670     1.6360 C.3   1 <1>   0.4860 
 13 C       -5.6260    -4.1570     1.4670 C.ar  1 <1>  -0.1440 
 14 C       -6.6010    -4.6510     0.5590 C.ar  1 <1>   0.0000 
 15 C       -4.8430    -5.0130     2.1960 C.ar  1 <1>  -0.1500 
 16 C       -6.7200    -6.0540     0.3860 C.ar  1 <1>   0.0000 
 17 C       -7.4580    -3.8150    -0.1960 C.ar  1 <1>  -0.1500 
 18 C       -4.9780    -6.3930     2.0440 C.ar  1 <1>  -0.1500 
 19 C       -7.6600    -6.5570    -0.5500 C.ar  1 <1>  -0.1440 
 20 C       -5.8890    -6.8940     1.1610 C.ar  1 <1>  -0.1500 
 21 C       -8.3560    -4.3240    -1.0870 C.ar  1 <1>  -0.1500 
 22 C       -8.4530    -5.7040    -1.2670 C.ar  1 <1>  -0.1500 
 23 C       -7.8110    -8.0570    -0.7770 C.3   1 <1>  -0.0970 
 24 H       -2.1810     0.7010    -1.1890 H     1 <1>   0.3700 
 25 H       -3.2440    -3.0700    -2.3530 H     1 <1>   0.0800 
 26 H       -2.0010     0.3930     1.0640 H     1 <1>   0.0800 
 27 H       -0.9340    -3.0210    -1.3080 H     1 <1>   0.0800 
 28 H       -1.9840    -4.3130    -0.7970 H     1 <1>   0.0800 
 29 H       -4.7840    -3.5650    -0.7440 H     1 <1>   0.0800 
 30 H       -5.0690    -1.8860    -1.0870 H     1 <1>   0.0800 
 31 H       -0.9600    -1.5700     1.8940 H     1 <1>   0.0800 
 32 H       -0.3450    -1.3840     0.2770 H     1 <1>   0.0800 
 33 H       -4.4300    -0.1510     0.8640 H     1 <1>   0.0800 
 34 H       -3.6360    -0.8260     2.2540 H     1 <1>   0.0800 
 35 H       -3.4440    -2.9060     1.1090 H     1 <1>   0.4500 
 36 H       -5.2160    -2.4650     2.6780 H     1 <1>   0.0800 
 37 H       -6.2720    -2.1070     1.3410 H     1 <1>   0.0800 
 38 H       -4.1060    -4.6590     2.8970 H     1 <1>   0.1500 
 39 H       -7.4260    -2.7500    -0.0810 H     1 <1>   0.1500 
 40 H       -4.3580    -7.0520     2.6280 H     1 <1>   0.1500 
 41 H       -5.9740    -7.9590     1.0570 H     1 <1>   0.1500 
 42 H       -9.0040    -3.6820    -1.6590 H     1 <1>   0.1500 
 43 H       -9.1710    -6.0740    -1.9800 H     1 <1>   0.1500 
 44 H       -8.5590    -8.2630    -1.5220 H     1 <1>   0.0800 
 45 H       -8.1090    -8.5390     0.1370 H     1 <1>   0.0800 
 46 H       -6.8800    -8.4760    -1.1120 H     1 <1>   0.0800 
@<TRIPOS>BOND
  1   1   2  2   
  2   2   3  am  
  3   2   4  1   
  4   3   5  1   
  5   3  24  1   
  6   4   6  1   
  7   4   7  1   
  8   4  25  1   
  9   5   8  1   
 10   5   9  1   
 11   5  26  1   
 12   6  10  1   
 13   6  27  1   
 14   6  28  1   
 15   7  11  1   
 16   7  29  1   
 17   7  30  1   
 18   8  10  1   
 19   8  31  1   
 20   8  32  1   
 21   9  11  1   
 22   9  33  1   
 23   9  34  1   
 24  11  12  1   
 25  11  35  1   
 26  12  13  1   
 27  12  36  1   
 28  12  37  1   
 29  13  14  ar  
 30  13  15  ar  
 31  14  16  ar  
 32  14  17  ar  
 33  15  18  ar  
 34  15  38  1   
 35  16  19  ar  
 36  16  20  ar  
 37  17  21  ar  
 38  17  39  1   
 39  18  20  ar  
 40  18  40  1   
 41  19  22  ar  
 42  19  23  1   
 43  20  41  1   
 44  21  22  ar  
 45  21  42  1   
 46  22  43  1   
 47  23  44  1   
 48  23  45  1   
 49  23  46  1   
@<TRIPOS>SUBSTRUCTURE
  1 ****   7 GROUP 4 **** **** 0

# MOE 2024.06 (io_trps.svl 2023.06)
