@<TRIPOS>MOLECULE
NONAME
39 40 1 0 0 
SMALL
USER_CHARGES


@<TRIPOS>ATOM
  1 N       -0.5970    -0.4000    -0.1710 N.ar  1 <1>  -0.6200 
  2 C       -1.6300     0.4110    -0.3130 C.ar  1 <1>   0.4100 
  3 C       -0.8890    -1.6840    -0.1410 C.ar  1 <1>   0.4700 
  4 N       -1.3900     1.7690    -0.3680 N.pl3 1 <1>  -0.8380 
  5 C       -2.9080    -0.0810    -0.4180 C.ar  1 <1>  -0.1500 
  6 N       -2.0700    -2.2650    -0.2340 N.ar  1 <1>  -0.6200 
  7 C       -0.2870     2.3490     0.4440 C.3   1 <1>   0.2090 
  8 C       -1.7010     2.4870    -1.6340 C.3   1 <1>   0.1290 
  9 C       -3.0910    -1.4410    -0.3760 C.ar  1 <1>   0.4100 
 10 C       -0.7670     3.6370     1.1060 C.3   1 <1>  -0.2400 
 11 N       -4.3490    -1.9860    -0.4750 N.pl3 1 <1>  -0.8690 
 12 C       -4.5850    -3.4380    -0.7130 C.3   1 <1>   0.2090 
 13 C       -4.4940    -4.2410     0.5950 C.3   1 <1>   0.1760 
 14 N       -4.5780    -5.6830     0.2730 N.pl3 1 <1>   0.0480 
 15 C       -5.5730    -3.8500     1.6180 C.3   1 <1>  -0.2400 
 16 C       -3.5490    -6.5590     0.2340 C.2   1 <1>   0.0360 
 17 C       -5.6540    -6.4100    -0.0890 C.2   1 <1>  -0.3020 
 18 N       -3.8880    -7.7580    -0.1130 N.2   1 <1>  -0.5650 
 19 C       -5.2150    -7.6670    -0.3160 C.2   1 <1>   0.0770 
 20 H       -0.0490    -2.3480    -0.0260 H     1 <1>   0.1500 
 21 H       -3.7340     0.5890    -0.5220 H     1 <1>   0.1500 
 22 H        0.5670     2.5380    -0.1830 H     1 <1>   0.0800 
 23 H        0.0070     1.6520     1.2110 H     1 <1>   0.0800 
 24 H       -2.2270     1.8400    -2.3140 H     1 <1>   0.0800 
 25 H       -0.7900     2.8100    -2.1070 H     1 <1>   0.0800 
 26 H       -2.3150     3.3440    -1.4230 H     1 <1>   0.0800 
 27 H       -0.9980     4.3810     0.3660 H     1 <1>   0.0800 
 28 H        0.0050     4.0210     1.7460 H     1 <1>   0.0800 
 29 H       -1.6390     3.4370     1.7010 H     1 <1>   0.0800 
 30 H       -5.0960    -1.3640    -0.7920 H     1 <1>   0.4000 
 31 H       -3.8480    -3.8030    -1.4090 H     1 <1>   0.0800 
 32 H       -5.5590    -3.5700    -1.1520 H     1 <1>   0.0800 
 33 H       -3.5270    -4.0660     1.0310 H     1 <1>   0.0800 
 34 H       -6.5580    -3.9550     1.2000 H     1 <1>   0.0800 
 35 H       -5.4380    -2.8240     1.9130 H     1 <1>   0.0800 
 36 H       -5.4900    -4.4640     2.4970 H     1 <1>   0.0800 
 37 H       -2.5420    -6.2640     0.4710 H     1 <1>   0.1500 
 38 H       -6.6480    -6.0110    -0.1630 H     1 <1>   0.1500 
 39 H       -5.7930    -8.5250    -0.6200 H     1 <1>   0.1500 
@<TRIPOS>BOND
  1   1   2  ar  
  2   1   3  ar  
  3   2   4  1   
  4   2   5  ar  
  5   3   6  ar  
  6   3  20  1   
  7   4   7  1   
  8   4   8  1   
  9   5   9  ar  
 10   5  21  1   
 11   6   9  ar  
 12   7  10  1   
 13   7  22  1   
 14   7  23  1   
 15   8  24  1   
 16   8  25  1   
 17   8  26  1   
 18   9  11  1   
 19  10  27  1   
 20  10  28  1   
 21  10  29  1   
 22  11  12  1   
 23  11  30  1   
 24  12  13  1   
 25  12  31  1   
 26  12  32  1   
 27  13  14  1   
 28  13  15  1   
 29  13  33  1   
 30  14  16  1   
 31  14  17  1   
 32  15  34  1   
 33  15  35  1   
 34  15  36  1   
 35  16  18  2   
 36  16  37  1   
 37  17  19  2   
 38  17  38  1   
 39  18  19  1   
 40  19  39  1   
@<TRIPOS>SUBSTRUCTURE
  1 ****   9 GROUP 4 **** **** 0

# MOE 2024.06 (io_trps.svl 2023.06)
