@<TRIPOS>MOLECULE
NONAME
52 55 1 0 0 
SMALL
USER_CHARGES


@<TRIPOS>ATOM
  1 O        3.6910    -1.9440     2.9880 O.2   1 <1>  -0.5700 
  2 C        3.5980    -2.0180     1.7750 C.2   1 <1>   0.7160 
  3 N        4.4290    -1.2200     1.0110 N.am  1 <1>  -0.6600 
  4 C        2.5740    -2.8460     1.1490 C.2   1 <1>   0.1410 
  5 C        4.7530     0.1780     1.4620 C.3   1 <1>   0.1400 
  6 C        4.9140    -1.6390    -0.3470 C.3   1 <1>   0.1400 
  7 N        1.9020    -2.4330     0.0350 N.2   1 <1>  -0.5650 
  8 C        2.1000    -4.0750     1.5130 C.2   1 <1>  -0.3320 
  9 C        4.0590     1.2470     0.5790 C.3   1 <1>   0.4230 
 10 C        4.5320    -0.7130    -1.5340 C.3   1 <1>  -0.0800 
 11 C        1.0720    -3.3920    -0.2590 C.2   1 <1>   0.1330 
 12 N        1.1560    -4.4130     0.6280 N.pl3 1 <1>   0.0330 
 13 C        2.4920    -4.9680     2.6800 C.3   1 <1>  -0.0600 
 14 N        2.8780     0.6100    -0.1300 N.4   1 <1>  -0.9590 
 15 C        5.0900     1.9480    -0.3440 C.3   1 <1>   0.1200 
 16 C        5.6440     0.2760    -1.9200 C.3   1 <1>   0.1200 
 17 C        3.1800     0.0150    -1.4610 C.3   1 <1>   0.3430 
 18 C        0.1640    -3.3900    -1.3830 C.ar  1 <1>   0.0530 
 19 C        1.7240     1.5930    -0.2540 C.3   1 <1>   0.2370 
 20 O        6.0450     1.0500    -0.8420 O.3   1 <1>  -0.5600 
 21 C       -0.4130    -2.2010    -1.8270 C.ar  1 <1>  -0.1500 
 22 C       -0.1610    -4.5610    -2.0690 C.ar  1 <1>  -0.1500 
 23 C        2.0690     2.8830    -1.0010 C.2   1 <1>   0.9060 
 24 C       -1.2800    -2.1780    -2.9040 C.ar  1 <1>  -0.1500 
 25 C       -1.0290    -4.5440    -3.1450 C.ar  1 <1>  -0.1500 
 26 O        2.0220     2.8700    -2.2330 O.co2 1 <1>  -0.9000 
 27 O        2.5420     3.8150    -0.3430 O.co2 1 <1>  -0.9000 
 28 C       -1.5910    -3.3520    -3.5650 C.ar  1 <1>  -0.1500 
 29 H        4.4150     0.3190     2.4740 H     1 <1>   0.0800 
 30 H        5.8200     0.3170     1.4760 H     1 <1>   0.0800 
 31 H        5.9870    -1.7290    -0.3060 H     1 <1>   0.0800 
 32 H        4.5360    -2.6250    -0.5580 H     1 <1>   0.0800 
 33 H        3.6760     2.0140     1.2320 H     1 <1>   0.0800 
 34 H        4.4520    -1.3570    -2.3900 H     1 <1>   0.0800 
 35 H        0.5840    -5.2610     0.6130 H     1 <1>   0.2700 
 36 H        3.2920    -4.5270     3.2490 H     1 <1>   0.0800 
 37 H        2.8230    -5.9270     2.3230 H     1 <1>   0.0800 
 38 H        1.6530    -5.1110     3.3370 H     1 <1>   0.0800 
 39 H        2.5960    -0.1950     0.4500 H     1 <1>   0.4500 
 40 H        5.6290     2.6700     0.2410 H     1 <1>   0.0800 
 41 H        4.6260     2.4770    -1.1590 H     1 <1>   0.0800 
 42 H        5.3310     0.9320    -2.7170 H     1 <1>   0.0800 
 43 H        6.5130    -0.2650    -2.2540 H     1 <1>   0.0800 
 44 H        2.3970    -0.6860    -1.7040 H     1 <1>   0.0800 
 45 H        3.1610     0.7890    -2.2120 H     1 <1>   0.0800 
 46 H        0.9060     1.1300    -0.7740 H     1 <1>   0.0800 
 47 H        1.3850     1.8790     0.7250 H     1 <1>   0.0800 
 48 H       -0.1790    -1.2850    -1.3160 H     1 <1>   0.1500 
 49 H        0.2740    -5.4970    -1.7690 H     1 <1>   0.1500 
 50 H       -1.7140    -1.2470    -3.2280 H     1 <1>   0.1500 
 51 H       -1.2680    -5.4580    -3.6620 H     1 <1>   0.1500 
 52 H       -2.2670    -3.3380    -4.4040 H     1 <1>   0.1500 
@<TRIPOS>BOND
  1   1   2  2   
  2   2   3  am  
  3   2   4  1   
  4   3   5  1   
  5   3   6  1   
  6   4   7  1   
  7   4   8  2   
  8   5   9  1   
  9   5  29  1   
 10   5  30  1   
 11   6  10  1   
 12   6  31  1   
 13   6  32  1   
 14   7  11  2   
 15   8  12  1   
 16   8  13  1   
 17   9  14  1   
 18   9  15  1   
 19   9  33  1   
 20  10  16  1   
 21  10  17  1   
 22  10  34  1   
 23  11  12  1   
 24  11  18  1   
 25  12  35  1   
 26  13  36  1   
 27  13  37  1   
 28  13  38  1   
 29  14  17  1   
 30  14  19  1   
 31  14  39  1   
 32  15  20  1   
 33  15  40  1   
 34  15  41  1   
 35  16  20  1   
 36  16  42  1   
 37  16  43  1   
 38  17  44  1   
 39  17  45  1   
 40  18  21  ar  
 41  18  22  ar  
 42  19  23  1   
 43  19  46  1   
 44  19  47  1   
 45  21  24  ar  
 46  21  48  1   
 47  22  25  ar  
 48  22  49  1   
 49  23  26  ar  
 50  23  27  ar  
 51  24  28  ar  
 52  24  50  1   
 53  25  28  ar  
 54  25  51  1   
 55  28  52  1   
@<TRIPOS>SUBSTRUCTURE
  1 ****   7 GROUP 4 **** **** 0

# MOE 2024.06 (io_trps.svl 2023.06)
