@<TRIPOS>MOLECULE
NONAME
51 53 1 0 0 
SMALL
USER_CHARGES


@<TRIPOS>ATOM
  1 S        1.4260     0.2930     0.8030 S.o2  1 <1>   1.0900 
  2 O        0.6690    -0.4610    -0.1690 O.2   1 <1>  -0.6500 
  3 O        1.7100    -0.2280     2.1190 O.2   1 <1>  -0.6500 
  4 C        0.7140     1.9120     0.9410 C.3   1 <1>  -0.0550 
  5 C        2.9320     0.8500     0.0260 C.3   1 <1>  -0.0550 
  6 C        1.3610     2.7660    -0.1510 C.3   1 <1>   0.1900 
  7 C        2.8500     2.3730    -0.1490 C.3   1 <1>  -0.1600 
  8 N        1.1860     4.2090     0.1160 N.3   1 <1>  -0.8100 
  9 C        1.8490     5.0640    -0.9280 C.3   1 <1>   0.1710 
 10 C       -0.2410     4.5850     0.2050 C.3   1 <1>   0.0300 
 11 C        1.7590     6.5890    -0.7320 C.2   1 <1>   0.5690 
 12 O        1.0370     7.1940    -1.4920 O.2   1 <1>  -0.5700 
 13 N        2.4650     7.2410     0.2500 N.am  1 <1>  -0.6600 
 14 C        2.3660     8.7390     0.3680 C.3   1 <1>   0.3210 
 15 C        3.1600     6.5440     1.3680 C.3   1 <1>   0.1400 
 16 C        3.7100     9.4350     0.5810 C.2   1 <1>   0.3350 
 17 C        4.6070     6.2260     0.9920 C.3   1 <1>  -0.2400 
 18 N        4.1350     9.8590     1.7060 N.2   1 <1>  -0.4100 
 19 N        4.5570     9.6590    -0.4180 N.2   1 <1>  -0.5650 
 20 O        5.3040    10.3830     1.5010 O.3   1 <1>  -0.0190 
 21 C        5.5010    10.2330     0.2130 C.2   1 <1>   0.3170 
 22 C        6.7970    10.7350    -0.4080 C.3   1 <1>   0.1610 
 23 C        8.0970    10.2690     0.3010 C.3   1 <1>   0.0000 
 24 C        7.2000    12.1870    -0.0330 C.3   1 <1>   0.0000 
 25 C        8.6660    11.6820     0.0080 C.3   1 <1>   0.0000 
 26 H        0.9590     2.3290     1.8990 H     1 <1>   0.0800 
 27 H       -0.3510     1.8660     0.8280 H     1 <1>   0.0800 
 28 H        3.0250     0.3820    -0.9360 H     1 <1>   0.0800 
 29 H        3.7900     0.5850     0.6160 H     1 <1>   0.0800 
 30 H        0.9240     2.5100    -1.1040 H     1 <1>   0.0800 
 31 H        3.3420     2.6620    -1.0600 H     1 <1>   0.0800 
 32 H        3.3370     2.8460     0.6880 H     1 <1>   0.0800 
 33 H        1.4190     4.8360    -1.8870 H     1 <1>   0.0800 
 34 H        2.8910     4.8260    -0.9860 H     1 <1>   0.0800 
 35 H       -0.7260     4.0670     1.0130 H     1 <1>   0.0800 
 36 H       -0.7510     4.3600    -0.7170 H     1 <1>   0.0800 
 37 H       -0.3420     5.6390     0.4040 H     1 <1>   0.0800 
 38 H        1.7230     8.9740     1.1960 H     1 <1>   0.0800 
 39 H        1.9210     9.1590    -0.5160 H     1 <1>   0.0800 
 40 H        2.6410     5.6350     1.6140 H     1 <1>   0.0800 
 41 H        3.1450     7.1660     2.2470 H     1 <1>   0.0800 
 42 H        4.6520     5.6040     0.1190 H     1 <1>   0.0800 
 43 H        5.0790     5.7040     1.8040 H     1 <1>   0.0800 
 44 H        5.1610     7.1280     0.8100 H     1 <1>   0.0800 
 45 H        6.8450    10.5720    -1.4720 H     1 <1>   0.0000 
 46 H        8.6130     9.4780    -0.2140 H     1 <1>   0.0000 
 47 H        7.9730    10.0880     1.3550 H     1 <1>   0.0000 
 48 H        6.8460    12.4970     0.9350 H     1 <1>   0.0000 
 49 H        7.0100    12.9050    -0.8100 H     1 <1>   0.0000 
 50 H        9.1540    11.7440    -0.9500 H     1 <1>   0.0000 
 51 H        9.2460    12.0940     0.8150 H     1 <1>   0.0000 
@<TRIPOS>BOND
  1   1   2  2   
  2   1   3  2   
  3   1   4  1   
  4   1   5  1   
  5   4   6  1   
  6   4  26  1   
  7   4  27  1   
  8   5   7  1   
  9   5  28  1   
 10   5  29  1   
 11   6   7  1   
 12   6   8  1   
 13   6  30  1   
 14   7  31  1   
 15   7  32  1   
 16   8   9  1   
 17   8  10  1   
 18   9  11  1   
 19   9  33  1   
 20   9  34  1   
 21  10  35  1   
 22  10  36  1   
 23  10  37  1   
 24  11  12  2   
 25  11  13  am  
 26  13  14  1   
 27  13  15  1   
 28  14  16  1   
 29  14  38  1   
 30  14  39  1   
 31  15  17  1   
 32  15  40  1   
 33  15  41  1   
 34  16  18  2   
 35  16  19  1   
 36  17  42  1   
 37  17  43  1   
 38  17  44  1   
 39  18  20  1   
 40  19  21  2   
 41  20  21  1   
 42  21  22  1   
 43  22  23  1   
 44  22  24  1   
 45  22  45  1   
 46  23  25  1   
 47  23  46  1   
 48  23  47  1   
 49  24  25  1   
 50  24  48  1   
 51  24  49  1   
 52  25  50  1   
 53  25  51  1   
@<TRIPOS>SUBSTRUCTURE
  1 ****  15 GROUP 4 **** **** 0

# MOE 2024.06 (io_trps.svl 2023.06)
