@<TRIPOS>MOLECULE
NONAME
47 49 1 0 0 
SMALL
USER_CHARGES


@<TRIPOS>ATOM
  1 O       -0.7460     1.1200     1.8270 O.3   1 <1>  -0.5600 
  2 C        0.0530     1.1200     0.6950 C.3   1 <1>   0.1200 
  3 C       -2.0860     1.1050     1.4260 C.3   1 <1>   0.1200 
  4 C       -0.6470     2.1510    -0.1850 C.3   1 <1>   0.4230 
  5 C       -2.1040     1.7360     0.0190 C.3   1 <1>  -0.0800 
  6 N       -0.4630     3.4960     0.4390 N.4   1 <1>  -0.9060 
  7 C       -2.5750     0.7370    -1.0570 C.3   1 <1>  -0.0170 
  8 C        0.8780     4.1130     0.3100 C.3   1 <1>   0.4230 
  9 C       -4.0250     0.3420    -0.8330 C.ar  1 <1>  -0.1440 
 10 C        0.9860     5.2620     1.3120 C.3   1 <1>  -0.1600 
 11 C        1.0990     4.6250    -1.1160 C.3   1 <1>  -0.1600 
 12 C       -5.0700     1.1780    -1.1760 C.ar  1 <1>  -0.1500 
 13 C       -4.3770    -0.8730    -0.2780 C.ar  1 <1>  -0.1500 
 14 C        2.3270     5.9860     1.1790 C.3   1 <1>   0.3430 
 15 C        2.4370     5.3610    -1.2340 C.3   1 <1>   0.3430 
 16 C       -6.3750     0.7760    -0.9420 C.ar  1 <1>   0.1600 
 17 C       -5.7140    -1.1780    -0.0860 C.ar  1 <1>   0.1600 
 18 N        2.5120     6.4580    -0.2250 N.4   1 <1>  -0.9590 
 19 N       -6.7190    -0.3800    -0.4010 N.ar  1 <1>  -0.6200 
 20 C        3.8180     7.1860    -0.3530 C.3   1 <1>   0.2630 
 21 H        1.0630     1.3750     0.9620 H     1 <1>   0.0800 
 22 H        0.0310     0.1350     0.2600 H     1 <1>   0.0800 
 23 H       -2.4240     0.0810     1.4270 H     1 <1>   0.0800 
 24 H       -2.6660     1.6690     2.1370 H     1 <1>   0.0800 
 25 H       -0.3360     2.1270    -1.2170 H     1 <1>   0.0800 
 26 H       -2.7670     2.5830    -0.0020 H     1 <1>   0.0800 
 27 H       -1.2030     4.1310     0.1250 H     1 <1>   0.4500 
 28 H       -0.6460     3.3040     1.4400 H     1 <1>   0.4500 
 29 H       -1.9620    -0.1490    -1.0540 H     1 <1>   0.0800 
 30 H       -2.4920     1.1820    -2.0350 H     1 <1>   0.0800 
 31 H        1.6360     3.3810     0.5460 H     1 <1>   0.0800 
 32 H        0.1920     5.9740     1.1680 H     1 <1>   0.0800 
 33 H        0.9140     4.8770     2.3150 H     1 <1>   0.0800 
 34 H        1.1130     3.8010    -1.8060 H     1 <1>   0.0800 
 35 H        0.3090     5.2950    -1.4070 H     1 <1>   0.0800 
 36 H       -4.8930     2.1370    -1.6260 H     1 <1>   0.1500 
 37 H       -3.6310    -1.5930     0.0080 H     1 <1>   0.1500 
 38 H        3.1320     5.3180     1.4470 H     1 <1>   0.0800 
 39 H        2.3540     6.8260     1.8560 H     1 <1>   0.0800 
 40 H        2.5380     5.7700    -2.2290 H     1 <1>   0.0800 
 41 H        3.2500     4.6690    -1.0770 H     1 <1>   0.0800 
 42 H       -7.1790     1.4390    -1.2160 H     1 <1>   0.1500 
 43 H       -5.9710    -2.1300     0.3490 H     1 <1>   0.1500 
 44 H        1.7740     7.1510    -0.4360 H     1 <1>   0.4500 
 45 H        4.6440     6.5250    -0.1440 H     1 <1>   0.0800 
 46 H        3.8580     8.0130     0.3390 H     1 <1>   0.0800 
 47 H        3.9360     7.5760    -1.3520 H     1 <1>   0.0800 
@<TRIPOS>BOND
  1   1   2  1   
  2   1   3  1   
  3   2   4  1   
  4   2  21  1   
  5   2  22  1   
  6   3   5  1   
  7   3  23  1   
  8   3  24  1   
  9   4   5  1   
 10   4   6  1   
 11   4  25  1   
 12   5   7  1   
 13   5  26  1   
 14   6   8  1   
 15   6  27  1   
 16   6  28  1   
 17   7   9  1   
 18   7  29  1   
 19   7  30  1   
 20   8  10  1   
 21   8  11  1   
 22   8  31  1   
 23   9  12  ar  
 24   9  13  ar  
 25  10  14  1   
 26  10  32  1   
 27  10  33  1   
 28  11  15  1   
 29  11  34  1   
 30  11  35  1   
 31  12  16  ar  
 32  12  36  1   
 33  13  17  ar  
 34  13  37  1   
 35  14  18  1   
 36  14  38  1   
 37  14  39  1   
 38  15  18  1   
 39  15  40  1   
 40  15  41  1   
 41  16  19  ar  
 42  16  42  1   
 43  17  19  ar  
 44  17  43  1   
 45  18  20  1   
 46  18  44  1   
 47  20  45  1   
 48  20  46  1   
 49  20  47  1   
@<TRIPOS>SUBSTRUCTURE
  1 ****   4 GROUP 4 **** **** 0

# MOE 2024.06 (io_trps.svl 2023.06)
