@<TRIPOS>MOLECULE
NONAME
43 45 1 0 0 
SMALL
USER_CHARGES


@<TRIPOS>ATOM
  1 O        0.0570    -0.4180     2.0400 O.2   1 <1>  -0.5700 
  2 C        0.8350    -0.4320     1.1060 C.2   1 <1>   0.5440 
  3 N        1.3800     0.7520     0.7000 N.am  1 <1>  -0.7300 
  4 C        1.1590    -1.6750     0.4390 C.ar  1 <1>   0.0860 
  5 C        1.1230     2.0740     1.3090 C.3   1 <1>   0.2200 
  6 C        2.3660    -1.8520    -0.2350 C.ar  1 <1>   0.1600 
  7 C        0.2860    -2.7560     0.4410 C.ar  1 <1>  -0.1500 
  8 C        0.7710     3.0710     0.2180 C.3   1 <1>   0.1200 
  9 C        2.4330     2.6460     1.8040 C.3   1 <1>  -0.1600 
 10 N        2.7460    -2.9390    -0.8830 N.ar  1 <1>  -0.6200 
 11 C        0.6590    -3.9030    -0.2220 C.ar  1 <1>  -0.1500 
 12 O        1.9900     3.4010    -0.3700 O.3   1 <1>  -0.5600 
 13 C        3.0260     3.3570     0.5720 C.3   1 <1>   0.2800 
 14 C        1.8920    -3.9520    -0.8720 C.ar  1 <1>   0.3930 
 15 C        3.4470     4.8060     0.8750 C.3   1 <1>  -0.1600 
 16 C        4.1950     2.5650    -0.0600 C.3   1 <1>  -0.1600 
 17 O        2.3150    -5.0400    -1.5400 O.3   1 <1>  -0.3630 
 18 C        3.9290     5.5750    -0.3740 C.3   1 <1>  -0.1600 
 19 C        5.2190     3.4300    -0.8250 C.3   1 <1>  -0.1600 
 20 C        1.5720    -6.2360    -1.6260 C.3   1 <1>   0.0400 
 21 C        4.5700     4.6710    -1.4430 C.3   1 <1>  -0.1600 
 22 H        1.8990     0.8200    -0.1790 H     1 <1>   0.3700 
 23 H        0.3700     2.0150     2.0770 H     1 <1>   0.0800 
 24 H        3.0700    -1.0390    -0.2340 H     1 <1>   0.1500 
 25 H       -0.6590    -2.6870     0.9550 H     1 <1>   0.1500 
 26 H        0.3520     3.9680     0.6390 H     1 <1>   0.0800 
 27 H        0.1060     2.6630    -0.5220 H     1 <1>   0.0800 
 28 H        3.0750     1.8930     2.2240 H     1 <1>   0.0800 
 29 H        2.2280     3.3660     2.5750 H     1 <1>   0.0800 
 30 H       -0.0060    -4.7430    -0.2290 H     1 <1>   0.1500 
 31 H        4.2510     4.7740     1.5880 H     1 <1>   0.0800 
 32 H        2.6350     5.3430     1.3320 H     1 <1>   0.0800 
 33 H        3.7910     1.8220    -0.7230 H     1 <1>   0.0800 
 34 H        4.7370     2.0440     0.7080 H     1 <1>   0.0800 
 35 H        4.6350     6.3270    -0.0660 H     1 <1>   0.0800 
 36 H        3.0910     6.0810    -0.8220 H     1 <1>   0.0800 
 37 H        5.6880     2.8390    -1.5930 H     1 <1>   0.0800 
 38 H        5.9900     3.7520    -0.1460 H     1 <1>   0.0800 
 39 H        2.1430    -6.9400    -2.2050 H     1 <1>   0.0800 
 40 H        0.6370    -6.0330    -2.1180 H     1 <1>   0.0800 
 41 H        1.4130    -6.6220    -0.6350 H     1 <1>   0.0800 
 42 H        5.2970     5.2320    -2.0040 H     1 <1>   0.0800 
 43 H        3.8070     4.3490    -2.1330 H     1 <1>   0.0800 
@<TRIPOS>BOND
  1   1   2  2   
  2   2   3  am  
  3   2   4  1   
  4   3   5  1   
  5   3  22  1   
  6   4   6  ar  
  7   4   7  ar  
  8   5   8  1   
  9   5   9  1   
 10   5  23  1   
 11   6  10  ar  
 12   6  24  1   
 13   7  11  ar  
 14   7  25  1   
 15   8  12  1   
 16   8  26  1   
 17   8  27  1   
 18   9  13  1   
 19   9  28  1   
 20   9  29  1   
 21  10  14  ar  
 22  11  14  ar  
 23  11  30  1   
 24  12  13  1   
 25  13  15  1   
 26  13  16  1   
 27  14  17  1   
 28  15  18  1   
 29  15  31  1   
 30  15  32  1   
 31  16  19  1   
 32  16  33  1   
 33  16  34  1   
 34  17  20  1   
 35  18  21  1   
 36  18  35  1   
 37  18  36  1   
 38  19  21  1   
 39  19  37  1   
 40  19  38  1   
 41  20  39  1   
 42  20  40  1   
 43  20  41  1   
 44  21  42  1   
 45  21  43  1   
@<TRIPOS>SUBSTRUCTURE
  1 ****   3 GROUP 4 **** **** 0

# MOE 2024.06 (io_trps.svl 2023.06)
