@<TRIPOS>MOLECULE
NONAME
49 51 1 0 0 
SMALL
USER_CHARGES


@<TRIPOS>ATOM
  1 N       -1.3320     7.1860     2.6760 N.1   1 <1>  -0.5570 
  2 C       -0.6940     6.6350     1.9050 C.1   1 <1>   0.4840 
  3 C        0.0800     5.9590     0.8960 C.ar  1 <1>   0.3830 
  4 N        1.4030     5.9060     1.0450 N.ar  1 <1>  -0.6200 
  5 C       -0.5780     5.4020    -0.1950 C.ar  1 <1>  -0.1500 
  6 C        2.0950     5.2850     0.1010 C.ar  1 <1>   0.4100 
  7 C        0.1380     4.7650    -1.1850 C.ar  1 <1>  -0.1500 
  8 N        3.4730     5.2200     0.2560 N.pl3 1 <1>  -0.8380 
  9 C        1.5000     4.7160    -1.0220 C.ar  1 <1>  -0.1500 
 10 C        4.1750     6.2180     1.1170 C.3   1 <1>   0.2090 
 11 C        4.0870     3.8620     0.3120 C.3   1 <1>   0.1290 
 12 C        4.0890     7.6290     0.5070 C.3   1 <1>  -0.0800 
 13 C        4.6810     7.6920    -0.9120 C.3   1 <1>  -0.1600 
 14 C        4.7870     8.6620     1.4050 C.3   1 <1>  -0.1600 
 15 C        4.6050     9.1050    -1.4830 C.3   1 <1>   0.3430 
 16 C        4.7120    10.0640     0.8000 C.3   1 <1>   0.3430 
 17 N        5.3020    10.0550    -0.5720 N.4   1 <1>  -0.9590 
 18 C        5.3540    11.4240    -1.1520 C.3   1 <1>   0.4860 
 19 C        6.2850    12.2710    -0.3070 C.ar  1 <1>  -0.1430 
 20 C        5.7690    13.2310     0.5530 C.ar  1 <1>  -0.1500 
 21 C        7.6590    12.0900    -0.3830 C.ar  1 <1>  -0.1500 
 22 C        6.6170    13.9910     1.3380 C.ar  1 <1>  -0.1500 
 23 C        8.5060    12.8520     0.4040 C.ar  1 <1>  -0.1500 
 24 C        7.9850    13.8000     1.2650 C.ar  1 <1>  -0.1500 
 25 H       -1.6490     5.4710    -0.2690 H     1 <1>   0.1500 
 26 H       -0.3460     4.3290    -2.0430 H     1 <1>   0.1500 
 27 H        2.1220     4.2420    -1.7580 H     1 <1>   0.1500 
 28 H        5.2090     5.9370     1.2190 H     1 <1>   0.0800 
 29 H        3.7350     6.2120     2.1010 H     1 <1>   0.0800 
 30 H        3.4220     3.1210    -0.0980 H     1 <1>   0.0800 
 31 H        4.2990     3.5960     1.3330 H     1 <1>   0.0800 
 32 H        5.0030     3.8540    -0.2530 H     1 <1>   0.0800 
 33 H        3.0480     7.9000     0.4540 H     1 <1>   0.0800 
 34 H        4.1270     7.0350    -1.5600 H     1 <1>   0.0800 
 35 H        5.7010     7.3520    -0.9080 H     1 <1>   0.0800 
 36 H        5.8180     8.3930     1.5580 H     1 <1>   0.0800 
 37 H        4.3090     8.6770     2.3690 H     1 <1>   0.0800 
 38 H        3.5700     9.3910    -1.5870 H     1 <1>   0.0800 
 39 H        5.0630     9.1210    -2.4600 H     1 <1>   0.0800 
 40 H        5.2500    10.7530     1.4330 H     1 <1>   0.0800 
 41 H        3.6810    10.3790     0.7540 H     1 <1>   0.0800 
 42 H        6.2760     9.7460    -0.4670 H     1 <1>   0.4500 
 43 H        4.3690    11.8610    -1.1700 H     1 <1>   0.0800 
 44 H        5.7300    11.3860    -2.1610 H     1 <1>   0.0800 
 45 H        4.7080    13.4020     0.6230 H     1 <1>   0.1500 
 46 H        8.0900    11.3650    -1.0520 H     1 <1>   0.1500 
 47 H        6.2180    14.7360     2.0060 H     1 <1>   0.1500 
 48 H        9.5730    12.7130     0.3460 H     1 <1>   0.1500 
 49 H        8.6450    14.3920     1.8760 H     1 <1>   0.1500 
@<TRIPOS>BOND
  1   1   2  3   
  2   2   3  1   
  3   3   4  ar  
  4   3   5  ar  
  5   4   6  ar  
  6   5   7  ar  
  7   5  25  1   
  8   6   8  1   
  9   6   9  ar  
 10   7   9  ar  
 11   7  26  1   
 12   8  10  1   
 13   8  11  1   
 14   9  27  1   
 15  10  12  1   
 16  10  28  1   
 17  10  29  1   
 18  11  30  1   
 19  11  31  1   
 20  11  32  1   
 21  12  13  1   
 22  12  14  1   
 23  12  33  1   
 24  13  15  1   
 25  13  34  1   
 26  13  35  1   
 27  14  16  1   
 28  14  36  1   
 29  14  37  1   
 30  15  17  1   
 31  15  38  1   
 32  15  39  1   
 33  16  17  1   
 34  16  40  1   
 35  16  41  1   
 36  17  18  1   
 37  17  42  1   
 38  18  19  1   
 39  18  43  1   
 40  18  44  1   
 41  19  20  ar  
 42  19  21  ar  
 43  20  22  ar  
 44  20  45  1   
 45  21  23  ar  
 46  21  46  1   
 47  22  24  ar  
 48  22  47  1   
 49  23  24  ar  
 50  23  48  1   
 51  24  49  1   
@<TRIPOS>SUBSTRUCTURE
  1 ****  12 GROUP 4 **** **** 0

# MOE 2024.06 (io_trps.svl 2023.06)
