@<TRIPOS>MOLECULE
NONAME
53 55 1 0 0 
SMALL
USER_CHARGES


@<TRIPOS>ATOM
  1 O        0.3850    -0.4740    -0.9890 O.2   1 <1>  -0.5700 
  2 C        1.1990    -1.3720    -0.8900 C.2   1 <1>   0.5440 
  3 N        2.5380    -1.0670    -0.9820 N.am  1 <1>  -0.6600 
  4 C        0.7410    -2.7290    -0.6660 C.ar  1 <1>   0.0860 
  5 C        3.0090     0.3150    -1.2260 C.3   1 <1>   0.1400 
  6 C        3.6410    -1.9160    -0.4790 C.3   1 <1>   0.1400 
  7 C       -0.2190    -3.0290     0.2820 C.ar  1 <1>  -0.1500 
  8 C        1.2160    -3.8180    -1.3850 C.ar  1 <1>  -0.1500 
  9 C        4.5210     0.2560    -1.0450 C.3   1 <1>  -0.1600 
 10 C        4.7520    -0.9370    -0.1220 C.3   1 <1>  -0.1600 
 11 C       -0.6340    -4.3360     0.4930 C.ar  1 <1>   0.4100 
 12 C        0.7450    -5.0860    -1.1100 C.ar  1 <1>   0.1600 
 13 N       -0.1560    -5.3690    -0.1880 N.ar  1 <1>  -0.6200 
 14 N       -1.5900    -4.5910     1.4490 N.pl3 1 <1>  -0.8690 
 15 C       -1.8890    -5.9610     1.9500 C.3   1 <1>   0.2090 
 16 C       -2.9030    -6.6500     1.0390 C.3   1 <1>   0.1200 
 17 O       -3.1670    -7.9380     1.5540 O.3   1 <1>  -0.3630 
 18 C       -3.7330    -8.8120     0.6910 C.ar  1 <1>   0.0830 
 19 C       -2.9310    -9.5370    -0.1870 C.ar  1 <1>  -0.1430 
 20 C       -5.1140    -8.9850     0.7000 C.ar  1 <1>  -0.1430 
 21 C       -3.5290   -10.4160    -1.0740 C.ar  1 <1>  -0.1500 
 22 C       -1.4150    -9.3860    -0.1890 C.3   1 <1>  -0.0970 
 23 C       -5.6890    -9.8720    -0.1950 C.ar  1 <1>  -0.1500 
 24 C       -5.9950    -8.2190     1.6750 C.3   1 <1>  -0.0970 
 25 C       -4.9040   -10.5880    -1.0850 C.ar  1 <1>  -0.1430 
 26 C       -5.5460   -11.5530    -2.0650 C.3   1 <1>  -0.0970 
 27 H        2.5650     0.9720    -0.4970 H     1 <1>   0.0800 
 28 H        2.7350     0.6410    -2.2160 H     1 <1>   0.0800 
 29 H        3.9680    -2.5730    -1.2670 H     1 <1>   0.0800 
 30 H        3.3340    -2.4930     0.3770 H     1 <1>   0.0800 
 31 H       -0.6530    -2.2360     0.8590 H     1 <1>   0.1500 
 32 H        1.9450    -3.6680    -2.1590 H     1 <1>   0.1500 
 33 H        4.9100     1.1720    -0.6390 H     1 <1>   0.0800 
 34 H        4.9800     0.0730    -2.0020 H     1 <1>   0.0800 
 35 H        5.7270    -1.3720    -0.2470 H     1 <1>   0.0800 
 36 H        4.6320    -0.6320     0.9040 H     1 <1>   0.0800 
 37 H        1.1280    -5.9150    -1.6810 H     1 <1>   0.1500 
 38 H       -1.7830    -3.8390     2.1130 H     1 <1>   0.4000 
 39 H       -2.2900    -5.8950     2.9460 H     1 <1>   0.0800 
 40 H       -0.9820    -6.5420     1.9780 H     1 <1>   0.0800 
 41 H       -2.5040    -6.7440     0.0450 H     1 <1>   0.0800 
 42 H       -3.8270    -6.1020     1.0110 H     1 <1>   0.0800 
 43 H       -2.9210   -10.9740    -1.7630 H     1 <1>   0.1500 
 44 H       -1.0480    -9.3370     0.8210 H     1 <1>   0.0800 
 45 H       -1.1350    -8.4850    -0.7040 H     1 <1>   0.0800 
 46 H       -0.9480   -10.2220    -0.6760 H     1 <1>   0.0800 
 47 H       -6.7550   -10.0080    -0.2030 H     1 <1>   0.1500 
 48 H       -5.5770    -8.2690     2.6650 H     1 <1>   0.0800 
 49 H       -6.9860    -8.6330     1.7060 H     1 <1>   0.0800 
 50 H       -6.0590    -7.1890     1.3760 H     1 <1>   0.0800 
 51 H       -4.8710   -12.3560    -2.2980 H     1 <1>   0.0800 
 52 H       -5.7970   -11.0340    -2.9720 H     1 <1>   0.0800 
 53 H       -6.4410   -11.9740    -1.6450 H     1 <1>   0.0800 
@<TRIPOS>BOND
  1   1   2  2   
  2   2   3  am  
  3   2   4  1   
  4   3   5  1   
  5   3   6  1   
  6   4   7  ar  
  7   4   8  ar  
  8   5   9  1   
  9   5  27  1   
 10   5  28  1   
 11   6  10  1   
 12   6  29  1   
 13   6  30  1   
 14   7  11  ar  
 15   7  31  1   
 16   8  12  ar  
 17   8  32  1   
 18   9  10  1   
 19   9  33  1   
 20   9  34  1   
 21  10  35  1   
 22  10  36  1   
 23  11  13  ar  
 24  11  14  1   
 25  12  13  ar  
 26  12  37  1   
 27  14  15  1   
 28  14  38  1   
 29  15  16  1   
 30  15  39  1   
 31  15  40  1   
 32  16  17  1   
 33  16  41  1   
 34  16  42  1   
 35  17  18  1   
 36  18  19  ar  
 37  18  20  ar  
 38  19  21  ar  
 39  19  22  1   
 40  20  23  ar  
 41  20  24  1   
 42  21  25  ar  
 43  21  43  1   
 44  22  44  1   
 45  22  45  1   
 46  22  46  1   
 47  23  25  ar  
 48  23  47  1   
 49  24  48  1   
 50  24  49  1   
 51  24  50  1   
 52  25  26  1   
 53  26  51  1   
 54  26  52  1   
 55  26  53  1   
@<TRIPOS>SUBSTRUCTURE
  1 ****  13 GROUP 4 **** **** 0

# MOE 2024.06 (io_trps.svl 2023.06)
