@<TRIPOS>MOLECULE
NONAME
54 58 1 0 0 
SMALL
USER_CHARGES


@<TRIPOS>ATOM
  1 O       -2.9150     0.4050     0.6480 O.2   1 <1>  -0.5700 
  2 C       -3.1090     1.2030    -0.2540 C.2   1 <1>   0.5440 
  3 N       -3.9400     0.7750    -1.2620 N.am  1 <1>  -0.6600 
  4 C       -2.5350     2.5390    -0.2400 C.ar  1 <1>   0.0860 
  5 C       -5.4110     0.8920    -1.0160 C.3   1 <1>   0.1400 
  6 C       -3.5760    -0.5000    -1.9640 C.3   1 <1>   0.1400 
  7 C       -2.6630     3.4150    -1.3190 C.ar  1 <1>  -0.1500 
  8 C       -1.8240     3.0100     0.8650 C.ar  1 <1>  -0.1500 
  9 C       -5.9380    -0.2820    -0.1420 C.3   1 <1>   0.4230 
 10 C       -4.3220    -1.7270    -1.3830 C.3   1 <1>   0.3430 
 11 C       -2.1200     4.6860    -1.2910 C.ar  1 <1>  -0.1500 
 12 C       -1.2820     4.2800     0.8920 C.ar  1 <1>  -0.1500 
 13 N       -4.9330    -1.4060    -0.0480 N.4   1 <1>  -0.9590 
 14 C       -7.3030    -0.8010    -0.6500 C.3   1 <1>   0.1200 
 15 C       -1.4150     5.1560    -0.1840 C.ar  1 <1>   0.0530 
 16 C       -5.4890    -2.5560     0.7240 C.3   1 <1>   0.5180 
 17 O       -7.7450    -1.8810     0.1260 O.3   1 <1>  -0.5600 
 18 C       -0.8490     6.4850    -0.1550 C.2   1 <1>   0.0870 
 19 C       -4.4860    -3.7150     0.7350 C.3   1 <1>  -0.1950 
 20 C       -6.8720    -2.9790     0.1810 C.3   1 <1>   0.1200 
 21 O       -0.2230     6.9220     0.9320 O.3   1 <1>  -0.2800 
 22 C       -0.8210     7.4730    -1.0910 C.2   1 <1>  -0.1500 
 23 C       -4.2600    -4.4990     1.9910 C.3   1 <1>  -0.2000 
 24 C       -3.1780    -3.6070     1.4580 C.3   1 <1>  -0.2000 
 25 C        0.2000     8.1480     0.7190 C.2   1 <1>  -0.0400 
 26 C       -0.1400     8.5510    -0.5220 C.2   1 <1>  -0.1500 
 27 C        0.9480     8.8630     1.8220 C.3   1 <1>  -0.0600 
 28 H       -5.6250     1.8240    -0.5210 H     1 <1>   0.0800 
 29 H       -5.9200     0.9110    -1.9640 H     1 <1>   0.0800 
 30 H       -3.7870    -0.4090    -3.0150 H     1 <1>   0.0800 
 31 H       -2.5150    -0.6640    -1.8650 H     1 <1>   0.0800 
 32 H       -3.1940     3.1000    -2.1990 H     1 <1>   0.1500 
 33 H       -1.6930     2.3680     1.7200 H     1 <1>   0.1500 
 34 H       -6.1000     0.1080     0.8490 H     1 <1>   0.0800 
 35 H       -3.6200    -2.5390    -1.2890 H     1 <1>   0.0800 
 36 H       -5.0910    -2.0350    -2.0710 H     1 <1>   0.0800 
 37 H       -2.2430     5.3280    -2.1440 H     1 <1>   0.1500 
 38 H       -0.7410     4.6050     1.7640 H     1 <1>   0.1500 
 39 H       -4.1420    -1.0030     0.4990 H     1 <1>   0.4500 
 40 H       -7.2450    -1.1200    -1.6760 H     1 <1>   0.0800 
 41 H       -8.0460    -0.0260    -0.5750 H     1 <1>   0.0800 
 42 H       -5.6300    -2.2380     1.7440 H     1 <1>   0.0800 
 43 H       -4.5120    -4.2980    -0.1700 H     1 <1>   0.1000 
 44 H       -7.3110    -3.7120     0.8350 H     1 <1>   0.0800 
 45 H       -6.7900    -3.4060    -0.8020 H     1 <1>   0.0800 
 46 H       -1.2300     7.4620    -2.0840 H     1 <1>   0.1500 
 47 H       -4.7430    -4.2110     2.9100 H     1 <1>   0.1000 
 48 H       -4.1160    -5.5660     1.9270 H     1 <1>   0.1000 
 49 H       -2.3010    -4.0700     1.0370 H     1 <1>   0.1000 
 50 H       -2.9370    -2.7160     2.0150 H     1 <1>   0.1000 
 51 H        0.0570     9.4940    -1.0010 H     1 <1>   0.1500 
 52 H        1.2280     9.8500     1.5040 H     1 <1>   0.0800 
 53 H        1.8340     8.3100     2.0750 H     1 <1>   0.0800 
 54 H        0.3230     8.9390     2.6930 H     1 <1>   0.0800 
@<TRIPOS>BOND
  1   1   2  2   
  2   2   3  am  
  3   2   4  1   
  4   3   5  1   
  5   3   6  1   
  6   4   7  ar  
  7   4   8  ar  
  8   5   9  1   
  9   5  28  1   
 10   5  29  1   
 11   6  10  1   
 12   6  30  1   
 13   6  31  1   
 14   7  11  ar  
 15   7  32  1   
 16   8  12  ar  
 17   8  33  1   
 18   9  13  1   
 19   9  14  1   
 20   9  34  1   
 21  10  13  1   
 22  10  35  1   
 23  10  36  1   
 24  11  15  ar  
 25  11  37  1   
 26  12  15  ar  
 27  12  38  1   
 28  13  16  1   
 29  13  39  1   
 30  14  17  1   
 31  14  40  1   
 32  14  41  1   
 33  15  18  1   
 34  16  19  1   
 35  16  20  1   
 36  16  42  1   
 37  17  20  1   
 38  18  21  1   
 39  18  22  2   
 40  19  23  1   
 41  19  24  1   
 42  19  43  1   
 43  20  44  1   
 44  20  45  1   
 45  21  25  1   
 46  22  26  1   
 47  22  46  1   
 48  23  24  1   
 49  23  47  1   
 50  23  48  1   
 51  24  49  1   
 52  24  50  1   
 53  25  26  2   
 54  25  27  1   
 55  26  51  1   
 56  27  52  1   
 57  27  53  1   
 58  27  54  1   
@<TRIPOS>SUBSTRUCTURE
  1 ****   2 GROUP 4 **** **** 0

# MOE 2024.06 (io_trps.svl 2023.06)
