@<TRIPOS>MOLECULE
NONAME
39 41 1 0 0 
SMALL
USER_CHARGES


@<TRIPOS>ATOM
  1 O       -2.3640     0.8010    -1.9380 O.2   1 <1>  -0.5700 
  2 C       -2.0280     0.6170    -0.7930 C.2   1 <1>   0.6300 
  3 N       -1.8960    -0.6270    -0.2790 N.am  1 <1>  -0.7300 
  4 C       -1.7720     1.8080     0.1300 C.3   1 <1>  -0.0950 
  5 C       -2.0890    -1.8870    -1.0300 C.3   1 <1>   0.2200 
  6 C       -0.5200     1.8400     0.9580 C.3   1 <1>  -0.2000 
  7 C       -0.6670     2.7590    -0.2200 C.3   1 <1>  -0.2000 
  8 C       -3.0640     2.3800     0.7240 C.3   1 <1>  -0.1450 
  9 C       -3.4080    -2.5530    -0.6620 C.3   1 <1>  -0.0800 
 10 C       -1.1000    -2.9230    -0.5160 C.3   1 <1>   0.1200 
 11 C       -3.0550    -3.3450     0.6020 C.3   1 <1>   0.1200 
 12 C       -4.6170    -1.6120    -0.5050 C.3   1 <1>  -0.0170 
 13 O       -1.6590    -3.4000     0.6700 O.3   1 <1>  -0.5600 
 14 C       -5.8880    -2.4010    -0.2360 C.ar  1 <1>  -0.1430 
 15 C       -6.3900    -2.5740     1.0380 C.ar  1 <1>  -0.1500 
 16 C       -6.6070    -2.9870    -1.2580 C.ar  1 <1>  -0.1500 
 17 C       -7.5480    -3.3100     1.2240 C.ar  1 <1>   0.1600 
 18 C       -7.7550    -3.7030    -0.9650 C.ar  1 <1>   0.1600 
 19 N       -8.2420    -3.8810     0.2520 N.ar  1 <1>  -0.6200 
 20 H       -1.6270    -0.7490     0.6990 H     1 <1>   0.3700 
 21 H       -1.9900    -1.7160    -2.0890 H     1 <1>   0.0800 
 22 H       -0.5520     2.2660     1.9460 H     1 <1>   0.1000 
 23 H        0.1920     1.0360     0.8810 H     1 <1>   0.1000 
 24 H       -0.0960     2.5650    -1.1120 H     1 <1>   0.1000 
 25 H       -0.8110     3.8110    -0.0470 H     1 <1>   0.1000 
 26 H       -2.8570     3.2250     1.3550 H     1 <1>   0.0800 
 27 H       -3.5670     1.6290     1.3060 H     1 <1>   0.0800 
 28 H       -3.7180     2.6970    -0.0700 H     1 <1>   0.0800 
 29 H       -3.6390    -3.2680    -1.4330 H     1 <1>   0.0800 
 30 H       -0.1260    -2.5110    -0.3200 H     1 <1>   0.0800 
 31 H       -1.0200    -3.7490    -1.2000 H     1 <1>   0.0800 
 32 H       -3.4450    -4.3480     0.5660 H     1 <1>   0.0800 
 33 H       -3.4040    -2.8520     1.4920 H     1 <1>   0.0800 
 34 H       -4.7380    -1.0350    -1.4060 H     1 <1>   0.0800 
 35 H       -4.4530    -0.9180     0.3000 H     1 <1>   0.0800 
 36 H       -5.8930    -2.1460     1.8890 H     1 <1>   0.1500 
 37 H       -6.2840    -2.8940    -2.2790 H     1 <1>   0.1500 
 38 H       -7.9250    -3.4350     2.2240 H     1 <1>   0.1500 
 39 H       -8.3030    -4.1540    -1.7750 H     1 <1>   0.1500 
@<TRIPOS>BOND
  1   1   2  2   
  2   2   3  am  
  3   2   4  1   
  4   3   5  1   
  5   3  20  1   
  6   4   6  1   
  7   4   7  1   
  8   4   8  1   
  9   5   9  1   
 10   5  10  1   
 11   5  21  1   
 12   6   7  1   
 13   6  22  1   
 14   6  23  1   
 15   7  24  1   
 16   7  25  1   
 17   8  26  1   
 18   8  27  1   
 19   8  28  1   
 20   9  11  1   
 21   9  12  1   
 22   9  29  1   
 23  10  13  1   
 24  10  30  1   
 25  10  31  1   
 26  11  13  1   
 27  11  32  1   
 28  11  33  1   
 29  12  14  1   
 30  12  34  1   
 31  12  35  1   
 32  14  15  ar  
 33  14  16  ar  
 34  15  17  ar  
 35  15  36  1   
 36  16  18  ar  
 37  16  37  1   
 38  17  19  ar  
 39  17  38  1   
 40  18  19  ar  
 41  18  39  1   
@<TRIPOS>SUBSTRUCTURE
  1 ****  12 GROUP 4 **** **** 0

# MOE 2024.06 (io_trps.svl 2023.06)
