@<TRIPOS>MOLECULE
NONAME
55 57 1 0 0 
SMALL
USER_CHARGES


@<TRIPOS>ATOM
  1 O       -0.7960     0.0910    -0.9890 O.2   1 <1>  -0.5700 
  2 C       -1.7240     0.8480    -1.1380 C.2   1 <1>   0.5690 
  3 N       -2.8700     0.4310    -1.7700 N.am  1 <1>  -0.6600 
  4 C       -1.6210     2.2580    -0.5850 C.3   1 <1>  -0.0990 
  5 C       -4.1550     1.2000    -1.8390 C.3   1 <1>   0.1400 
  6 C       -2.9900    -0.9670    -2.3060 C.3   1 <1>   0.1400 
  7 C       -0.3440     2.5240     0.2240 C.3   1 <1>   0.0210 
  8 C       -5.2860     0.4800    -1.0550 C.3   1 <1>   0.4230 
  9 C       -4.2610    -1.6760    -1.7890 C.3   1 <1>   0.3430 
 10 C       -0.3580     3.9370     0.7780 C.2   1 <1>   0.1080 
 11 N       -4.8940    -0.9280    -0.6410 N.4   1 <1>  -0.9590 
 12 C       -6.6010     0.4750    -1.8700 C.3   1 <1>   0.1200 
 13 N       -1.3430     4.3800     1.4970 N.2   1 <1>  -0.7070 
 14 C        0.6360     4.9000     0.5950 C.2   1 <1>  -0.1810 
 15 C       -6.0510    -1.6180     0.0230 C.3   1 <1>   0.4230 
 16 O       -7.6100    -0.2040    -1.1790 O.3   1 <1>  -0.5600 
 17 N       -0.9990     5.6430     1.8010 N.pl3 1 <1>   0.3000 
 18 C        0.1910     5.9860     1.2660 C.2   1 <1>  -0.3320 
 19 C        1.9230     4.7220    -0.1920 C.3   1 <1>  -0.0590 
 20 C       -7.3240    -1.5360    -0.8530 C.3   1 <1>   0.1200 
 21 C       -5.6780    -3.0590     0.4070 C.3   1 <1>  -0.1600 
 22 C        0.8070     7.3620     1.4570 C.3   1 <1>  -0.0600 
 23 C       -6.6710    -3.6750     1.4050 C.3   1 <1>  -0.1600 
 24 C       -6.2220    -5.0770     1.8250 C.3   1 <1>  -0.2400 
 25 H       -1.6650     2.9570    -1.4000 H     1 <1>   0.0800 
 26 H       -2.4590     2.4350     0.0620 H     1 <1>   0.0800 
 27 H       -4.0430     2.1990    -1.4580 H     1 <1>   0.0800 
 28 H       -4.4320     1.3000    -2.8750 H     1 <1>   0.0800 
 29 H       -3.0060    -0.9360    -3.3820 H     1 <1>   0.0800 
 30 H       -2.1320    -1.5540    -2.0250 H     1 <1>   0.0800 
 31 H        0.5190     2.3720    -0.3980 H     1 <1>   0.0800 
 32 H       -0.2850     1.8370     1.0490 H     1 <1>   0.0800 
 33 H       -5.4740     1.0570    -0.1650 H     1 <1>   0.0800 
 34 H       -3.9910    -2.6730    -1.4830 H     1 <1>   0.0800 
 35 H       -4.9670    -1.7650    -2.5970 H     1 <1>   0.0800 
 36 H       -4.1420    -0.8110     0.0530 H     1 <1>   0.4500 
 37 H       -6.4680     0.0060    -2.8290 H     1 <1>   0.0800 
 38 H       -6.9420     1.4830    -2.0280 H     1 <1>   0.0800 
 39 H       -6.2720    -1.0920     0.9380 H     1 <1>   0.0800 
 40 H       -1.5940     6.2470     2.3790 H     1 <1>   0.2700 
 41 H        2.4950     3.9140     0.2250 H     1 <1>   0.0800 
 42 H        2.5200     5.6130    -0.1630 H     1 <1>   0.0800 
 43 H        1.6950     4.4970    -1.2180 H     1 <1>   0.0800 
 44 H       -8.1730    -1.9190    -0.3150 H     1 <1>   0.0800 
 45 H       -7.2150    -2.1020    -1.7620 H     1 <1>   0.0800 
 46 H       -5.6440    -3.6830    -0.4690 H     1 <1>   0.0800 
 47 H       -4.7050    -3.0570     0.8680 H     1 <1>   0.0800 
 48 H        1.7510     7.4360     0.9510 H     1 <1>   0.0800 
 49 H        0.9690     7.5510     2.5040 H     1 <1>   0.0800 
 50 H        0.1510     8.1170     1.0630 H     1 <1>   0.0800 
 51 H       -6.7430    -3.0560     2.2850 H     1 <1>   0.0800 
 52 H       -7.6530    -3.7490     0.9690 H     1 <1>   0.0800 
 53 H       -5.2570    -5.0430     2.3020 H     1 <1>   0.0800 
 54 H       -6.1650    -5.7320     0.9730 H     1 <1>   0.0800 
 55 H       -6.9260    -5.4940     2.5240 H     1 <1>   0.0800 
@<TRIPOS>BOND
  1   1   2  2   
  2   2   3  am  
  3   2   4  1   
  4   3   5  1   
  5   3   6  1   
  6   4   7  1   
  7   4  25  1   
  8   4  26  1   
  9   5   8  1   
 10   5  27  1   
 11   5  28  1   
 12   6   9  1   
 13   6  29  1   
 14   6  30  1   
 15   7  10  1   
 16   7  31  1   
 17   7  32  1   
 18   8  11  1   
 19   8  12  1   
 20   8  33  1   
 21   9  11  1   
 22   9  34  1   
 23   9  35  1   
 24  10  13  2   
 25  10  14  1   
 26  11  15  1   
 27  11  36  1   
 28  12  16  1   
 29  12  37  1   
 30  12  38  1   
 31  13  17  1   
 32  14  18  2   
 33  14  19  1   
 34  15  20  1   
 35  15  21  1   
 36  15  39  1   
 37  16  20  1   
 38  17  18  1   
 39  17  40  1   
 40  18  22  1   
 41  19  41  1   
 42  19  42  1   
 43  19  43  1   
 44  20  44  1   
 45  20  45  1   
 46  21  23  1   
 47  21  46  1   
 48  21  47  1   
 49  22  48  1   
 50  22  49  1   
 51  22  50  1   
 52  23  24  1   
 53  23  51  1   
 54  23  52  1   
 55  24  53  1   
 56  24  54  1   
 57  24  55  1   
@<TRIPOS>SUBSTRUCTURE
  1 ****   2 GROUP 4 **** **** 0

# MOE 2024.06 (io_trps.svl 2023.06)
