@<TRIPOS>MOLECULE
NONAME
49 52 1 0 0 
SMALL
USER_CHARGES


@<TRIPOS>ATOM
  1 S        0.1400     0.6960     1.3780 S.3   1 <1>  -0.0800 
  2 C       -0.7030     1.5080     0.1010 C.2   1 <1>   0.1980 
  3 C       -0.6590    -0.7500     0.8720 C.2   1 <1>   0.1980 
  4 N       -1.4630     0.7280    -0.5590 N.2   1 <1>  -0.3380 
  5 C       -0.4810     3.0070    -0.0680 C.3   1 <1>   0.2900 
  6 N       -1.4340    -0.5690    -0.1180 N.2   1 <1>  -0.3380 
  7 C       -0.3680    -2.0280     1.6250 C.3   1 <1>  -0.0600 
  8 N        0.5500     3.3590    -1.0730 N.3   1 <1>  -0.8100 
  9 C        1.8850     2.8070    -0.7420 C.3   1 <1>   0.1100 
 10 C        0.6320     4.8300    -1.2360 C.3   1 <1>   0.1100 
 11 C        2.9600     3.1930    -1.7780 C.3   1 <1>   0.2090 
 12 C        1.6670     5.2380    -2.2980 C.3   1 <1>   0.2090 
 13 N        3.0070     4.6720    -1.9610 N.pl3 1 <1>  -0.7880 
 14 C        4.0560     5.4510    -1.5650 C.2   1 <1>   0.4860 
 15 N        3.7780     6.6360    -1.0350 N.2   1 <1>  -0.6210 
 16 C        5.3820     5.0010    -1.7100 C.2   1 <1>  -0.1360 
 17 C        4.7820     7.4070    -0.6100 C.2   1 <1>   0.2710 
 18 C        6.4020     5.7800    -1.2780 C.2   1 <1>  -0.0380 
 19 N        6.0650     6.9640    -0.7320 N.pl3 1 <1>  -0.6000 
 20 C        4.5130     8.6870    -0.0300 C.2   1 <1>   0.0140 
 21 C        7.8690     5.4230    -1.3710 C.3   1 <1>  -0.1020 
 22 C        5.5320     9.5720     0.4350 C.2   1 <1>   0.5410 
 23 C        3.1840     9.1440     0.1100 C.2   1 <1>  -0.1500 
 24 O        6.7570     9.3110     0.3810 O.2   1 <1>  -0.5700 
 25 C        5.1770    10.8180     0.9920 C.2   1 <1>  -0.1360 
 26 C        2.8640    10.3620     0.6570 C.2   1 <1>  -0.1500 
 27 C        3.8740    11.2140     1.1050 C.2   1 <1>  -0.1500 
 28 H       -0.2200     3.4340     0.8850 H     1 <1>   0.0800 
 29 H       -1.4180     3.4360    -0.3760 H     1 <1>   0.0800 
 30 H       -0.6380    -1.9120     2.6580 H     1 <1>   0.0800 
 31 H        0.6780    -2.2640     1.5550 H     1 <1>   0.0800 
 32 H       -0.9380    -2.8350     1.2020 H     1 <1>   0.0800 
 33 H        1.8320     1.7330    -0.7080 H     1 <1>   0.0800 
 34 H        2.1970     3.1610     0.2260 H     1 <1>   0.0800 
 35 H        0.9050     5.2910    -0.3020 H     1 <1>   0.0800 
 36 H       -0.3300     5.2110    -1.5320 H     1 <1>   0.0800 
 37 H        2.7300     2.7250    -2.7190 H     1 <1>   0.0800 
 38 H        3.9090     2.8210    -1.4390 H     1 <1>   0.0800 
 39 H        1.7120     6.3100    -2.3670 H     1 <1>   0.0800 
 40 H        1.3560     4.8620    -3.2570 H     1 <1>   0.0800 
 41 H        5.5630     4.0540    -2.1730 H     1 <1>   0.1500 
 42 H        6.7930     7.6110    -0.3850 H     1 <1>   0.4000 
 43 H        8.3850     6.1560    -1.9630 H     1 <1>   0.0800 
 44 H        7.9960     4.4580    -1.8270 H     1 <1>   0.0800 
 45 H        8.3020     5.4010    -0.3870 H     1 <1>   0.0800 
 46 H        2.3830     8.5090    -0.2260 H     1 <1>   0.1500 
 47 H        5.9800    11.4470     1.3270 H     1 <1>   0.1500 
 48 H        1.8360    10.6710     0.7450 H     1 <1>   0.1500 
 49 H        3.6130    12.1670     1.5330 H     1 <1>   0.1500 
@<TRIPOS>BOND
  1   1   2  1   
  2   1   3  1   
  3   2   4  2   
  4   2   5  1   
  5   3   6  2   
  6   3   7  1   
  7   4   6  1   
  8   5   8  1   
  9   5  28  1   
 10   5  29  1   
 11   7  30  1   
 12   7  31  1   
 13   7  32  1   
 14   8   9  1   
 15   8  10  1   
 16   9  11  1   
 17   9  33  1   
 18   9  34  1   
 19  10  12  1   
 20  10  35  1   
 21  10  36  1   
 22  11  13  1   
 23  11  37  1   
 24  11  38  1   
 25  12  13  1   
 26  12  39  1   
 27  12  40  1   
 28  13  14  1   
 29  14  15  2   
 30  14  16  1   
 31  15  17  1   
 32  16  18  2   
 33  16  41  1   
 34  17  19  1   
 35  17  20  2   
 36  18  19  1   
 37  18  21  1   
 38  19  42  1   
 39  20  22  1   
 40  20  23  1   
 41  21  43  1   
 42  21  44  1   
 43  21  45  1   
 44  22  24  2   
 45  22  25  1   
 46  23  26  2   
 47  23  46  1   
 48  25  27  2   
 49  25  47  1   
 50  26  27  1   
 51  26  48  1   
 52  27  49  1   
@<TRIPOS>SUBSTRUCTURE
  1 ****  13 GROUP 4 **** **** 0

# MOE 2024.06 (io_trps.svl 2023.06)
