@<TRIPOS>MOLECULE
NONAME
51 54 1 0 0 
SMALL
USER_CHARGES


@<TRIPOS>ATOM
  1 O       -0.3900     0.1530    -0.1570 O.2   1 <1>  -0.5700 
  2 C       -1.4250     0.7440    -0.3580 C.2   1 <1>   0.5690 
  3 N       -2.5720     0.0840    -0.7150 N.am  1 <1>  -0.6600 
  4 C       -1.4350     2.2580    -0.2050 C.3   1 <1>  -0.0990 
  5 C       -3.9170     0.7080    -0.9230 C.3   1 <1>   0.1400 
  6 C       -2.5950    -1.4020    -0.8900 C.3   1 <1>   0.1400 
  7 C       -0.0490     2.8740     0.0360 C.3   1 <1>  -0.0160 
  8 C       -4.9840     0.0230    -0.0480 C.3   1 <1>   0.1900 
  9 C       -3.7040    -2.0430    -0.0380 C.3   1 <1>   0.1100 
 10 C       -0.1670     4.3840     0.1580 C.ar  1 <1>  -0.1440 
 11 N       -5.0250    -1.4350    -0.3170 N.3   1 <1>  -0.8100 
 12 C       -6.3670     0.6570    -0.2920 C.3   1 <1>   0.1200 
 13 C       -0.2090     5.1840    -0.9760 C.ar  1 <1>   0.1600 
 14 C       -0.2450     4.9870     1.3980 C.ar  1 <1>  -0.1500 
 15 C       -6.1020    -2.0660     0.4840 C.3   1 <1>   0.3330 
 16 O       -7.3350     0.0360     0.5020 O.3   1 <1>  -0.5600 
 17 N       -0.3280     6.5020    -0.9730 N.ar  1 <1>  -0.6200 
 18 C       -0.3620     6.3600     1.4210 C.ar  1 <1>  -0.1500 
 19 C       -6.2600    -3.5440     0.1280 C.ar  1 <1>  -0.1440 
 20 C       -7.4470    -1.3420     0.2600 C.3   1 <1>   0.1200 
 21 C       -0.3990     7.0580     0.2260 C.ar  1 <1>   0.1600 
 22 C       -6.3520    -4.4960     1.1340 C.ar  1 <1>  -0.1500 
 23 C       -6.3180    -3.9560    -1.1960 C.ar  1 <1>  -0.1500 
 24 C       -6.5010    -5.8360     0.8210 C.ar  1 <1>  -0.1500 
 25 C       -6.4680    -5.2950    -1.5110 C.ar  1 <1>  -0.1500 
 26 C       -6.5590    -6.2370    -0.5020 C.ar  1 <1>  -0.1500 
 27 H       -1.8470     2.6860    -1.1000 H     1 <1>   0.0800 
 28 H       -2.0740     2.5090     0.6210 H     1 <1>   0.0800 
 29 H       -3.8980     1.7560    -0.6890 H     1 <1>   0.0800 
 30 H       -4.1920     0.6040    -1.9590 H     1 <1>   0.0800 
 31 H       -2.7720    -1.6310    -1.9260 H     1 <1>   0.0800 
 32 H       -1.6490    -1.8330    -0.6150 H     1 <1>   0.0800 
 33 H        0.6070     2.6240    -0.7800 H     1 <1>   0.0800 
 34 H        0.3800     2.4640     0.9340 H     1 <1>   0.0800 
 35 H       -4.7230     0.1900     0.9830 H     1 <1>   0.0800 
 36 H       -3.4560    -1.9310     1.0030 H     1 <1>   0.0800 
 37 H       -3.7320    -3.0960    -0.2600 H     1 <1>   0.0800 
 38 H       -6.6550     0.5590    -1.3250 H     1 <1>   0.0800 
 39 H       -6.3540     1.7000    -0.0310 H     1 <1>   0.0800 
 40 H       -0.1430     4.7130    -1.9410 H     1 <1>   0.1500 
 41 H       -0.2150     4.4150     2.3090 H     1 <1>   0.1500 
 42 H       -5.8550    -1.9840     1.5290 H     1 <1>   0.0800 
 43 H       -0.4250     6.8880     2.3550 H     1 <1>   0.1500 
 44 H       -8.1910    -1.7350     0.9290 H     1 <1>   0.0800 
 45 H       -7.7840    -1.4860    -0.7510 H     1 <1>   0.0800 
 46 H       -0.4920     8.1300     0.2570 H     1 <1>   0.1500 
 47 H       -6.3080    -4.2000     2.1680 H     1 <1>   0.1500 
 48 H       -6.2410    -3.2270    -1.9850 H     1 <1>   0.1500 
 49 H       -6.5720    -6.5680     1.6070 H     1 <1>   0.1500 
 50 H       -6.5110    -5.6030    -2.5410 H     1 <1>   0.1500 
 51 H       -6.6760    -7.2780    -0.7460 H     1 <1>   0.1500 
@<TRIPOS>BOND
  1   1   2  2   
  2   2   3  am  
  3   2   4  1   
  4   3   5  1   
  5   3   6  1   
  6   4   7  1   
  7   4  27  1   
  8   4  28  1   
  9   5   8  1   
 10   5  29  1   
 11   5  30  1   
 12   6   9  1   
 13   6  31  1   
 14   6  32  1   
 15   7  10  1   
 16   7  33  1   
 17   7  34  1   
 18   8  11  1   
 19   8  12  1   
 20   8  35  1   
 21   9  11  1   
 22   9  36  1   
 23   9  37  1   
 24  10  13  ar  
 25  10  14  ar  
 26  11  15  1   
 27  12  16  1   
 28  12  38  1   
 29  12  39  1   
 30  13  17  ar  
 31  13  40  1   
 32  14  18  ar  
 33  14  41  1   
 34  15  19  1   
 35  15  20  1   
 36  15  42  1   
 37  16  20  1   
 38  17  21  ar  
 39  18  21  ar  
 40  18  43  1   
 41  19  22  ar  
 42  19  23  ar  
 43  20  44  1   
 44  20  45  1   
 45  21  46  1   
 46  22  24  ar  
 47  22  47  1   
 48  23  25  ar  
 49  23  48  1   
 50  24  26  ar  
 51  24  49  1   
 52  25  26  ar  
 53  25  50  1   
 54  26  51  1   
@<TRIPOS>SUBSTRUCTURE
  1 ****   5 GROUP 4 **** **** 0

# MOE 2024.06 (io_trps.svl 2023.06)
