@<TRIPOS>MOLECULE
NONAME
47 49 1 0 0 
SMALL
USER_CHARGES


@<TRIPOS>ATOM
  1 O        1.4340     0.3910     2.6070 O.2   1 <1>  -0.5700 
  2 C        1.6240    -0.3030     1.6330 C.2   1 <1>   0.5690 
  3 N        2.5780     0.0270     0.7110 N.am  1 <1>  -0.6600 
  4 C        0.7420    -1.5500     1.4570 C.3   1 <1>   0.1710 
  5 C        3.1260     1.3950     0.6180 C.3   1 <1>   0.4010 
  6 C        2.9950    -0.7950    -0.4480 C.3   1 <1>   0.1400 
  7 N       -0.0140    -1.6310     0.1730 N.3   1 <1>  -0.8100 
  8 C        2.0590     2.3270     0.0260 C.2   1 <1>   0.1080 
  9 C        4.3530     1.2170    -0.2760 C.3   1 <1>  -0.1600 
 10 C        3.9990     0.0620    -1.2150 C.3   1 <1>  -0.1600 
 11 C       -0.7730    -0.3880    -0.0950 C.3   1 <1>   0.1100 
 12 C       -0.9310    -2.7840     0.1630 C.3   1 <1>   0.1100 
 13 N        1.9110     2.6330    -1.2190 N.2   1 <1>  -0.4100 
 14 C        1.0710     2.9440     0.7930 C.2   1 <1>  -0.1500 
 15 C       -1.6010    -0.5090    -1.3860 C.3   1 <1>   0.1200 
 16 C       -1.7460    -2.8290    -1.1430 C.3   1 <1>   0.1200 
 17 O        0.8700     3.4110    -1.2840 O.3   1 <1>  -0.0190 
 18 C        0.3400     3.6150    -0.1080 C.2   1 <1>  -0.0400 
 19 O       -2.4400    -1.6280    -1.3290 O.3   1 <1>  -0.5600 
 20 C       -0.9000     4.4800     0.0510 C.3   1 <1>   0.1000 
 21 C       -2.0860     3.8440    -0.6810 C.3   1 <1>  -0.2400 
 22 C       -0.6400     5.8970    -0.4700 C.3   1 <1>  -0.2400 
 23 H        0.0440    -1.5690     2.2760 H     1 <1>   0.0800 
 24 H        1.3720    -2.4150     1.5460 H     1 <1>   0.0800 
 25 H        3.4150     1.7490     1.5920 H     1 <1>   0.0800 
 26 H        2.1500    -1.0320    -1.0710 H     1 <1>   0.0800 
 27 H        3.4550    -1.7030    -0.0970 H     1 <1>   0.0800 
 28 H        5.1880     0.9390     0.3420 H     1 <1>   0.0800 
 29 H        4.6010     2.1190    -0.8080 H     1 <1>   0.0800 
 30 H        3.5210     0.4470    -2.1000 H     1 <1>   0.0800 
 31 H        4.8650    -0.5040    -1.5100 H     1 <1>   0.0800 
 32 H       -0.0940     0.4390    -0.2110 H     1 <1>   0.0800 
 33 H       -1.4320    -0.1690     0.7280 H     1 <1>   0.0800 
 34 H       -1.6130    -2.7220     0.9950 H     1 <1>   0.0800 
 35 H       -0.3650    -3.6940     0.2560 H     1 <1>   0.0800 
 36 H        0.9500     2.8610     1.8580 H     1 <1>   0.1500 
 37 H       -0.9530    -0.6040    -2.2390 H     1 <1>   0.0800 
 38 H       -2.2190     0.3620    -1.5140 H     1 <1>   0.0800 
 39 H       -2.4700    -3.6230    -1.1040 H     1 <1>   0.0800 
 40 H       -1.0980    -2.9870    -1.9860 H     1 <1>   0.0800 
 41 H       -1.1370     4.5380     1.0990 H     1 <1>   0.0800 
 42 H       -1.8820     3.7700    -1.7340 H     1 <1>   0.0800 
 43 H       -2.9740     4.4330    -0.5390 H     1 <1>   0.0800 
 44 H       -2.2660     2.8550    -0.2970 H     1 <1>   0.0800 
 45 H       -0.4110     5.8750    -1.5200 H     1 <1>   0.0800 
 46 H        0.1930     6.3310     0.0530 H     1 <1>   0.0800 
 47 H       -1.5040     6.5170    -0.3160 H     1 <1>   0.0800 
@<TRIPOS>BOND
  1   1   2  2   
  2   2   3  am  
  3   2   4  1   
  4   3   5  1   
  5   3   6  1   
  6   4   7  1   
  7   4  23  1   
  8   4  24  1   
  9   5   8  1   
 10   5   9  1   
 11   5  25  1   
 12   6  10  1   
 13   6  26  1   
 14   6  27  1   
 15   7  11  1   
 16   7  12  1   
 17   8  13  2   
 18   8  14  1   
 19   9  10  1   
 20   9  28  1   
 21   9  29  1   
 22  10  30  1   
 23  10  31  1   
 24  11  15  1   
 25  11  32  1   
 26  11  33  1   
 27  12  16  1   
 28  12  34  1   
 29  12  35  1   
 30  13  17  1   
 31  14  18  2   
 32  14  36  1   
 33  15  19  1   
 34  15  37  1   
 35  15  38  1   
 36  16  19  1   
 37  16  39  1   
 38  16  40  1   
 39  17  18  1   
 40  18  20  1   
 41  20  21  1   
 42  20  22  1   
 43  20  41  1   
 44  21  42  1   
 45  21  43  1   
 46  21  44  1   
 47  22  45  1   
 48  22  46  1   
 49  22  47  1   
@<TRIPOS>SUBSTRUCTURE
  1 ****   8 GROUP 4 **** **** 0

# MOE 2024.06 (io_trps.svl 2023.06)
