@<TRIPOS>MOLECULE
NONAME
50 53 1 0 0 
SMALL
USER_CHARGES


@<TRIPOS>ATOM
  1 O       -2.5210     0.7380    -2.4450 O.2   1 <1>  -0.5700 
  2 C       -2.1650     0.8380    -1.2870 C.2   1 <1>   0.5440 
  3 N       -1.9520    -0.3060    -0.5770 N.am  1 <1>  -0.7300 
  4 C       -2.0500     2.1340    -0.6620 C.ar  1 <1>   0.0860 
  5 C       -2.1170    -1.6850    -1.0960 C.3   1 <1>   0.2200 
  6 C       -0.9540     2.5360     0.1260 C.ar  1 <1>   0.0000 
  7 C       -3.0520     3.0740    -0.7920 C.ar  1 <1>  -0.1500 
  8 C       -3.3600    -2.3450    -0.5120 C.3   1 <1>  -0.0800 
  9 C       -1.0330    -2.5720    -0.5030 C.3   1 <1>   0.1200 
 10 C       -1.0070     3.7720     0.7390 C.ar  1 <1>   0.1050 
 11 C        0.3060     2.0310     0.5110 C.2   1 <1>   0.1080 
 12 C       -2.9870     4.3080    -0.1380 C.ar  1 <1>   0.1660 
 13 C       -2.8630    -2.8880     0.8340 C.3   1 <1>   0.1200 
 14 C       -4.6130    -1.4550    -0.4150 C.3   1 <1>  -0.0170 
 15 O       -1.4650    -2.8490     0.7940 O.3   1 <1>  -0.5600 
 16 N       -1.9990     4.6740     0.6340 N.ar  1 <1>  -0.5670 
 17 N        0.1480     3.8980     1.4490 N.pl3 1 <1>   0.3140 
 18 N        0.9490     2.8230     1.3010 N.2   1 <1>  -0.7070 
 19 C        0.9290     0.7240     0.0690 C.3   1 <1>  -0.0590 
 20 C       -4.1150     5.3050    -0.3080 C.3   1 <1>  -0.0970 
 21 C       -5.8080    -2.2540     0.0800 C.ar  1 <1>  -0.1430 
 22 C        0.5350     5.0550     2.2650 C.3   1 <1>   0.0160 
 23 C       -6.2120    -2.2320     1.3990 C.ar  1 <1>  -0.1500 
 24 C       -6.5500    -3.0480    -0.7710 C.ar  1 <1>  -0.1500 
 25 C       -7.3040    -2.9880     1.7940 C.ar  1 <1>   0.1600 
 26 C       -7.6260    -3.7650    -0.2740 C.ar  1 <1>   0.1600 
 27 N       -8.0190    -3.7560     0.9890 N.ar  1 <1>  -0.6200 
 28 H       -1.7150    -0.2600     0.4180 H     1 <1>   0.3700 
 29 H       -2.1080    -1.6950    -2.1730 H     1 <1>   0.0800 
 30 H       -3.9040     2.8460    -1.4060 H     1 <1>   0.1500 
 31 H       -3.6000    -3.1920    -1.1300 H     1 <1>   0.0800 
 32 H       -0.0690    -2.0980    -0.4750 H     1 <1>   0.0800 
 33 H       -0.9670    -3.5050    -1.0360 H     1 <1>   0.0800 
 34 H       -3.1820    -3.9040     0.9950 H     1 <1>   0.0800 
 35 H       -3.1820    -2.2720     1.6560 H     1 <1>   0.0800 
 36 H       -4.8340    -1.0450    -1.3860 H     1 <1>   0.0800 
 37 H       -4.4380    -0.6280     0.2500 H     1 <1>   0.0800 
 38 H        0.6890     0.5220    -0.9580 H     1 <1>   0.0800 
 39 H        0.5790    -0.0760     0.6930 H     1 <1>   0.0800 
 40 H        1.9980     0.7850     0.1620 H     1 <1>   0.0800 
 41 H       -4.8750     4.9270    -0.9660 H     1 <1>   0.0800 
 42 H       -3.7260     6.2200    -0.7160 H     1 <1>   0.0800 
 43 H       -4.5560     5.5140     0.6500 H     1 <1>   0.0800 
 44 H       -0.2300     5.2390     2.9960 H     1 <1>   0.0800 
 45 H        0.6400     5.9120     1.6270 H     1 <1>   0.0800 
 46 H        1.4680     4.8480     2.7550 H     1 <1>   0.0800 
 47 H       -5.6910    -1.6350     2.1250 H     1 <1>   0.1500 
 48 H       -6.3030    -3.1160    -1.8150 H     1 <1>   0.1500 
 49 H       -7.6050    -2.9590     2.8270 H     1 <1>   0.1500 
 50 H       -8.1940    -4.3790    -0.9530 H     1 <1>   0.1500 
@<TRIPOS>BOND
  1   1   2  2   
  2   2   3  am  
  3   2   4  1   
  4   3   5  1   
  5   3  28  1   
  6   4   6  ar  
  7   4   7  ar  
  8   5   8  1   
  9   5   9  1   
 10   5  29  1   
 11   6  10  ar  
 12   6  11  1   
 13   7  12  ar  
 14   7  30  1   
 15   8  13  1   
 16   8  14  1   
 17   8  31  1   
 18   9  15  1   
 19   9  32  1   
 20   9  33  1   
 21  10  16  ar  
 22  10  17  1   
 23  11  18  2   
 24  11  19  1   
 25  12  16  ar  
 26  12  20  1   
 27  13  15  1   
 28  13  34  1   
 29  13  35  1   
 30  14  21  1   
 31  14  36  1   
 32  14  37  1   
 33  17  18  1   
 34  17  22  1   
 35  19  38  1   
 36  19  39  1   
 37  19  40  1   
 38  20  41  1   
 39  20  42  1   
 40  20  43  1   
 41  21  23  ar  
 42  21  24  ar  
 43  22  44  1   
 44  22  45  1   
 45  22  46  1   
 46  23  25  ar  
 47  23  47  1   
 48  24  26  ar  
 49  24  48  1   
 50  25  27  ar  
 51  25  49  1   
 52  26  27  ar  
 53  26  50  1   
@<TRIPOS>SUBSTRUCTURE
  1 ****   3 GROUP 4 **** **** 0

# MOE 2024.06 (io_trps.svl 2023.06)
