@<TRIPOS>MOLECULE
NONAME
55 56 1 0 0 
SMALL
USER_CHARGES


@<TRIPOS>ATOM
  1 F       -0.9630    -0.6160     0.5920 F     1 <1>  -0.1900 
  2 C       -2.1490    -0.0890     0.4260 C.ar  1 <1>   0.1900 
  3 C       -2.6640     0.8720     1.3040 C.ar  1 <1>   0.0830 
  4 C       -2.8710    -0.5360    -0.6640 C.ar  1 <1>  -0.1500 
  5 O       -2.0520     1.3890     2.4070 O.3   1 <1>  -0.3630 
  6 C       -3.9320     1.3650     1.0440 C.ar  1 <1>  -0.1500 
  7 C       -4.1360    -0.0240    -0.8930 C.ar  1 <1>  -0.1500 
  8 C       -0.7370     1.0500     2.7870 C.3   1 <1>   0.0400 
  9 C       -4.6930     0.9310    -0.0420 C.ar  1 <1>   0.0530 
 10 C       -6.0080     1.4680    -0.2720 C.2   1 <1>   0.0870 
 11 O       -6.1840     2.7640    -0.2930 O.3   1 <1>  -0.0190 
 12 C       -7.2240     0.8950    -0.4830 C.2   1 <1>  -0.0860 
 13 N       -7.4250     3.1060    -0.5140 N.2   1 <1>  -0.4100 
 14 C       -8.0710     2.0010    -0.6340 C.2   1 <1>   0.3720 
 15 C       -7.6150    -0.4800    -0.5150 C.2   1 <1>   0.7160 
 16 N       -9.4510     1.9480    -0.8890 N.pl3 1 <1>  -0.8210 
 17 O       -6.8100    -1.3900    -0.4340 O.2   1 <1>  -0.5700 
 18 N       -8.9290    -0.8260    -0.6160 N.am  1 <1>  -0.7300 
 19 C       -9.7860     2.4340    -2.2580 C.3   1 <1>   0.1290 
 20 C      -10.2490     2.6880     0.1330 C.3   1 <1>   0.1290 
 21 C       -9.4620    -2.2070    -0.7230 C.3   1 <1>   0.1400 
 22 C       -9.1400    -3.0210     0.5590 C.3   1 <1>   0.4230 
 23 N       -8.6210    -4.4020     0.2890 N.4   1 <1>  -0.9590 
 24 C      -10.3470    -3.0810     1.5100 C.3   1 <1>  -0.1600 
 25 C       -7.2290    -4.3330    -0.2650 C.3   1 <1>   0.2630 
 26 C       -9.5110    -5.2470    -0.5680 C.3   1 <1>   0.2630 
 27 C      -10.0620    -3.8150     2.8310 C.3   1 <1>  -0.2400 
 28 H       -2.4460    -1.2720    -1.3220 H     1 <1>   0.1500 
 29 H       -4.3400     2.1070     1.7070 H     1 <1>   0.1500 
 30 H       -4.7010    -0.3670    -1.7420 H     1 <1>   0.1500 
 31 H       -0.4850     1.6190     3.6640 H     1 <1>   0.0800 
 32 H       -0.0640     1.3000     1.9860 H     1 <1>   0.0800 
 33 H       -0.6970    -0.0010     3.0120 H     1 <1>   0.0800 
 34 H       -9.5710    -0.0250    -0.7560 H     1 <1>   0.3700 
 35 H       -9.1960     1.9080    -2.9890 H     1 <1>   0.0800 
 36 H       -9.5760     3.4880    -2.3400 H     1 <1>   0.0800 
 37 H      -10.8280     2.2650    -2.4680 H     1 <1>   0.0800 
 38 H       -9.9550     2.3780     1.1220 H     1 <1>   0.0800 
 39 H      -11.2970     2.4850     0.0030 H     1 <1>   0.0800 
 40 H      -10.0800     3.7480     0.0420 H     1 <1>   0.0800 
 41 H       -9.0090    -2.6670    -1.5830 H     1 <1>   0.0800 
 42 H      -10.5250    -2.1620    -0.8850 H     1 <1>   0.0800 
 43 H       -8.3600    -2.4860     1.0760 H     1 <1>   0.0800 
 44 H       -8.5560    -4.8480     1.2160 H     1 <1>   0.4500 
 45 H      -11.1910    -3.5320     1.0190 H     1 <1>   0.0800 
 46 H      -10.6270    -2.0680     1.7470 H     1 <1>   0.0800 
 47 H       -7.2300    -3.8530    -1.2300 H     1 <1>   0.0800 
 48 H       -6.8130    -5.3210    -0.3680 H     1 <1>   0.0800 
 49 H       -6.5950    -3.7580     0.3910 H     1 <1>   0.0800 
 50 H       -9.6020    -4.8200    -1.5540 H     1 <1>   0.0800 
 51 H      -10.4930    -5.3220    -0.1300 H     1 <1>   0.0800 
 52 H       -9.1040    -6.2410    -0.6620 H     1 <1>   0.0800 
 53 H       -9.9060    -4.8680     2.6780 H     1 <1>   0.0800 
 54 H      -10.9050    -3.7040     3.4930 H     1 <1>   0.0800 
 55 H       -9.1990    -3.3970     3.3220 H     1 <1>   0.0800 
@<TRIPOS>BOND
  1   1   2  1   
  2   2   3  ar  
  3   2   4  ar  
  4   3   5  1   
  5   3   6  ar  
  6   4   7  ar  
  7   4  28  1   
  8   5   8  1   
  9   6   9  ar  
 10   6  29  1   
 11   7   9  ar  
 12   7  30  1   
 13   8  31  1   
 14   8  32  1   
 15   8  33  1   
 16   9  10  1   
 17  10  11  1   
 18  10  12  2   
 19  11  13  1   
 20  12  14  1   
 21  12  15  1   
 22  13  14  2   
 23  14  16  1   
 24  15  17  2   
 25  15  18  am  
 26  16  19  1   
 27  16  20  1   
 28  18  21  1   
 29  18  34  1   
 30  19  35  1   
 31  19  36  1   
 32  19  37  1   
 33  20  38  1   
 34  20  39  1   
 35  20  40  1   
 36  21  22  1   
 37  21  41  1   
 38  21  42  1   
 39  22  23  1   
 40  22  24  1   
 41  22  43  1   
 42  23  25  1   
 43  23  26  1   
 44  23  44  1   
 45  24  27  1   
 46  24  45  1   
 47  24  46  1   
 48  25  47  1   
 49  25  48  1   
 50  25  49  1   
 51  26  50  1   
 52  26  51  1   
 53  26  52  1   
 54  27  53  1   
 55  27  54  1   
 56  27  55  1   
@<TRIPOS>SUBSTRUCTURE
  1 ****  15 GROUP 4 **** **** 0

# MOE 2024.06 (io_trps.svl 2023.06)
