@<TRIPOS>MOLECULE
NONAME
44 46 1 0 0 
SMALL
USER_CHARGES


@<TRIPOS>ATOM
  1 O        3.6860    -1.1690    -1.9660 O.2   1 <1>  -0.5700 
  2 C        2.9250    -1.1220    -1.0160 C.2   1 <1>   0.5440 
  3 N        3.0140     0.0040    -0.2360 N.am  1 <1>  -0.6600 
  4 C        2.1000    -2.2650    -0.6490 C.ar  1 <1>   0.0860 
  5 C        3.6860    -0.1530     1.1000 C.3   1 <1>   0.2200 
  6 C        3.0270     1.3460    -0.9010 C.3   1 <1>   0.1400 
  7 C        0.8050    -2.1620    -0.1100 C.ar  1 <1>  -0.1440 
  8 C        2.6280    -3.5450    -0.8270 C.ar  1 <1>  -0.1500 
  9 C        3.3460     0.9740     2.0870 C.3   1 <1>   0.1200 
 10 C        5.2220    -0.2870     0.9200 C.3   1 <1>   0.3430 
 11 C        4.1830     2.2730    -0.4760 C.3   1 <1>  -0.0800 
 12 C        0.1120    -3.3010     0.2710 C.ar  1 <1>  -0.1500 
 13 C        0.0970    -0.8230     0.0600 C.3   1 <1>  -0.0970 
 14 C        1.9230    -4.6720    -0.4500 C.ar  1 <1>   0.0820 
 15 O        4.2250     2.0480     1.9300 O.3   1 <1>  -0.5600 
 16 N        5.6990     0.2010    -0.4240 N.4   1 <1>  -0.9590 
 17 C        3.9320     2.9230     0.8930 C.3   1 <1>   0.1200 
 18 C        5.6060     1.6840    -0.5970 C.3   1 <1>   0.3430 
 19 C        0.6680    -4.5550     0.1090 C.ar  1 <1>  -0.1500 
 20 O        2.4460    -5.8940    -0.6260 O.3   1 <1>  -0.5330 
 21 C        7.0600    -0.3070    -0.7490 C.3   1 <1>   0.2630 
 22 H        3.3240    -1.0640     1.5460 H     1 <1>   0.0800 
 23 H        3.0710     1.2110    -1.9700 H     1 <1>   0.0800 
 24 H        2.0900     1.8340    -0.6940 H     1 <1>   0.0800 
 25 H        3.6030    -3.6540    -1.2660 H     1 <1>   0.1500 
 26 H        3.4840     0.6150     3.0920 H     1 <1>   0.0800 
 27 H        2.3260     1.3060     1.9870 H     1 <1>   0.0800 
 28 H        5.4730    -1.3290     1.0230 H     1 <1>   0.0800 
 29 H        5.7270     0.2450     1.7100 H     1 <1>   0.0800 
 30 H        4.1520     3.0970    -1.1660 H     1 <1>   0.0800 
 31 H       -0.8760    -3.2260     0.6940 H     1 <1>   0.1500 
 32 H       -0.9620    -0.9620     0.1930 H     1 <1>   0.0800 
 33 H        0.2370    -0.2110    -0.8130 H     1 <1>   0.0800 
 34 H        0.4790    -0.3050     0.9200 H     1 <1>   0.0800 
 35 H        5.0200    -0.2110    -1.1050 H     1 <1>   0.4500 
 36 H        2.9140     3.2620     0.9960 H     1 <1>   0.0800 
 37 H        4.5780     3.7750     1.0160 H     1 <1>   0.0800 
 38 H        6.2450     2.1710     0.1210 H     1 <1>   0.0800 
 39 H        5.9770     1.9290    -1.5790 H     1 <1>   0.0800 
 40 H        0.1320    -5.4400     0.4030 H     1 <1>   0.1500 
 41 H        3.2870    -5.8980    -1.1170 H     1 <1>   0.4500 
 42 H        7.7840     0.0890    -0.0560 H     1 <1>   0.0800 
 43 H        7.3380    -0.0120    -1.7480 H     1 <1>   0.0800 
 44 H        7.0790    -1.3830    -0.6960 H     1 <1>   0.0800 
@<TRIPOS>BOND
  1   1   2  2   
  2   2   3  am  
  3   2   4  1   
  4   3   5  1   
  5   3   6  1   
  6   4   7  ar  
  7   4   8  ar  
  8   5   9  1   
  9   5  10  1   
 10   5  22  1   
 11   6  11  1   
 12   6  23  1   
 13   6  24  1   
 14   7  12  ar  
 15   7  13  1   
 16   8  14  ar  
 17   8  25  1   
 18   9  15  1   
 19   9  26  1   
 20   9  27  1   
 21  10  16  1   
 22  10  28  1   
 23  10  29  1   
 24  11  17  1   
 25  11  18  1   
 26  11  30  1   
 27  12  19  ar  
 28  12  31  1   
 29  13  32  1   
 30  13  33  1   
 31  13  34  1   
 32  14  19  ar  
 33  14  20  1   
 34  15  17  1   
 35  16  18  1   
 36  16  21  1   
 37  16  35  1   
 38  17  36  1   
 39  17  37  1   
 40  18  38  1   
 41  18  39  1   
 42  19  40  1   
 43  20  41  1   
 44  21  42  1   
 45  21  43  1   
 46  21  44  1   
@<TRIPOS>SUBSTRUCTURE
  1 ****   3 GROUP 4 **** **** 0

# MOE 2024.06 (io_trps.svl 2023.06)
