@<TRIPOS>MOLECULE
NONAME
49 50 1 0 0 
SMALL
USER_CHARGES


@<TRIPOS>ATOM
  1 O        0.5830     0.8900     0.9090 O.2   1 <1>  -0.5700 
  2 C        0.3470     1.9950     0.4920 C.2   1 <1>   0.5690 
  3 N       -0.5200     2.8060     1.1340 N.am  1 <1>  -0.7300 
  4 C        1.0050     2.4890    -0.7980 C.3   1 <1>   0.1810 
  5 C       -0.9140     4.1510     0.6440 C.3   1 <1>   0.3640 
  6 O        0.9820     3.8950    -0.9070 O.3   1 <1>  -0.5600 
  7 C       -2.4380     4.2330     0.6330 C.ar  1 <1>  -0.1440 
  8 C       -0.3100     4.4770    -0.7470 C.3   1 <1>   0.2610 
  9 C       -3.2180     3.1820     0.1650 C.ar  1 <1>  -0.1500 
 10 C       -3.0680     5.3810     1.0950 C.ar  1 <1>  -0.1500 
 11 C       -0.2290     5.9960    -0.9110 C.2   1 <1>   0.5690 
 12 C       -4.5990     3.2750     0.1660 C.ar  1 <1>  -0.1500 
 13 C       -4.4490     5.4750     1.0950 C.ar  1 <1>  -0.1500 
 14 O       -1.2270     6.6110    -1.2000 O.2   1 <1>  -0.5700 
 15 N        0.9750     6.5980    -0.7060 N.am  1 <1>  -0.7300 
 16 C       -5.2160     4.4210     0.6320 C.ar  1 <1>  -0.1500 
 17 C        1.3500     8.0210    -0.7680 C.3   1 <1>   0.3000 
 18 C        2.8430     8.0900    -0.3590 C.3   1 <1>  -0.1600 
 19 C        0.4840     8.8350     0.2270 C.3   1 <1>  -0.1600 
 20 C        1.1190     8.5090    -2.2210 C.3   1 <1>  -0.1600 
 21 C        3.8330     7.3490    -1.2800 C.3   1 <1>  -0.2400 
 22 C        0.4500     8.3320     1.6830 C.3   1 <1>  -0.2400 
 23 C        1.6000     9.9370    -2.5380 C.3   1 <1>  -0.2400 
 24 H       -0.9960     2.4580     1.9680 H     1 <1>   0.3700 
 25 H        0.4950     2.0710    -1.6470 H     1 <1>   0.0800 
 26 H        2.0320     2.1740    -0.8180 H     1 <1>   0.0800 
 27 H       -0.5370     4.8730     1.3490 H     1 <1>   0.0800 
 28 H       -0.9460     4.0880    -1.5210 H     1 <1>   0.0800 
 29 H       -2.7590     2.2810    -0.2030 H     1 <1>   0.1500 
 30 H       -2.4900     6.2170     1.4490 H     1 <1>   0.1500 
 31 H       -5.1940     2.4550    -0.1970 H     1 <1>   0.1500 
 32 H       -4.9260     6.3710     1.4520 H     1 <1>   0.1500 
 33 H        1.7750     5.9720    -0.5910 H     1 <1>   0.3700 
 34 H       -6.2890     4.4950     0.6320 H     1 <1>   0.1500 
 35 H        3.1410     9.1210    -0.3000 H     1 <1>   0.0800 
 36 H        2.9530     7.6860     0.6310 H     1 <1>   0.0800 
 37 H        0.8350     9.8510     0.2390 H     1 <1>   0.0800 
 38 H       -0.5260     8.8680    -0.1420 H     1 <1>   0.0800 
 39 H        1.5980     7.8300    -2.9030 H     1 <1>   0.0800 
 40 H        0.0650     8.4690    -2.4340 H     1 <1>   0.0800 
 41 H        3.8460     7.7860    -2.2620 H     1 <1>   0.0800 
 42 H        3.5820     6.3080    -1.3690 H     1 <1>   0.0800 
 43 H        4.8260     7.4210    -0.8730 H     1 <1>   0.0800 
 44 H        1.4220     8.3850     2.1370 H     1 <1>   0.0800 
 45 H        0.0960     7.3180     1.7300 H     1 <1>   0.0800 
 46 H       -0.2200     8.9450     2.2590 H     1 <1>   0.0800 
 47 H        2.6620    10.0290    -2.4060 H     1 <1>   0.0800 
 48 H        1.1040    10.6580    -1.9150 H     1 <1>   0.0800 
 49 H        1.3710    10.1720    -3.5630 H     1 <1>   0.0800 
@<TRIPOS>BOND
  1   1   2  2   
  2   2   3  am  
  3   2   4  1   
  4   3   5  1   
  5   3  24  1   
  6   4   6  1   
  7   4  25  1   
  8   4  26  1   
  9   5   7  1   
 10   5   8  1   
 11   5  27  1   
 12   6   8  1   
 13   7   9  ar  
 14   7  10  ar  
 15   8  11  1   
 16   8  28  1   
 17   9  12  ar  
 18   9  29  1   
 19  10  13  ar  
 20  10  30  1   
 21  11  14  2   
 22  11  15  am  
 23  12  16  ar  
 24  12  31  1   
 25  13  16  ar  
 26  13  32  1   
 27  15  17  1   
 28  15  33  1   
 29  16  34  1   
 30  17  18  1   
 31  17  19  1   
 32  17  20  1   
 33  18  21  1   
 34  18  35  1   
 35  18  36  1   
 36  19  22  1   
 37  19  37  1   
 38  19  38  1   
 39  20  23  1   
 40  20  39  1   
 41  20  40  1   
 42  21  41  1   
 43  21  42  1   
 44  21  43  1   
 45  22  44  1   
 46  22  45  1   
 47  22  46  1   
 48  23  47  1   
 49  23  48  1   
 50  23  49  1   
@<TRIPOS>SUBSTRUCTURE
  1 ****  11 GROUP 4 **** **** 0

# MOE 2024.06 (io_trps.svl 2023.06)
