@<TRIPOS>MOLECULE
NONAME
47 50 1 0 0 
SMALL
USER_CHARGES


@<TRIPOS>ATOM
  1 O       -1.0080    -1.2840     0.8910 O.2   1 <1>  -0.5700 
  2 C       -0.0490    -1.7310     0.2990 C.2   1 <1>   0.6900 
  3 N        0.7420    -2.7410     0.8240 N.am  1 <1>  -0.4690 
  4 N        0.2550    -1.2390    -0.9310 N.am  1 <1>  -0.4900 
  5 C        1.8230    -3.2350     0.0990 C.2   1 <1>  -0.0410 
  6 C        0.4500    -3.3190     2.1780 C.3   1 <1>   0.2010 
  7 C        1.2980    -1.6930    -1.6760 C.2   1 <1>   0.6160 
  8 C        2.1020    -2.7300    -1.1240 C.2   1 <1>  -0.1360 
  9 C        0.1270    -4.8120     2.1100 C.2   1 <1>   0.5690 
 10 O        1.4950    -1.2040    -2.7670 O.2   1 <1>  -0.5700 
 11 O        1.0380    -5.5770     2.3260 O.2   1 <1>  -0.5700 
 12 N       -1.1270    -5.2720     1.7860 N.am  1 <1>  -0.6600 
 13 C       -1.3850    -6.7230     1.5210 C.3   1 <1>   0.1400 
 14 C       -2.2950    -4.4290     1.3870 C.3   1 <1>   0.1400 
 15 C       -1.8480    -6.9350     0.0650 C.3   1 <1>   0.3430 
 16 C       -2.6900    -4.7310    -0.0710 C.3   1 <1>   0.2950 
 17 O       -2.9390    -6.0980    -0.2300 O.3   1 <1>  -0.5600 
 18 C       -2.2420    -8.3910    -0.1650 C.ar  1 <1>  -0.1430 
 19 C       -3.9590    -3.9780    -0.4770 C.3   1 <1>  -0.1950 
 20 C       -3.5360    -8.8380     0.0690 C.ar  1 <1>  -0.1500 
 21 C       -1.2860    -9.2970    -0.6030 C.ar  1 <1>  -0.1500 
 22 C       -4.2500    -3.6680    -1.9120 C.3   1 <1>  -0.2000 
 23 C       -3.8950    -2.5620    -0.9580 C.3   1 <1>  -0.2000 
 24 C       -3.8680   -10.1670    -0.1310 C.ar  1 <1>  -0.1500 
 25 C       -1.6170   -10.6270    -0.8040 C.ar  1 <1>  -0.1500 
 26 C       -2.9090   -11.0620    -0.5670 C.ar  1 <1>  -0.1500 
 27 H       -0.3110    -0.4860    -1.3050 H     1 <1>   0.3700 
 28 H        2.4110    -4.0230     0.5490 H     1 <1>   0.1500 
 29 H        1.3190    -3.1900     2.7960 H     1 <1>   0.0800 
 30 H       -0.3580    -2.7970     2.6560 H     1 <1>   0.0800 
 31 H        2.9210    -3.0730    -1.7260 H     1 <1>   0.1500 
 32 H       -0.5000    -7.3100     1.6960 H     1 <1>   0.0800 
 33 H       -2.1480    -7.0790     2.1900 H     1 <1>   0.0800 
 34 H       -3.1290    -4.6540     2.0290 H     1 <1>   0.0800 
 35 H       -2.0850    -3.3840     1.4890 H     1 <1>   0.0800 
 36 H       -1.0480    -6.6770    -0.6060 H     1 <1>   0.0800 
 37 H       -1.8840    -4.4560    -0.7290 H     1 <1>   0.0800 
 38 H       -4.7970    -4.2410     0.1450 H     1 <1>   0.1000 
 39 H       -4.2910    -8.1480     0.4050 H     1 <1>   0.1500 
 40 H       -0.2770    -8.9750    -0.7910 H     1 <1>   0.1500 
 41 H       -3.5350    -3.9670    -2.6600 H     1 <1>   0.1000 
 42 H       -5.2660    -3.7580    -2.2570 H     1 <1>   0.1000 
 43 H       -4.6660    -1.8770    -0.6510 H     1 <1>   0.1000 
 44 H       -2.9380    -2.0810    -1.0630 H     1 <1>   0.1000 
 45 H       -4.8740   -10.5010     0.0520 H     1 <1>   0.1500 
 46 H       -0.8700   -11.3220    -1.1440 H     1 <1>   0.1500 
 47 H       -3.1670   -12.0950    -0.7230 H     1 <1>   0.1500 
@<TRIPOS>BOND
  1   1   2  2   
  2   2   3  am  
  3   2   4  am  
  4   3   5  1   
  5   3   6  1   
  6   4   7  am  
  7   4  27  1   
  8   5   8  2   
  9   5  28  1   
 10   6   9  1   
 11   6  29  1   
 12   6  30  1   
 13   7   8  1   
 14   7  10  2   
 15   8  31  1   
 16   9  11  2   
 17   9  12  am  
 18  12  13  1   
 19  12  14  1   
 20  13  15  1   
 21  13  32  1   
 22  13  33  1   
 23  14  16  1   
 24  14  34  1   
 25  14  35  1   
 26  15  17  1   
 27  15  18  1   
 28  15  36  1   
 29  16  17  1   
 30  16  19  1   
 31  16  37  1   
 32  18  20  ar  
 33  18  21  ar  
 34  19  22  1   
 35  19  23  1   
 36  19  38  1   
 37  20  24  ar  
 38  20  39  1   
 39  21  25  ar  
 40  21  40  1   
 41  22  23  1   
 42  22  41  1   
 43  22  42  1   
 44  23  43  1   
 45  23  44  1   
 46  24  26  ar  
 47  24  45  1   
 48  25  26  ar  
 49  25  46  1   
 50  26  47  1   
@<TRIPOS>SUBSTRUCTURE
  1 ****  16 GROUP 4 **** **** 0

# MOE 2024.06 (io_trps.svl 2023.06)
