@<TRIPOS>MOLECULE
NONAME
46 47 1 0 0 
SMALL
USER_CHARGES


@<TRIPOS>ATOM
  1 O       -0.8660     0.3120    -1.7950 O.2   1 <1>  -0.5700 
  2 C       -1.8030     0.8820    -1.2690 C.2   1 <1>   0.6160 
  3 N       -2.9430     0.1620    -0.9640 N.am  1 <1>  -0.6600 
  4 C       -1.6800     2.2950    -0.9770 C.2   1 <1>   0.0140 
  5 C       -3.1420    -1.2280    -1.4730 C.3   1 <1>   0.1400 
  6 C       -4.0510     0.6700    -0.1120 C.3   1 <1>   0.1400 
  7 C       -2.5660     3.2350    -1.4300 C.2   1 <1>  -0.1360 
  8 C       -0.5800     2.7580    -0.1930 C.2   1 <1>  -0.1500 
  9 C       -3.3700    -2.2710    -0.3510 C.3   1 <1>   0.0000 
 10 C       -4.2520    -0.2610     1.0820 C.3   1 <1>  -0.1600 
 11 C       -2.4220     4.6070    -1.1130 C.2   1 <1>   0.6160 
 12 C       -0.4320     4.0740     0.1100 C.2   1 <1>  -0.0290 
 13 C       -4.4400    -1.7150     0.6320 C.3   1 <1>   0.2000 
 14 C       -4.0000    -3.5270    -1.0060 C.3   1 <1>   0.1200 
 15 C       -2.0200    -2.7160     0.3080 C.3   1 <1>  -0.1600 
 16 O       -3.2090     5.4640    -1.4810 O.2   1 <1>  -0.5700 
 17 N       -1.3570     4.9800    -0.3480 N.am  1 <1>  -0.5390 
 18 C        0.7150     4.6200     0.9350 C.3   1 <1>  -0.1020 
 19 O       -4.5180    -2.5090     1.7590 O.3   1 <1>  -0.6800 
 20 O       -3.1630    -4.0980    -1.9600 O.3   1 <1>  -0.6800 
 21 C       -1.2980    -1.7520     1.2650 C.3   1 <1>  -0.1600 
 22 C        0.0820    -2.2960     1.6440 C.3   1 <1>  -0.2400 
 23 H       -4.0020    -1.2110    -2.1200 H     1 <1>   0.0800 
 24 H       -2.3030    -1.5310    -2.0750 H     1 <1>   0.0800 
 25 H       -3.8410     1.6590     0.2550 H     1 <1>   0.0800 
 26 H       -4.9530     0.7140    -0.6990 H     1 <1>   0.0800 
 27 H       -3.4050     2.9740    -2.0440 H     1 <1>   0.1500 
 28 H        0.1290     2.0200     0.1410 H     1 <1>   0.1500 
 29 H       -5.1310     0.0530     1.6160 H     1 <1>   0.0800 
 30 H       -3.4170    -0.1520     1.7430 H     1 <1>   0.0800 
 31 H       -5.4040    -1.7710     0.1540 H     1 <1>   0.0800 
 32 H       -4.9310    -3.2870    -1.4900 H     1 <1>   0.0800 
 33 H       -4.1960    -4.2800    -0.2600 H     1 <1>   0.0800 
 34 H       -2.1870    -3.6350     0.8420 H     1 <1>   0.0800 
 35 H       -1.3320    -2.9550    -0.4850 H     1 <1>   0.0800 
 36 H       -1.2910     5.9800    -0.1560 H     1 <1>   0.3700 
 37 H        0.3370     5.1090     1.8150 H     1 <1>   0.0800 
 38 H        1.2790     5.3290     0.3550 H     1 <1>   0.0800 
 39 H        1.3740     3.8270     1.2390 H     1 <1>   0.0800 
 40 H       -3.6300    -2.5880     2.1590 H     1 <1>   0.4000 
 41 H       -2.9400    -3.4670    -2.6710 H     1 <1>   0.4000 
 42 H       -1.1670    -0.7920     0.8040 H     1 <1>   0.0800 
 43 H       -1.8650    -1.6280     2.1690 H     1 <1>   0.0800 
 44 H        0.6980    -2.3960     0.7670 H     1 <1>   0.0800 
 45 H       -0.0060    -3.2580     2.1170 H     1 <1>   0.0800 
 46 H        0.5700    -1.6220     2.3250 H     1 <1>   0.0800 
@<TRIPOS>BOND
  1   1   2  2   
  2   2   3  am  
  3   2   4  1   
  4   3   5  1   
  5   3   6  1   
  6   4   7  2   
  7   4   8  1   
  8   5   9  1   
  9   5  23  1   
 10   5  24  1   
 11   6  10  1   
 12   6  25  1   
 13   6  26  1   
 14   7  11  1   
 15   7  27  1   
 16   8  12  2   
 17   8  28  1   
 18   9  13  1   
 19   9  14  1   
 20   9  15  1   
 21  10  13  1   
 22  10  29  1   
 23  10  30  1   
 24  11  16  2   
 25  11  17  am  
 26  12  17  1   
 27  12  18  1   
 28  13  19  1   
 29  13  31  1   
 30  14  20  1   
 31  14  32  1   
 32  14  33  1   
 33  15  21  1   
 34  15  34  1   
 35  15  35  1   
 36  17  36  1   
 37  18  37  1   
 38  18  38  1   
 39  18  39  1   
 40  19  40  1   
 41  20  41  1   
 42  21  22  1   
 43  21  42  1   
 44  21  43  1   
 45  22  44  1   
 46  22  45  1   
 47  22  46  1   
@<TRIPOS>SUBSTRUCTURE
  1 ****   3 GROUP 4 **** **** 0

# MOE 2024.06 (io_trps.svl 2023.06)
