@<TRIPOS>MOLECULE
NONAME
46 49 1 0 0 
SMALL
USER_CHARGES


@<TRIPOS>ATOM
  1 O       -0.7700     1.2870    -1.5720 O.2   1 <1>  -0.5700 
  2 C       -0.5160     2.3980    -1.1690 C.2   1 <1>   0.5690 
  3 N       -1.3970     3.1550    -0.4420 N.am  1 <1>  -0.5090 
  4 C        0.8450     2.9900    -1.5230 C.3   1 <1>   0.1810 
  5 C       -1.1360     4.6010    -0.1580 C.3   1 <1>   0.3640 
  6 C       -2.7110     2.6390     0.0130 C.3   1 <1>   0.0490 
  7 O        1.2210     4.0150    -0.6380 O.3   1 <1>  -0.5600 
  8 C       -2.1870     5.4510    -0.8740 C.ar  1 <1>  -0.1440 
  9 C        0.2880     5.0800    -0.5530 C.3   1 <1>   0.2610 
 10 C       -3.0220     2.6610     1.4770 C.3   1 <1>  -0.2000 
 11 C       -2.7740     1.3590     0.7850 C.3   1 <1>  -0.2000 
 12 C       -2.8330     6.4750    -0.1930 C.ar  1 <1>   0.1600 
 13 C       -2.5210     5.2310    -2.2000 C.ar  1 <1>  -0.1500 
 14 C        0.7860     6.1340     0.4460 C.2   1 <1>   0.5690 
 15 N       -3.7540     7.2700    -0.7110 N.ar  1 <1>  -0.6200 
 16 C       -3.4810     6.0500    -2.7530 C.ar  1 <1>  -0.1500 
 17 O        0.0450     7.0160     0.8130 O.2   1 <1>  -0.5700 
 18 N        2.0660     6.0730     0.8930 N.am  1 <1>  -0.7300 
 19 C       -4.0590     7.0390    -1.9770 C.ar  1 <1>   0.1600 
 20 C        2.7060     7.0140     1.8430 C.3   1 <1>   0.3200 
 21 C        2.9650     8.3540     1.1820 C.2   1 <1>   0.0060 
 22 N        4.1170     8.9130     1.0370 N.2   1 <1>  -0.3380 
 23 N        1.9930     9.1100     0.6780 N.pl3 1 <1>   0.0330 
 24 N        3.9080    10.0780     0.4170 N.2   1 <1>  -0.3380 
 25 C        2.6400    10.1760     0.2120 C.2   1 <1>   0.0060 
 26 C        1.9570    11.3420    -0.4710 C.3   1 <1>  -0.0600 
 27 H        0.8250     3.3830    -2.5230 H     1 <1>   0.0800 
 28 H        1.5910     2.2180    -1.4660 H     1 <1>   0.0800 
 29 H       -1.2480     4.7400     0.9030 H     1 <1>   0.0800 
 30 H       -3.5040     2.8450    -0.6880 H     1 <1>   0.1000 
 31 H        0.2510     5.5460    -1.5210 H     1 <1>   0.0800 
 32 H       -2.2840     2.9930     2.1850 H     1 <1>   0.1000 
 33 H       -4.0280     2.8810     1.7900 H     1 <1>   0.1000 
 34 H       -3.6060     0.6990     0.6130 H     1 <1>   0.1000 
 35 H       -1.8570     0.8270     0.9690 H     1 <1>   0.1000 
 36 H       -2.5780     6.6570     0.8380 H     1 <1>   0.1500 
 37 H       -2.0650     4.4500    -2.7840 H     1 <1>   0.1500 
 38 H       -3.7860     5.9230    -3.7770 H     1 <1>   0.1500 
 39 H        2.6680     5.3320     0.5180 H     1 <1>   0.3700 
 40 H       -4.8100     7.6710    -2.4190 H     1 <1>   0.1500 
 41 H        2.0630     7.1570     2.6950 H     1 <1>   0.0800 
 42 H        3.6370     6.5990     2.1870 H     1 <1>   0.0800 
 43 H        0.9930     8.8760     0.6570 H     1 <1>   0.2700 
 44 H        1.2570    11.8040     0.2000 H     1 <1>   0.0800 
 45 H        1.4380    11.0030    -1.3500 H     1 <1>   0.0800 
 46 H        2.6900    12.0720    -0.7640 H     1 <1>   0.0800 
@<TRIPOS>BOND
  1   1   2  2   
  2   2   3  am  
  3   2   4  1   
  4   3   5  1   
  5   3   6  1   
  6   4   7  1   
  7   4  27  1   
  8   4  28  1   
  9   5   8  1   
 10   5   9  1   
 11   5  29  1   
 12   6  10  1   
 13   6  11  1   
 14   6  30  1   
 15   7   9  1   
 16   8  12  ar  
 17   8  13  ar  
 18   9  14  1   
 19   9  31  1   
 20  10  11  1   
 21  10  32  1   
 22  10  33  1   
 23  11  34  1   
 24  11  35  1   
 25  12  15  ar  
 26  12  36  1   
 27  13  16  ar  
 28  13  37  1   
 29  14  17  2   
 30  14  18  am  
 31  15  19  ar  
 32  16  19  ar  
 33  16  38  1   
 34  18  20  1   
 35  18  39  1   
 36  19  40  1   
 37  20  21  1   
 38  20  41  1   
 39  20  42  1   
 40  21  22  2   
 41  21  23  1   
 42  22  24  1   
 43  23  25  1   
 44  23  43  1   
 45  24  25  2   
 46  25  26  1   
 47  26  44  1   
 48  26  45  1   
 49  26  46  1   
@<TRIPOS>SUBSTRUCTURE
  1 ****   9 GROUP 4 **** **** 0

# MOE 2024.06 (io_trps.svl 2023.06)
