@<TRIPOS>MOLECULE
NONAME
19 20 1 0 0 
SMALL
USER_CHARGES


@<TRIPOS>ATOM
  1 O       -1.2710     0.2990     1.6970 O.co2 1 <1>  -0.9000 
  2 C       -1.7070     1.3670     1.2510 C.2   1 <1>   0.8710 
  3 O       -2.8980     1.6840     1.3410 O.co2 1 <1>  -0.9000 
  4 C       -0.7410     2.3140     0.5720 C.3   1 <1>  -0.0710 
  5 C        0.7180     1.9260     0.4620 C.3   1 <1>   0.1200 
  6 C       -1.0720     2.8800    -0.8330 C.3   1 <1>   0.0000 
  7 C       -0.6870     3.8030     1.0030 C.3   1 <1>   0.0000 
  8 O        1.2000     3.0510    -0.2050 O.3   1 <1>  -0.5380 
  9 C        0.0600     3.8380    -0.3610 C.3   1 <1>   0.2580 
 10 C        0.3130     5.1570    -1.0780 C.3   1 <1>  -0.2400 
 11 H        0.8660     1.0470    -0.1410 H     1 <1>   0.0800 
 12 H        1.1940     1.8330     1.4220 H     1 <1>   0.0800 
 13 H       -2.0470     3.3290    -0.9430 H     1 <1>   0.0000 
 14 H       -0.7970     2.2460    -1.6590 H     1 <1>   0.0000 
 15 H       -0.0600     4.0120     1.8530 H     1 <1>   0.0000 
 16 H       -1.6340     4.3210     1.0300 H     1 <1>   0.0000 
 17 H       -0.6060     5.7070    -1.1620 H     1 <1>   0.0800 
 18 H        0.6960     4.9660    -2.0630 H     1 <1>   0.0800 
 19 H        1.0200     5.7420    -0.5190 H     1 <1>   0.0800 
@<TRIPOS>BOND
  1   1   2  ar  
  2   2   3  ar  
  3   2   4  1   
  4   4   5  1   
  5   4   6  1   
  6   4   7  1   
  7   5   8  1   
  8   5  11  1   
  9   5  12  1   
 10   6   9  1   
 11   6  13  1   
 12   6  14  1   
 13   7   9  1   
 14   7  15  1   
 15   7  16  1   
 16   8   9  1   
 17   9  10  1   
 18  10  17  1   
 19  10  18  1   
 20  10  19  1   
@<TRIPOS>SUBSTRUCTURE
  1 ****   4 GROUP 4 **** **** 0

# MOE 2024.06 (io_trps.svl 2023.06)
