@<TRIPOS>MOLECULE
NONAME
59 61 1 0 0 
SMALL
USER_CHARGES


@<TRIPOS>ATOM
  1 O       -3.0250     1.3730    -2.1430 O.2   1 <1>  -0.5700 
  2 C       -3.2810     1.3460    -0.9530 C.2   1 <1>   0.5440 
  3 N       -3.5460     2.5380    -0.3030 N.am  1 <1>  -0.6600 
  4 C       -3.3140     0.0730    -0.2740 C.ar  1 <1>   0.0860 
  5 C       -4.3190     2.6350     0.9660 C.3   1 <1>   0.0600 
  6 C       -3.2490     3.8500    -0.9440 C.3   1 <1>   0.0600 
  7 C       -3.9390    -1.0210    -0.8660 C.ar  1 <1>   0.1600 
  8 C       -2.7320    -0.1390     0.9730 C.ar  1 <1>  -0.1500 
  9 N       -4.0580    -2.2280    -0.3420 N.ar  1 <1>  -0.6200 
 10 C       -2.8390    -1.3890     1.5320 C.ar  1 <1>  -0.1500 
 11 C       -3.5090    -2.4050     0.8550 C.ar  1 <1>   0.4100 
 12 N       -3.6220    -3.6430     1.4320 N.pl3 1 <1>  -0.8690 
 13 C       -4.1240    -4.8420     0.7220 C.3   1 <1>   0.2090 
 14 C       -5.6480    -4.9120     0.8870 C.3   1 <1>  -0.1600 
 15 C       -6.3500    -5.8760    -0.1010 C.3   1 <1>   0.1430 
 16 C       -5.5790    -7.2240    -0.0530 C.ar  1 <1>  -0.1430 
 17 C       -7.8280    -6.0360     0.3740 C.3   1 <1>  -0.1600 
 18 C       -6.3690    -5.2190    -1.5120 C.3   1 <1>  -0.1600 
 19 C       -5.6150    -7.9960     1.1070 C.ar  1 <1>  -0.1500 
 20 C       -4.7970    -7.6940    -1.1070 C.ar  1 <1>  -0.1500 
 21 C       -8.8700    -6.2000    -0.7530 C.3   1 <1>   0.2800 
 22 C       -7.6240    -4.3760    -1.7280 C.3   1 <1>   0.1200 
 23 C       -4.9340    -9.1970     1.2010 C.ar  1 <1>  -0.1500 
 24 C       -4.1140    -8.8950    -1.0180 C.ar  1 <1>  -0.1500 
 25 O       -8.7410    -5.2180    -1.7400 O.3   1 <1>  -0.5600 
 26 C      -10.2830    -6.0380    -0.1930 C.3   1 <1>  -0.2400 
 27 C       -8.7580    -7.5610    -1.4470 C.3   1 <1>  -0.2400 
 28 C       -4.1840    -9.6520     0.1350 C.ar  1 <1>  -0.1500 
 29 H       -4.7870     1.6950     1.2030 H     1 <1>   0.0800 
 30 H       -5.0900     3.3790     0.8660 H     1 <1>   0.0800 
 31 H       -3.6620     2.9160     1.7700 H     1 <1>   0.0800 
 32 H       -2.5320     3.7290    -1.7390 H     1 <1>   0.0800 
 33 H       -2.8400     4.5300    -0.2180 H     1 <1>   0.0800 
 34 H       -4.1520     4.2650    -1.3550 H     1 <1>   0.0800 
 35 H       -4.3710    -0.8720    -1.8420 H     1 <1>   0.1500 
 36 H       -2.2130     0.6590     1.4730 H     1 <1>   0.1500 
 37 H       -2.4100    -1.5990     2.4930 H     1 <1>   0.1500 
 38 H       -3.1050    -3.8290     2.2920 H     1 <1>   0.4000 
 39 H       -3.6630    -5.7240     1.1310 H     1 <1>   0.0800 
 40 H       -3.8470    -4.7800    -0.3160 H     1 <1>   0.0800 
 41 H       -6.0550    -3.9250     0.7570 H     1 <1>   0.0800 
 42 H       -5.8510    -5.2160     1.8970 H     1 <1>   0.0800 
 43 H       -8.1110    -5.1590     0.9280 H     1 <1>   0.0800 
 44 H       -7.9410    -6.8560     1.0530 H     1 <1>   0.0800 
 45 H       -6.3860    -5.9540    -2.2930 H     1 <1>   0.0800 
 46 H       -5.5040    -4.6030    -1.6720 H     1 <1>   0.0800 
 47 H       -6.1700    -7.6680     1.9670 H     1 <1>   0.1500 
 48 H       -4.6850    -7.1420    -2.0190 H     1 <1>   0.1500 
 49 H       -7.5870    -3.8740    -2.6790 H     1 <1>   0.0800 
 50 H       -7.7510    -3.6420    -0.9510 H     1 <1>   0.0800 
 51 H       -4.9870    -9.7760     2.1070 H     1 <1>   0.1500 
 52 H       -3.5240    -9.2390    -1.8490 H     1 <1>   0.1500 
 53 H      -10.4000    -5.0640     0.2470 H     1 <1>   0.0800 
 54 H      -10.4740    -6.7800     0.5600 H     1 <1>   0.0800 
 55 H      -11.0080    -6.1530    -0.9780 H     1 <1>   0.0800 
 56 H       -7.7840    -7.7020    -1.8730 H     1 <1>   0.0800 
 57 H       -9.4920    -7.6390    -2.2280 H     1 <1>   0.0800 
 58 H       -8.9260    -8.3510    -0.7400 H     1 <1>   0.0800 
 59 H       -3.6550   -10.5870     0.2030 H     1 <1>   0.1500 
@<TRIPOS>BOND
  1   1   2  2   
  2   2   3  am  
  3   2   4  1   
  4   3   5  1   
  5   3   6  1   
  6   4   7  ar  
  7   4   8  ar  
  8   5  29  1   
  9   5  30  1   
 10   5  31  1   
 11   6  32  1   
 12   6  33  1   
 13   6  34  1   
 14   7   9  ar  
 15   7  35  1   
 16   8  10  ar  
 17   8  36  1   
 18   9  11  ar  
 19  10  11  ar  
 20  10  37  1   
 21  11  12  1   
 22  12  13  1   
 23  12  38  1   
 24  13  14  1   
 25  13  39  1   
 26  13  40  1   
 27  14  15  1   
 28  14  41  1   
 29  14  42  1   
 30  15  16  1   
 31  15  17  1   
 32  15  18  1   
 33  16  19  ar  
 34  16  20  ar  
 35  17  21  1   
 36  17  43  1   
 37  17  44  1   
 38  18  22  1   
 39  18  45  1   
 40  18  46  1   
 41  19  23  ar  
 42  19  47  1   
 43  20  24  ar  
 44  20  48  1   
 45  21  25  1   
 46  21  26  1   
 47  21  27  1   
 48  22  25  1   
 49  22  49  1   
 50  22  50  1   
 51  23  28  ar  
 52  23  51  1   
 53  24  28  ar  
 54  24  52  1   
 55  26  53  1   
 56  26  54  1   
 57  26  55  1   
 58  27  56  1   
 59  27  57  1   
 60  27  58  1   
 61  28  59  1   
@<TRIPOS>SUBSTRUCTURE
  1 ****  14 GROUP 4 **** **** 0

# MOE 2024.06 (io_trps.svl 2023.06)
