@<TRIPOS>MOLECULE
NONAME
41 43 1 0 0 
SMALL
USER_CHARGES


@<TRIPOS>ATOM
  1 N       -0.5880     0.0230    -0.1740 N.ar  1 <1>  -0.6200 
  2 C        0.6470     0.4370    -0.0300 C.ar  1 <1>   0.7710 
  3 C       -1.5480     0.9300    -0.1580 C.ar  1 <1>   0.4100 
  4 N        0.9790     1.7280     0.1240 N.ar  1 <1>  -0.1790 
  5 N        1.5890    -0.5020    -0.0410 N.pl3 1 <1>  -0.9000 
  6 N       -2.8170     0.4710    -0.2690 N.pl3 1 <1>  -0.8380 
  7 C       -1.2730     2.3170    -0.0230 C.ar  1 <1>  -0.1430 
  8 C        0.0250     2.6900     0.1260 C.ar  1 <1>   0.2110 
  9 C       -3.1820    -0.6600    -1.1700 C.3   1 <1>   0.2090 
 10 C       -3.7430     0.4720     0.8960 C.3   1 <1>   0.2090 
 11 C       -2.4230     3.3320    -0.0680 C.3   1 <1>  -0.0170 
 12 C       -3.9660    -1.6360    -0.2900 C.3   1 <1>   0.0000 
 13 C       -4.6940    -0.7020     0.6800 C.3   1 <1>  -0.1600 
 14 C       -1.9980     4.7850    -0.3190 C.3   1 <1>  -0.2400 
 15 C       -4.9170    -2.5640    -1.0490 C.3   1 <1>  -0.1600 
 16 C       -3.0590    -2.6170     0.4660 C.3   1 <1>  -0.1600 
 17 C       -5.1710    -3.7350    -0.0970 C.3   1 <1>  -0.1600 
 18 C       -3.9520    -3.8070     0.8300 C.3   1 <1>  -0.1600 
 19 H        1.9640     1.9430     0.2290 H     1 <1>   0.4570 
 20 H        2.6000    -0.4060     0.0530 H     1 <1>   0.4000 
 21 H        1.2740    -1.4710    -0.1590 H     1 <1>   0.4000 
 22 H        0.3380     3.7140     0.2400 H     1 <1>   0.1500 
 23 H       -2.3200    -1.1260    -1.6160 H     1 <1>   0.0800 
 24 H       -3.8160    -0.2840    -1.9530 H     1 <1>   0.0800 
 25 H       -4.2930     1.3950     0.9500 H     1 <1>   0.0800 
 26 H       -3.1790     0.3320     1.8030 H     1 <1>   0.0800 
 27 H       -2.9680     3.2880     0.8580 H     1 <1>   0.0800 
 28 H       -3.1030     3.0480    -0.8550 H     1 <1>   0.0800 
 29 H       -5.5940    -0.3260     0.2260 H     1 <1>   0.0800 
 30 H       -4.9550    -1.1770     1.6080 H     1 <1>   0.0800 
 31 H       -1.4180     5.1680     0.5020 H     1 <1>   0.0800 
 32 H       -2.8750     5.4010    -0.4160 H     1 <1>   0.0800 
 33 H       -1.4340     4.8650    -1.2320 H     1 <1>   0.0800 
 34 H       -4.4220    -2.9350    -1.9300 H     1 <1>   0.0800 
 35 H       -5.8300    -2.0770    -1.3450 H     1 <1>   0.0800 
 36 H       -2.5990    -2.1740     1.3330 H     1 <1>   0.0800 
 37 H       -2.2800    -2.9610    -0.1910 H     1 <1>   0.0800 
 38 H       -5.3120    -4.6530    -0.6410 H     1 <1>   0.0800 
 39 H       -6.0540    -3.5390     0.4880 H     1 <1>   0.0800 
 40 H       -4.2710    -3.7330     1.8560 H     1 <1>   0.0800 
 41 H       -3.4190    -4.7340     0.7000 H     1 <1>   0.0800 
@<TRIPOS>BOND
  1   1   2  ar  
  2   1   3  ar  
  3   2   4  ar  
  4   2   5  1   
  5   3   6  1   
  6   3   7  ar  
  7   4   8  ar  
  8   4  19  1   
  9   5  20  1   
 10   5  21  1   
 11   6   9  1   
 12   6  10  1   
 13   7   8  ar  
 14   7  11  1   
 15   8  22  1   
 16   9  12  1   
 17   9  23  1   
 18   9  24  1   
 19  10  13  1   
 20  10  25  1   
 21  10  26  1   
 22  11  14  1   
 23  11  27  1   
 24  11  28  1   
 25  12  13  1   
 26  12  15  1   
 27  12  16  1   
 28  13  29  1   
 29  13  30  1   
 30  14  31  1   
 31  14  32  1   
 32  14  33  1   
 33  15  17  1   
 34  15  34  1   
 35  15  35  1   
 36  16  18  1   
 37  16  36  1   
 38  16  37  1   
 39  17  18  1   
 40  17  38  1   
 41  17  39  1   
 42  18  40  1   
 43  18  41  1   
@<TRIPOS>SUBSTRUCTURE
  1 ****   6 GROUP 4 **** **** 0

# MOE 2024.06 (io_trps.svl 2023.06)
