@<TRIPOS>MOLECULE
NONAME
46 47 1 0 0 
SMALL
USER_CHARGES


@<TRIPOS>ATOM
  1 S        1.7880     0.7260    -0.1630 S.o2  1 <1>   1.0900 
  2 O        2.3190     0.0250     0.9820 O.2   1 <1>  -0.6500 
  3 O        0.9730     0.0610    -1.1530 O.2   1 <1>  -0.6500 
  4 C        0.9340     2.1860     0.3600 C.3   1 <1>  -0.0550 
  5 C        3.0820     1.6120    -1.0100 C.3   1 <1>  -0.0550 
  6 C        1.2020     3.2340    -0.7210 C.3   1 <1>   0.1900 
  7 C        2.6990     3.1010    -1.0610 C.3   1 <1>  -0.1600 
  8 N        0.8910     4.5980    -0.2470 N.3   1 <1>  -0.8100 
  9 C        1.0790     5.6430    -1.3120 C.3   1 <1>   0.1710 
 10 C       -0.4810     4.7150     0.2930 C.3   1 <1>   0.0300 
 11 C        1.2790     7.0660    -0.7750 C.2   1 <1>   0.5690 
 12 O        1.1210     8.0100    -1.5110 O.2   1 <1>  -0.5700 
 13 N        1.6620     7.2190     0.5130 N.am  1 <1>  -0.7300 
 14 C        1.9880     8.4840     1.1960 C.3   1 <1>   0.3200 
 15 C        3.4530     8.4690     1.5950 C.2   1 <1>   0.0060 
 16 N        3.8660     8.1220     2.7740 N.2   1 <1>  -0.5650 
 17 N        4.4550     8.8120     0.7460 N.pl3 1 <1>   0.0480 
 18 C        5.2030     8.2440     2.6960 C.2   1 <1>   0.0770 
 19 C        5.5800     8.6630     1.4690 C.2   1 <1>  -0.3020 
 20 C        4.3760     9.2510    -0.6650 C.3   1 <1>   0.0960 
 21 C        4.2100    10.7730    -0.7490 C.3   1 <1>  -0.1600 
 22 C        4.0760    11.2330    -2.2040 C.3   1 <1>  -0.2400 
 23 H        1.3440     2.5280     1.2900 H     1 <1>   0.0800 
 24 H       -0.1140     1.9900     0.4720 H     1 <1>   0.0800 
 25 H        3.1890     1.2240    -2.0050 H     1 <1>   0.0800 
 26 H        4.0180     1.4930    -0.4970 H     1 <1>   0.0800 
 27 H        0.6090     2.9980    -1.5920 H     1 <1>   0.0800 
 28 H        2.9220     3.4970    -2.0350 H     1 <1>   0.0800 
 29 H        3.2760     3.6310    -0.3220 H     1 <1>   0.0800 
 30 H        0.2360     5.6420    -1.9790 H     1 <1>   0.0800 
 31 H        1.9510     5.4290    -1.8980 H     1 <1>   0.0800 
 32 H       -0.5890     4.1290     1.1890 H     1 <1>   0.0800 
 33 H       -1.2030     4.3840    -0.4350 H     1 <1>   0.0800 
 34 H       -0.6990     5.7380     0.5520 H     1 <1>   0.0800 
 35 H        1.8210     6.3680     1.0620 H     1 <1>   0.3700 
 36 H        1.3810     8.5720     2.0800 H     1 <1>   0.0800 
 37 H        1.7780     9.3230     0.5560 H     1 <1>   0.0800 
 38 H        5.8340     8.0220     3.5400 H     1 <1>   0.1500 
 39 H        6.5630     8.8580     1.0830 H     1 <1>   0.1500 
 40 H        3.5460     8.7610    -1.1390 H     1 <1>   0.0800 
 41 H        5.2760     8.9500    -1.1690 H     1 <1>   0.0800 
 42 H        5.0650    11.2520    -0.3020 H     1 <1>   0.0800 
 43 H        3.3300    11.0710    -0.2070 H     1 <1>   0.0800 
 44 H        4.9520    10.9660    -2.7690 H     1 <1>   0.0800 
 45 H        3.9570    12.3020    -2.2430 H     1 <1>   0.0800 
 46 H        3.2140    10.7780    -2.6630 H     1 <1>   0.0800 
@<TRIPOS>BOND
  1   1   2  2   
  2   1   3  2   
  3   1   4  1   
  4   1   5  1   
  5   4   6  1   
  6   4  23  1   
  7   4  24  1   
  8   5   7  1   
  9   5  25  1   
 10   5  26  1   
 11   6   7  1   
 12   6   8  1   
 13   6  27  1   
 14   7  28  1   
 15   7  29  1   
 16   8   9  1   
 17   8  10  1   
 18   9  11  1   
 19   9  30  1   
 20   9  31  1   
 21  10  32  1   
 22  10  33  1   
 23  10  34  1   
 24  11  12  2   
 25  11  13  am  
 26  13  14  1   
 27  13  35  1   
 28  14  15  1   
 29  14  36  1   
 30  14  37  1   
 31  15  16  2   
 32  15  17  1   
 33  16  18  1   
 34  17  19  1   
 35  17  20  1   
 36  18  19  2   
 37  18  38  1   
 38  19  39  1   
 39  20  21  1   
 40  20  40  1   
 41  20  41  1   
 42  21  22  1   
 43  21  42  1   
 44  21  43  1   
 45  22  44  1   
 46  22  45  1   
 47  22  46  1   
@<TRIPOS>SUBSTRUCTURE
  1 ****  13 GROUP 4 **** **** 0

# MOE 2024.06 (io_trps.svl 2023.06)
