@<TRIPOS>MOLECULE
NONAME
46 47 1 0 0 
SMALL
USER_CHARGES


@<TRIPOS>ATOM
  1 S       -0.6250     0.7650     1.1360 S.o2  1 <1>   1.4470 
  2 O       -0.4500    -0.1860     2.2130 O.2   1 <1>  -0.6500 
  3 O       -1.1920     2.0530     1.4860 O.2   1 <1>  -0.6500 
  4 N       -1.6240     0.0630    -0.0460 N.am  1 <1>  -0.8490 
  5 C        0.9660     0.9970     0.2970 C.ar  1 <1>  -0.0090 
  6 C       -1.2000    -1.2550    -0.5600 C.3   1 <1>   0.1960 
  7 C       -3.0610     0.1510     0.2200 C.3   1 <1>   0.1960 
  8 C        1.1420     1.9570    -0.6940 C.ar  1 <1>   0.0820 
  9 C        2.0560     0.1940     0.6180 C.ar  1 <1>  -0.1500 
 10 C       -1.6690    -2.4280     0.3110 C.3   1 <1>  -0.1860 
 11 C       -3.5380    -0.9640     1.1530 C.3   1 <1>  -0.1600 
 12 O        0.1190     2.7470    -1.0760 O.3   1 <1>  -0.3620 
 13 C        2.3630     2.1080    -1.3330 C.ar  1 <1>  -0.1500 
 14 C        3.2850     0.3320    -0.0100 C.ar  1 <1>  -0.1440 
 15 C       -1.3350    -3.7460    -0.3560 C.2   1 <1>   0.9060 
 16 C       -3.1720    -2.3190     0.5590 C.3   1 <1>   0.2000 
 17 C        0.1380     4.0770    -0.6100 C.3   1 <1>   0.0400 
 18 C        3.4310     1.3010    -0.9910 C.ar  1 <1>  -0.1500 
 19 C        4.4410    -0.5880     0.3780 C.3   1 <1>   0.0630 
 20 O       -0.6130    -3.7550    -1.3580 O.co2 1 <1>  -0.9000 
 21 O       -1.8080    -4.7850     0.1230 O.co2 1 <1>  -0.9000 
 22 O       -3.5530    -3.3040     1.4410 O.3   1 <1>  -0.6800 
 23 C        5.6410     0.2170     0.8880 C.3   1 <1>  -0.2400 
 24 C        4.8410    -1.4780    -0.8020 C.3   1 <1>  -0.2400 
 25 H       -1.6130    -1.3790    -1.5480 H     1 <1>   0.0800 
 26 H       -0.1280    -1.2910    -0.6670 H     1 <1>   0.0800 
 27 H       -3.3050     1.1130     0.6390 H     1 <1>   0.0800 
 28 H       -3.5840     0.0670    -0.7170 H     1 <1>   0.0800 
 29 H        1.9300    -0.5630     1.3750 H     1 <1>   0.1500 
 30 H       -1.1450    -2.4080     1.2450 H     1 <1>   0.0800 
 31 H       -4.6040    -0.9010     1.2670 H     1 <1>   0.0800 
 32 H       -3.0810    -0.8490     2.1200 H     1 <1>   0.0800 
 33 H        2.4710     2.8500    -2.1030 H     1 <1>   0.1500 
 34 H       -3.7050    -2.4840    -0.3630 H     1 <1>   0.0800 
 35 H       -0.7670     4.5580    -0.9350 H     1 <1>   0.0800 
 36 H        0.9950     4.5820    -1.0170 H     1 <1>   0.0800 
 37 H        0.1800     4.0680     0.4660 H     1 <1>   0.0800 
 38 H        4.3710     1.4250    -1.4970 H     1 <1>   0.1500 
 39 H        4.1170    -1.2330     1.1780 H     1 <1>   0.0800 
 40 H       -3.0520    -4.1230     1.1530 H     1 <1>   0.4000 
 41 H        6.0450     0.8390     0.1100 H     1 <1>   0.0800 
 42 H        6.4140    -0.4470     1.2330 H     1 <1>   0.0800 
 43 H        5.3380     0.8440     1.7070 H     1 <1>   0.0800 
 44 H        5.2100    -0.8880    -1.6210 H     1 <1>   0.0800 
 45 H        3.9860    -2.0370    -1.1420 H     1 <1>   0.0800 
 46 H        5.6050    -2.1730    -0.5040 H     1 <1>   0.0800 
@<TRIPOS>BOND
  1   1   2  2   
  2   1   3  2   
  3   1   4  am  
  4   1   5  1   
  5   4   6  1   
  6   4   7  1   
  7   5   8  ar  
  8   5   9  ar  
  9   6  10  1   
 10   6  25  1   
 11   6  26  1   
 12   7  11  1   
 13   7  27  1   
 14   7  28  1   
 15   8  12  1   
 16   8  13  ar  
 17   9  14  ar  
 18   9  29  1   
 19  10  15  1   
 20  10  16  1   
 21  10  30  1   
 22  11  16  1   
 23  11  31  1   
 24  11  32  1   
 25  12  17  1   
 26  13  18  ar  
 27  13  33  1   
 28  14  18  ar  
 29  14  19  1   
 30  15  20  ar  
 31  15  21  ar  
 32  16  22  1   
 33  16  34  1   
 34  17  35  1   
 35  17  36  1   
 36  17  37  1   
 37  18  38  1   
 38  19  23  1   
 39  19  24  1   
 40  19  39  1   
 41  22  40  1   
 42  23  41  1   
 43  23  42  1   
 44  23  43  1   
 45  24  44  1   
 46  24  45  1   
 47  24  46  1   
@<TRIPOS>SUBSTRUCTURE
  1 ****   5 GROUP 4 **** **** 0

# MOE 2024.06 (io_trps.svl 2023.06)
