@<TRIPOS>MOLECULE
NONAME
50 53 1 0 0 
SMALL
USER_CHARGES


@<TRIPOS>ATOM
  1 O        0.8230    -0.9260    -2.4870 O.2   1 <1>  -0.5700 
  2 C        1.2940    -0.1640    -1.6590 C.2   1 <1>   0.5440 
  3 N        0.6240     1.0080    -1.3990 N.am  1 <1>  -0.6600 
  4 C        2.5020    -0.4980    -0.9490 C.ar  1 <1>   0.0860 
  5 C        1.0020     1.9850    -0.3540 C.3   1 <1>   0.1400 
  6 C       -0.4750     1.5240    -2.2440 C.3   1 <1>   0.1400 
  7 C        2.4840    -1.4740     0.0610 C.ar  1 <1>   0.4100 
  8 C        3.7050     0.1400    -1.2130 C.ar  1 <1>  -0.1500 
  9 C       -0.1320     3.0030    -0.3590 C.3   1 <1>  -0.1600 
 10 C       -0.6750     2.9650    -1.7860 C.3   1 <1>  -0.1600 
 11 N        3.5370    -1.8090     0.7980 N.ar  1 <1>  -0.6200 
 12 N        1.3300    -2.1680     0.3370 N.pl3 1 <1>  -0.8380 
 13 C        4.8020    -0.2130    -0.4590 C.ar  1 <1>  -0.1500 
 14 C        4.6630    -1.1800     0.5230 C.ar  1 <1>   0.1600 
 15 C        1.1270    -3.4840    -0.2970 C.3   1 <1>   0.2890 
 16 C        0.7250    -2.1650     1.6730 C.3   1 <1>   0.2890 
 17 C       -0.2170    -3.5020    -1.0730 C.3   1 <1>   0.3430 
 18 C        1.1330    -4.4530     0.8820 C.3   1 <1>  -0.1600 
 19 C       -0.6600    -1.5120     1.5380 C.3   1 <1>  -0.1600 
 20 C        0.6660    -3.6400     2.0920 C.3   1 <1>  -0.1600 
 21 N       -1.4360    -3.0940    -0.2660 N.4   1 <1>  -0.9590 
 22 C       -1.3340    -1.6650     0.1630 C.3   1 <1>   0.3430 
 23 C       -2.6710    -3.3100    -1.0710 C.3   1 <1>   0.2630 
 24 H        1.1070     1.5090     0.6060 H     1 <1>   0.0800 
 25 H        1.9280     2.4590    -0.6300 H     1 <1>   0.0800 
 26 H       -0.2130     1.4720    -3.2880 H     1 <1>   0.0800 
 27 H       -1.3620     0.9420    -2.0660 H     1 <1>   0.0800 
 28 H        3.7700     0.8870    -1.9850 H     1 <1>   0.1500 
 29 H       -0.8930     2.6860     0.3320 H     1 <1>   0.0800 
 30 H        0.2100     3.9830    -0.0770 H     1 <1>   0.0800 
 31 H       -0.0920     3.6140    -2.4150 H     1 <1>   0.0800 
 32 H       -1.7070     3.2640    -1.8410 H     1 <1>   0.0800 
 33 H        5.7570     0.2520    -0.6260 H     1 <1>   0.1500 
 34 H        5.5270    -1.4460     1.1090 H     1 <1>   0.1500 
 35 H        1.9360    -3.7080    -0.9730 H     1 <1>   0.0800 
 36 H        1.3370    -1.6090     2.3670 H     1 <1>   0.0800 
 37 H       -0.3620    -4.4990    -1.4520 H     1 <1>   0.0800 
 38 H       -0.1210    -2.8520    -1.9250 H     1 <1>   0.0800 
 39 H        0.5320    -5.3270     0.7070 H     1 <1>   0.0800 
 40 H        2.1500    -4.7690     1.0440 H     1 <1>   0.0800 
 41 H       -1.3150    -1.8540     2.3170 H     1 <1>   0.0800 
 42 H       -0.5270    -0.4590     1.7010 H     1 <1>   0.0800 
 43 H        1.3360    -3.8010     2.9200 H     1 <1>   0.0800 
 44 H       -0.3200    -3.9290     2.4060 H     1 <1>   0.0800 
 45 H       -1.4540    -3.6710     0.5840 H     1 <1>   0.4500 
 46 H       -0.7720    -1.1110    -0.5720 H     1 <1>   0.0800 
 47 H       -2.3170    -1.2290     0.2180 H     1 <1>   0.0800 
 48 H       -2.6420    -2.7030    -1.9630 H     1 <1>   0.0800 
 49 H       -3.5430    -3.0410    -0.4980 H     1 <1>   0.0800 
 50 H       -2.7540    -4.3450    -1.3600 H     1 <1>   0.0800 
@<TRIPOS>BOND
  1   1   2  2   
  2   2   3  am  
  3   2   4  1   
  4   3   5  1   
  5   3   6  1   
  6   4   7  ar  
  7   4   8  ar  
  8   5   9  1   
  9   5  24  1   
 10   5  25  1   
 11   6  10  1   
 12   6  26  1   
 13   6  27  1   
 14   7  11  ar  
 15   7  12  1   
 16   8  13  ar  
 17   8  28  1   
 18   9  10  1   
 19   9  29  1   
 20   9  30  1   
 21  10  31  1   
 22  10  32  1   
 23  11  14  ar  
 24  12  15  1   
 25  12  16  1   
 26  13  14  ar  
 27  13  33  1   
 28  14  34  1   
 29  15  17  1   
 30  15  18  1   
 31  15  35  1   
 32  16  19  1   
 33  16  20  1   
 34  16  36  1   
 35  17  21  1   
 36  17  37  1   
 37  17  38  1   
 38  18  20  1   
 39  18  39  1   
 40  18  40  1   
 41  19  22  1   
 42  19  41  1   
 43  19  42  1   
 44  20  43  1   
 45  20  44  1   
 46  21  22  1   
 47  21  23  1   
 48  21  45  1   
 49  22  46  1   
 50  22  47  1   
 51  23  48  1   
 52  23  49  1   
 53  23  50  1   
@<TRIPOS>SUBSTRUCTURE
  1 ****  12 GROUP 4 **** **** 0

# MOE 2024.06 (io_trps.svl 2023.06)
