@<TRIPOS>MOLECULE
NONAME
49 52 1 0 0 
SMALL
USER_CHARGES


@<TRIPOS>ATOM
  1 S       -0.7900    -1.0220    -1.1570 S.3   1 <1>  -0.1570 
  2 C       -1.2160    -2.4170    -0.1470 C.2   1 <1>   0.2420 
  3 C        0.0640    -0.2690     0.2160 C.2   1 <1>  -0.0490 
  4 N       -1.8770    -3.4950    -0.3850 N.2   1 <1>  -0.5650 
  5 N       -0.7260    -2.2590     1.0960 N.pl3 1 <1>   0.3340 
  6 C       -0.0110    -1.0590     1.3000 C.2   1 <1>  -0.1810 
  7 C       -1.8320    -4.1430     0.8300 C.2   1 <1>   0.1410 
  8 C       -1.1280    -3.3750     1.7230 C.2   1 <1>  -0.3020 
  9 C       -2.4280    -5.4480     1.0960 C.2   1 <1>   0.7160 
 10 O       -2.2840    -5.9710     2.1890 O.2   1 <1>  -0.5700 
 11 N       -3.1700    -6.1220     0.1540 N.am  1 <1>  -0.6600 
 12 C       -3.0300    -7.6090     0.0390 C.3   1 <1>   0.3640 
 13 C       -4.3860    -5.4920    -0.4250 C.3   1 <1>   0.1400 
 14 C       -1.5380    -7.9310    -0.1160 C.ar  1 <1>  -0.1430 
 15 C       -3.8130    -8.2360    -1.1580 C.3   1 <1>   0.2000 
 16 C       -4.7930    -6.1770    -1.7290 C.3   1 <1>   0.1200 
 17 C       -0.9250    -8.8300     0.7460 C.ar  1 <1>  -0.1500 
 18 C       -0.7790    -7.3320    -1.1150 C.ar  1 <1>  -0.1500 
 19 O       -4.9850    -7.5350    -1.4850 O.3   1 <1>  -0.5600 
 20 C       -4.2500    -9.6880    -0.9030 C.3   1 <1>   0.1200 
 21 C        0.4170    -9.1430     0.6080 C.ar  1 <1>   0.0830 
 22 C        0.5660    -7.6280    -1.2520 C.ar  1 <1>  -0.1500 
 23 O       -3.1830   -10.5050    -0.5430 O.3   1 <1>  -0.6800 
 24 O        0.9380   -10.0610     1.4570 O.3   1 <1>  -0.3630 
 25 C        1.1760    -8.5220    -0.3900 C.ar  1 <1>   0.0830 
 26 C        1.2670   -11.3080     0.8880 C.3   1 <1>   0.0400 
 27 O        2.5010    -8.7520    -0.5590 O.3   1 <1>  -0.3630 
 28 C        3.3450    -8.3450     0.4960 C.3   1 <1>   0.0400 
 29 H        0.5230     0.6880     0.0350 H     1 <1>   0.1500 
 30 H        0.4030    -0.8810     2.2760 H     1 <1>   0.1500 
 31 H       -0.9030    -3.5870     2.7520 H     1 <1>   0.1500 
 32 H       -3.3950    -8.0480     0.9520 H     1 <1>   0.0800 
 33 H       -5.1940    -5.5730     0.2800 H     1 <1>   0.0800 
 34 H       -4.2150    -4.4470    -0.6150 H     1 <1>   0.0800 
 35 H       -3.1920    -8.2180    -2.0360 H     1 <1>   0.0800 
 36 H       -4.0390    -6.0500    -2.4860 H     1 <1>   0.0800 
 37 H       -5.7220    -5.7710    -2.0870 H     1 <1>   0.0800 
 38 H       -1.4870    -9.3020     1.5320 H     1 <1>   0.1500 
 39 H       -1.2320    -6.6200    -1.7840 H     1 <1>   0.1500 
 40 H       -4.6950   -10.0990    -1.7920 H     1 <1>   0.0800 
 41 H       -4.9660    -9.7220    -0.1000 H     1 <1>   0.0800 
 42 H        1.1510    -7.1590    -2.0220 H     1 <1>   0.1500 
 43 H       -2.4520   -10.4450    -1.1920 H     1 <1>   0.4000 
 44 H        1.6170   -11.9530     1.6730 H     1 <1>   0.0800 
 45 H        2.0380   -11.1700     0.1530 H     1 <1>   0.0800 
 46 H        0.3840   -11.7230     0.4340 H     1 <1>   0.0800 
 47 H        4.3640    -8.4480     0.1700 H     1 <1>   0.0800 
 48 H        3.1710    -8.9680     1.3540 H     1 <1>   0.0800 
 49 H        3.1340    -7.3170     0.7320 H     1 <1>   0.0800 
@<TRIPOS>BOND
  1   1   2  1   
  2   1   3  1   
  3   2   4  2   
  4   2   5  1   
  5   3   6  2   
  6   3  29  1   
  7   4   7  1   
  8   5   6  1   
  9   5   8  1   
 10   6  30  1   
 11   7   8  2   
 12   7   9  1   
 13   8  31  1   
 14   9  10  2   
 15   9  11  am  
 16  11  12  1   
 17  11  13  1   
 18  12  14  1   
 19  12  15  1   
 20  12  32  1   
 21  13  16  1   
 22  13  33  1   
 23  13  34  1   
 24  14  17  ar  
 25  14  18  ar  
 26  15  19  1   
 27  15  20  1   
 28  15  35  1   
 29  16  19  1   
 30  16  36  1   
 31  16  37  1   
 32  17  21  ar  
 33  17  38  1   
 34  18  22  ar  
 35  18  39  1   
 36  20  23  1   
 37  20  40  1   
 38  20  41  1   
 39  21  24  1   
 40  21  25  ar  
 41  22  25  ar  
 42  22  42  1   
 43  23  43  1   
 44  24  26  1   
 45  25  27  1   
 46  26  44  1   
 47  26  45  1   
 48  26  46  1   
 49  27  28  1   
 50  28  47  1   
 51  28  48  1   
 52  28  49  1   
@<TRIPOS>SUBSTRUCTURE
  1 ****  14 GROUP 4 **** **** 0

# MOE 2024.06 (io_trps.svl 2023.06)
