@<TRIPOS>MOLECULE
NONAME
52 54 1 0 0 
SMALL
USER_CHARGES


@<TRIPOS>ATOM
  1 CL      -4.1170    -1.3020    -4.0670 Cl    1 <1>  -0.1770 
  2 C       -4.6500    -1.3640    -2.4050 C.ar  1 <1>   0.1770 
  3 C       -4.9090    -0.1850    -1.7330 C.ar  1 <1>  -0.1500 
  4 C       -4.8010    -2.5900    -1.7880 C.ar  1 <1>  -0.1500 
  5 C       -5.3320    -0.2250    -0.4130 C.ar  1 <1>  -0.1440 
  6 C       -5.2230    -2.6370    -0.4710 C.ar  1 <1>  -0.1500 
  7 C       -5.4950    -1.4570     0.2210 C.ar  1 <1>   0.0820 
  8 C       -5.6140     1.0770     0.3230 C.3   1 <1>  -0.0960 
  9 O       -5.9270    -1.4430     1.5120 O.3   1 <1>  -0.3630 
 10 C       -6.3930    -2.6150     2.1720 C.3   1 <1>   0.1810 
 11 C       -7.6080    -3.2570     1.4950 C.2   1 <1>   0.5690 
 12 O       -7.5410    -4.4460     1.2780 O.2   1 <1>  -0.5700 
 13 N       -8.7290    -2.5330     1.1610 N.am  1 <1>  -0.6600 
 14 C       -9.8080    -3.1600     0.3400 C.3   1 <1>   0.1400 
 15 C       -8.8800    -1.0780     1.4620 C.3   1 <1>   0.1400 
 16 C      -10.4380    -2.1260    -0.5970 C.3   1 <1>  -0.1600 
 17 C      -10.3630    -0.7150     1.5220 C.3   1 <1>  -0.1600 
 18 C      -11.0430    -0.9130     0.1510 C.3   1 <1>   0.2800 
 19 O      -10.7180     0.1940    -0.6440 O.3   1 <1>  -0.5600 
 20 C      -12.5780    -1.0620     0.3190 C.3   1 <1>  -0.1600 
 21 C      -11.4990     1.3550    -0.5680 C.3   1 <1>   0.1200 
 22 C      -13.3960    -0.3920    -0.7940 C.3   1 <1>   0.2800 
 23 C      -12.9820     1.1030    -0.9130 C.3   1 <1>   0.2000 
 24 O      -13.1160    -1.0250    -1.9900 O.3   1 <1>  -0.6800 
 25 C      -14.9010    -0.6080    -0.5850 C.3   1 <1>  -0.2400 
 26 O      -13.7410     1.9080    -0.0560 O.3   1 <1>  -0.6800 
 27 H       -4.7790     0.7490    -2.2470 H     1 <1>   0.1500 
 28 H       -4.5930    -3.4930    -2.3330 H     1 <1>   0.1500 
 29 H       -5.3310    -3.6010    -0.0090 H     1 <1>   0.1500 
 30 H       -5.3310     1.9270    -0.2710 H     1 <1>   0.0800 
 31 H       -5.0590     1.1060     1.2430 H     1 <1>   0.0800 
 32 H       -6.6620     1.1500     0.5470 H     1 <1>   0.0800 
 33 H       -5.5820    -3.3180     2.2200 H     1 <1>   0.0800 
 34 H       -6.6580    -2.3360     3.1740 H     1 <1>   0.0800 
 35 H       -9.3990    -3.9650    -0.2470 H     1 <1>   0.0800 
 36 H      -10.5550    -3.5700     0.9970 H     1 <1>   0.0800 
 37 H       -8.4150    -0.8450     2.4040 H     1 <1>   0.0800 
 38 H       -8.3970    -0.5060     0.6880 H     1 <1>   0.0800 
 39 H      -11.1820    -2.6120    -1.1980 H     1 <1>   0.0800 
 40 H       -9.6660    -1.7910    -1.2680 H     1 <1>   0.0800 
 41 H      -10.4740     0.3000     1.8540 H     1 <1>   0.0800 
 42 H      -10.8250    -1.3460     2.2600 H     1 <1>   0.0800 
 43 H      -12.8450    -2.0980     0.4130 H     1 <1>   0.0800 
 44 H      -12.8660    -0.6010     1.2460 H     1 <1>   0.0800 
 45 H      -11.3960     1.7580     0.4220 H     1 <1>   0.0800 
 46 H      -11.0870     2.0580    -1.2690 H     1 <1>   0.0800 
 47 H      -13.1850     1.4460    -1.9130 H     1 <1>   0.0800 
 48 H      -13.4350    -1.9430    -1.9630 H     1 <1>   0.4000 
 49 H      -15.2150    -0.2010     0.3590 H     1 <1>   0.0800 
 50 H      -15.1460    -1.6540    -0.5910 H     1 <1>   0.0800 
 51 H      -15.4540    -0.1080    -1.3610 H     1 <1>   0.0800 
 52 H      -13.6460     1.6080     0.8660 H     1 <1>   0.4000 
@<TRIPOS>BOND
  1   1   2  1   
  2   2   3  ar  
  3   2   4  ar  
  4   3   5  ar  
  5   3  27  1   
  6   4   6  ar  
  7   4  28  1   
  8   5   7  ar  
  9   5   8  1   
 10   6   7  ar  
 11   6  29  1   
 12   7   9  1   
 13   8  30  1   
 14   8  31  1   
 15   8  32  1   
 16   9  10  1   
 17  10  11  1   
 18  10  33  1   
 19  10  34  1   
 20  11  12  2   
 21  11  13  am  
 22  13  14  1   
 23  13  15  1   
 24  14  16  1   
 25  14  35  1   
 26  14  36  1   
 27  15  17  1   
 28  15  37  1   
 29  15  38  1   
 30  16  18  1   
 31  16  39  1   
 32  16  40  1   
 33  17  18  1   
 34  17  41  1   
 35  17  42  1   
 36  18  19  1   
 37  18  20  1   
 38  19  21  1   
 39  20  22  1   
 40  20  43  1   
 41  20  44  1   
 42  21  23  1   
 43  21  45  1   
 44  21  46  1   
 45  22  23  1   
 46  22  24  1   
 47  22  25  1   
 48  23  26  1   
 49  23  47  1   
 50  24  48  1   
 51  25  49  1   
 52  25  50  1   
 53  25  51  1   
 54  26  52  1   
@<TRIPOS>SUBSTRUCTURE
  1 ****  15 GROUP 4 **** **** 0

# MOE 2024.06 (io_trps.svl 2023.06)
