@<TRIPOS>MOLECULE
NONAME
42 43 1 0 0 
SMALL
USER_CHARGES


@<TRIPOS>ATOM
  1 O        1.2410     0.7310     1.6030 O.2   1 <1>  -0.5700 
  2 C        1.7970     0.8820     0.5290 C.2   1 <1>   0.5440 
  3 N        1.6860     2.0970    -0.0940 N.am  1 <1>  -0.7300 
  4 C        2.5500    -0.1900    -0.0860 C.ar  1 <1>   0.0860 
  5 C        0.9580     3.2790     0.4390 C.3   1 <1>   0.0600 
  6 C        2.1450    -1.5370     0.0210 C.ar  1 <1>   0.4100 
  7 C        3.7060     0.0750    -0.8090 C.ar  1 <1>  -0.1500 
  8 N        2.7900    -2.5620    -0.5400 N.ar  1 <1>  -0.6200 
  9 N        1.0120    -1.8730     0.7290 N.pl3 1 <1>  -0.8690 
 10 C        4.3740    -0.9800    -1.3860 C.ar  1 <1>  -0.1500 
 11 C        3.8780    -2.2600    -1.2250 C.ar  1 <1>   0.1600 
 12 C        0.7580    -3.2090     1.3110 C.3   1 <1>   0.2090 
 13 C        0.2210    -4.1520     0.2170 C.3   1 <1>   0.3430 
 14 N        0.7710    -5.5480     0.2930 N.4   1 <1>  -0.9590 
 15 C        2.2240    -5.5490    -0.0600 C.3   1 <1>   0.3430 
 16 C        0.0010    -6.4520    -0.6070 C.3   1 <1>   0.3430 
 17 C        2.7940    -6.9600     0.0940 C.3   1 <1>  -0.1600 
 18 C        0.5160    -7.8860    -0.4610 C.3   1 <1>  -0.1600 
 19 C        2.0190    -7.9810    -0.7500 C.3   1 <1>  -0.1600 
 20 H        2.0550     2.2030    -1.0410 H     1 <1>   0.3700 
 21 H        0.6360     3.1010     1.4520 H     1 <1>   0.0800 
 22 H        0.0920     3.4770    -0.1680 H     1 <1>   0.0800 
 23 H        1.6030     4.1390     0.4290 H     1 <1>   0.0800 
 24 H        4.0790     1.0800    -0.9110 H     1 <1>   0.1500 
 25 H        0.6740    -1.0840     1.3160 H     1 <1>   0.4000 
 26 H        5.2720    -0.8170    -1.9550 H     1 <1>   0.1500 
 27 H        4.4140    -3.0730    -1.6860 H     1 <1>   0.1500 
 28 H        0.0320    -3.1180     2.1000 H     1 <1>   0.0800 
 29 H        1.6760    -3.5790     1.7320 H     1 <1>   0.0800 
 30 H        0.4810    -3.7290    -0.7400 H     1 <1>   0.0800 
 31 H       -0.8530    -4.1760     0.2880 H     1 <1>   0.0800 
 32 H        0.6780    -5.9030     1.2520 H     1 <1>   0.4500 
 33 H        2.7670    -4.8710     0.5790 H     1 <1>   0.0800 
 34 H        2.3500    -5.2140    -1.0770 H     1 <1>   0.0800 
 35 H        0.1180    -6.1310    -1.6300 H     1 <1>   0.0800 
 36 H       -1.0470    -6.4190    -0.3580 H     1 <1>   0.0800 
 37 H        2.7680    -7.2450     1.1320 H     1 <1>   0.0800 
 38 H        3.8260    -6.9560    -0.2120 H     1 <1>   0.0800 
 39 H       -0.0180    -8.5220    -1.1460 H     1 <1>   0.0800 
 40 H        0.3090    -8.2410     0.5340 H     1 <1>   0.0800 
 41 H        2.3730    -8.9770    -0.5370 H     1 <1>   0.0800 
 42 H        2.1960    -7.7880    -1.7950 H     1 <1>   0.0800 
@<TRIPOS>BOND
  1   1   2  2   
  2   2   3  am  
  3   2   4  1   
  4   3   5  1   
  5   3  20  1   
  6   4   6  ar  
  7   4   7  ar  
  8   5  21  1   
  9   5  22  1   
 10   5  23  1   
 11   6   8  ar  
 12   6   9  1   
 13   7  10  ar  
 14   7  24  1   
 15   8  11  ar  
 16   9  12  1   
 17   9  25  1   
 18  10  11  ar  
 19  10  26  1   
 20  11  27  1   
 21  12  13  1   
 22  12  28  1   
 23  12  29  1   
 24  13  14  1   
 25  13  30  1   
 26  13  31  1   
 27  14  15  1   
 28  14  16  1   
 29  14  32  1   
 30  15  17  1   
 31  15  33  1   
 32  15  34  1   
 33  16  18  1   
 34  16  35  1   
 35  16  36  1   
 36  17  19  1   
 37  17  37  1   
 38  17  38  1   
 39  18  19  1   
 40  18  39  1   
 41  18  40  1   
 42  19  41  1   
 43  19  42  1   
@<TRIPOS>SUBSTRUCTURE
  1 ****   8 GROUP 4 **** **** 0

# MOE 2024.06 (io_trps.svl 2023.06)
