@<TRIPOS>MOLECULE
NONAME
50 53 1 0 0 
SMALL
USER_CHARGES


@<TRIPOS>ATOM
  1 S        0.1400     0.9250    -0.1960 S.o2  1 <1>   1.5010 
  2 O        0.4930     2.2830     0.1610 O.2   1 <1>  -0.6500 
  3 O       -0.0080     0.5730    -1.5920 O.2   1 <1>  -0.6500 
  4 N       -1.3220     0.5660     0.5860 N.am  1 <1>  -0.8490 
  5 C        1.2970    -0.1990     0.5950 C.2   1 <1>  -0.0630 
  6 C       -2.3160     1.6590     0.5970 C.3   1 <1>   0.1960 
  7 C       -1.8910    -0.7580     0.2710 C.3   1 <1>   0.1960 
  8 C        1.8710     0.0220     1.8390 C.2   1 <1>   0.1390 
  9 C        1.7980    -1.4040     0.2210 C.2   1 <1>  -0.3020 
 10 C       -3.0970     1.8260    -0.7350 C.3   1 <1>   0.1440 
 11 C       -3.2440    -0.6960    -0.4610 C.3   1 <1>  -0.1600 
 12 N        2.6560    -0.9440     2.2100 N.2   1 <1>  -0.7070 
 13 N        2.6130    -1.8270     1.2030 N.pl3 1 <1>   0.3140 
 14 C       -4.4230     2.4890    -0.3900 C.ar  1 <1>   0.1660 
 15 C       -3.3020     0.4710    -1.4550 C.3   1 <1>  -0.1600 
 16 C       -2.4600     2.8780    -1.6840 C.3   1 <1>  -0.1600 
 17 C        3.3880    -3.0720     1.2430 C.3   1 <1>   0.0160 
 18 N       -5.4330     1.9030     0.2060 N.ar  1 <1>  -0.6200 
 19 C       -4.4450     3.7990    -0.7600 C.ar  1 <1>  -0.1430 
 20 C       -3.1540     4.2220    -1.4090 C.3   1 <1>  -0.0170 
 21 C       -6.5000     2.6760     0.4190 C.ar  1 <1>   0.7200 
 22 C       -5.5830     4.5190    -0.4990 C.ar  1 <1>   0.1600 
 23 N       -6.6170     3.9670     0.0910 N.ar  1 <1>  -0.6200 
 24 N       -7.5830     2.0860     1.0410 N.pl3 1 <1>  -0.8380 
 25 C       -8.7020     2.8880     1.6090 C.3   1 <1>   0.1290 
 26 C       -7.7250     0.6080     1.1480 C.3   1 <1>   0.1290 
 27 H       -1.8530     2.5900     0.8740 H     1 <1>   0.0800 
 28 H       -3.0260     1.4320     1.3750 H     1 <1>   0.0800 
 29 H       -2.0200    -1.3030     1.1910 H     1 <1>   0.0800 
 30 H       -1.1980    -1.3180    -0.3340 H     1 <1>   0.0800 
 31 H        1.6870     0.9000     2.4370 H     1 <1>   0.1500 
 32 H        1.6150    -1.9610    -0.6800 H     1 <1>   0.1500 
 33 H       -4.0330    -0.5890     0.2630 H     1 <1>   0.0800 
 34 H       -3.4100    -1.6250    -0.9760 H     1 <1>   0.0800 
 35 H       -2.5280     0.3250    -2.1880 H     1 <1>   0.0800 
 36 H       -4.2450     0.4690    -1.9750 H     1 <1>   0.0800 
 37 H       -2.6660     2.6050    -2.7050 H     1 <1>   0.0800 
 38 H       -1.3950     2.9600    -1.5720 H     1 <1>   0.0800 
 39 H        3.2980    -3.5860     0.3040 H     1 <1>   0.0800 
 40 H        3.0120    -3.6900     2.0370 H     1 <1>   0.0800 
 41 H        4.4180    -2.8340     1.4310 H     1 <1>   0.0800 
 42 H       -3.3220     4.7730    -2.3180 H     1 <1>   0.0800 
 43 H       -2.5760     4.8140    -0.7200 H     1 <1>   0.0800 
 44 H       -5.6470     5.5570    -0.7750 H     1 <1>   0.1500 
 45 H       -8.3500     3.8550     1.9260 H     1 <1>   0.0800 
 46 H       -9.1220     2.3850     2.4620 H     1 <1>   0.0800 
 47 H       -9.4640     3.0220     0.8620 H     1 <1>   0.0800 
 48 H       -7.2130     0.1200     0.3370 H     1 <1>   0.0800 
 49 H       -8.7640     0.3320     1.1060 H     1 <1>   0.0800 
 50 H       -7.3050     0.2740     2.0800 H     1 <1>   0.0800 
@<TRIPOS>BOND
  1   1   2  2   
  2   1   3  2   
  3   1   4  am  
  4   1   5  1   
  5   4   6  1   
  6   4   7  1   
  7   5   8  1   
  8   5   9  2   
  9   6  10  1   
 10   6  27  1   
 11   6  28  1   
 12   7  11  1   
 13   7  29  1   
 14   7  30  1   
 15   8  12  2   
 16   8  31  1   
 17   9  13  1   
 18   9  32  1   
 19  10  14  1   
 20  10  15  1   
 21  10  16  1   
 22  11  15  1   
 23  11  33  1   
 24  11  34  1   
 25  12  13  1   
 26  13  17  1   
 27  14  18  ar  
 28  14  19  ar  
 29  15  35  1   
 30  15  36  1   
 31  16  20  1   
 32  16  37  1   
 33  16  38  1   
 34  17  39  1   
 35  17  40  1   
 36  17  41  1   
 37  18  21  ar  
 38  19  20  1   
 39  19  22  ar  
 40  20  42  1   
 41  20  43  1   
 42  21  23  ar  
 43  21  24  1   
 44  22  23  ar  
 45  22  44  1   
 46  24  25  1   
 47  24  26  1   
 48  25  45  1   
 49  25  46  1   
 50  25  47  1   
 51  26  48  1   
 52  26  49  1   
 53  26  50  1   
@<TRIPOS>SUBSTRUCTURE
  1 ****   6 GROUP 4 **** **** 0

# MOE 2024.06 (io_trps.svl 2023.06)
