@<TRIPOS>MOLECULE
NONAME
61 63 1 0 0 
SMALL
USER_CHARGES


@<TRIPOS>ATOM
  1 O       -0.3670    -0.6890    -1.0490 O.2   1 <1>  -0.5700 
  2 C       -1.1630    -1.2370    -0.3110 C.2   1 <1>   0.7800 
  3 O       -0.7830    -2.2520     0.4700 O.3   1 <1>  -0.4300 
  4 N       -2.4780    -0.8510    -0.2430 N.am  1 <1>  -0.6600 
  5 C        0.4970    -2.8390     0.5550 C.3   1 <1>   0.2800 
  6 C       -3.4710    -1.4930     0.6580 C.3   1 <1>   0.1400 
  7 C       -3.0150     0.2380    -1.0970 C.3   1 <1>   0.1400 
  8 C        0.8900    -3.4510    -0.7950 C.3   1 <1>  -0.2400 
  9 C        0.3540    -3.9560     1.5900 C.3   1 <1>  -0.2400 
 10 C        1.5210    -1.8140     1.0560 C.3   1 <1>  -0.2400 
 11 C       -4.6560    -2.0160    -0.1620 C.3   1 <1>  -0.1600 
 12 C       -4.1690    -0.3050    -1.9430 C.3   1 <1>  -0.1600 
 13 C       -5.2810    -0.9420    -1.0840 C.3   1 <1>   0.0000 
 14 C       -6.0450     0.1070    -0.2620 C.3   1 <1>   0.1400 
 15 C       -6.3740    -1.5580    -1.9740 C.3   1 <1>  -0.1600 
 16 N       -7.4420    -0.3640    -0.2140 N.am  1 <1>  -0.6600 
 17 C       -7.7020    -1.4180    -1.2190 C.3   1 <1>   0.2200 
 18 C       -8.4190     0.3310     0.4350 C.2   1 <1>   0.7800 
 19 C       -8.1760    -2.7210    -0.5420 C.3   1 <1>   0.1200 
 20 O       -8.1820     1.2850     1.1500 O.2   1 <1>  -0.5700 
 21 O       -9.6720    -0.0720     0.2570 O.3   1 <1>  -0.4300 
 22 O       -8.4760    -3.6860    -1.4980 O.3   1 <1>  -0.6800 
 23 C      -10.7320     0.5920     0.9010 C.3   1 <1>   0.2630 
 24 C      -12.0240    -0.1080     0.5170 C.ar  1 <1>  -0.1440 
 25 C      -12.7780     0.3490    -0.5530 C.ar  1 <1>  -0.1500 
 26 C      -12.4570    -1.2160     1.2300 C.ar  1 <1>  -0.1500 
 27 C      -13.9550    -0.2900    -0.9030 C.ar  1 <1>  -0.1500 
 28 C      -13.6340    -1.8560     0.8810 C.ar  1 <1>  -0.1500 
 29 C      -14.3840    -1.3930    -0.1850 C.ar  1 <1>  -0.1500 
 30 H       -3.8050    -0.7670     1.3800 H     1 <1>   0.0800 
 31 H       -3.0300    -2.3100     1.2010 H     1 <1>   0.0800 
 32 H       -2.2470     0.6270    -1.7450 H     1 <1>   0.0800 
 33 H       -3.3540     1.0430    -0.4680 H     1 <1>   0.0800 
 34 H        0.1130    -4.1040    -1.1490 H     1 <1>   0.0800 
 35 H        1.7950    -4.0200    -0.6910 H     1 <1>   0.0800 
 36 H        1.0710    -2.6870    -1.5290 H     1 <1>   0.0800 
 37 H       -0.3820    -4.6700     1.2670 H     1 <1>   0.0800 
 38 H        0.0540    -3.5480     2.5390 H     1 <1>   0.0800 
 39 H        1.2900    -4.4670     1.7210 H     1 <1>   0.0800 
 40 H        1.6990    -1.0520     0.3200 H     1 <1>   0.0800 
 41 H        2.4590    -2.2990     1.2540 H     1 <1>   0.0800 
 42 H        1.1750    -1.3540     1.9640 H     1 <1>   0.0800 
 43 H       -5.3930    -2.4000     0.5180 H     1 <1>   0.0800 
 44 H       -4.3060    -2.8420    -0.7570 H     1 <1>   0.0800 
 45 H       -3.7710    -1.0410    -2.6210 H     1 <1>   0.0800 
 46 H       -4.5720     0.4950    -2.5390 H     1 <1>   0.0800 
 47 H       -6.0260     1.0640    -0.7550 H     1 <1>   0.0800 
 48 H       -5.6540     0.2240     0.7330 H     1 <1>   0.0800 
 49 H       -6.1640    -2.5790    -2.2430 H     1 <1>   0.0800 
 50 H       -6.4630    -0.9970    -2.8870 H     1 <1>   0.0800 
 51 H       -8.4730    -1.0770    -1.8890 H     1 <1>   0.0800 
 52 H       -9.0640    -2.5500     0.0410 H     1 <1>   0.0800 
 53 H       -7.4090    -3.1220     0.0940 H     1 <1>   0.0800 
 54 H       -9.3200    -3.4750    -1.9450 H     1 <1>   0.4000 
 55 H      -10.7370     1.6200     0.5820 H     1 <1>   0.0800 
 56 H      -10.5700     0.5470     1.9640 H     1 <1>   0.0800 
 57 H      -12.4510     1.2040    -1.1200 H     1 <1>   0.1500 
 58 H      -11.8780    -1.5840     2.0590 H     1 <1>   0.1500 
 59 H      -14.5370     0.0700    -1.7330 H     1 <1>   0.1500 
 60 H      -13.9650    -2.7140     1.4390 H     1 <1>   0.1500 
 61 H      -15.2990    -1.8900    -0.4570 H     1 <1>   0.1500 
@<TRIPOS>BOND
  1   1   2  2   
  2   2   3  1   
  3   2   4  am  
  4   3   5  1   
  5   4   6  1   
  6   4   7  1   
  7   5   8  1   
  8   5   9  1   
  9   5  10  1   
 10   6  11  1   
 11   6  30  1   
 12   6  31  1   
 13   7  12  1   
 14   7  32  1   
 15   7  33  1   
 16   8  34  1   
 17   8  35  1   
 18   8  36  1   
 19   9  37  1   
 20   9  38  1   
 21   9  39  1   
 22  10  40  1   
 23  10  41  1   
 24  10  42  1   
 25  11  13  1   
 26  11  43  1   
 27  11  44  1   
 28  12  13  1   
 29  12  45  1   
 30  12  46  1   
 31  13  14  1   
 32  13  15  1   
 33  14  16  1   
 34  14  47  1   
 35  14  48  1   
 36  15  17  1   
 37  15  49  1   
 38  15  50  1   
 39  16  17  1   
 40  16  18  am  
 41  17  19  1   
 42  17  51  1   
 43  18  20  2   
 44  18  21  1   
 45  19  22  1   
 46  19  52  1   
 47  19  53  1   
 48  21  23  1   
 49  22  54  1   
 50  23  24  1   
 51  23  55  1   
 52  23  56  1   
 53  24  25  ar  
 54  24  26  ar  
 55  25  27  ar  
 56  25  57  1   
 57  26  28  ar  
 58  26  58  1   
 59  27  29  ar  
 60  27  59  1   
 61  28  29  ar  
 62  28  60  1   
 63  29  61  1   
@<TRIPOS>SUBSTRUCTURE
  1 ****  14 GROUP 4 **** **** 0

# MOE 2024.06 (io_trps.svl 2023.06)
