@<TRIPOS>MOLECULE
NONAME
47 48 1 0 0 
SMALL
USER_CHARGES


@<TRIPOS>ATOM
  1 O       -0.3220     0.9280     1.2170 O.3   1 <1>  -0.6800 
  2 C        0.5900     0.0640     0.6410 C.3   1 <1>   0.1200 
  3 C        1.9500     0.3150     1.3090 C.3   1 <1>   0.3430 
  4 N        3.0520    -0.5390     0.7480 N.4   1 <1>  -0.9590 
  5 C        2.8740    -1.9720     1.0650 C.3   1 <1>   0.5230 
  6 C        4.3930    -0.0550     1.1660 C.3   1 <1>   0.3430 
  7 C        2.5860    -2.6240    -0.2600 C.2   1 <1>  -0.3320 
  8 C        4.7950     1.1520     0.3210 C.3   1 <1>  -0.1600 
  9 N        3.4970    -2.9170    -1.2180 N.pl3 1 <1>   0.0480 
 10 C        1.3880    -3.0380    -0.7300 C.2   1 <1>   0.0770 
 11 C        6.2160     1.6400     0.6480 C.3   1 <1>   0.0630 
 12 C        2.7700    -3.4700    -2.2150 C.2   1 <1>   0.0360 
 13 C        4.9640    -2.7510    -1.2180 C.3   1 <1>   0.0160 
 14 N        1.5070    -3.5500    -1.9620 N.2   1 <1>  -0.5650 
 15 C        6.4940     2.9280    -0.1210 C.ar  1 <1>  -0.1430 
 16 C        7.2890     0.5850     0.3410 C.3   1 <1>  -0.2400 
 17 C        6.6010     2.9360    -1.5060 C.ar  1 <1>  -0.1500 
 18 C        6.6380     4.1230     0.5690 C.ar  1 <1>  -0.1500 
 19 C        6.8450     4.1160    -2.1870 C.ar  1 <1>  -0.1500 
 20 C        6.8810     5.3040    -0.1110 C.ar  1 <1>  -0.1500 
 21 C        6.9850     5.3020    -1.4900 C.ar  1 <1>  -0.1500 
 22 H       -1.2080     0.8510     0.8010 H     1 <1>   0.4000 
 23 H        0.6300     0.2730    -0.4150 H     1 <1>   0.0800 
 24 H        0.2420    -0.9380     0.8140 H     1 <1>   0.0800 
 25 H        1.8560     0.1410     2.3680 H     1 <1>   0.0800 
 26 H        2.1940     1.3550     1.1630 H     1 <1>   0.0800 
 27 H        2.9910    -0.4960    -0.2790 H     1 <1>   0.4500 
 28 H        2.0460    -2.1150     1.7400 H     1 <1>   0.0800 
 29 H        3.7620    -2.3940     1.5060 H     1 <1>   0.0800 
 30 H        5.1210    -0.8360     1.0180 H     1 <1>   0.0800 
 31 H        4.3890     0.2070     2.2120 H     1 <1>   0.0800 
 32 H        4.1180     1.9680     0.5030 H     1 <1>   0.0800 
 33 H        4.7450     0.8990    -0.7230 H     1 <1>   0.0800 
 34 H        0.4210    -3.0010    -0.2550 H     1 <1>   0.1500 
 35 H        6.2680     1.8620     1.7010 H     1 <1>   0.0800 
 36 H        3.2190    -3.8130    -3.1320 H     1 <1>   0.1500 
 37 H        5.3690    -3.0930    -0.2830 H     1 <1>   0.0800 
 38 H        5.2120    -1.7170    -1.3720 H     1 <1>   0.0800 
 39 H        5.3900    -3.3360    -2.0140 H     1 <1>   0.0800 
 40 H        7.2250     0.2470    -0.6770 H     1 <1>   0.0800 
 41 H        7.2090    -0.2610     0.9990 H     1 <1>   0.0800 
 42 H        8.2640     1.0190     0.4860 H     1 <1>   0.0800 
 43 H        6.5000     2.0280    -2.0720 H     1 <1>   0.1500 
 44 H        6.5640     4.1520     1.6420 H     1 <1>   0.1500 
 45 H        6.9290     4.1140    -3.2600 H     1 <1>   0.1500 
 46 H        6.9920     6.2260     0.4330 H     1 <1>   0.1500 
 47 H        7.1750     6.2200    -2.0180 H     1 <1>   0.1500 
@<TRIPOS>BOND
  1   1   2  1   
  2   1  22  1   
  3   2   3  1   
  4   2  23  1   
  5   2  24  1   
  6   3   4  1   
  7   3  25  1   
  8   3  26  1   
  9   4   5  1   
 10   4   6  1   
 11   4  27  1   
 12   5   7  1   
 13   5  28  1   
 14   5  29  1   
 15   6   8  1   
 16   6  30  1   
 17   6  31  1   
 18   7   9  1   
 19   7  10  2   
 20   8  11  1   
 21   8  32  1   
 22   8  33  1   
 23   9  12  1   
 24   9  13  1   
 25  10  14  1   
 26  10  34  1   
 27  11  15  1   
 28  11  16  1   
 29  11  35  1   
 30  12  14  2   
 31  12  36  1   
 32  13  37  1   
 33  13  38  1   
 34  13  39  1   
 35  15  17  ar  
 36  15  18  ar  
 37  16  40  1   
 38  16  41  1   
 39  16  42  1   
 40  17  19  ar  
 41  17  43  1   
 42  18  20  ar  
 43  18  44  1   
 44  19  21  ar  
 45  19  45  1   
 46  20  21  ar  
 47  20  46  1   
 48  21  47  1   
@<TRIPOS>SUBSTRUCTURE
  1 ****   8 GROUP 4 **** **** 0

# MOE 2024.06 (io_trps.svl 2023.06)
