@<TRIPOS>MOLECULE
NONAME
41 42 1 0 0 
SMALL
USER_CHARGES


@<TRIPOS>ATOM
  1 S        0.5440     0.0510     0.5700 S.o2  1 <1>   1.3330 
  2 O        1.9830     0.1300     0.6720 O.2   1 <1>  -0.6500 
  3 O       -0.2690     0.1640     1.7600 O.2   1 <1>  -0.6500 
  4 N        0.1570    -1.4090    -0.2050 N.am  1 <1>  -0.8490 
  5 C       -0.0280     1.2840    -0.5970 C.3   1 <1>  -0.0550 
  6 C       -0.1100    -2.4900     0.7500 C.3   1 <1>   0.1160 
  7 C        1.1700    -1.8400    -1.1750 C.3   1 <1>   0.1160 
  8 C        0.0930     2.7230    -0.0690 C.3   1 <1>  -0.0800 
  9 C       -0.4930     3.7450    -1.0400 C.3   1 <1>   0.2000 
 10 C        1.5320     3.2000     0.1460 C.3   1 <1>   0.1400 
 11 O       -1.8630     3.8360    -0.8600 O.3   1 <1>  -0.6800 
 12 C        0.2110     5.0640    -0.7270 C.3   1 <1>   0.1400 
 13 N        1.4790     4.6670    -0.0660 N.am  1 <1>  -0.6600 
 14 C        2.4290     5.5320     0.4260 C.2   1 <1>   0.5440 
 15 O        3.3550     5.0770     1.0690 O.2   1 <1>  -0.5700 
 16 C        2.3260     6.9620     0.2440 C.ar  1 <1>   0.0860 
 17 C        2.4320     7.5720    -1.0040 C.ar  1 <1>   0.1900 
 18 C        2.1190     7.8080     1.3340 C.ar  1 <1>  -0.1500 
 19 F        2.6440     6.8380    -2.0620 F     1 <1>  -0.1900 
 20 C        2.3240     8.9380    -1.1880 C.ar  1 <1>  -0.1500 
 21 C        2.0080     9.1790     1.1730 C.ar  1 <1>  -0.1500 
 22 C        2.1070     9.7480    -0.0870 C.ar  1 <1>  -0.1500 
 23 H        0.5210     1.1920    -1.5130 H     1 <1>   0.0800 
 24 H       -1.0610     1.0910    -0.8140 H     1 <1>   0.0800 
 25 H       -0.3660    -3.3950     0.2270 H     1 <1>   0.0800 
 26 H       -0.9380    -2.2240     1.3850 H     1 <1>   0.0800 
 27 H        0.7560    -2.6680     1.3660 H     1 <1>   0.0800 
 28 H        0.8310    -2.7190    -1.6960 H     1 <1>   0.0800 
 29 H        2.0990    -2.0650    -0.6760 H     1 <1>   0.0800 
 30 H        1.3460    -1.0630    -1.8980 H     1 <1>   0.0800 
 31 H       -0.4120     2.8000     0.8790 H     1 <1>   0.0800 
 32 H       -0.3030     3.4690    -2.0640 H     1 <1>   0.0800 
 33 H        2.2020     2.7680    -0.5780 H     1 <1>   0.0800 
 34 H        1.8840     2.9650     1.1380 H     1 <1>   0.0800 
 35 H       -2.0750     4.0180     0.0770 H     1 <1>   0.4000 
 36 H       -0.3710     5.6640    -0.0510 H     1 <1>   0.0800 
 37 H        0.4100     5.6070    -1.6340 H     1 <1>   0.0800 
 38 H        2.0510     7.3740     2.3180 H     1 <1>   0.1500 
 39 H        2.4110     9.3570    -2.1750 H     1 <1>   0.1500 
 40 H        1.8460     9.8090     2.0320 H     1 <1>   0.1500 
 41 H        2.0200    10.8150    -0.2070 H     1 <1>   0.1500 
@<TRIPOS>BOND
  1   1   2  2   
  2   1   3  2   
  3   1   4  am  
  4   1   5  1   
  5   4   6  1   
  6   4   7  1   
  7   5   8  1   
  8   5  23  1   
  9   5  24  1   
 10   6  25  1   
 11   6  26  1   
 12   6  27  1   
 13   7  28  1   
 14   7  29  1   
 15   7  30  1   
 16   8   9  1   
 17   8  10  1   
 18   8  31  1   
 19   9  11  1   
 20   9  12  1   
 21   9  32  1   
 22  10  13  1   
 23  10  33  1   
 24  10  34  1   
 25  11  35  1   
 26  12  13  1   
 27  12  36  1   
 28  12  37  1   
 29  13  14  am  
 30  14  15  2   
 31  14  16  1   
 32  16  17  ar  
 33  16  18  ar  
 34  17  19  1   
 35  17  20  ar  
 36  18  21  ar  
 37  18  38  1   
 38  20  22  ar  
 39  20  39  1   
 40  21  22  ar  
 41  21  40  1   
 42  22  41  1   
@<TRIPOS>SUBSTRUCTURE
  1 ****  13 GROUP 4 **** **** 0

# MOE 2024.06 (io_trps.svl 2023.06)
