@<TRIPOS>MOLECULE
NONAME
39 41 1 0 0 
SMALL
USER_CHARGES


@<TRIPOS>ATOM
  1 CL      -0.3030     0.1070     0.2780 Cl    1 <1>  -0.1770 
  2 C       -0.2670    -1.6340     0.2630 C.ar  1 <1>   0.1770 
  3 C       -0.3420    -2.3050    -0.9420 C.ar  1 <1>  -0.1500 
  4 C       -0.1620    -2.3230     1.4590 C.ar  1 <1>  -0.1500 
  5 C       -0.3140    -3.6860    -0.9180 C.ar  1 <1>   0.1900 
  6 C       -0.1350    -3.7090     1.4520 C.ar  1 <1>  -0.1500 
  7 F       -0.3780    -4.3070    -2.0640 F     1 <1>  -0.1900 
  8 C       -0.2190    -4.4290     0.2590 C.ar  1 <1>   0.0860 
  9 C       -0.1930    -5.8740     0.2660 C.2   1 <1>   0.5440 
 10 O        0.8160    -6.4480     0.6240 O.2   1 <1>  -0.5700 
 11 N       -1.2930    -6.6240    -0.0770 N.am  1 <1>  -0.6600 
 12 C       -2.6340    -6.0990    -0.4370 C.3   1 <1>   0.1400 
 13 C       -1.2920    -8.1060    -0.0590 C.3   1 <1>   0.1400 
 14 C       -3.4520    -7.3360    -0.8070 C.3   1 <1>   0.2000 
 15 C       -2.7670    -8.5070    -0.1070 C.3   1 <1>  -0.0800 
 16 O       -4.7650    -7.2260    -0.3820 O.3   1 <1>  -0.6800 
 17 C       -3.0150    -9.8520    -0.8060 C.3   1 <1>   0.0200 
 18 C       -2.2700   -10.9730    -0.1100 C.2   1 <1>  -0.0400 
 19 O       -2.5700   -11.2920     1.1210 O.3   1 <1>  -0.0190 
 20 C       -1.2770   -11.7790    -0.5140 C.2   1 <1>  -0.1500 
 21 N       -1.8280   -12.2650     1.5640 N.2   1 <1>  -0.4100 
 22 C       -1.0400   -12.5800     0.6000 C.2   1 <1>   0.1080 
 23 C        0.0040   -13.6720     0.6770 C.3   1 <1>  -0.0590 
 24 H       -0.4180    -1.7660    -1.8690 H     1 <1>   0.1500 
 25 H       -0.0980    -1.7750     2.3830 H     1 <1>   0.1500 
 26 H       -0.0440    -4.2510     2.3790 H     1 <1>   0.1500 
 27 H       -3.0580    -5.5960     0.4150 H     1 <1>   0.0800 
 28 H       -2.5700    -5.4280    -1.2750 H     1 <1>   0.0800 
 29 H       -0.7620    -8.4620    -0.9260 H     1 <1>   0.0800 
 30 H       -0.8100    -8.4810     0.8290 H     1 <1>   0.0800 
 31 H       -3.4510    -7.4610    -1.8770 H     1 <1>   0.0800 
 32 H       -3.1100    -8.5670     0.9120 H     1 <1>   0.0800 
 33 H       -4.8090    -7.2110     0.5940 H     1 <1>   0.4000 
 34 H       -2.6950    -9.7980    -1.8310 H     1 <1>   0.0800 
 35 H       -4.0690   -10.0740    -0.7970 H     1 <1>   0.0800 
 36 H       -0.7620   -11.8250    -1.4560 H     1 <1>   0.1500 
 37 H       -0.1840   -14.4090    -0.0810 H     1 <1>   0.0800 
 38 H       -0.0320   -14.1460     1.6410 H     1 <1>   0.0800 
 39 H        0.9820   -13.2520     0.5320 H     1 <1>   0.0800 
@<TRIPOS>BOND
  1   1   2  1   
  2   2   3  ar  
  3   2   4  ar  
  4   3   5  ar  
  5   3  24  1   
  6   4   6  ar  
  7   4  25  1   
  8   5   7  1   
  9   5   8  ar  
 10   6   8  ar  
 11   6  26  1   
 12   8   9  1   
 13   9  10  2   
 14   9  11  am  
 15  11  12  1   
 16  11  13  1   
 17  12  14  1   
 18  12  27  1   
 19  12  28  1   
 20  13  15  1   
 21  13  29  1   
 22  13  30  1   
 23  14  15  1   
 24  14  16  1   
 25  14  31  1   
 26  15  17  1   
 27  15  32  1   
 28  16  33  1   
 29  17  18  1   
 30  17  34  1   
 31  17  35  1   
 32  18  19  1   
 33  18  20  2   
 34  19  21  1   
 35  20  22  1   
 36  20  36  1   
 37  21  22  2   
 38  22  23  1   
 39  23  37  1   
 40  23  38  1   
 41  23  39  1   
@<TRIPOS>SUBSTRUCTURE
  1 ****  11 GROUP 4 **** **** 0

# MOE 2024.06 (io_trps.svl 2023.06)
