@<TRIPOS>MOLECULE
NONAME
37 38 1 0 0 
SMALL
USER_CHARGES


@<TRIPOS>ATOM
  1 S       -0.1090     2.0840    -1.4050 S.3   1 <1>  -0.0800 
  2 C       -0.9480     0.7920    -0.5770 C.2   1 <1>   0.1980 
  3 C        1.3890     1.4930    -0.7590 C.2   1 <1>  -0.1100 
  4 N       -0.1770     0.0250     0.0890 N.2   1 <1>  -0.5650 
  5 C       -2.4710     0.7250    -0.7530 C.3   1 <1>   0.4000 
  6 C        1.1850     0.4000     0.0090 C.2   1 <1>  -0.0060 
  7 N       -3.1280     1.9070    -0.1540 N.am  1 <1>  -0.6600 
  8 C       -3.1070    -0.4260     0.0300 C.3   1 <1>  -0.1600 
  9 C        2.2790    -0.3160     0.6850 C.2   1 <1>   1.0330 
 10 C       -3.5500     2.9660    -0.8960 C.2   1 <1>   0.7800 
 11 C       -3.5430     1.6370     1.2380 C.3   1 <1>   0.1400 
 12 C       -3.3230     0.1380     1.4360 C.3   1 <1>  -0.1600 
 13 O        3.4520     0.0890     0.5440 O.co2 1 <1>  -0.9000 
 14 O        2.0950    -1.3210     1.4000 O.co2 1 <1>  -0.9000 
 15 O       -3.3780     3.0180    -2.0980 O.2   1 <1>  -0.5700 
 16 O       -4.1780     3.9450    -0.2400 O.3   1 <1>  -0.4300 
 17 C       -4.6680     5.1540    -0.7770 C.3   1 <1>   0.2800 
 18 C       -5.2620     5.9070     0.4140 C.3   1 <1>  -0.2400 
 19 C       -3.5150     5.9740    -1.3690 C.3   1 <1>  -0.2400 
 20 C       -5.7750     4.8720    -1.8000 C.3   1 <1>  -0.2400 
 21 H        2.3020     2.0050    -1.0030 H     1 <1>   0.1500 
 22 H       -2.7020     0.6400    -1.8010 H     1 <1>   0.0800 
 23 H       -2.4900    -1.3080     0.0320 H     1 <1>   0.0800 
 24 H       -4.0540    -0.6660    -0.4180 H     1 <1>   0.0800 
 25 H       -4.5810     1.8930     1.3640 H     1 <1>   0.0800 
 26 H       -2.9400     2.2110     1.9220 H     1 <1>   0.0800 
 27 H       -2.4300    -0.0080     2.0220 H     1 <1>   0.0800 
 28 H       -4.1500    -0.3270     1.9420 H     1 <1>   0.0800 
 29 H       -4.5040     6.0910     1.1540 H     1 <1>   0.0800 
 30 H       -6.0550     5.3340     0.8590 H     1 <1>   0.0800 
 31 H       -5.6630     6.8520     0.0970 H     1 <1>   0.0800 
 32 H       -2.7250     6.0820    -0.6480 H     1 <1>   0.0800 
 33 H       -3.8640     6.9530    -1.6430 H     1 <1>   0.0800 
 34 H       -3.1230     5.5100    -2.2550 H     1 <1>   0.0800 
 35 H       -6.5260     4.2350    -1.3710 H     1 <1>   0.0800 
 36 H       -5.3780     4.4070    -2.6830 H     1 <1>   0.0800 
 37 H       -6.2390     5.7940    -2.1000 H     1 <1>   0.0800 
@<TRIPOS>BOND
  1   1   2  1   
  2   1   3  1   
  3   2   4  2   
  4   2   5  1   
  5   3   6  2   
  6   3  21  1   
  7   4   6  1   
  8   5   7  1   
  9   5   8  1   
 10   5  22  1   
 11   6   9  1   
 12   7  10  am  
 13   7  11  1   
 14   8  12  1   
 15   8  23  1   
 16   8  24  1   
 17   9  13  ar  
 18   9  14  ar  
 19  10  15  2   
 20  10  16  1   
 21  11  12  1   
 22  11  25  1   
 23  11  26  1   
 24  12  27  1   
 25  12  28  1   
 26  16  17  1   
 27  17  18  1   
 28  17  19  1   
 29  17  20  1   
 30  18  29  1   
 31  18  30  1   
 32  18  31  1   
 33  19  32  1   
 34  19  33  1   
 35  19  34  1   
 36  20  35  1   
 37  20  36  1   
 38  20  37  1   
@<TRIPOS>SUBSTRUCTURE
  1 ****   7 GROUP 4 **** **** 0

# MOE 2024.06 (io_trps.svl 2023.06)
