@<TRIPOS>MOLECULE
NONAME
56 58 1 0 0 
SMALL
USER_CHARGES


@<TRIPOS>ATOM
  1 O       -1.6470    -2.4330     0.6370 O.2   1 <1>  -0.5700 
  2 C       -2.3170    -1.6910    -0.0570 C.2   1 <1>   0.5440 
  3 N       -1.7030    -1.0430    -1.1150 N.am  1 <1>  -0.6600 
  4 C       -3.7220    -1.5400     0.2450 C.ar  1 <1>   0.0860 
  5 C       -0.2180    -0.9680    -1.2100 C.3   1 <1>   0.0600 
  6 C       -2.4170    -0.5870    -2.3390 C.3   1 <1>   0.0600 
  7 C       -4.4560    -2.6330     0.7020 C.ar  1 <1>   0.1600 
  8 C       -4.4110    -0.3370     0.1230 C.ar  1 <1>  -0.1500 
  9 N       -5.7460    -2.6420     1.0020 N.ar  1 <1>  -0.6200 
 10 C       -5.7480    -0.3210     0.4370 C.ar  1 <1>  -0.1500 
 11 C       -6.3790    -1.4820     0.8740 C.ar  1 <1>   0.4100 
 12 N       -7.7130    -1.4570     1.1880 N.pl3 1 <1>  -0.8690 
 13 C       -8.2800    -2.2580     2.3130 C.3   1 <1>   0.2090 
 14 C       -9.0590    -3.4680     1.7830 C.3   1 <1>   0.2000 
 15 O       -9.5610    -4.1750     2.8820 O.3   1 <1>  -0.5600 
 16 C       -8.1180    -4.3800     0.9760 C.3   1 <1>   0.3430 
 17 C      -10.8320    -4.7240     2.7420 C.3   1 <1>   0.1200 
 18 N       -8.7300    -5.6290     0.3990 N.4   1 <1>  -0.9590 
 19 C      -10.8590    -5.8070     1.6560 C.3   1 <1>  -0.1600 
 20 C       -9.4980    -6.4490     1.3840 C.3   1 <1>   0.3430 
 21 C       -7.6580    -6.4250    -0.2510 C.3   1 <1>   0.4860 
 22 C       -8.3050    -7.4830    -1.1230 C.ar  1 <1>  -0.1440 
 23 C       -8.9130    -7.1270    -2.3190 C.ar  1 <1>  -0.1500 
 24 C       -8.2980    -8.8140    -0.7300 C.ar  1 <1>  -0.1500 
 25 C       -9.5190    -8.0910    -3.1060 C.ar  1 <1>  -0.1500 
 26 C       -8.9050    -9.7760    -1.5180 C.ar  1 <1>  -0.1500 
 27 C       -9.5170    -9.4150    -2.7050 C.ar  1 <1>  -0.1500 
 28 H        0.2310    -1.1260    -0.2440 H     1 <1>   0.0800 
 29 H        0.0780     0.0020    -1.5680 H     1 <1>   0.0800 
 30 H        0.1410    -1.7240    -1.8860 H     1 <1>   0.0800 
 31 H       -3.4270    -0.9580    -2.3560 H     1 <1>   0.0800 
 32 H       -1.9100    -0.9540    -3.2140 H     1 <1>   0.0800 
 33 H       -2.4330     0.4890    -2.3700 H     1 <1>   0.0800 
 34 H       -3.9210    -3.5610     0.8230 H     1 <1>   0.1500 
 35 H       -3.9000     0.5530    -0.2000 H     1 <1>   0.1500 
 36 H       -6.3140     0.5880     0.3540 H     1 <1>   0.1500 
 37 H       -8.1510    -0.5340     1.1040 H     1 <1>   0.4000 
 38 H       -8.9410    -1.6350     2.8900 H     1 <1>   0.0800 
 39 H       -7.4840    -2.5930     2.9580 H     1 <1>   0.0800 
 40 H       -9.8730    -3.1130     1.1740 H     1 <1>   0.0800 
 41 H       -7.2960    -4.6430     1.6200 H     1 <1>   0.0800 
 42 H       -7.7080    -3.7910     0.1730 H     1 <1>   0.0800 
 43 H      -11.5390    -3.9370     2.5360 H     1 <1>   0.0800 
 44 H      -11.0840    -5.1590     3.6950 H     1 <1>   0.0800 
 45 H       -9.3800    -5.3650    -0.3480 H     1 <1>   0.4500 
 46 H      -11.2790    -5.4140     0.7480 H     1 <1>   0.0800 
 47 H      -11.5330    -6.5760     1.9920 H     1 <1>   0.0800 
 48 H       -8.9450    -6.5560     2.3040 H     1 <1>   0.0800 
 49 H       -9.6680    -7.4310     0.9730 H     1 <1>   0.0800 
 50 H       -7.0290    -6.8860     0.4930 H     1 <1>   0.0800 
 51 H       -7.0440    -5.7880    -0.8680 H     1 <1>   0.0800 
 52 H       -8.9190    -6.1050    -2.6580 H     1 <1>   0.1500 
 53 H       -7.8230    -9.1210     0.1860 H     1 <1>   0.1500 
 54 H       -9.9910    -7.8150    -4.0340 H     1 <1>   0.1500 
 55 H       -8.9000   -10.8100    -1.2140 H     1 <1>   0.1500 
 56 H       -9.9890   -10.1640    -3.3180 H     1 <1>   0.1500 
@<TRIPOS>BOND
  1   1   2  2   
  2   2   3  am  
  3   2   4  1   
  4   3   5  1   
  5   3   6  1   
  6   4   7  ar  
  7   4   8  ar  
  8   5  28  1   
  9   5  29  1   
 10   5  30  1   
 11   6  31  1   
 12   6  32  1   
 13   6  33  1   
 14   7   9  ar  
 15   7  34  1   
 16   8  10  ar  
 17   8  35  1   
 18   9  11  ar  
 19  10  11  ar  
 20  10  36  1   
 21  11  12  1   
 22  12  13  1   
 23  12  37  1   
 24  13  14  1   
 25  13  38  1   
 26  13  39  1   
 27  14  15  1   
 28  14  16  1   
 29  14  40  1   
 30  15  17  1   
 31  16  18  1   
 32  16  41  1   
 33  16  42  1   
 34  17  19  1   
 35  17  43  1   
 36  17  44  1   
 37  18  20  1   
 38  18  21  1   
 39  18  45  1   
 40  19  20  1   
 41  19  46  1   
 42  19  47  1   
 43  20  48  1   
 44  20  49  1   
 45  21  22  1   
 46  21  50  1   
 47  21  51  1   
 48  22  23  ar  
 49  22  24  ar  
 50  23  25  ar  
 51  23  52  1   
 52  24  26  ar  
 53  24  53  1   
 54  25  27  ar  
 55  25  54  1   
 56  26  27  ar  
 57  26  55  1   
 58  27  56  1   
@<TRIPOS>SUBSTRUCTURE
  1 ****  16 GROUP 4 **** **** 0

# MOE 2024.06 (io_trps.svl 2023.06)
