@<TRIPOS>MOLECULE
NONAME
42 44 1 0 0 
SMALL
USER_CHARGES


@<TRIPOS>ATOM
  1 CL      -0.2830    -2.2580    -1.1520 Cl    1 <1>  -0.1770 
  2 C       -1.8840    -2.2880    -0.4640 C.ar  1 <1>   0.1770 
  3 C       -2.9970    -2.2960    -1.2870 C.ar  1 <1>   0.1600 
  4 C       -2.0420    -2.3030     0.9020 C.ar  1 <1>  -0.1500 
  5 N       -4.2460    -2.3150    -0.8510 N.ar  1 <1>  -0.6200 
  6 C       -3.3410    -2.3270     1.3640 C.ar  1 <1>  -0.1500 
  7 C       -4.4310    -2.3300     0.4870 C.ar  1 <1>   0.3960 
  8 C       -5.7810    -2.3700     1.0590 C.2   1 <1>   0.5440 
  9 O       -5.9850    -3.1080     2.0100 O.2   1 <1>  -0.5700 
 10 N       -6.8400    -1.6010     0.5990 N.am  1 <1>  -0.6600 
 11 C       -8.2590    -1.9150     0.9530 C.3   1 <1>   0.1400 
 12 C       -6.7180    -0.4790    -0.3690 C.3   1 <1>   0.1400 
 13 C       -9.0560    -2.3180    -0.3150 C.3   1 <1>   0.0000 
 14 C       -7.4590    -0.8420    -1.6600 C.3   1 <1>  -0.1600 
 15 C      -10.5290    -2.6120     0.0200 C.3   1 <1>   0.2000 
 16 C       -8.9280    -1.2080    -1.3830 C.3   1 <1>  -0.1600 
 17 C       -8.5800    -3.6860    -0.8360 C.3   1 <1>  -0.1600 
 18 O      -11.0390    -1.6940     0.9420 O.3   1 <1>  -0.5600 
 19 C      -10.5510    -4.0390     0.5780 C.3   1 <1>  -0.1600 
 20 C       -9.2900    -4.7260     0.0350 C.3   1 <1>  -0.1600 
 21 C      -12.4260    -1.6990     1.0690 C.3   1 <1>   0.0400 
 22 H       -2.8410    -2.2870    -2.3520 H     1 <1>   0.1500 
 23 H       -1.1930    -2.3000     1.5630 H     1 <1>   0.1500 
 24 H       -3.5330    -2.3480     2.4230 H     1 <1>   0.1500 
 25 H       -8.3060    -2.7010     1.6840 H     1 <1>   0.0800 
 26 H       -8.7000    -1.0390     1.3960 H     1 <1>   0.0800 
 27 H       -7.1620     0.4000     0.0660 H     1 <1>   0.0800 
 28 H       -5.6890    -0.2550    -0.5800 H     1 <1>   0.0800 
 29 H       -7.4180    -0.0080    -2.3370 H     1 <1>   0.0800 
 30 H       -6.9530    -1.6680    -2.1290 H     1 <1>   0.0800 
 31 H      -11.1120    -2.5630    -0.8850 H     1 <1>   0.0800 
 32 H       -9.4020    -1.5150    -2.2990 H     1 <1>   0.0800 
 33 H       -9.4420    -0.3310    -1.0280 H     1 <1>   0.0800 
 34 H       -8.8960    -3.8140    -1.8560 H     1 <1>   0.0800 
 35 H       -7.5100    -3.8000    -0.7960 H     1 <1>   0.0800 
 36 H      -10.5110    -4.0190     1.6540 H     1 <1>   0.0800 
 37 H      -11.4370    -4.5560     0.2570 H     1 <1>   0.0800 
 38 H       -8.6500    -5.0060     0.8560 H     1 <1>   0.0800 
 39 H       -9.5300    -5.6080    -0.5340 H     1 <1>   0.0800 
 40 H      -12.6970    -0.9430     1.7840 H     1 <1>   0.0800 
 41 H      -12.7510    -2.6620     1.4210 H     1 <1>   0.0800 
 42 H      -12.8710    -1.4720     0.1160 H     1 <1>   0.0800 
@<TRIPOS>BOND
  1   1   2  1   
  2   2   3  ar  
  3   2   4  ar  
  4   3   5  ar  
  5   3  22  1   
  6   4   6  ar  
  7   4  23  1   
  8   5   7  ar  
  9   6   7  ar  
 10   6  24  1   
 11   7   8  1   
 12   8   9  2   
 13   8  10  am  
 14  10  11  1   
 15  10  12  1   
 16  11  13  1   
 17  11  25  1   
 18  11  26  1   
 19  12  14  1   
 20  12  27  1   
 21  12  28  1   
 22  13  15  1   
 23  13  16  1   
 24  13  17  1   
 25  14  16  1   
 26  14  29  1   
 27  14  30  1   
 28  15  18  1   
 29  15  19  1   
 30  15  31  1   
 31  16  32  1   
 32  16  33  1   
 33  17  20  1   
 34  17  34  1   
 35  17  35  1   
 36  18  21  1   
 37  19  20  1   
 38  19  36  1   
 39  19  37  1   
 40  20  38  1   
 41  20  39  1   
 42  21  40  1   
 43  21  41  1   
 44  21  42  1   
@<TRIPOS>SUBSTRUCTURE
  1 ****  10 GROUP 4 **** **** 0

# MOE 2024.06 (io_trps.svl 2023.06)
