@<TRIPOS>MOLECULE
NONAME
57 59 1 0 0 
SMALL
USER_CHARGES


@<TRIPOS>ATOM
  1 O       -0.5860    -1.1740     1.6940 O.2   1 <1>  -0.5700 
  2 C        0.0390    -1.9120     0.9690 C.2   1 <1>   0.5690 
  3 N        1.2360    -1.5120     0.4240 N.am  1 <1>  -0.6600 
  4 C       -0.6150    -3.2600     0.7080 C.3   1 <1>  -0.0990 
  5 C        2.0460    -2.3200    -0.5370 C.3   1 <1>   0.1400 
  6 C        1.8170    -0.1860     0.7740 C.3   1 <1>   0.1400 
  7 C        0.1710    -4.3270    -0.0540 C.3   1 <1>   0.1200 
  8 C        2.4960    -3.7090    -0.0020 C.3   1 <1>   0.2800 
  9 C        1.4800     0.8330    -0.3180 C.3   1 <1>  -0.1600 
 10 O        1.4340    -4.4670     0.5160 O.3   1 <1>  -0.5600 
 11 C        3.1200    -4.5300    -1.1520 C.3   1 <1>  -0.1600 
 12 C        3.4720    -3.5540     1.1840 C.3   1 <1>  -0.1600 
 13 C        2.1060     2.2000    -0.0090 C.3   1 <1>  -0.1600 
 14 C        4.2480    -5.4360    -0.6660 C.3   1 <1>   0.1400 
 15 C        4.9310    -3.4250     0.7400 C.3   1 <1>   0.1400 
 16 C        1.7610     3.2340    -1.0860 C.3   1 <1>  -0.0170 
 17 N        5.3430    -4.5860    -0.1070 N.am  1 <1>  -0.6600 
 18 C        2.4160     4.5680    -0.7690 C.ar  1 <1>  -0.1430 
 19 C        6.6570    -4.8310    -0.4270 C.2   1 <1>   0.5690 
 20 C        3.6730     4.8690    -1.2700 C.ar  1 <1>  -0.1500 
 21 C        1.7620     5.4960     0.0270 C.ar  1 <1>  -0.1500 
 22 O        6.9750    -5.7350    -1.1660 O.2   1 <1>  -0.5700 
 23 C        7.7890    -3.9580     0.1300 C.3   1 <1>   0.1810 
 24 C        4.2700     6.0840    -0.9810 C.ar  1 <1>  -0.1500 
 25 C        2.3580     6.7120     0.3170 C.ar  1 <1>  -0.1500 
 26 O        7.7880    -2.6690    -0.4190 O.3   1 <1>  -0.6800 
 27 C        3.6120     7.0070    -0.1870 C.ar  1 <1>  -0.1500 
 28 H       -1.5350    -3.0790     0.1860 H     1 <1>   0.0800 
 29 H       -0.8770    -3.6730     1.6640 H     1 <1>   0.0800 
 30 H        2.9300    -1.7690    -0.8020 H     1 <1>   0.0800 
 31 H        1.4870    -2.4350    -1.4490 H     1 <1>   0.0800 
 32 H        2.8840    -0.2760     0.8850 H     1 <1>   0.0800 
 33 H        1.4220     0.1540     1.7170 H     1 <1>   0.0800 
 34 H        0.2500    -4.1080    -1.1040 H     1 <1>   0.0800 
 35 H       -0.3290    -5.2740     0.0500 H     1 <1>   0.0800 
 36 H        0.4100     0.9340    -0.3750 H     1 <1>   0.0800 
 37 H        1.8450     0.4810    -1.2670 H     1 <1>   0.0800 
 38 H        3.5420    -3.8730    -1.8920 H     1 <1>   0.0800 
 39 H        2.3700    -5.1220    -1.6420 H     1 <1>   0.0800 
 40 H        3.4040    -4.4160     1.8250 H     1 <1>   0.0800 
 41 H        3.2050    -2.7010     1.7800 H     1 <1>   0.0800 
 42 H        3.1760     2.1030     0.0560 H     1 <1>   0.0800 
 43 H        1.7470     2.5530     0.9430 H     1 <1>   0.0800 
 44 H        4.6120    -6.0290    -1.4870 H     1 <1>   0.0800 
 45 H        3.8870    -6.1050     0.0970 H     1 <1>   0.0800 
 46 H        5.5570    -3.3720     1.6130 H     1 <1>   0.0800 
 47 H        5.0630    -2.5170     0.1760 H     1 <1>   0.0800 
 48 H        0.6930     3.3610    -1.1410 H     1 <1>   0.0800 
 49 H        2.0980     2.8880    -2.0470 H     1 <1>   0.0800 
 50 H        4.1930     4.1570    -1.8870 H     1 <1>   0.1500 
 51 H        0.7880     5.2750     0.4250 H     1 <1>   0.1500 
 52 H        8.7360    -4.4140    -0.0970 H     1 <1>   0.0800 
 53 H        7.7000    -3.8700     1.1970 H     1 <1>   0.0800 
 54 H        5.2450     6.3110    -1.3730 H     1 <1>   0.1500 
 55 H        1.8440     7.4270     0.9350 H     1 <1>   0.1500 
 56 H        7.8840    -2.7320    -1.3910 H     1 <1>   0.4000 
 57 H        4.0750     7.9520     0.0380 H     1 <1>   0.1500 
@<TRIPOS>BOND
  1   1   2  2   
  2   2   3  am  
  3   2   4  1   
  4   3   5  1   
  5   3   6  1   
  6   4   7  1   
  7   4  28  1   
  8   4  29  1   
  9   5   8  1   
 10   5  30  1   
 11   5  31  1   
 12   6   9  1   
 13   6  32  1   
 14   6  33  1   
 15   7  10  1   
 16   7  34  1   
 17   7  35  1   
 18   8  10  1   
 19   8  11  1   
 20   8  12  1   
 21   9  13  1   
 22   9  36  1   
 23   9  37  1   
 24  11  14  1   
 25  11  38  1   
 26  11  39  1   
 27  12  15  1   
 28  12  40  1   
 29  12  41  1   
 30  13  16  1   
 31  13  42  1   
 32  13  43  1   
 33  14  17  1   
 34  14  44  1   
 35  14  45  1   
 36  15  17  1   
 37  15  46  1   
 38  15  47  1   
 39  16  18  1   
 40  16  48  1   
 41  16  49  1   
 42  17  19  am  
 43  18  20  ar  
 44  18  21  ar  
 45  19  22  2   
 46  19  23  1   
 47  20  24  ar  
 48  20  50  1   
 49  21  25  ar  
 50  21  51  1   
 51  23  26  1   
 52  23  52  1   
 53  23  53  1   
 54  24  27  ar  
 55  24  54  1   
 56  25  27  ar  
 57  25  55  1   
 58  26  56  1   
 59  27  57  1   
@<TRIPOS>SUBSTRUCTURE
  1 ****   6 GROUP 4 **** **** 0

# MOE 2024.06 (io_trps.svl 2023.06)
