@<TRIPOS>MOLECULE
NONAME
51 54 1 0 0 
SMALL
USER_CHARGES


@<TRIPOS>ATOM
  1 S       -0.5480    -0.3730     0.2170 S.3   1 <1>  -0.0800 
  2 C       -0.2380     1.0480     1.2110 C.2   1 <1>   0.3250 
  3 C       -0.8100    -1.3240     1.6480 C.2   1 <1>  -0.1400 
  4 N       -0.2930     0.7800     2.4710 N.2   1 <1>  -0.5650 
  5 C        0.0780     2.3010     0.5710 C.ar  1 <1>   0.0530 
  6 C       -0.6140    -0.5360     2.7150 C.2   1 <1>   0.0770 
  7 C       -1.1770    -2.7790     1.4840 C.3   1 <1>   0.5230 
  8 C       -0.6770     2.8410    -0.4820 C.ar  1 <1>   0.0830 
  9 C        1.1820     3.0250     1.0210 C.ar  1 <1>  -0.1500 
 10 N       -2.6480    -2.9070     1.3020 N.4   1 <1>  -0.9590 
 11 O       -1.7880     2.1710    -0.8870 O.3   1 <1>  -0.3620 
 12 C       -0.2930     4.0460    -1.0690 C.ar  1 <1>  -0.1500 
 13 C        1.5530     4.2210     0.4410 C.ar  1 <1>  -0.1500 
 14 C       -3.2290    -2.1850     0.1340 C.3   1 <1>   0.3430 
 15 C       -3.1440    -4.3120     1.2180 C.3   1 <1>   0.3430 
 16 C       -2.7030     2.7220    -1.8110 C.3   1 <1>   0.0400 
 17 C        0.8160     4.7310    -0.6110 C.ar  1 <1>  -0.1500 
 18 C       -4.6010    -2.8340    -0.0440 C.3   1 <1>   0.2000 
 19 C       -4.3210    -4.3120     0.2250 C.3   1 <1>  -0.0800 
 20 O       -5.4260    -2.3660     0.9720 O.3   1 <1>  -0.6800 
 21 C       -3.9840    -5.0760    -1.0730 C.3   1 <1>   0.0200 
 22 C       -3.3730    -6.4310    -0.7740 C.2   1 <1>  -0.0400 
 23 O       -3.8740    -7.1740     0.1760 O.3   1 <1>  -0.0190 
 24 C       -2.3260    -7.0840    -1.3000 C.2   1 <1>  -0.1500 
 25 N       -3.2080    -8.2780     0.3280 N.2   1 <1>  -0.4100 
 26 C       -2.2760    -8.2600    -0.5560 C.2   1 <1>   0.1080 
 27 C       -1.2690    -9.3730    -0.7510 C.3   1 <1>  -0.0590 
 28 H       -0.6890    -0.8360     3.7480 H     1 <1>   0.1500 
 29 H       -0.8760    -3.3190     2.3670 H     1 <1>   0.0800 
 30 H       -0.6530    -3.1930     0.6370 H     1 <1>   0.0800 
 31 H        1.7580     2.6350     1.8430 H     1 <1>   0.1500 
 32 H       -3.1160    -2.4750     2.1140 H     1 <1>   0.4500 
 33 H       -0.8450     4.4720    -1.8840 H     1 <1>   0.1500 
 34 H        2.4130     4.7570     0.8060 H     1 <1>   0.1500 
 35 H       -3.3170    -1.1260     0.3160 H     1 <1>   0.0800 
 36 H       -2.6270    -2.3530    -0.7430 H     1 <1>   0.0800 
 37 H       -2.3640    -4.9730     0.8760 H     1 <1>   0.0800 
 38 H       -3.4780    -4.6470     2.1870 H     1 <1>   0.0800 
 39 H       -3.5300     2.0430    -1.9110 H     1 <1>   0.0800 
 40 H       -2.2120     2.8410    -2.7610 H     1 <1>   0.0800 
 41 H       -3.0520     3.6680    -1.4360 H     1 <1>   0.0800 
 42 H        1.1060     5.6620    -1.0690 H     1 <1>   0.1500 
 43 H       -5.0560    -2.6210    -0.9980 H     1 <1>   0.0800 
 44 H       -5.1720    -4.7930     0.6770 H     1 <1>   0.0800 
 45 H       -6.3600    -2.6330     0.8290 H     1 <1>   0.4000 
 46 H       -3.2960    -4.5180    -1.6850 H     1 <1>   0.0800 
 47 H       -4.8860    -5.2240    -1.6430 H     1 <1>   0.0800 
 48 H       -1.6600    -6.8120    -2.0990 H     1 <1>   0.1500 
 49 H       -0.2700    -8.9860    -0.6660 H     1 <1>   0.0800 
 50 H       -1.3970    -9.8140    -1.7220 H     1 <1>   0.0800 
 51 H       -1.4120   -10.1330    -0.0040 H     1 <1>   0.0800 
@<TRIPOS>BOND
  1   1   2  1   
  2   1   3  1   
  3   2   4  2   
  4   2   5  1   
  5   3   6  2   
  6   3   7  1   
  7   4   6  1   
  8   5   8  ar  
  9   5   9  ar  
 10   6  28  1   
 11   7  10  1   
 12   7  29  1   
 13   7  30  1   
 14   8  11  1   
 15   8  12  ar  
 16   9  13  ar  
 17   9  31  1   
 18  10  14  1   
 19  10  15  1   
 20  10  32  1   
 21  11  16  1   
 22  12  17  ar  
 23  12  33  1   
 24  13  17  ar  
 25  13  34  1   
 26  14  18  1   
 27  14  35  1   
 28  14  36  1   
 29  15  19  1   
 30  15  37  1   
 31  15  38  1   
 32  16  39  1   
 33  16  40  1   
 34  16  41  1   
 35  17  42  1   
 36  18  19  1   
 37  18  20  1   
 38  18  43  1   
 39  19  21  1   
 40  19  44  1   
 41  20  45  1   
 42  21  22  1   
 43  21  46  1   
 44  21  47  1   
 45  22  23  1   
 46  22  24  2   
 47  23  25  1   
 48  24  26  1   
 49  24  48  1   
 50  25  26  2   
 51  26  27  1   
 52  27  49  1   
 53  27  50  1   
 54  27  51  1   
@<TRIPOS>SUBSTRUCTURE
  1 ****  14 GROUP 4 **** **** 0

# MOE 2024.06 (io_trps.svl 2023.06)
