@<TRIPOS>MOLECULE
NONAME
42 43 1 0 0 
SMALL
USER_CHARGES


@<TRIPOS>ATOM
  1 O       -2.3930     0.6600    -1.9160 O.2   1 <1>  -0.5700 
  2 C       -2.1260     0.5830    -0.7430 C.2   1 <1>   0.5690 
  3 N       -1.9870    -0.6120    -0.1210 N.am  1 <1>  -0.7300 
  4 C       -1.9480     1.8480     0.0620 C.3   1 <1>  -0.0990 
  5 C       -2.0980    -1.9320    -0.7840 C.3   1 <1>   0.2200 
  6 C       -0.8160     2.6870    -0.5190 C.3   1 <1>   0.1200 
  7 C       -3.4150    -2.6150    -0.4410 C.3   1 <1>  -0.0800 
  8 C       -1.1110    -2.8910    -0.1340 C.3   1 <1>   0.1200 
  9 O       -0.6220     3.7770     0.3200 O.3   1 <1>  -0.5600 
 10 C       -3.1140    -3.2930     0.9010 C.3   1 <1>   0.1200 
 11 C       -4.6620    -1.7110    -0.4300 C.3   1 <1>  -0.0160 
 12 O       -1.7230    -3.2880     1.0540 O.3   1 <1>  -0.5600 
 13 C        0.3570     4.6570    -0.1200 C.3   1 <1>   0.1200 
 14 C       -5.9190    -2.5250    -0.1680 C.ar  1 <1>  -0.1440 
 15 C        0.4560     5.7810     0.9040 C.3   1 <1>  -0.2400 
 16 C       -6.5490    -3.2300    -1.1740 C.ar  1 <1>  -0.1500 
 17 C       -6.4960    -2.6030     1.0840 C.ar  1 <1>  -0.1500 
 18 C       -7.6880    -3.9630    -0.8860 C.ar  1 <1>   0.1600 
 19 C       -7.6370    -3.3670     1.2650 C.ar  1 <1>   0.1600 
 20 N       -8.2460    -4.0510     0.3100 N.ar  1 <1>  -0.6200 
 21 H       -1.7830    -0.6670     0.8800 H     1 <1>   0.3700 
 22 H       -2.8630     2.4090     0.0260 H     1 <1>   0.0800 
 23 H       -1.7240     1.6040     1.0830 H     1 <1>   0.0800 
 24 H       -1.9420    -1.8390    -1.8460 H     1 <1>   0.0800 
 25 H       -1.0760     3.0400    -1.5040 H     1 <1>   0.0800 
 26 H        0.0970     2.1170    -0.5630 H     1 <1>   0.0800 
 27 H       -3.5760    -3.3960    -1.1640 H     1 <1>   0.0800 
 28 H       -0.1610    -2.4330     0.0790 H     1 <1>   0.0800 
 29 H       -0.9700    -3.7670    -0.7430 H     1 <1>   0.0800 
 30 H       -3.4650    -4.3110     0.9210 H     1 <1>   0.0800 
 31 H       -3.5340    -2.7480     1.7280 H     1 <1>   0.0800 
 32 H       -4.7500    -1.2140    -1.3810 H     1 <1>   0.0800 
 33 H       -4.5680    -0.9490     0.3230 H     1 <1>   0.0800 
 34 H        1.2930     4.1290    -0.1960 H     1 <1>   0.0800 
 35 H        0.0710     5.0440    -1.0830 H     1 <1>   0.0800 
 36 H        0.7280     5.3810     1.8650 H     1 <1>   0.0800 
 37 H       -0.4860     6.2920     0.9810 H     1 <1>   0.0800 
 38 H        1.2070     6.4860     0.6000 H     1 <1>   0.0800 
 39 H       -6.1650    -3.2150    -2.1770 H     1 <1>   0.1500 
 40 H       -6.0700    -2.0790     1.9200 H     1 <1>   0.1500 
 41 H       -8.1660    -4.5070    -1.6830 H     1 <1>   0.1500 
 42 H       -8.0730    -3.4170     2.2480 H     1 <1>   0.1500 
@<TRIPOS>BOND
  1   1   2  2   
  2   2   3  am  
  3   2   4  1   
  4   3   5  1   
  5   3  21  1   
  6   4   6  1   
  7   4  22  1   
  8   4  23  1   
  9   5   7  1   
 10   5   8  1   
 11   5  24  1   
 12   6   9  1   
 13   6  25  1   
 14   6  26  1   
 15   7  10  1   
 16   7  11  1   
 17   7  27  1   
 18   8  12  1   
 19   8  28  1   
 20   8  29  1   
 21   9  13  1   
 22  10  12  1   
 23  10  30  1   
 24  10  31  1   
 25  11  14  1   
 26  11  32  1   
 27  11  33  1   
 28  13  15  1   
 29  13  34  1   
 30  13  35  1   
 31  14  16  ar  
 32  14  17  ar  
 33  15  36  1   
 34  15  37  1   
 35  15  38  1   
 36  16  18  ar  
 37  16  39  1   
 38  17  19  ar  
 39  17  40  1   
 40  18  20  ar  
 41  18  41  1   
 42  19  20  ar  
 43  19  42  1   
@<TRIPOS>SUBSTRUCTURE
  1 ****   3 GROUP 4 **** **** 0

# MOE 2024.06 (io_trps.svl 2023.06)
