@<TRIPOS>MOLECULE
NONAME
51 53 1 0 0 
SMALL
USER_CHARGES


@<TRIPOS>ATOM
  1 CL      -0.2730     0.1900    -1.0720 Cl    1 <1>  -0.1770 
  2 C       -1.9070     0.5710    -0.5980 C.ar  1 <1>   0.1770 
  3 C       -2.7540    -0.4430    -0.1940 C.ar  1 <1>  -0.1500 
  4 C       -2.3370     1.8840    -0.6290 C.ar  1 <1>  -0.1500 
  5 C       -4.0490    -0.1350     0.1830 C.ar  1 <1>  -0.1500 
  6 C       -3.6350     2.1800    -0.2520 C.ar  1 <1>  -0.1500 
  7 C       -4.5210     1.1800     0.1590 C.ar  1 <1>   0.0530 
  8 C       -5.8640     1.5180     0.5590 C.2   1 <1>   0.0870 
  9 O       -6.0610     2.5930     1.2810 O.3   1 <1>  -0.0190 
 10 C       -7.0840     0.9420     0.3660 C.2   1 <1>  -0.0860 
 11 N       -7.3140     2.7790     1.5950 N.2   1 <1>  -0.4100 
 12 C       -7.9470     1.8070     1.0530 C.2   1 <1>   0.3720 
 13 C       -7.4660    -0.2430    -0.3430 C.2   1 <1>   0.7160 
 14 N       -9.3270     1.7130     1.1870 N.pl3 1 <1>  -0.8520 
 15 O       -6.7020    -0.8190    -1.0910 O.2   1 <1>  -0.5700 
 16 N       -8.7160    -0.7520    -0.1760 N.am  1 <1>  -0.7300 
 17 C      -10.0890     2.1980     0.0020 C.3   1 <1>   0.2090 
 18 C       -9.3100    -1.9410    -0.8520 C.3   1 <1>   0.1400 
 19 C      -11.4650     1.5320    -0.0500 C.3   1 <1>   0.1200 
 20 C       -9.7200    -3.0450     0.1470 C.3   1 <1>   0.2800 
 21 O      -12.1410     2.0010    -1.1720 O.3   1 <1>  -0.5600 
 22 O      -10.3470    -4.0460    -0.5920 O.3   1 <1>  -0.5600 
 23 C       -8.5100    -3.7170     0.8040 C.3   1 <1>  -0.1600 
 24 C      -10.7400    -2.5450     1.1750 C.3   1 <1>  -0.2400 
 25 C      -13.3980     1.4310    -1.3530 C.3   1 <1>   0.0400 
 26 C       -9.5780    -5.2070    -0.6840 C.3   1 <1>   0.1200 
 27 C       -8.2030    -4.8610    -0.1380 C.3   1 <1>  -0.1600 
 28 H       -2.4020    -1.4590    -0.1780 H     1 <1>   0.1500 
 29 H       -1.6620     2.6580    -0.9460 H     1 <1>   0.1500 
 30 H       -4.7050    -0.9260     0.5000 H     1 <1>   0.1500 
 31 H       -3.9720     3.2020    -0.2750 H     1 <1>   0.1500 
 32 H       -9.5810     2.3070     1.9870 H     1 <1>   0.4000 
 33 H       -9.3240    -0.2230     0.4620 H     1 <1>   0.3700 
 34 H       -9.5520     1.9660    -0.9030 H     1 <1>   0.0800 
 35 H      -10.2100     3.2660     0.0680 H     1 <1>   0.0800 
 36 H       -8.6030    -2.3460    -1.5560 H     1 <1>   0.0800 
 37 H      -10.1800    -1.6240    -1.3990 H     1 <1>   0.0800 
 38 H      -12.0370     1.7840     0.8260 H     1 <1>   0.0800 
 39 H      -11.3590     0.4640    -0.1360 H     1 <1>   0.0800 
 40 H       -8.7830    -4.1050     1.7700 H     1 <1>   0.0800 
 41 H       -7.6760    -3.0490     0.9240 H     1 <1>   0.0800 
 42 H      -11.5770    -2.0950     0.6750 H     1 <1>   0.0800 
 43 H      -10.2910    -1.8170     1.8250 H     1 <1>   0.0800 
 44 H      -11.0910    -3.3660     1.7750 H     1 <1>   0.0800 
 45 H      -13.8350     1.8610    -2.2370 H     1 <1>   0.0800 
 46 H      -14.0160     1.6510    -0.5000 H     1 <1>   0.0800 
 47 H      -13.2920     0.3680    -1.4830 H     1 <1>   0.0800 
 48 H       -9.5440    -5.5280    -1.7110 H     1 <1>   0.0800 
 49 H      -10.0540    -5.9600    -0.0790 H     1 <1>   0.0800 
 50 H       -7.7410    -5.6970     0.3570 H     1 <1>   0.0800 
 51 H       -7.5700    -4.5290    -0.9420 H     1 <1>   0.0800 
@<TRIPOS>BOND
  1   1   2  1   
  2   2   3  ar  
  3   2   4  ar  
  4   3   5  ar  
  5   3  28  1   
  6   4   6  ar  
  7   4  29  1   
  8   5   7  ar  
  9   5  30  1   
 10   6   7  ar  
 11   6  31  1   
 12   7   8  1   
 13   8   9  1   
 14   8  10  2   
 15   9  11  1   
 16  10  12  1   
 17  10  13  1   
 18  11  12  2   
 19  12  14  1   
 20  13  15  2   
 21  13  16  am  
 22  14  17  1   
 23  14  32  1   
 24  16  18  1   
 25  16  33  1   
 26  17  19  1   
 27  17  34  1   
 28  17  35  1   
 29  18  20  1   
 30  18  36  1   
 31  18  37  1   
 32  19  21  1   
 33  19  38  1   
 34  19  39  1   
 35  20  22  1   
 36  20  23  1   
 37  20  24  1   
 38  21  25  1   
 39  22  26  1   
 40  23  27  1   
 41  23  40  1   
 42  23  41  1   
 43  24  42  1   
 44  24  43  1   
 45  24  44  1   
 46  25  45  1   
 47  25  46  1   
 48  25  47  1   
 49  26  27  1   
 50  26  48  1   
 51  26  49  1   
 52  27  50  1   
 53  27  51  1   
@<TRIPOS>SUBSTRUCTURE
  1 ****  13 GROUP 4 **** **** 0

# MOE 2024.06 (io_trps.svl 2023.06)
