@<TRIPOS>MOLECULE
NONAME
50 52 1 0 0 
SMALL
USER_CHARGES


@<TRIPOS>ATOM
  1 O       -0.3490     0.3730    -0.1770 O.2   1 <1>  -0.5700 
  2 C       -0.3410     1.5510     0.0950 C.2   1 <1>   0.5690 
  3 N       -1.4800     2.3120     0.2020 N.am  1 <1>  -0.6600 
  4 C        1.0290     2.2000     0.3050 C.3   1 <1>   0.1810 
  5 C       -1.3900     3.7710     0.5590 C.3   1 <1>   0.3640 
  6 C       -2.8620     1.7490     0.2350 C.3   1 <1>   0.2200 
  7 O        0.9750     3.3690     1.0820 O.3   1 <1>  -0.5600 
  8 C       -2.2030     4.6070    -0.4330 C.ar  1 <1>  -0.1440 
  9 C        0.0570     4.3260     0.5960 C.3   1 <1>   0.2610 
 10 C       -3.0250     0.8140     1.4330 C.3   1 <1>  -0.2400 
 11 C       -3.2150     1.0580    -1.0820 C.3   1 <1>  -0.2400 
 12 C       -2.0910     4.4090    -1.8030 C.ar  1 <1>  -0.1500 
 13 C       -3.0610     5.5920     0.0350 C.ar  1 <1>  -0.1500 
 14 C        0.1470     5.6370     1.4000 C.2   1 <1>   0.5690 
 15 C       -2.8240     5.1790    -2.6890 C.ar  1 <1>  -0.1500 
 16 C       -3.7950     6.3640    -0.8490 C.ar  1 <1>  -0.1500 
 17 O       -0.7050     5.8690     2.2330 O.2   1 <1>  -0.5700 
 18 N        1.1600     6.5390     1.1640 N.am  1 <1>  -0.6600 
 19 C       -3.6770     6.1580    -2.2120 C.ar  1 <1>  -0.1500 
 20 C        2.3660     6.2740     0.3310 C.3   1 <1>   0.1400 
 21 C        1.1390     7.9050     1.7560 C.3   1 <1>   0.1400 
 22 C        2.4120     7.2810    -0.8230 C.3   1 <1>  -0.1600 
 23 C        1.1800     8.9440     0.6290 C.3   1 <1>  -0.1600 
 24 C        2.3800     8.7270    -0.3050 C.3   1 <1>  -0.1600 
 25 H        1.4630     2.4400    -0.6480 H     1 <1>   0.0800 
 26 H        1.6730     1.5040     0.8120 H     1 <1>   0.0800 
 27 H       -1.8210     3.8760     1.5400 H     1 <1>   0.0800 
 28 H       -3.5620     2.5580     0.3650 H     1 <1>   0.0800 
 29 H        0.3420     4.5540    -0.4140 H     1 <1>   0.0800 
 30 H       -2.4090    -0.0600     1.3250 H     1 <1>   0.0800 
 31 H       -4.0480     0.4960     1.5090 H     1 <1>   0.0800 
 32 H       -2.7590     1.3250     2.3410 H     1 <1>   0.0800 
 33 H       -2.6160     0.1790    -1.2350 H     1 <1>   0.0800 
 34 H       -3.0740     1.7310    -1.9060 H     1 <1>   0.0800 
 35 H       -4.2470     0.7580    -1.0660 H     1 <1>   0.0800 
 36 H       -1.4340     3.6480    -2.1880 H     1 <1>   0.1500 
 37 H       -3.1580     5.7710     1.0930 H     1 <1>   0.1500 
 38 H       -2.7320     5.0160    -3.7480 H     1 <1>   0.1500 
 39 H       -4.4560     7.1260    -0.4750 H     1 <1>   0.1500 
 40 H       -4.2480     6.7580    -2.8990 H     1 <1>   0.1500 
 41 H        3.2420     6.3890     0.9460 H     1 <1>   0.0800 
 42 H        2.3700     5.2710    -0.0540 H     1 <1>   0.0800 
 43 H        0.2520     8.0530     2.3490 H     1 <1>   0.0800 
 44 H        1.9940     8.0230     2.3990 H     1 <1>   0.0800 
 45 H        3.3080     7.1240    -1.3980 H     1 <1>   0.0800 
 46 H        1.5700     7.1090    -1.4720 H     1 <1>   0.0800 
 47 H        0.2650     8.8750     0.0660 H     1 <1>   0.0800 
 48 H        1.2260     9.9290     1.0560 H     1 <1>   0.0800 
 49 H        2.3250     9.4110    -1.1340 H     1 <1>   0.0800 
 50 H        3.2900     8.9320     0.2340 H     1 <1>   0.0800 
@<TRIPOS>BOND
  1   1   2  2   
  2   2   3  am  
  3   2   4  1   
  4   3   5  1   
  5   3   6  1   
  6   4   7  1   
  7   4  25  1   
  8   4  26  1   
  9   5   8  1   
 10   5   9  1   
 11   5  27  1   
 12   6  10  1   
 13   6  11  1   
 14   6  28  1   
 15   7   9  1   
 16   8  12  ar  
 17   8  13  ar  
 18   9  14  1   
 19   9  29  1   
 20  10  30  1   
 21  10  31  1   
 22  10  32  1   
 23  11  33  1   
 24  11  34  1   
 25  11  35  1   
 26  12  15  ar  
 27  12  36  1   
 28  13  16  ar  
 29  13  37  1   
 30  14  17  2   
 31  14  18  am  
 32  15  19  ar  
 33  15  38  1   
 34  16  19  ar  
 35  16  39  1   
 36  18  20  1   
 37  18  21  1   
 38  19  40  1   
 39  20  22  1   
 40  20  41  1   
 41  20  42  1   
 42  21  23  1   
 43  21  43  1   
 44  21  44  1   
 45  22  24  1   
 46  22  45  1   
 47  22  46  1   
 48  23  24  1   
 49  23  47  1   
 50  23  48  1   
 51  24  49  1   
 52  24  50  1   
@<TRIPOS>SUBSTRUCTURE
  1 ****   9 GROUP 4 **** **** 0

# MOE 2024.06 (io_trps.svl 2023.06)
