@<TRIPOS>MOLECULE
NONAME
53 55 1 0 0 
SMALL
USER_CHARGES


@<TRIPOS>ATOM
  1 O       -0.1040     1.1690     1.0620 O.2   1 <1>  -0.5700 
  2 C       -0.2370     2.3180     0.7110 C.2   1 <1>   0.5690 
  3 N       -1.3770     3.0350     0.9530 N.am  1 <1>  -0.6600 
  4 C        0.9090     2.9770    -0.0540 C.3   1 <1>   0.1810 
  5 C       -1.5390     4.4410     0.4520 C.3   1 <1>   0.3640 
  6 C       -2.5150     2.4830     1.7450 C.3   1 <1>   0.0600 
  7 O        0.9070     4.3760     0.0800 O.3   1 <1>  -0.5600 
  8 C       -2.8330     4.5760    -0.3710 C.ar  1 <1>  -0.1440 
  9 C       -0.3090     5.0050    -0.3120 C.3   1 <1>   0.2610 
 10 C       -3.1840     3.7610    -1.4530 C.ar  1 <1>  -0.1440 
 11 C       -3.7060     5.5900     0.0080 C.ar  1 <1>  -0.1500 
 12 C       -0.2070     6.5190    -0.0790 C.2   1 <1>   0.5690 
 13 C       -4.3880     3.9780    -2.1100 C.ar  1 <1>  -0.1500 
 14 C       -2.3180     2.6160    -1.9670 C.3   1 <1>  -0.0960 
 15 C       -4.9000     5.7980    -0.6540 C.ar  1 <1>  -0.1500 
 16 O       -1.0940     7.2470    -0.4550 O.2   1 <1>  -0.5700 
 17 N        0.8890     7.0150     0.5580 N.am  1 <1>  -0.7300 
 18 C       -5.2440     4.9880    -1.7170 C.ar  1 <1>  -0.1500 
 19 C        1.1650     8.4360     0.8450 C.3   1 <1>   0.1400 
 20 C        2.5080     8.8200     0.2270 C.3   1 <1>  -0.1600 
 21 C        2.8260    10.3010     0.4670 C.3   1 <1>  -0.0170 
 22 C        4.1720    10.6620    -0.1390 C.ar  1 <1>  -0.1440 
 23 C        4.2580    11.0500    -1.4680 C.ar  1 <1>  -0.1500 
 24 C        5.3250    10.6080     0.6280 C.ar  1 <1>  -0.1500 
 25 C        5.4820    11.3810    -2.0230 C.ar  1 <1>  -0.1500 
 26 C        6.5510    10.9390     0.0740 C.ar  1 <1>  -0.1500 
 27 C        6.6290    11.3260    -1.2520 C.ar  1 <1>  -0.1500 
 28 H        0.8450     2.7280    -1.0960 H     1 <1>   0.0800 
 29 H        1.8450     2.6150     0.3320 H     1 <1>   0.0800 
 30 H       -1.6490     5.0510     1.3320 H     1 <1>   0.0800 
 31 H       -2.7630     3.1570     2.5460 H     1 <1>   0.0800 
 32 H       -2.2570     1.5270     2.1660 H     1 <1>   0.0800 
 33 H       -3.3760     2.3580     1.1110 H     1 <1>   0.0800 
 34 H       -0.4330     4.8490    -1.3660 H     1 <1>   0.0800 
 35 H       -3.4590     6.2440     0.8270 H     1 <1>   0.1500 
 36 H       -4.6730     3.3560    -2.9400 H     1 <1>   0.1500 
 37 H       -2.6810     2.2550    -2.9130 H     1 <1>   0.0800 
 38 H       -2.3390     1.7970    -1.2720 H     1 <1>   0.0800 
 39 H       -1.3060     2.9350    -2.1120 H     1 <1>   0.0800 
 40 H       -5.5570     6.5920    -0.3460 H     1 <1>   0.1500 
 41 H        1.6190     6.3400     0.8100 H     1 <1>   0.3700 
 42 H       -6.1720     5.1440    -2.2370 H     1 <1>   0.1500 
 43 H        0.3810     9.0510     0.4320 H     1 <1>   0.0800 
 44 H        1.1880     8.5840     1.9110 H     1 <1>   0.0800 
 45 H        3.2900     8.2190     0.6580 H     1 <1>   0.0800 
 46 H        2.4770     8.6360    -0.8330 H     1 <1>   0.0800 
 47 H        2.8410    10.5060     1.5230 H     1 <1>   0.0800 
 48 H        2.0590    10.9140     0.0260 H     1 <1>   0.0800 
 49 H        3.3710    11.0950    -2.0760 H     1 <1>   0.1500 
 50 H        5.2760    10.3070     1.6590 H     1 <1>   0.1500 
 51 H        5.5400    11.6810    -3.0540 H     1 <1>   0.1500 
 52 H        7.4420    10.8950     0.6750 H     1 <1>   0.1500 
 53 H        7.5810    11.5830    -1.6830 H     1 <1>   0.1500 
@<TRIPOS>BOND
  1   1   2  2   
  2   2   3  am  
  3   2   4  1   
  4   3   5  1   
  5   3   6  1   
  6   4   7  1   
  7   4  28  1   
  8   4  29  1   
  9   5   8  1   
 10   5   9  1   
 11   5  30  1   
 12   6  31  1   
 13   6  32  1   
 14   6  33  1   
 15   7   9  1   
 16   8  10  ar  
 17   8  11  ar  
 18   9  12  1   
 19   9  34  1   
 20  10  13  ar  
 21  10  14  1   
 22  11  15  ar  
 23  11  35  1   
 24  12  16  2   
 25  12  17  am  
 26  13  18  ar  
 27  13  36  1   
 28  14  37  1   
 29  14  38  1   
 30  14  39  1   
 31  15  18  ar  
 32  15  40  1   
 33  17  19  1   
 34  17  41  1   
 35  18  42  1   
 36  19  20  1   
 37  19  43  1   
 38  19  44  1   
 39  20  21  1   
 40  20  45  1   
 41  20  46  1   
 42  21  22  1   
 43  21  47  1   
 44  21  48  1   
 45  22  23  ar  
 46  22  24  ar  
 47  23  25  ar  
 48  23  49  1   
 49  24  26  ar  
 50  24  50  1   
 51  25  27  ar  
 52  25  51  1   
 53  26  27  ar  
 54  26  52  1   
 55  27  53  1   
@<TRIPOS>SUBSTRUCTURE
  1 ****  12 GROUP 4 **** **** 0

# MOE 2024.06 (io_trps.svl 2023.06)
