@<TRIPOS>MOLECULE
NONAME
24 24 1 0 0 
SMALL
USER_CHARGES


@<TRIPOS>ATOM
  1 O       -0.7930    -0.4200    -1.7390 O.3   1 <1>  -0.6800 
  2 C       -1.8090     0.2590    -1.0490 C.3   1 <1>   0.1200 
  3 C       -2.4620    -0.6700     0.0120 C.3   1 <1>   0.5030 
  4 N       -1.3660    -1.4990     0.5870 N.4   1 <1>  -0.9060 
  5 C       -3.5480    -1.5650    -0.6660 C.3   1 <1>   0.1100 
  6 C       -3.0750     0.1510     1.1470 C.3   1 <1>  -0.2400 
  7 C       -1.7570    -2.8930     0.9670 C.3   1 <1>   0.3430 
  8 N       -2.9920    -2.8010    -1.2510 N.3   1 <1>  -0.9000 
  9 C       -2.3630    -3.6650    -0.2320 C.3   1 <1>   0.1100 
 10 H       -0.4460     0.1260    -2.4820 H     1 <1>   0.4000 
 11 H       -2.5400     0.6030    -1.7610 H     1 <1>   0.0800 
 12 H       -1.3650     1.1190    -0.5780 H     1 <1>   0.0800 
 13 H       -0.8850    -0.9980     1.3360 H     1 <1>   0.4500 
 14 H       -0.7130    -1.5550    -0.2150 H     1 <1>   0.4500 
 15 H       -4.0600    -1.0090    -1.4330 H     1 <1>   0.0800 
 16 H       -4.2950    -1.8400     0.0600 H     1 <1>   0.0800 
 17 H       -2.3400     0.7860     1.6090 H     1 <1>   0.0800 
 18 H       -3.5050    -0.4920     1.8950 H     1 <1>   0.0800 
 19 H       -3.8600     0.7790     0.7620 H     1 <1>   0.0800 
 20 H       -2.4920    -2.8530     1.7550 H     1 <1>   0.0800 
 21 H       -0.9040    -3.4340     1.3440 H     1 <1>   0.0800 
 22 H       -2.2950    -2.5450    -1.9700 H     1 <1>   0.3600 
 23 H       -3.1000    -4.3550     0.1440 H     1 <1>   0.0800 
 24 H       -1.5960    -4.2550    -0.7050 H     1 <1>   0.0800 
@<TRIPOS>BOND
  1   1   2  1   
  2   1  10  1   
  3   2   3  1   
  4   2  11  1   
  5   2  12  1   
  6   3   4  1   
  7   3   5  1   
  8   3   6  1   
  9   4   7  1   
 10   4  13  1   
 11   4  14  1   
 12   5   8  1   
 13   5  15  1   
 14   5  16  1   
 15   6  17  1   
 16   6  18  1   
 17   6  19  1   
 18   7   9  1   
 19   7  20  1   
 20   7  21  1   
 21   8   9  1   
 22   8  22  1   
 23   9  23  1   
 24   9  24  1   
@<TRIPOS>SUBSTRUCTURE
  1 ****   3 GROUP 4 **** **** 0

# MOE 2024.06 (io_trps.svl 2023.06)
