@<TRIPOS>MOLECULE
NONAME
44 46 1 0 0 
SMALL
USER_CHARGES


@<TRIPOS>ATOM
  1 CL       0.6830     2.2620     2.8010 Cl    1 <1>  -0.1770 
  2 C        0.5310     2.7110     1.1180 C.ar  1 <1>   0.1770 
  3 C        1.4570     2.2870     0.1710 C.ar  1 <1>  -0.1440 
  4 C       -0.5580     3.4890     0.7690 C.ar  1 <1>  -0.1500 
  5 C        1.2420     2.6460    -1.1560 C.ar  1 <1>  -0.1500 
  6 C        2.6750     1.4480     0.5550 C.3   1 <1>   0.3640 
  7 C       -0.7470     3.8490    -0.5530 C.ar  1 <1>  -0.1500 
  8 C        0.1520     3.4220    -1.5140 C.ar  1 <1>  -0.1500 
  9 N        2.5650     0.1500    -0.1520 N.am  1 <1>  -0.7300 
 10 C        4.0070     2.1650     0.2030 C.3   1 <1>   0.2610 
 11 C        3.6140    -0.4820    -0.7230 C.2   1 <1>   0.5690 
 12 O        5.0940     1.2500     0.2090 O.3   1 <1>  -0.5600 
 13 C        4.2820     3.3570     1.1320 C.2   1 <1>   0.5690 
 14 O        3.4710    -1.5550    -1.2510 O.2   1 <1>  -0.5700 
 15 C        4.9880     0.1970    -0.7260 C.3   1 <1>   0.1810 
 16 O        3.7260     3.4140     2.2070 O.2   1 <1>  -0.5700 
 17 N        5.1320     4.3570     0.7360 N.am  1 <1>  -0.6600 
 18 C        6.0420     4.3210    -0.4350 C.3   1 <1>   0.1400 
 19 C        5.4400     5.5170     1.5980 C.3   1 <1>   0.1400 
 20 C        7.1550     5.3290    -0.1140 C.3   1 <1>   0.0000 
 21 C        6.4590     6.3340     0.8100 C.3   1 <1>  -0.1600 
 22 C        8.3070     4.6300     0.6310 C.3   1 <1>  -0.2400 
 23 C        7.7020     6.0090    -1.3770 C.3   1 <1>  -0.2400 
 24 H       -1.2500     3.8050     1.5290 H     1 <1>   0.1500 
 25 H        1.9190     2.3180    -1.9270 H     1 <1>   0.1500 
 26 H        2.6770     1.2420     1.6110 H     1 <1>   0.0800 
 27 H       -1.5930     4.4540    -0.8320 H     1 <1>   0.1500 
 28 H        0.0010     3.6950    -2.5450 H     1 <1>   0.1500 
 29 H        1.6600    -0.3210    -0.1280 H     1 <1>   0.3700 
 30 H        3.9320     2.5550    -0.7940 H     1 <1>   0.0800 
 31 H        5.1870     0.5920    -1.7040 H     1 <1>   0.0800 
 32 H        5.7420    -0.5300    -0.4850 H     1 <1>   0.0800 
 33 H        6.4410     3.3340    -0.5930 H     1 <1>   0.0800 
 34 H        5.4940     4.6330    -1.3070 H     1 <1>   0.0800 
 35 H        4.5480     6.0830     1.8080 H     1 <1>   0.0800 
 36 H        5.8670     5.1640     2.5220 H     1 <1>   0.0800 
 37 H        5.9250     7.0660     0.2300 H     1 <1>   0.0800 
 38 H        7.1430     6.8490     1.4610 H     1 <1>   0.0800 
 39 H        9.0530     5.3450     0.9280 H     1 <1>   0.0800 
 40 H        8.7740     3.8960    -0.0020 H     1 <1>   0.0800 
 41 H        7.9450     4.1300     1.5120 H     1 <1>   0.0800 
 42 H        8.4420     6.7440    -1.1140 H     1 <1>   0.0800 
 43 H        6.9120     6.5020    -1.9160 H     1 <1>   0.0800 
 44 H        8.1570     5.2840    -2.0280 H     1 <1>   0.0800 
@<TRIPOS>BOND
  1   1   2  1   
  2   2   3  ar  
  3   2   4  ar  
  4   3   5  ar  
  5   3   6  1   
  6   4   7  ar  
  7   4  24  1   
  8   5   8  ar  
  9   5  25  1   
 10   6   9  1   
 11   6  10  1   
 12   6  26  1   
 13   7   8  ar  
 14   7  27  1   
 15   8  28  1   
 16   9  11  am  
 17   9  29  1   
 18  10  12  1   
 19  10  13  1   
 20  10  30  1   
 21  11  14  2   
 22  11  15  1   
 23  12  15  1   
 24  13  16  2   
 25  13  17  am  
 26  15  31  1   
 27  15  32  1   
 28  17  18  1   
 29  17  19  1   
 30  18  20  1   
 31  18  33  1   
 32  18  34  1   
 33  19  21  1   
 34  19  35  1   
 35  19  36  1   
 36  20  21  1   
 37  20  22  1   
 38  20  23  1   
 39  21  37  1   
 40  21  38  1   
 41  22  39  1   
 42  22  40  1   
 43  22  41  1   
 44  23  42  1   
 45  23  43  1   
 46  23  44  1   
@<TRIPOS>SUBSTRUCTURE
  1 ****  10 GROUP 4 **** **** 0

# MOE 2024.06 (io_trps.svl 2023.06)
