@<TRIPOS>MOLECULE
NONAME
50 51 1 0 0 
SMALL
USER_CHARGES


@<TRIPOS>ATOM
  1 CL      -0.2510    -0.0110    -0.6060 Cl    1 <1>  -0.1770 
  2 C       -1.7860    -0.7800    -0.2930 C.ar  1 <1>   0.1770 
  3 C       -2.7420    -0.8170    -1.2900 C.ar  1 <1>  -0.1500 
  4 C       -2.0210    -1.3420     0.9480 C.ar  1 <1>  -0.1500 
  5 C       -3.9590    -1.4280    -1.0380 C.ar  1 <1>  -0.1500 
  6 C       -3.2400    -1.9520     1.1930 C.ar  1 <1>  -0.1500 
  7 C       -4.2130    -1.9950     0.2040 C.ar  1 <1>  -0.1430 
  8 C       -5.5490    -2.6670     0.4790 C.3   1 <1>  -0.0160 
  9 C       -5.4700    -4.1670     0.1740 C.3   1 <1>  -0.1600 
 10 C       -6.8100    -4.8770     0.4460 C.3   1 <1>  -0.0990 
 11 C       -6.7970    -6.3710     0.1400 C.2   1 <1>   0.5690 
 12 O       -5.7400    -6.9470     0.0480 O.2   1 <1>  -0.5700 
 13 N       -7.9800    -7.0390    -0.0070 N.am  1 <1>  -0.6600 
 14 C       -9.3410    -6.5220     0.2830 C.3   1 <1>   0.1400 
 15 C       -8.0410    -8.4900    -0.3210 C.3   1 <1>   0.1400 
 16 C      -10.1260    -7.7680     0.6830 C.3   1 <1>   0.2000 
 17 C       -9.5250    -8.8680    -0.1950 C.3   1 <1>  -0.0800 
 18 O       -9.8440    -8.0440     2.0130 O.3   1 <1>  -0.6800 
 19 C       -9.7730   -10.2990     0.3230 C.3   1 <1>  -0.0550 
 20 S       -9.2510   -11.5650    -0.8300 S.o2  1 <1>   1.3330 
 21 O      -10.0400   -11.4100    -2.0310 O.2   1 <1>  -0.6500 
 22 O       -7.8090   -11.5640    -0.9170 O.2   1 <1>  -0.6500 
 23 N       -9.7260   -13.0030    -0.0630 N.am  1 <1>  -0.8490 
 24 C       -8.7750   -13.4590     0.9580 C.3   1 <1>   0.1160 
 25 C       -9.9820   -14.0820    -1.0210 C.3   1 <1>   0.1160 
 26 H       -2.5340    -0.3750    -2.2470 H     1 <1>   0.1500 
 27 H       -1.2610    -1.3030     1.7060 H     1 <1>   0.1500 
 28 H       -4.7050    -1.4620    -1.8120 H     1 <1>   0.1500 
 29 H       -3.4280    -2.3940     2.1560 H     1 <1>   0.1500 
 30 H       -5.8170    -2.5170     1.5100 H     1 <1>   0.0800 
 31 H       -6.3120    -2.2100    -0.1270 H     1 <1>   0.0800 
 32 H       -4.6990    -4.6120     0.7820 H     1 <1>   0.0800 
 33 H       -5.1940    -4.3090    -0.8570 H     1 <1>   0.0800 
 34 H       -7.5710    -4.4140    -0.1540 H     1 <1>   0.0800 
 35 H       -7.0720    -4.7550     1.4810 H     1 <1>   0.0800 
 36 H       -9.3430    -5.7850     1.0680 H     1 <1>   0.0800 
 37 H       -9.7540    -6.1000    -0.6160 H     1 <1>   0.0800 
 38 H       -7.6670    -8.6790    -1.3140 H     1 <1>   0.0800 
 39 H       -7.4370    -9.0310     0.3890 H     1 <1>   0.0800 
 40 H      -11.1920    -7.6570     0.5700 H     1 <1>   0.0800 
 41 H       -9.9650    -8.7800    -1.1740 H     1 <1>   0.0800 
 42 H       -8.8750    -7.9830     2.1440 H     1 <1>   0.4000 
 43 H      -10.8240   -10.4170     0.5070 H     1 <1>   0.0800 
 44 H       -9.2650   -10.4360     1.2570 H     1 <1>   0.0800 
 45 H       -9.1660   -14.3240     1.4670 H     1 <1>   0.0800 
 46 H       -8.6100   -12.6840     1.6860 H     1 <1>   0.0800 
 47 H       -7.8310   -13.7150     0.5060 H     1 <1>   0.0800 
 48 H      -10.2970   -14.9730    -0.5060 H     1 <1>   0.0800 
 49 H       -9.0920   -14.2960    -1.5910 H     1 <1>   0.0800 
 50 H      -10.7660   -13.7930    -1.7010 H     1 <1>   0.0800 
@<TRIPOS>BOND
  1   1   2  1   
  2   2   3  ar  
  3   2   4  ar  
  4   3   5  ar  
  5   3  26  1   
  6   4   6  ar  
  7   4  27  1   
  8   5   7  ar  
  9   5  28  1   
 10   6   7  ar  
 11   6  29  1   
 12   7   8  1   
 13   8   9  1   
 14   8  30  1   
 15   8  31  1   
 16   9  10  1   
 17   9  32  1   
 18   9  33  1   
 19  10  11  1   
 20  10  34  1   
 21  10  35  1   
 22  11  12  2   
 23  11  13  am  
 24  13  14  1   
 25  13  15  1   
 26  14  16  1   
 27  14  36  1   
 28  14  37  1   
 29  15  17  1   
 30  15  38  1   
 31  15  39  1   
 32  16  17  1   
 33  16  18  1   
 34  16  40  1   
 35  17  19  1   
 36  17  41  1   
 37  18  42  1   
 38  19  20  1   
 39  19  43  1   
 40  19  44  1   
 41  20  21  2   
 42  20  22  2   
 43  20  23  am  
 44  23  24  1   
 45  23  25  1   
 46  24  45  1   
 47  24  46  1   
 48  24  47  1   
 49  25  48  1   
 50  25  49  1   
 51  25  50  1   
@<TRIPOS>SUBSTRUCTURE
  1 ****  11 GROUP 4 **** **** 0

# MOE 2024.06 (io_trps.svl 2023.06)
