@<TRIPOS>MOLECULE
NONAME
55 57 1 0 0 
SMALL
USER_CHARGES


@<TRIPOS>ATOM
  1 S        0.0450    -2.0780    -2.4750 S.3   1 <1>  -0.0800 
  2 C        0.2420    -2.5010    -0.7810 C.2   1 <1>  -0.1400 
  3 C        1.3560    -0.9180    -2.3820 C.2   1 <1>  -0.1100 
  4 C        1.2460    -1.7870    -0.2370 C.2   1 <1>  -0.1500 
  5 C       -0.6780    -3.5510    -0.1950 C.3   1 <1>   0.5230 
  6 C        1.8860    -0.8770    -1.1430 C.2   1 <1>   0.0190 
  7 N       -2.0050    -2.9240     0.0290 N.4   1 <1>  -0.9590 
  8 C        2.9690    -0.0440    -0.7150 C.1   1 <1>  -0.0190 
  9 C       -2.6560    -3.4980     1.2580 C.3   1 <1>   0.3430 
 10 C       -2.8740    -3.0870    -1.1750 C.3   1 <1>   0.3430 
 11 C        3.8700     0.6430    -0.3530 C.1   1 <1>  -0.2000 
 12 C       -3.9310    -2.7510     1.7240 C.3   1 <1>   0.1400 
 13 C       -3.6950    -1.8200    -1.4350 C.3   1 <1>  -0.1600 
 14 C        5.0030     1.4950     0.0990 C.3   1 <1>   0.3200 
 15 N       -4.8980    -2.4850     0.6110 N.am  1 <1>  -0.6600 
 16 C       -4.5220    -1.3270    -0.2410 C.3   1 <1>   0.1400 
 17 O        4.4830     2.7150     0.4710 O.3   1 <1>  -0.6800 
 18 C       -5.9830    -3.2720     0.2640 C.2   1 <1>   0.5690 
 19 O       -6.7600    -2.8720    -0.5720 O.2   1 <1>  -0.5700 
 20 C       -6.2400    -4.6760     0.8580 C.3   1 <1>   0.2610 
 21 O       -4.9980    -5.3100     1.1360 O.3   1 <1>  -0.2170 
 22 C       -6.8800    -5.6680    -0.1230 C.3   1 <1>  -0.0990 
 23 N       -4.6630    -6.1730     0.2000 N.2   1 <1>  -0.5130 
 24 C       -5.6550    -6.4340    -0.5280 C.2   1 <1>   0.3280 
 25 C       -5.7250    -7.3920    -1.7200 C.3   1 <1>  -0.0190 
 26 C       -6.6100    -8.6060    -1.4010 C.3   1 <1>  -0.2400 
 27 C       -4.3350    -7.8740    -2.1650 C.3   1 <1>  -0.2400 
 28 H        1.6070    -0.3740    -3.2750 H     1 <1>   0.1500 
 29 H        1.5910    -1.8450     0.7810 H     1 <1>   0.1500 
 30 H       -0.2650    -3.8810     0.7440 H     1 <1>   0.0800 
 31 H       -0.7570    -4.4020    -0.8520 H     1 <1>   0.0800 
 32 H       -1.8310    -1.9210     0.1590 H     1 <1>   0.4500 
 33 H       -1.9530    -3.4890     2.0740 H     1 <1>   0.0800 
 34 H       -2.9060    -4.5300     1.0710 H     1 <1>   0.0800 
 35 H       -3.5390    -3.9250    -1.0300 H     1 <1>   0.0800 
 36 H       -2.2740    -3.2920    -2.0470 H     1 <1>   0.0800 
 37 H       -3.6470    -1.8170     2.1770 H     1 <1>   0.0800 
 38 H       -4.4130    -3.3260     2.4960 H     1 <1>   0.0800 
 39 H       -4.3780    -2.0370    -2.2370 H     1 <1>   0.0800 
 40 H       -3.0560    -1.0280    -1.7830 H     1 <1>   0.0800 
 41 H        5.7070     1.6520    -0.7000 H     1 <1>   0.0800 
 42 H        5.5040     1.0650     0.9490 H     1 <1>   0.0800 
 43 H       -5.4070    -0.8190    -0.5920 H     1 <1>   0.0800 
 44 H       -3.9560    -0.6160     0.3370 H     1 <1>   0.0800 
 45 H        3.8050     2.9810    -0.1790 H     1 <1>   0.4000 
 46 H       -6.8000    -4.5980     1.7700 H     1 <1>   0.0800 
 47 H       -7.3650    -5.2000    -0.9590 H     1 <1>   0.0800 
 48 H       -7.5740    -6.3100     0.3870 H     1 <1>   0.0800 
 49 H       -6.1660    -6.8580    -2.5450 H     1 <1>   0.0800 
 50 H       -6.2130    -9.1480    -0.5600 H     1 <1>   0.0800 
 51 H       -6.6540    -9.2700    -2.2460 H     1 <1>   0.0800 
 52 H       -7.6130    -8.2970    -1.1670 H     1 <1>   0.0800 
 53 H       -3.8580    -8.4260    -1.3740 H     1 <1>   0.0800 
 54 H       -3.7140    -7.0350    -2.4200 H     1 <1>   0.0800 
 55 H       -4.4160    -8.5120    -3.0280 H     1 <1>   0.0800 
@<TRIPOS>BOND
  1   1   2  1   
  2   1   3  1   
  3   2   4  2   
  4   2   5  1   
  5   3   6  2   
  6   3  28  1   
  7   4   6  1   
  8   4  29  1   
  9   5   7  1   
 10   5  30  1   
 11   5  31  1   
 12   6   8  1   
 13   7   9  1   
 14   7  10  1   
 15   7  32  1   
 16   8  11  3   
 17   9  12  1   
 18   9  33  1   
 19   9  34  1   
 20  10  13  1   
 21  10  35  1   
 22  10  36  1   
 23  11  14  1   
 24  12  15  1   
 25  12  37  1   
 26  12  38  1   
 27  13  16  1   
 28  13  39  1   
 29  13  40  1   
 30  14  17  1   
 31  14  41  1   
 32  14  42  1   
 33  15  16  1   
 34  15  18  am  
 35  16  43  1   
 36  16  44  1   
 37  17  45  1   
 38  18  19  2   
 39  18  20  1   
 40  20  21  1   
 41  20  22  1   
 42  20  46  1   
 43  21  23  1   
 44  22  24  1   
 45  22  47  1   
 46  22  48  1   
 47  23  24  2   
 48  24  25  1   
 49  25  26  1   
 50  25  27  1   
 51  25  49  1   
 52  26  50  1   
 53  26  51  1   
 54  26  52  1   
 55  27  53  1   
 56  27  54  1   
 57  27  55  1   
@<TRIPOS>SUBSTRUCTURE
  1 ****   7 GROUP 4 **** **** 0

# MOE 2024.06 (io_trps.svl 2023.06)
