@<TRIPOS>MOLECULE
NONAME
47 50 1 0 0 
SMALL
USER_CHARGES


@<TRIPOS>ATOM
  1 CL      -0.6840     0.1100    -1.6170 Cl    1 <1>  -0.1840 
  2 C       -1.9250     0.1780    -0.3840 C.ar  1 <1>   0.1700 
  3 C       -1.8780     1.1390     0.6290 C.ar  1 <1>   0.0460 
  4 C       -2.9320    -0.7670    -0.4540 C.ar  1 <1>  -0.1580 
  5 C       -0.8500     2.1520     0.7200 C.2   1 <1>   0.2280 
  6 C       -2.8910     1.0920     1.5870 C.ar  1 <1>  -0.1580 
  7 C       -3.9300    -0.7810     0.5050 C.ar  1 <1>  -0.1580 
  8 N       -0.2220     2.4550     1.8290 N.2   1 <1>  -0.7100 
  9 C       -0.4000     2.9580    -0.3310 C.2   1 <1>  -0.1580 
 10 C       -3.9040     0.1500     1.5280 C.ar  1 <1>  -0.1580 
 11 N        0.6340     3.4300     1.4980 N.pl3 1 <1>   0.2930 
 12 C        0.5500     3.7580     0.1920 C.2   1 <1>  -0.3380 
 13 C        1.3800     4.8140    -0.5110 C.3   1 <1>   0.0920 
 14 C        2.8510     4.3860    -0.5780 C.3   1 <1>  -0.1670 
 15 C        1.2450     6.1810     0.1730 C.3   1 <1>  -0.1670 
 16 C        3.6960     5.4540    -1.2740 C.3   1 <1>   0.1600 
 17 C        2.1160     7.2390    -0.5110 C.3   1 <1>   0.1600 
 18 N        3.5290     6.7630    -0.5790 N.pl3 1 <1>  -0.5960 
 19 C        4.5600     7.4000     0.0310 C.cat 1 <1>   1.0690 
 20 N        5.5620     6.7840     0.6220 N.pl3 1 <1>  -0.7040 
 21 N        4.7820     8.7120     0.1720 N.pl3 1 <1>  -0.4620 
 22 C        6.3730     7.7490     1.1330 C.2   1 <1>   0.4800 
 23 N        5.9340     8.9220     0.8790 N.2   1 <1>  -0.2670 
 24 C        4.0480     9.8710    -0.3910 C.3   1 <1>   0.2670 
 25 C        7.6320     7.4160     1.9010 C.3   1 <1>  -0.0800 
 26 H       -2.9320    -1.4870    -1.2520 H     1 <1>   0.1420 
 27 H       -2.8730     1.8100     2.3880 H     1 <1>   0.1420 
 28 H       -4.7180    -1.5130     0.4580 H     1 <1>   0.1420 
 29 H       -0.7650     2.9130    -1.3410 H     1 <1>   0.1420 
 30 H       -4.6730     0.1420     2.2820 H     1 <1>   0.1420 
 31 H        1.2590     3.8530     2.1920 H     1 <1>   0.2630 
 32 H        1.0090     4.9030    -1.5200 H     1 <1>   0.0720 
 33 H        2.9210     3.4630    -1.1270 H     1 <1>   0.0720 
 34 H        3.2320     4.2070     0.4110 H     1 <1>   0.0720 
 35 H        1.5240     6.1090     1.2090 H     1 <1>   0.0720 
 36 H        0.2150     6.4910     0.1360 H     1 <1>   0.0720 
 37 H        3.3700     5.5570    -2.2970 H     1 <1>   0.0720 
 38 H        4.7300     5.1520    -1.2910 H     1 <1>   0.0720 
 39 H        2.0440     8.1550     0.0470 H     1 <1>   0.0720 
 40 H        1.7530     7.4180    -1.5100 H     1 <1>   0.0720 
 41 H        5.6720     5.7800     0.7090 H     1 <1>   0.4450 
 42 H        3.5150     9.5850    -1.2800 H     1 <1>   0.0720 
 43 H        4.7450    10.6510    -0.6450 H     1 <1>   0.0720 
 44 H        3.3550    10.2520     0.3390 H     1 <1>   0.0720 
 45 H        8.3100     6.8610     1.2780 H     1 <1>   0.0720 
 46 H        7.3920     6.8330     2.7710 H     1 <1>   0.0720 
 47 H        8.1200     8.3210     2.2180 H     1 <1>   0.0720 
@<TRIPOS>BOND
  1   1   2  1   
  2   2   3  ar  
  3   2   4  ar  
  4   3   5  1   
  5   3   6  ar  
  6   4   7  ar  
  7   4  26  1   
  8   5   8  2   
  9   5   9  1   
 10   6  10  ar  
 11   6  27  1   
 12   7  10  ar  
 13   7  28  1   
 14   8  11  1   
 15   9  12  2   
 16   9  29  1   
 17  10  30  1   
 18  11  12  1   
 19  11  31  1   
 20  12  13  1   
 21  13  14  1   
 22  13  15  1   
 23  13  32  1   
 24  14  16  1   
 25  14  33  1   
 26  14  34  1   
 27  15  17  1   
 28  15  35  1   
 29  15  36  1   
 30  16  18  1   
 31  16  37  1   
 32  16  38  1   
 33  17  18  1   
 34  17  39  1   
 35  17  40  1   
 36  18  19  ar  
 37  19  20  ar  
 38  19  21  ar  
 39  20  22  1   
 40  20  41  1   
 41  21  23  1   
 42  21  24  1   
 43  22  23  2   
 44  22  25  1   
 45  24  42  1   
 46  24  43  1   
 47  24  44  1   
 48  25  45  1   
 49  25  46  1   
 50  25  47  1   
@<TRIPOS>SUBSTRUCTURE
  1 ****  13 GROUP 4 **** **** 0

# MOE 2024.06 (io_trps.svl 2023.06)
