@<TRIPOS>MOLECULE
NONAME
43 46 1 0 0 
SMALL
USER_CHARGES


@<TRIPOS>ATOM
  1 O       -0.6870     4.8700    -2.2350 O.2   1 <1>  -0.5700 
  2 C       -0.5610     3.9090    -1.4940 C.2   1 <1>   0.5440 
  3 N       -1.6930     3.1530    -1.2250 N.am  1 <1>  -0.6600 
  4 C        0.7680     3.6130    -0.9490 C.ar  1 <1>   0.3960 
  5 C       -3.0700     3.6910    -1.4580 C.3   1 <1>   0.1400 
  6 C       -1.6900     1.8480    -0.5090 C.3   1 <1>   0.1400 
  7 N        0.9130     3.2790     0.3450 N.ar  1 <1>  -0.6200 
  8 C        1.8700     3.7080    -1.8020 C.ar  1 <1>  -0.1500 
  9 C       -3.7960     3.9050    -0.1150 C.3   1 <1>   0.1440 
 10 C       -2.3760     2.0140     0.8520 C.3   1 <1>  -0.1600 
 11 C        2.1360     3.0370     0.7580 C.ar  1 <1>   0.3920 
 12 C        3.1480     3.4530    -1.3520 C.ar  1 <1>  -0.1500 
 13 C       -5.1980     4.4110    -0.4030 C.ar  1 <1>   0.1660 
 14 C       -3.7960     2.5910     0.7000 C.3   1 <1>  -0.1600 
 15 C       -3.1770     5.0840     0.6840 C.3   1 <1>  -0.1600 
 16 O        2.2500     2.7010     2.0390 O.3   1 <1>  -0.5330 
 17 C        3.2760     3.1060    -0.0270 C.ar  1 <1>  -0.1500 
 18 N       -6.1940     3.6880    -0.8580 N.ar  1 <1>  -0.6200 
 19 C       -5.3080     5.7470    -0.1450 C.ar  1 <1>  -0.1440 
 20 C       -4.0090     6.3330     0.3500 C.3   1 <1>  -0.0170 
 21 C       -7.3130     4.3710    -1.0430 C.ar  1 <1>   0.7200 
 22 C       -6.5250     6.3440    -0.3670 C.ar  1 <1>   0.1600 
 23 N       -7.5500     5.6550    -0.8160 N.ar  1 <1>  -0.6200 
 24 N       -8.3500     3.6650    -1.4940 N.pl3 1 <1>  -0.9000 
 25 H       -3.6240     2.9870    -2.0560 H     1 <1>   0.0800 
 26 H       -3.0360     4.6200    -2.0000 H     1 <1>   0.0800 
 27 H       -0.6900     1.4750    -0.3790 H     1 <1>   0.0800 
 28 H       -2.2300     1.1280    -1.1000 H     1 <1>   0.0800 
 29 H        1.7080     3.9900    -2.8270 H     1 <1>   0.1500 
 30 H       -1.7740     2.6610     1.4670 H     1 <1>   0.0800 
 31 H       -2.4260     1.0570     1.3410 H     1 <1>   0.0800 
 32 H        4.0010     3.5240    -2.0060 H     1 <1>   0.1500 
 33 H       -4.4070     1.8670     0.1880 H     1 <1>   0.0800 
 34 H       -4.2360     2.7540     1.6680 H     1 <1>   0.0800 
 35 H       -2.1350     5.2340     0.4660 H     1 <1>   0.0800 
 36 H       -3.2720     4.8910     1.7380 H     1 <1>   0.0800 
 37 H        3.1670     2.5600     2.3200 H     1 <1>   0.4500 
 38 H        4.2440     2.8940     0.3880 H     1 <1>   0.1500 
 39 H       -3.5410     6.8970    -0.4390 H     1 <1>   0.0800 
 40 H       -4.1510     6.9570     1.2150 H     1 <1>   0.0800 
 41 H       -6.6580     7.3950    -0.1760 H     1 <1>   0.1500 
 42 H       -9.2580     4.0920    -1.3420 H     1 <1>   0.4000 
 43 H       -8.2820     2.6610    -1.3570 H     1 <1>   0.4000 
@<TRIPOS>BOND
  1   1   2  2   
  2   2   3  am  
  3   2   4  1   
  4   3   5  1   
  5   3   6  1   
  6   4   7  ar  
  7   4   8  ar  
  8   5   9  1   
  9   5  25  1   
 10   5  26  1   
 11   6  10  1   
 12   6  27  1   
 13   6  28  1   
 14   7  11  ar  
 15   8  12  ar  
 16   8  29  1   
 17   9  13  1   
 18   9  14  1   
 19   9  15  1   
 20  10  14  1   
 21  10  30  1   
 22  10  31  1   
 23  11  16  1   
 24  11  17  ar  
 25  12  17  ar  
 26  12  32  1   
 27  13  18  ar  
 28  13  19  ar  
 29  14  33  1   
 30  14  34  1   
 31  15  20  1   
 32  15  35  1   
 33  15  36  1   
 34  16  37  1   
 35  17  38  1   
 36  18  21  ar  
 37  19  20  1   
 38  19  22  ar  
 39  20  39  1   
 40  20  40  1   
 41  21  23  ar  
 42  21  24  1   
 43  22  23  ar  
 44  22  41  1   
 45  24  42  1   
 46  24  43  1   
@<TRIPOS>SUBSTRUCTURE
  1 ****   5 GROUP 4 **** **** 0

# MOE 2024.06 (io_trps.svl 2023.06)
