@<TRIPOS>MOLECULE
NONAME
44 46 1 0 0 
SMALL
USER_CHARGES


@<TRIPOS>ATOM
  1 O       -0.2280     0.8970     0.6990 O.2   1 <1>  -0.5700 
  2 C       -0.0180     2.1060     0.5650 C.2   1 <1>   0.5440 
  3 N       -1.1440     2.9230     0.5610 N.am  1 <1>  -0.6600 
  4 C        1.3270     2.5550     0.2780 C.ar  1 <1>   0.0860 
  5 C       -2.4980     2.4420     0.9380 C.3   1 <1>   0.1400 
  6 C       -1.0710     4.3690     0.2090 C.3   1 <1>   0.1400 
  7 C        1.9460     3.7030     0.8550 C.ar  1 <1>  -0.1710 
  8 C        2.1060     1.8320    -0.6470 C.ar  1 <1>   0.0820 
  9 C       -3.4940     2.5640    -0.2510 C.3   1 <1>   0.0000 
 10 C       -2.3980     4.8750    -0.3850 C.3   1 <1>  -0.1600 
 11 O        1.4100     4.3890     1.7560 O.3   1 <1>  -0.8290 
 12 C        3.2230     4.1010     0.4310 C.ar  1 <1>  -0.1500 
 13 O        1.6290     0.6840    -1.1650 O.3   1 <1>  -0.5320 
 14 C        3.3620     2.2370    -1.0490 C.ar  1 <1>  -0.1500 
 15 C       -4.9240     2.6120     0.3330 C.3   1 <1>   0.2000 
 16 C       -3.1190     3.7670    -1.1660 C.3   1 <1>  -0.1600 
 17 C       -3.5060     1.2490    -1.0480 C.3   1 <1>  -0.1600 
 18 C        3.9220     3.3890    -0.5090 C.ar  1 <1>  -0.1500 
 19 O       -5.8440     3.0170    -0.6430 O.3   1 <1>  -0.5600 
 20 C       -5.2360     1.1560     0.6950 C.3   1 <1>  -0.1600 
 21 C       -4.4410     0.2930    -0.2950 C.3   1 <1>  -0.1600 
 22 C       -7.0030     3.6080    -0.1510 C.3   1 <1>   0.0400 
 23 H       -2.4550     1.4300     1.2980 H     1 <1>   0.0800 
 24 H       -2.8310     3.0530     1.7570 H     1 <1>   0.0800 
 25 H       -0.8280     4.9380     1.0910 H     1 <1>   0.0800 
 26 H       -0.2780     4.5160    -0.5040 H     1 <1>   0.0800 
 27 H       -3.0290     5.2270     0.4110 H     1 <1>   0.0800 
 28 H       -2.1920     5.7110    -1.0290 H     1 <1>   0.0800 
 29 H        3.6290     4.9860     0.8830 H     1 <1>   0.1500 
 30 H        0.8180     0.4300    -0.6540 H     1 <1>   0.4500 
 31 H        3.9050     1.6570    -1.7710 H     1 <1>   0.1500 
 32 H       -4.9850     3.2790     1.1770 H     1 <1>   0.0800 
 33 H       -2.4420     3.4220    -1.9290 H     1 <1>   0.0800 
 34 H       -3.9790     4.1680    -1.6690 H     1 <1>   0.0800 
 35 H       -3.9180     1.4330    -2.0260 H     1 <1>   0.0800 
 36 H       -2.5150     0.8420    -1.1620 H     1 <1>   0.0800 
 37 H        4.8980     3.7090    -0.8210 H     1 <1>   0.1500 
 38 H       -4.8810     0.9600     1.6910 H     1 <1>   0.0800 
 39 H       -6.2890     0.9420     0.6580 H     1 <1>   0.0800 
 40 H       -3.8710    -0.4510     0.2340 H     1 <1>   0.0800 
 41 H       -5.1010    -0.1980    -0.9890 H     1 <1>   0.0800 
 42 H       -7.6380     3.8420    -0.9880 H     1 <1>   0.0800 
 43 H       -6.7440     4.5130     0.3700 H     1 <1>   0.0800 
 44 H       -7.5080     2.9220     0.5060 H     1 <1>   0.0800 
@<TRIPOS>BOND
  1   1   2  2   
  2   2   3  am  
  3   2   4  1   
  4   3   5  1   
  5   3   6  1   
  6   4   7  ar  
  7   4   8  ar  
  8   5   9  1   
  9   5  23  1   
 10   5  24  1   
 11   6  10  1   
 12   6  25  1   
 13   6  26  1   
 14   7  11  1   
 15   7  12  ar  
 16   8  13  1   
 17   8  14  ar  
 18   9  15  1   
 19   9  16  1   
 20   9  17  1   
 21  10  16  1   
 22  10  27  1   
 23  10  28  1   
 24  12  18  ar  
 25  12  29  1   
 26  13  30  1   
 27  14  18  ar  
 28  14  31  1   
 29  15  19  1   
 30  15  20  1   
 31  15  32  1   
 32  16  33  1   
 33  16  34  1   
 34  17  21  1   
 35  17  35  1   
 36  17  36  1   
 37  18  37  1   
 38  19  22  1   
 39  20  21  1   
 40  20  38  1   
 41  20  39  1   
 42  21  40  1   
 43  21  41  1   
 44  22  42  1   
 45  22  43  1   
 46  22  44  1   
@<TRIPOS>SUBSTRUCTURE
  1 ****   3 GROUP 4 **** **** 0

# MOE 2024.06 (io_trps.svl 2023.06)
