@<TRIPOS>MOLECULE
NONAME
41 42 1 0 0 
SMALL
USER_CHARGES


@<TRIPOS>ATOM
  1 O        4.6850     2.0090    -0.6750 O.2   1 <1>  -0.5700 
  2 C        4.1240     0.9300    -0.4960 C.2   1 <1>   0.6160 
  3 N        2.7870     0.8870    -0.1150 N.am  1 <1>  -0.4690 
  4 C        4.8340    -0.2900    -0.6490 C.2   1 <1>  -0.1360 
  5 C        2.1870    -0.3390     0.1610 C.2   1 <1>  -0.0290 
  6 C        2.0480     2.1840    -0.0220 C.3   1 <1>   0.1400 
  7 C        4.2400    -1.4840    -0.3980 C.2   1 <1>  -0.1500 
  8 C        2.8900    -1.4970     0.0220 C.2   1 <1>  -0.1500 
  9 C        0.7380    -0.3850     0.6260 C.3   1 <1>  -0.1020 
 10 C        2.3830     2.8990     1.2920 C.3   1 <1>  -0.0990 
 11 C        2.7800     4.3310     1.0240 C.2   1 <1>   0.5690 
 12 O        1.9870     5.1980     1.2970 O.2   1 <1>  -0.5700 
 13 N        4.0050     4.5510     0.4570 N.am  1 <1>  -0.4940 
 14 C        4.6570     5.7640     0.1210 C.2   1 <1>  -0.0880 
 15 N        5.4780     5.9080    -0.9560 N.pl3 1 <1>   0.3140 
 16 C        4.6380     6.9720     0.7380 C.2   1 <1>  -0.1810 
 17 N        5.9680     7.1650    -1.0500 N.2   1 <1>  -0.7070 
 18 C        5.8310     4.8810    -1.9590 C.3   1 <1>   0.0960 
 19 C        5.4570     7.7870    -0.0350 C.2   1 <1>   0.1390 
 20 C        3.9180     7.4070     2.0000 C.3   1 <1>  -0.0590 
 21 C        7.0980     4.1190    -1.5480 C.3   1 <1>  -0.2400 
 22 H        5.8560    -0.2140    -0.9660 H     1 <1>   0.1500 
 23 H        0.9870     2.0360    -0.0970 H     1 <1>   0.0800 
 24 H        2.3260     2.7960    -0.8640 H     1 <1>   0.0800 
 25 H        4.7620    -2.4200    -0.5060 H     1 <1>   0.1500 
 26 H        2.4440    -2.4550     0.2280 H     1 <1>   0.1500 
 27 H        0.6080     0.2200     1.5040 H     1 <1>   0.0800 
 28 H        0.4480    -1.3910     0.8690 H     1 <1>   0.0800 
 29 H        0.0860    -0.0310    -0.1530 H     1 <1>   0.0800 
 30 H        3.1900     2.4110     1.8080 H     1 <1>   0.0800 
 31 H        1.5220     2.8900     1.9340 H     1 <1>   0.0800 
 32 H        4.4760     3.6920     0.1340 H     1 <1>   0.3700 
 33 H        5.9920     5.3770    -2.8990 H     1 <1>   0.0800 
 34 H        5.0040     4.2050    -2.0710 H     1 <1>   0.0800 
 35 H        5.6540     8.8240     0.1790 H     1 <1>   0.1500 
 36 H        3.8200     6.5770     2.6760 H     1 <1>   0.0800 
 37 H        2.9360     7.7670     1.7510 H     1 <1>   0.0800 
 38 H        4.4650     8.1890     2.4930 H     1 <1>   0.0800 
 39 H        7.9260     4.8010    -1.4670 H     1 <1>   0.0800 
 40 H        7.3320     3.3770    -2.2890 H     1 <1>   0.0800 
 41 H        6.9490     3.6260    -0.6040 H     1 <1>   0.0800 
@<TRIPOS>BOND
  1   1   2  2   
  2   2   3  am  
  3   2   4  1   
  4   3   5  1   
  5   3   6  1   
  6   4   7  2   
  7   4  22  1   
  8   5   8  2   
  9   5   9  1   
 10   6  10  1   
 11   6  23  1   
 12   6  24  1   
 13   7   8  1   
 14   7  25  1   
 15   8  26  1   
 16   9  27  1   
 17   9  28  1   
 18   9  29  1   
 19  10  11  1   
 20  10  30  1   
 21  10  31  1   
 22  11  12  2   
 23  11  13  am  
 24  13  14  1   
 25  13  32  1   
 26  14  15  1   
 27  14  16  2   
 28  15  17  1   
 29  15  18  1   
 30  16  19  1   
 31  16  20  1   
 32  17  19  2   
 33  18  21  1   
 34  18  33  1   
 35  18  34  1   
 36  19  35  1   
 37  20  36  1   
 38  20  37  1   
 39  20  38  1   
 40  21  39  1   
 41  21  40  1   
 42  21  41  1   
@<TRIPOS>SUBSTRUCTURE
  1 ****  13 GROUP 4 **** **** 0

# MOE 2024.06 (io_trps.svl 2023.06)
