@<TRIPOS>MOLECULE
NONAME
52 55 1 0 0 
SMALL
USER_CHARGES


@<TRIPOS>ATOM
  1 O       -1.4740     0.1550     0.6840 O.2   1 <1>  -0.5700 
  2 C       -2.1920     0.9960     0.1720 C.2   1 <1>   0.5440 
  3 N       -3.3880     0.5730    -0.3670 N.am  1 <1>  -0.6600 
  4 C       -1.8190     2.4000     0.1920 C.ar  1 <1>   0.0860 
  5 C       -3.5580    -0.8480    -0.7640 C.3   1 <1>   0.1400 
  6 C       -4.6510     1.2070     0.1130 C.3   1 <1>   0.1400 
  7 C       -2.1900     3.2770    -0.8270 C.ar  1 <1>  -0.1500 
  8 C       -1.0640     2.9330     1.2360 C.ar  1 <1>  -0.1500 
  9 C       -4.5810    -1.4300     0.2310 C.3   1 <1>   0.4230 
 10 C       -5.9110     0.3510    -0.2420 C.3   1 <1>  -0.1600 
 11 C       -1.8410     4.6140    -0.7950 C.ar  1 <1>  -0.1500 
 12 C       -0.7150     4.2690     1.2680 C.ar  1 <1>  -0.1500 
 13 N       -4.0590    -2.6210     0.9890 N.4   1 <1>  -0.9590 
 14 C       -6.0430    -1.2730    -0.3880 C.3   1 <1>   0.0000 
 15 C       -1.0960     5.1480     0.2550 C.ar  1 <1>   0.0530 
 16 C       -4.0240    -3.8020     0.1500 C.3   1 <1>   0.3430 
 17 C       -2.7430    -2.3570     1.6620 C.3   1 <1>   0.2630 
 18 C       -6.2500    -2.8640    -0.6350 C.3   1 <1>  -0.1600 
 19 C       -7.5360    -1.0380    -0.9510 C.3   1 <1>   0.1200 
 20 C       -0.7350     6.5470     0.2880 C.2   1 <1>   0.0870 
 21 C       -5.4830    -4.0710    -0.0530 C.3   1 <1>  -0.1600 
 22 O       -8.4180    -1.1130     0.1250 O.3   1 <1>  -0.6800 
 23 O       -0.0810     7.0600     1.3040 O.3   1 <1>  -0.2800 
 24 C       -0.9320     7.5700    -0.5730 C.2   1 <1>   0.0770 
 25 C        0.0890     8.3300     1.0330 C.2   1 <1>   0.3280 
 26 N       -0.4030     8.7090    -0.0900 N.2   1 <1>  -0.5650 
 27 H       -3.9420    -0.8870    -1.7690 H     1 <1>   0.0800 
 28 H       -2.6180    -1.3690    -0.7540 H     1 <1>   0.0800 
 29 H       -4.5920     1.3280     1.1830 H     1 <1>   0.0800 
 30 H       -4.7470     2.1920    -0.3140 H     1 <1>   0.0800 
 31 H       -2.7560     2.9010    -1.6620 H     1 <1>   0.1500 
 32 H       -0.7450     2.2830     2.0330 H     1 <1>   0.1500 
 33 H       -4.5940    -0.7390     1.0520 H     1 <1>   0.0800 
 34 H       -6.6790     0.7210     0.4210 H     1 <1>   0.0800 
 35 H       -6.0920     0.7830    -1.2130 H     1 <1>   0.0800 
 36 H       -2.1500     5.2540    -1.6020 H     1 <1>   0.1500 
 37 H       -0.1320     4.6400     2.0930 H     1 <1>   0.1500 
 38 H       -4.7560    -2.8010     1.7240 H     1 <1>   0.4500 
 39 H       -3.5210    -3.6070    -0.7830 H     1 <1>   0.0800 
 40 H       -3.5520    -4.6290     0.6580 H     1 <1>   0.0800 
 41 H       -1.9570    -2.2350     0.9340 H     1 <1>   0.0800 
 42 H       -2.4820    -3.1740     2.3140 H     1 <1>   0.0800 
 43 H       -2.7950    -1.4520     2.2470 H     1 <1>   0.0800 
 44 H       -7.2540    -3.1900    -0.3970 H     1 <1>   0.0800 
 45 H       -6.1410    -2.9920    -1.7010 H     1 <1>   0.0800 
 46 H       -7.8700    -1.7480    -1.6940 H     1 <1>   0.0800 
 47 H       -7.7630    -0.1070    -1.4420 H     1 <1>   0.0800 
 48 H       -5.5940    -4.9170    -0.7100 H     1 <1>   0.0800 
 49 H       -5.9190    -4.3570     0.8900 H     1 <1>   0.0800 
 50 H       -9.3450    -0.9880    -0.1670 H     1 <1>   0.4000 
 51 H       -1.4300     7.5500    -1.5260 H     1 <1>   0.1500 
 52 H        0.6100     8.9480     1.7440 H     1 <1>   0.1500 
@<TRIPOS>BOND
  1   1   2  2   
  2   2   3  am  
  3   2   4  1   
  4   3   5  1   
  5   3   6  1   
  6   4   7  ar  
  7   4   8  ar  
  8   5   9  1   
  9   5  27  1   
 10   5  28  1   
 11   6  10  1   
 12   6  29  1   
 13   6  30  1   
 14   7  11  ar  
 15   7  31  1   
 16   8  12  ar  
 17   8  32  1   
 18   9  13  1   
 19   9  14  1   
 20   9  33  1   
 21  10  14  1   
 22  10  34  1   
 23  10  35  1   
 24  11  15  ar  
 25  11  36  1   
 26  12  15  ar  
 27  12  37  1   
 28  13  16  1   
 29  13  17  1   
 30  13  38  1   
 31  14  18  1   
 32  14  19  1   
 33  15  20  1   
 34  16  21  1   
 35  16  39  1   
 36  16  40  1   
 37  17  41  1   
 38  17  42  1   
 39  17  43  1   
 40  18  21  1   
 41  18  44  1   
 42  18  45  1   
 43  19  22  1   
 44  19  46  1   
 45  19  47  1   
 46  20  23  1   
 47  20  24  2   
 48  21  48  1   
 49  21  49  1   
 50  22  50  1   
 51  23  25  1   
 52  24  26  1   
 53  24  51  1   
 54  25  26  2   
 55  25  52  1   
@<TRIPOS>SUBSTRUCTURE
  1 ****   2 GROUP 4 **** **** 0

# MOE 2024.06 (io_trps.svl 2023.06)
