@<TRIPOS>MOLECULE
NONAME
53 56 1 0 0 
SMALL
USER_CHARGES


@<TRIPOS>ATOM
  1 S       -0.1380     0.2590    -1.0010 S.o2  1 <1>   1.4470 
  2 O       -0.8100    -0.1020    -2.2320 O.2   1 <1>  -0.6500 
  3 O        0.1210     1.6590    -0.7350 O.2   1 <1>  -0.6500 
  4 N       -1.0610    -0.3430     0.2950 N.am  1 <1>  -0.8490 
  5 C        1.4230    -0.6850    -0.9120 C.ar  1 <1>  -0.0090 
  6 C       -2.4680    -0.6980     0.0370 C.3   1 <1>   0.1960 
  7 C       -0.8210     0.2630     1.6060 C.3   1 <1>   0.1960 
  8 C        2.5710    -0.2910    -1.6050 C.ar  1 <1>  -0.1440 
  9 C        1.4970    -1.8510    -0.1580 C.ar  1 <1>  -0.1500 
 10 C       -3.4880     0.4460     0.2890 C.3   1 <1>   0.0000 
 11 C       -1.7540     1.4520     1.8580 C.3   1 <1>  -0.1600 
 12 C        3.7350    -1.0360    -1.5060 C.ar  1 <1>  -0.1500 
 13 C        2.5820     0.9540    -2.4850 C.3   1 <1>  -0.0970 
 14 C        2.6550    -2.6160    -0.0400 C.ar  1 <1>   0.0530 
 15 C       -4.9040    -0.1520     0.1370 C.3   1 <1>   0.2000 
 16 C       -3.2270     1.0570     1.6850 C.3   1 <1>  -0.1600 
 17 C       -3.4680     1.5090    -0.8270 C.3   1 <1>  -0.1600 
 18 C        3.7770    -2.1790    -0.7340 C.ar  1 <1>  -0.1500 
 19 C        2.6870    -3.8120     0.7700 C.2   1 <1>   0.0870 
 20 O       -5.8480     0.6850     0.7050 O.3   1 <1>  -0.6800 
 21 C       -5.1720    -0.1770    -1.3680 C.3   1 <1>  -0.1600 
 22 C       -4.3100     0.9400    -1.9750 C.3   1 <1>  -0.1600 
 23 O        1.6630    -4.1570     1.5180 O.3   1 <1>  -0.0190 
 24 C        3.6270    -4.7630     0.9620 C.2   1 <1>  -0.1500 
 25 N        1.8640    -5.2580     2.1810 N.2   1 <1>  -0.4100 
 26 C        3.0460    -5.6450     1.8620 C.2   1 <1>   0.1080 
 27 C        3.6900    -6.8990     2.4100 C.3   1 <1>  -0.0590 
 28 H       -2.5740    -1.0880    -0.9610 H     1 <1>   0.0800 
 29 H       -2.7130    -1.5070     0.7050 H     1 <1>   0.0800 
 30 H       -0.9970    -0.4820     2.3630 H     1 <1>   0.0800 
 31 H        0.2070     0.5760     1.6880 H     1 <1>   0.0800 
 32 H        0.6200    -2.1910     0.3630 H     1 <1>   0.1500 
 33 H       -1.5970     1.8120     2.8590 H     1 <1>   0.0800 
 34 H       -1.5060     2.2560     1.1870 H     1 <1>   0.0800 
 35 H        4.6210    -0.7280    -2.0340 H     1 <1>   0.1500 
 36 H        3.4830     1.0080    -3.0690 H     1 <1>   0.0800 
 37 H        2.5230     1.8390    -1.8760 H     1 <1>   0.0800 
 38 H        1.7490     0.9430    -3.1650 H     1 <1>   0.0800 
 39 H       -5.0070    -1.1220     0.5950 H     1 <1>   0.0800 
 40 H       -3.8470     1.9220     1.8450 H     1 <1>   0.0800 
 41 H       -3.4850     0.3330     2.4380 H     1 <1>   0.0800 
 42 H       -3.9390     2.4100    -0.4730 H     1 <1>   0.0800 
 43 H       -2.4810     1.7720    -1.1540 H     1 <1>   0.0800 
 44 H        4.6940    -2.7360    -0.6710 H     1 <1>   0.1500 
 45 H       -5.8010     1.5540     0.2650 H     1 <1>   0.4000 
 46 H       -4.8470    -1.1220    -1.7660 H     1 <1>   0.0800 
 47 H       -6.2180    -0.0580    -1.5950 H     1 <1>   0.0800 
 48 H       -3.6650     0.5310    -2.7360 H     1 <1>   0.0800 
 49 H       -4.9190     1.7090    -2.4180 H     1 <1>   0.0800 
 50 H        4.6060    -4.8470     0.5310 H     1 <1>   0.1500 
 51 H        4.6760    -7.0250     2.0020 H     1 <1>   0.0800 
 52 H        3.0910    -7.7530     2.1520 H     1 <1>   0.0800 
 53 H        3.7570    -6.8300     3.4800 H     1 <1>   0.0800 
@<TRIPOS>BOND
  1   1   2  2   
  2   1   3  2   
  3   1   4  am  
  4   1   5  1   
  5   4   6  1   
  6   4   7  1   
  7   5   8  ar  
  8   5   9  ar  
  9   6  10  1   
 10   6  28  1   
 11   6  29  1   
 12   7  11  1   
 13   7  30  1   
 14   7  31  1   
 15   8  12  ar  
 16   8  13  1   
 17   9  14  ar  
 18   9  32  1   
 19  10  15  1   
 20  10  16  1   
 21  10  17  1   
 22  11  16  1   
 23  11  33  1   
 24  11  34  1   
 25  12  18  ar  
 26  12  35  1   
 27  13  36  1   
 28  13  37  1   
 29  13  38  1   
 30  14  18  ar  
 31  14  19  1   
 32  15  20  1   
 33  15  21  1   
 34  15  39  1   
 35  16  40  1   
 36  16  41  1   
 37  17  22  1   
 38  17  42  1   
 39  17  43  1   
 40  18  44  1   
 41  19  23  1   
 42  19  24  2   
 43  20  45  1   
 44  21  22  1   
 45  21  46  1   
 46  21  47  1   
 47  22  48  1   
 48  22  49  1   
 49  23  25  1   
 50  24  26  1   
 51  24  50  1   
 52  25  26  2   
 53  26  27  1   
 54  27  51  1   
 55  27  52  1   
 56  27  53  1   
@<TRIPOS>SUBSTRUCTURE
  1 ****   4 GROUP 4 **** **** 0

# MOE 2024.06 (io_trps.svl 2023.06)
