@<TRIPOS>MOLECULE
NONAME
48 52 1 0 0 
SMALL
USER_CHARGES


@<TRIPOS>ATOM
  1 O       -2.2480    -0.8080    -2.9100 O.2   1 <1>  -0.5700 
  2 C       -2.3540    -1.0990    -1.7510 C.2   1 <1>   0.5690 
  3 N       -2.2480    -0.1550    -0.8010 N.am  1 <1>  -0.7300 
  4 C       -2.6490    -2.5220    -1.3650 C.3   1 <1>  -0.0190 
  5 C       -2.3670    -0.3790     0.6590 C.3   1 <1>   0.2200 
  6 C       -1.5280    -3.1210    -0.4860 C.3   1 <1>   0.1200 
  7 C       -4.0770    -2.5840    -0.8030 C.3   1 <1>   0.3430 
  8 C       -1.2820    -1.3750     1.1410 C.3   1 <1>   0.1200 
  9 C       -3.8160    -0.8090     1.0270 C.3   1 <1>   0.3430 
 10 O       -1.5990    -2.7150     0.8560 O.3   1 <1>  -0.5600 
 11 N       -4.1790    -2.2240     0.6540 N.4   1 <1>  -0.9590 
 12 C       -5.4570    -2.6730     1.2670 C.3   1 <1>   0.4860 
 13 C       -5.5770    -4.1730     1.0830 C.ar  1 <1>  -0.1440 
 14 C       -6.5470    -4.6920     0.2340 C.ar  1 <1>  -0.1500 
 15 C       -4.7030    -5.0340     1.7420 C.ar  1 <1>  -0.1500 
 16 C       -6.6170    -6.0580     0.0470 C.ar  1 <1>  -0.1440 
 17 C       -4.7830    -6.4020     1.5480 C.ar  1 <1>  -0.1500 
 18 C       -5.7440    -6.9160     0.6900 C.ar  1 <1>   0.0000 
 19 C       -7.5820    -6.8480    -0.8270 C.3   1 <1>   0.1270 
 20 C       -6.0360    -8.2670     0.3060 C.ar  1 <1>   0.0000 
 21 C       -7.0980    -8.2680    -0.5800 C.ar  1 <1>  -0.1440 
 22 C       -5.4440    -9.4690     0.6710 C.ar  1 <1>  -0.1500 
 23 C       -7.5860    -9.4460    -1.1140 C.ar  1 <1>  -0.1500 
 24 C       -5.9260   -10.6540     0.1410 C.ar  1 <1>  -0.1500 
 25 C       -6.9920   -10.6440    -0.7480 C.ar  1 <1>  -0.1500 
 26 H       -1.9930     0.7840    -1.1280 H     1 <1>   0.3700 
 27 H       -2.6530    -3.0800    -2.2840 H     1 <1>   0.0800 
 28 H       -2.1740     0.5670     1.1350 H     1 <1>   0.0800 
 29 H       -0.5560    -2.8640    -0.8750 H     1 <1>   0.0800 
 30 H       -1.6110    -4.1950    -0.4880 H     1 <1>   0.0800 
 31 H       -4.4240    -3.5960    -0.9370 H     1 <1>   0.0800 
 32 H       -4.7180    -1.9440    -1.3880 H     1 <1>   0.0800 
 33 H       -1.1880    -1.3030     2.2110 H     1 <1>   0.0800 
 34 H       -0.3230    -1.1400     0.7100 H     1 <1>   0.0800 
 35 H       -4.5060    -0.1220     0.5650 H     1 <1>   0.0800 
 36 H       -3.9210    -0.7040     2.0940 H     1 <1>   0.0800 
 37 H       -3.4290    -2.8030     1.0810 H     1 <1>   0.4500 
 38 H       -5.4670    -2.4450     2.3200 H     1 <1>   0.0800 
 39 H       -6.2910    -2.1760     0.7990 H     1 <1>   0.0800 
 40 H       -7.2450    -4.0530    -0.2810 H     1 <1>   0.1500 
 41 H       -3.9520    -4.6540     2.4140 H     1 <1>   0.1500 
 42 H       -4.1110    -7.0720     2.0540 H     1 <1>   0.1500 
 43 H       -8.5980    -6.7260    -0.4960 H     1 <1>   0.0800 
 44 H       -7.4800    -6.5820    -1.8640 H     1 <1>   0.0800 
 45 H       -4.6200    -9.4750     1.3600 H     1 <1>   0.1500 
 46 H       -8.4130    -9.4370    -1.8020 H     1 <1>   0.1500 
 47 H       -5.4720   -11.5900     0.4190 H     1 <1>   0.1500 
 48 H       -7.3590   -11.5700    -1.1550 H     1 <1>   0.1500 
@<TRIPOS>BOND
  1   1   2  2   
  2   2   3  am  
  3   2   4  1   
  4   3   5  1   
  5   3  26  1   
  6   4   6  1   
  7   4   7  1   
  8   4  27  1   
  9   5   8  1   
 10   5   9  1   
 11   5  28  1   
 12   6  10  1   
 13   6  29  1   
 14   6  30  1   
 15   7  11  1   
 16   7  31  1   
 17   7  32  1   
 18   8  10  1   
 19   8  33  1   
 20   8  34  1   
 21   9  11  1   
 22   9  35  1   
 23   9  36  1   
 24  11  12  1   
 25  11  37  1   
 26  12  13  1   
 27  12  38  1   
 28  12  39  1   
 29  13  14  ar  
 30  13  15  ar  
 31  14  16  ar  
 32  14  40  1   
 33  15  17  ar  
 34  15  41  1   
 35  16  18  ar  
 36  16  19  1   
 37  17  18  ar  
 38  17  42  1   
 39  18  20  1   
 40  19  21  1   
 41  19  43  1   
 42  19  44  1   
 43  20  21  ar  
 44  20  22  ar  
 45  21  23  ar  
 46  22  24  ar  
 47  22  45  1   
 48  23  25  ar  
 49  23  46  1   
 50  24  25  ar  
 51  24  47  1   
 52  25  48  1   
@<TRIPOS>SUBSTRUCTURE
  1 ****  13 GROUP 4 **** **** 0

# MOE 2024.06 (io_trps.svl 2023.06)
