@<TRIPOS>MOLECULE
NONAME
54 56 1 0 0 
SMALL
USER_CHARGES


@<TRIPOS>ATOM
  1 O       -0.3770     0.9610     0.4830 O.3   1 <1>  -0.3630 
  2 C       -0.1710     2.2410     0.0880 C.ar  1 <1>   0.0830 
  3 C        0.6390    -0.0170     0.5590 C.3   1 <1>   0.0400 
  4 C       -1.2800     3.0950    -0.0950 C.ar  1 <1>   0.0830 
  5 C        1.0990     2.7320    -0.1620 C.ar  1 <1>  -0.1500 
  6 O       -2.5730     2.7360     0.1190 O.3   1 <1>  -0.3630 
  7 C       -1.0890     4.3840    -0.5350 C.ar  1 <1>  -0.1500 
  8 C        1.2810     4.0450    -0.5980 C.ar  1 <1>   0.3610 
  9 C       -2.9280     1.9600     1.2440 C.3   1 <1>   0.0400 
 10 C        0.1920     4.8910    -0.7960 C.ar  1 <1>   0.0000 
 11 N        2.5260     4.5700    -0.8550 N.ar  1 <1>  -0.1790 
 12 C        0.4790     6.2150    -1.2510 C.ar  1 <1>   0.4100 
 13 C        2.7060     5.8260    -1.2760 C.ar  1 <1>   0.7710 
 14 N        1.6860     6.6530    -1.4740 N.ar  1 <1>  -0.6200 
 15 N       -0.4940     7.1010    -1.4830 N.pl3 1 <1>  -0.9000 
 16 N        3.9540     6.2640    -1.5050 N.pl3 1 <1>  -0.8690 
 17 C        4.3210     7.6230    -1.9910 C.3   1 <1>   0.2090 
 18 C        5.1090     8.3380    -0.8960 C.3   1 <1>  -0.1600 
 19 C        5.4840     9.7640    -1.3250 C.3   1 <1>   0.0960 
 20 N        6.2150    10.4520    -0.2380 N.pl3 1 <1>   0.0480 
 21 C        5.8270    11.4710     0.5760 C.2   1 <1>   0.0060 
 22 C        7.4660    10.1500     0.1600 C.2   1 <1>  -0.3020 
 23 N        6.7340    11.8040     1.4410 N.2   1 <1>  -0.5650 
 24 C        4.4590    12.1560     0.4810 C.3   1 <1>   0.1000 
 25 C        7.7620    10.9790     1.1810 C.2   1 <1>   0.0770 
 26 C        4.4830    13.5740     1.0700 C.3   1 <1>  -0.2400 
 27 C        3.3910    11.3200     1.1950 C.3   1 <1>  -0.2400 
 28 H        0.1820    -0.9480     0.8450 H     1 <1>   0.0800 
 29 H        1.3560     0.2750     1.3050 H     1 <1>   0.0800 
 30 H        1.0990    -0.1230    -0.4070 H     1 <1>   0.0800 
 31 H        1.9580     2.1050    -0.0230 H     1 <1>   0.1500 
 32 H       -1.9540     5.0060    -0.6760 H     1 <1>   0.1500 
 33 H       -3.9670     2.1360     1.4580 H     1 <1>   0.0800 
 34 H       -2.3240     2.2520     2.0840 H     1 <1>   0.0800 
 35 H       -2.7810     0.9210     1.0110 H     1 <1>   0.0800 
 36 H        3.3500     3.9960    -0.7280 H     1 <1>   0.4570 
 37 H       -0.2700     8.0440    -1.8120 H     1 <1>   0.4000 
 38 H       -1.4950     6.9200    -1.3710 H     1 <1>   0.4000 
 39 H        4.7810     5.6840    -1.3540 H     1 <1>   0.4000 
 40 H        3.4440     8.1970    -2.2420 H     1 <1>   0.0800 
 41 H        4.9230     7.5330    -2.8810 H     1 <1>   0.0800 
 42 H        6.0070     7.7860    -0.6830 H     1 <1>   0.0800 
 43 H        4.5070     8.3880    -0.0050 H     1 <1>   0.0800 
 44 H        4.6000    10.3220    -1.5680 H     1 <1>   0.0800 
 45 H        6.1180     9.7390    -2.1930 H     1 <1>   0.0800 
 46 H        8.0690     9.3830    -0.2890 H     1 <1>   0.1500 
 47 H        4.1920    12.2530    -0.5560 H     1 <1>   0.0800 
 48 H        8.6740    11.0300     1.7510 H     1 <1>   0.1500 
 49 H        4.7110    13.5380     2.1210 H     1 <1>   0.0800 
 50 H        3.5320    14.0580     0.9360 H     1 <1>   0.0800 
 51 H        5.2410    14.1590     0.5800 H     1 <1>   0.0800 
 52 H        3.6570    11.2010     2.2310 H     1 <1>   0.0800 
 53 H        3.3100    10.3480     0.7490 H     1 <1>   0.0800 
 54 H        2.4330    11.8060     1.1380 H     1 <1>   0.0800 
@<TRIPOS>BOND
  1   1   2  1   
  2   1   3  1   
  3   2   4  ar  
  4   2   5  ar  
  5   3  28  1   
  6   3  29  1   
  7   3  30  1   
  8   4   6  1   
  9   4   7  ar  
 10   5   8  ar  
 11   5  31  1   
 12   6   9  1   
 13   7  10  ar  
 14   7  32  1   
 15   8  10  ar  
 16   8  11  ar  
 17   9  33  1   
 18   9  34  1   
 19   9  35  1   
 20  10  12  ar  
 21  11  13  ar  
 22  11  36  1   
 23  12  14  ar  
 24  12  15  1   
 25  13  14  ar  
 26  13  16  1   
 27  15  37  1   
 28  15  38  1   
 29  16  17  1   
 30  16  39  1   
 31  17  18  1   
 32  17  40  1   
 33  17  41  1   
 34  18  19  1   
 35  18  42  1   
 36  18  43  1   
 37  19  20  1   
 38  19  44  1   
 39  19  45  1   
 40  20  21  1   
 41  20  22  1   
 42  21  23  2   
 43  21  24  1   
 44  22  25  2   
 45  22  46  1   
 46  23  25  1   
 47  24  26  1   
 48  24  27  1   
 49  24  47  1   
 50  25  48  1   
 51  26  49  1   
 52  26  50  1   
 53  26  51  1   
 54  27  52  1   
 55  27  53  1   
 56  27  54  1   
@<TRIPOS>SUBSTRUCTURE
  1 ****  13 GROUP 4 **** **** 0

# MOE 2024.06 (io_trps.svl 2023.06)
