@<TRIPOS>MOLECULE
NONAME
48 50 1 0 0 
SMALL
USER_CHARGES


@<TRIPOS>ATOM
  1 CL       3.5580    -2.8810    -1.1500 Cl    1 <1>  -0.1770 
  2 C        1.9180    -3.2010    -0.6560 C.ar  1 <1>   0.1770 
  3 C        1.6680    -4.1540     0.3060 C.ar  1 <1>  -0.1500 
  4 C        0.8850    -2.4910    -1.2360 C.ar  1 <1>  -0.1500 
  5 C        0.3670    -4.4160     0.7090 C.ar  1 <1>   0.0830 
  6 C       -0.4140    -2.7610    -0.8460 C.ar  1 <1>  -0.1500 
  7 O        0.2640    -5.3570     1.6750 O.3   1 <1>  -0.3630 
  8 C       -0.7130    -3.7320     0.1140 C.ar  1 <1>   0.0860 
  9 C       -0.7440    -5.3650     2.6680 C.3   1 <1>   0.0400 
 10 C       -2.1120    -3.9640     0.4010 C.2   1 <1>   0.5440 
 11 O       -2.7440    -3.0860     0.9580 O.2   1 <1>  -0.5700 
 12 N       -2.7690    -5.1120    -0.0030 N.am  1 <1>  -0.6600 
 13 C       -2.0520    -6.2500    -0.6650 C.3   1 <1>   0.1400 
 14 C       -4.2170    -5.3230     0.2900 C.3   1 <1>   0.1400 
 15 C       -2.9470    -7.5070    -0.8100 C.3   1 <1>   0.4230 
 16 C       -4.4290    -6.6320     1.0620 C.3   1 <1>  -0.1600 
 17 N       -2.2300    -8.7010    -1.3800 N.4   1 <1>  -0.9590 
 18 C       -3.6020    -7.8600     0.5460 C.3   1 <1>  -0.1060 
 19 C       -3.1400    -9.8490    -1.6230 C.3   1 <1>   0.3430 
 20 C       -1.3190    -8.4360    -2.5250 C.3   1 <1>   0.2630 
 21 C       -2.4940    -8.2530     1.5490 C.2   1 <1>   0.9060 
 22 C       -4.5630    -9.0580     0.3380 C.3   1 <1>  -0.1600 
 23 C       -3.8540   -10.2470    -0.3290 C.3   1 <1>  -0.1600 
 24 O       -2.6990    -8.1680     2.7580 O.co2 1 <1>  -0.9000 
 25 O       -1.4200    -8.7000     1.1130 O.co2 1 <1>  -0.9000 
 26 H        2.4820    -4.6930     0.7540 H     1 <1>   0.1500 
 27 H        1.1000    -1.7420    -1.9770 H     1 <1>   0.1500 
 28 H       -1.2260    -2.2090    -1.2900 H     1 <1>   0.1500 
 29 H       -0.4170    -6.0010     3.4720 H     1 <1>   0.0800 
 30 H       -1.6500    -5.7710     2.2620 H     1 <1>   0.0800 
 31 H       -0.9010    -4.3640     3.0280 H     1 <1>   0.0800 
 32 H       -1.7310    -5.9200    -1.6350 H     1 <1>   0.0800 
 33 H       -1.1850    -6.5040    -0.0820 H     1 <1>   0.0800 
 34 H       -4.6170    -4.5070     0.8700 H     1 <1>   0.0800 
 35 H       -4.7580    -5.3510    -0.6390 H     1 <1>   0.0800 
 36 H       -3.7360    -7.2470    -1.4930 H     1 <1>   0.0800 
 37 H       -4.1980    -6.4290     2.0940 H     1 <1>   0.0800 
 38 H       -5.4820    -6.8490     1.0470 H     1 <1>   0.0800 
 39 H       -1.6390    -8.9750    -0.5470 H     1 <1>   0.4500 
 40 H       -3.8700    -9.5800    -2.3680 H     1 <1>   0.0800 
 41 H       -2.5750   -10.6920    -1.9850 H     1 <1>   0.0800 
 42 H       -1.8750    -8.0600    -3.3680 H     1 <1>   0.0800 
 43 H       -0.8170    -9.3450    -2.8130 H     1 <1>   0.0800 
 44 H       -0.5710    -7.7130    -2.2440 H     1 <1>   0.0800 
 45 H       -4.9520    -9.3680     1.2950 H     1 <1>   0.0800 
 46 H       -5.3950    -8.7600    -0.2760 H     1 <1>   0.0800 
 47 H       -4.5740   -11.0160    -0.5450 H     1 <1>   0.0800 
 48 H       -3.1340   -10.6700     0.3520 H     1 <1>   0.0800 
@<TRIPOS>BOND
  1   1   2  1   
  2   2   3  ar  
  3   2   4  ar  
  4   3   5  ar  
  5   3  26  1   
  6   4   6  ar  
  7   4  27  1   
  8   5   7  1   
  9   5   8  ar  
 10   6   8  ar  
 11   6  28  1   
 12   7   9  1   
 13   8  10  1   
 14   9  29  1   
 15   9  30  1   
 16   9  31  1   
 17  10  11  2   
 18  10  12  am  
 19  12  13  1   
 20  12  14  1   
 21  13  15  1   
 22  13  32  1   
 23  13  33  1   
 24  14  16  1   
 25  14  34  1   
 26  14  35  1   
 27  15  17  1   
 28  15  18  1   
 29  15  36  1   
 30  16  18  1   
 31  16  37  1   
 32  16  38  1   
 33  17  19  1   
 34  17  20  1   
 35  17  39  1   
 36  18  21  1   
 37  18  22  1   
 38  19  23  1   
 39  19  40  1   
 40  19  41  1   
 41  20  42  1   
 42  20  43  1   
 43  20  44  1   
 44  21  24  ar  
 45  21  25  ar  
 46  22  23  1   
 47  22  45  1   
 48  22  46  1   
 49  23  47  1   
 50  23  48  1   
@<TRIPOS>SUBSTRUCTURE
  1 ****  13 GROUP 4 **** **** 0

# MOE 2024.06 (io_trps.svl 2023.06)
