@<TRIPOS>MOLECULE
NONAME
49 52 1 0 0 
SMALL
USER_CHARGES


@<TRIPOS>ATOM
  1 CL      -1.1240    -3.5310     3.0400 Cl    1 <1>  -0.1770 
  2 C       -2.4170    -3.5110     1.8690 C.ar  1 <1>   0.1770 
  3 C       -3.4000    -2.5460     1.9590 C.ar  1 <1>  -0.1500 
  4 C       -2.4400    -4.4610     0.8670 C.ar  1 <1>  -0.1500 
  5 C       -4.4230    -2.5370     1.0270 C.ar  1 <1>  -0.1500 
  6 C       -3.4680    -4.4450    -0.0620 C.ar  1 <1>  -0.1500 
  7 C       -4.4720    -3.4820     0.0070 C.ar  1 <1>  -0.1080 
  8 C       -5.6550    -3.4070    -0.9800 C.3   1 <1>   0.1610 
  9 C       -7.0140    -3.5300    -0.2710 C.2   1 <1>   0.5770 
 10 C       -5.5140    -2.1650    -1.9220 C.3   1 <1>   0.0000 
 11 C       -5.5890    -4.2600    -2.2900 C.3   1 <1>   0.0000 
 12 O       -7.7760    -2.5890    -0.2810 O.2   1 <1>  -0.5700 
 13 N       -7.3610    -4.6860     0.3810 N.am  1 <1>  -0.6600 
 14 C       -4.7960    -3.0950    -2.9320 C.3   1 <1>   0.0000 
 15 C       -8.7160    -4.9110     0.9420 C.3   1 <1>   0.1400 
 16 C       -6.5180    -5.8940     0.5640 C.3   1 <1>   0.1400 
 17 C       -8.6090    -6.2310     1.7080 C.3   1 <1>   0.2000 
 18 C       -7.4880    -6.9990     1.0020 C.3   1 <1>  -0.0800 
 19 O       -8.1920    -5.9580     3.0000 O.3   1 <1>  -0.6800 
 20 C       -8.0320    -7.7930    -0.2030 C.3   1 <1>  -0.0170 
 21 C       -6.9580    -8.6490    -0.8580 C.ar  1 <1>   0.1670 
 22 N       -6.3110    -8.1130    -1.8830 N.ar  1 <1>  -0.6200 
 23 C       -6.7100    -9.9230    -0.3680 C.ar  1 <1>  -0.1500 
 24 C       -5.3880    -8.8780    -2.4430 C.ar  1 <1>   0.1600 
 25 C       -5.7430   -10.7070    -0.9590 C.ar  1 <1>  -0.1500 
 26 C       -5.0690   -10.1590    -2.0280 C.ar  1 <1>  -0.1500 
 27 H       -3.3630    -1.8150     2.7460 H     1 <1>   0.1500 
 28 H       -1.6630    -5.2020     0.8170 H     1 <1>   0.1500 
 29 H       -5.1920    -1.7840     1.0990 H     1 <1>   0.1500 
 30 H       -3.4620    -5.1970    -0.8290 H     1 <1>   0.1500 
 31 H       -6.4480    -1.8030    -2.3180 H     1 <1>   0.0000 
 32 H       -4.8850    -1.3780    -1.5440 H     1 <1>   0.0000 
 33 H       -5.0470    -5.1840    -2.2400 H     1 <1>   0.0000 
 34 H       -6.5560    -4.3840    -2.7490 H     1 <1>   0.0000 
 35 H       -3.7350    -3.1630    -2.7620 H     1 <1>   0.0000 
 36 H       -5.0560    -2.9060    -3.9590 H     1 <1>   0.0000 
 37 H       -9.0220    -4.0970     1.5770 H     1 <1>   0.0800 
 38 H       -9.4130    -5.0090     0.1280 H     1 <1>   0.0800 
 39 H       -5.9890    -6.1470    -0.3350 H     1 <1>   0.0800 
 40 H       -5.8030    -5.7050     1.3470 H     1 <1>   0.0800 
 41 H       -9.5410    -6.7680     1.7620 H     1 <1>   0.0800 
 42 H       -7.0090    -7.6870     1.6770 H     1 <1>   0.0800 
 43 H       -7.4680    -5.3010     2.9670 H     1 <1>   0.4000 
 44 H       -8.4420    -7.1230    -0.9390 H     1 <1>   0.0800 
 45 H       -8.8280    -8.4370     0.1240 H     1 <1>   0.0800 
 46 H       -7.2680   -10.3010     0.4690 H     1 <1>   0.1500 
 47 H       -4.8570    -8.4610    -3.2820 H     1 <1>   0.1500 
 48 H       -5.5260   -11.7000    -0.6040 H     1 <1>   0.1500 
 49 H       -4.3040   -10.7170    -2.5370 H     1 <1>   0.1500 
@<TRIPOS>BOND
  1   1   2  1   
  2   2   3  ar  
  3   2   4  ar  
  4   3   5  ar  
  5   3  27  1   
  6   4   6  ar  
  7   4  28  1   
  8   5   7  ar  
  9   5  29  1   
 10   6   7  ar  
 11   6  30  1   
 12   7   8  1   
 13   8   9  1   
 14   8  10  1   
 15   8  11  1   
 16   9  12  2   
 17   9  13  am  
 18  10  14  1   
 19  10  31  1   
 20  10  32  1   
 21  11  14  1   
 22  11  33  1   
 23  11  34  1   
 24  13  15  1   
 25  13  16  1   
 26  14  35  1   
 27  14  36  1   
 28  15  17  1   
 29  15  37  1   
 30  15  38  1   
 31  16  18  1   
 32  16  39  1   
 33  16  40  1   
 34  17  18  1   
 35  17  19  1   
 36  17  41  1   
 37  18  20  1   
 38  18  42  1   
 39  19  43  1   
 40  20  21  1   
 41  20  44  1   
 42  20  45  1   
 43  21  22  ar  
 44  21  23  ar  
 45  22  24  ar  
 46  23  25  ar  
 47  23  46  1   
 48  24  26  ar  
 49  24  47  1   
 50  25  26  ar  
 51  25  48  1   
 52  26  49  1   
@<TRIPOS>SUBSTRUCTURE
  1 ****  16 GROUP 4 **** **** 0

# MOE 2024.06 (io_trps.svl 2023.06)
