@<TRIPOS>MOLECULE
NONAME
54 56 1 0 0 
SMALL
USER_CHARGES


@<TRIPOS>ATOM
  1 O       -0.5680     0.7790    -1.2140 O.2   1 <1>  -0.5700 
  2 C       -1.4670     0.6740    -0.4090 C.2   1 <1>   0.5690 
  3 N       -1.8130    -0.5570     0.1160 N.am  1 <1>  -0.5090 
  4 C       -2.2010     1.9680    -0.0170 C.3   1 <1>  -0.0190 
  5 C       -1.0340    -1.7640    -0.2650 C.3   1 <1>   0.0490 
  6 C       -2.7890    -0.7750     1.2240 C.3   1 <1>   0.2840 
  7 C       -3.2490     2.3590    -1.0760 C.3   1 <1>  -0.1600 
  8 C       -1.2640     3.1730     0.2500 C.3   1 <1>  -0.1600 
  9 C       -1.1400    -2.2370    -1.6810 C.3   1 <1>  -0.2000 
 10 C       -1.7190    -3.0610    -0.5790 C.3   1 <1>  -0.2000 
 11 C       -4.2060    -0.3610     0.8350 C.ar  1 <1>  -0.1440 
 12 C       -4.2010     3.4370    -0.5250 C.3   1 <1>   0.2000 
 13 C       -1.9850     4.5380     0.1660 C.3   1 <1>  -0.1600 
 14 C       -4.7570    -0.7460    -0.3800 C.ar  1 <1>  -0.1500 
 15 C       -4.9560     0.4310     1.6940 C.ar  1 <1>  -0.1500 
 16 O       -4.7500     4.1470    -1.6080 O.3   1 <1>  -0.5600 
 17 C       -3.4880     4.4170     0.4480 C.3   1 <1>   0.2000 
 18 C       -6.0200    -0.3150    -0.7440 C.ar  1 <1>  -0.1500 
 19 C       -6.2200     0.8640     1.3330 C.ar  1 <1>  -0.1500 
 20 C       -5.7930     3.4910    -2.2650 C.3   1 <1>   0.0400 
 21 O       -4.0530     5.6700     0.3270 O.3   1 <1>  -0.6800 
 22 C       -6.7520     0.5040     0.0980 C.ar  1 <1>   0.0820 
 23 O       -7.9610     0.9180    -0.3530 O.3   1 <1>  -0.3620 
 24 C       -8.7680     1.7900     0.4030 C.3   1 <1>   0.1200 
 25 C      -10.0190     2.1010    -0.4120 C.3   1 <1>  -0.2400 
 26 H       -2.7170     1.7960     0.9040 H     1 <1>   0.0800 
 27 H       -0.0590    -1.7840     0.1940 H     1 <1>   0.1000 
 28 H       -2.7990    -1.8120     1.5080 H     1 <1>   0.0800 
 29 H       -2.4620    -0.2150     2.0820 H     1 <1>   0.0800 
 30 H       -3.8160     1.5000    -1.3710 H     1 <1>   0.0800 
 31 H       -2.7360     2.7320    -1.9460 H     1 <1>   0.0800 
 32 H       -0.8230     3.0560     1.2250 H     1 <1>   0.0800 
 33 H       -0.4570     3.1820    -0.4630 H     1 <1>   0.0800 
 34 H       -1.7920    -1.6980    -2.3450 H     1 <1>   0.1000 
 35 H       -0.2450    -2.5780    -2.1700 H     1 <1>   0.1000 
 36 H       -1.2230    -3.9820    -0.3300 H     1 <1>   0.1000 
 37 H       -2.7890    -3.1420    -0.5180 H     1 <1>   0.1000 
 38 H       -5.0040     2.9690     0.0180 H     1 <1>   0.0800 
 39 H       -1.8620     4.9310    -0.8290 H     1 <1>   0.0800 
 40 H       -1.5360     5.2290     0.8570 H     1 <1>   0.0800 
 41 H       -4.1990    -1.3680    -1.0570 H     1 <1>   0.1500 
 42 H       -4.5580     0.7240     2.6500 H     1 <1>   0.1500 
 43 H       -3.6280     4.0910     1.4640 H     1 <1>   0.0800 
 44 H       -6.4420    -0.6050    -1.6890 H     1 <1>   0.1500 
 45 H       -6.7710     1.4790     2.0190 H     1 <1>   0.1500 
 46 H       -6.1610     4.1400    -3.0390 H     1 <1>   0.0800 
 47 H       -6.5820     3.2790    -1.5640 H     1 <1>   0.0800 
 48 H       -5.4270     2.5800    -2.7050 H     1 <1>   0.0800 
 49 H       -4.4180     5.7030    -0.5880 H     1 <1>   0.4000 
 50 H       -9.0270     1.3010     1.3260 H     1 <1>   0.0800 
 51 H       -8.2110     2.6900     0.5990 H     1 <1>   0.0800 
 52 H      -10.5610     1.1940    -0.6170 H     1 <1>   0.0800 
 53 H       -9.7490     2.5750    -1.3390 H     1 <1>   0.0800 
 54 H      -10.6580     2.7650     0.1400 H     1 <1>   0.0800 
@<TRIPOS>BOND
  1   1   2  2   
  2   2   3  am  
  3   2   4  1   
  4   3   5  1   
  5   3   6  1   
  6   4   7  1   
  7   4   8  1   
  8   4  26  1   
  9   5   9  1   
 10   5  10  1   
 11   5  27  1   
 12   6  11  1   
 13   6  28  1   
 14   6  29  1   
 15   7  12  1   
 16   7  30  1   
 17   7  31  1   
 18   8  13  1   
 19   8  32  1   
 20   8  33  1   
 21   9  10  1   
 22   9  34  1   
 23   9  35  1   
 24  10  36  1   
 25  10  37  1   
 26  11  14  ar  
 27  11  15  ar  
 28  12  16  1   
 29  12  17  1   
 30  12  38  1   
 31  13  17  1   
 32  13  39  1   
 33  13  40  1   
 34  14  18  ar  
 35  14  41  1   
 36  15  19  ar  
 37  15  42  1   
 38  16  20  1   
 39  17  21  1   
 40  17  43  1   
 41  18  22  ar  
 42  18  44  1   
 43  19  22  ar  
 44  19  45  1   
 45  20  46  1   
 46  20  47  1   
 47  20  48  1   
 48  21  49  1   
 49  22  23  1   
 50  23  24  1   
 51  24  25  1   
 52  24  50  1   
 53  24  51  1   
 54  25  52  1   
 55  25  53  1   
 56  25  54  1   
@<TRIPOS>SUBSTRUCTURE
  1 ****   7 GROUP 4 **** **** 0

# MOE 2024.06 (io_trps.svl 2023.06)
