@<TRIPOS>MOLECULE
NONAME
42 42 1 0 0 
SMALL
USER_CHARGES


@<TRIPOS>ATOM
  1 S        0.5550    -0.1320    -0.6690 S.o2  1 <1>   1.3330 
  2 O        0.5940    -1.4650    -0.1280 O.2   1 <1>  -0.6500 
  3 O        0.7200     0.1010    -2.0800 O.2   1 <1>  -0.6500 
  4 N       -0.9910     0.3720    -0.3720 N.am  1 <1>  -0.9780 
  5 C        1.5850     0.9760     0.3030 C.3   1 <1>  -0.0550 
  6 C        1.4420     2.4640    -0.0680 C.3   1 <1>  -0.1600 
  7 C        2.3630     3.3590     0.7850 C.3   1 <1>  -0.0990 
  8 C        2.2670     4.8490     0.4620 C.2   1 <1>   0.5690 
  9 O        1.3660     5.2220    -0.2500 O.2   1 <1>  -0.5700 
 10 N        3.1850     5.7250     0.9800 N.am  1 <1>  -0.6600 
 11 C        3.1770     7.1720     0.5360 C.3   1 <1>   0.3640 
 12 C        4.2710     5.3370     1.9320 C.3   1 <1>   0.0600 
 13 C        4.5410     7.6190    -0.0230 C.ar  1 <1>   0.1670 
 14 C        2.6780     8.0830     1.6690 C.3   1 <1>   0.1200 
 15 N        5.5410     7.8690     0.8250 N.ar  1 <1>  -0.6200 
 16 C        4.6690     7.7410    -1.4010 C.ar  1 <1>  -0.1500 
 17 O        2.3510     9.3460     1.1610 O.3   1 <1>  -0.5600 
 18 C        6.6820     8.2550     0.2800 C.ar  1 <1>   0.1600 
 19 C        5.8660     8.1390    -1.9540 C.ar  1 <1>  -0.1500 
 20 C        1.9900    10.2670     2.1360 C.3   1 <1>   0.0400 
 21 C        6.8960     8.4030    -1.0790 C.ar  1 <1>  -0.1500 
 22 H       -1.5000    -0.4950    -0.2170 H     1 <1>   0.4200 
 23 H       -1.3060     0.7220    -1.2750 H     1 <1>   0.4200 
 24 H        2.6100     0.6860     0.1780 H     1 <1>   0.0800 
 25 H        1.3370     0.8530     1.3400 H     1 <1>   0.0800 
 26 H        0.4190     2.7700     0.0740 H     1 <1>   0.0800 
 27 H        1.6810     2.5980    -1.1110 H     1 <1>   0.0800 
 28 H        3.3800     3.0460     0.6350 H     1 <1>   0.0800 
 29 H        2.1140     3.2300     1.8220 H     1 <1>   0.0800 
 30 H        2.4600     7.2800    -0.2570 H     1 <1>   0.0800 
 31 H        4.0090     4.4550     2.4860 H     1 <1>   0.0800 
 32 H        4.4500     6.1300     2.6360 H     1 <1>   0.0800 
 33 H        5.1800     5.1550     1.3850 H     1 <1>   0.0800 
 34 H        3.4410     8.1990     2.4170 H     1 <1>   0.0800 
 35 H        1.7900     7.6620     2.1050 H     1 <1>   0.0800 
 36 H        3.8320     7.5250    -2.0410 H     1 <1>   0.1500 
 37 H        7.4950     8.4650     0.9530 H     1 <1>   0.1500 
 38 H        5.9880     8.2420    -3.0180 H     1 <1>   0.1500 
 39 H        1.7480    11.1940     1.6470 H     1 <1>   0.0800 
 40 H        2.8190    10.4180     2.8060 H     1 <1>   0.0800 
 41 H        1.1300     9.9020     2.6700 H     1 <1>   0.0800 
 42 H        7.8560     8.7210    -1.4440 H     1 <1>   0.1500 
@<TRIPOS>BOND
  1   1   2  2   
  2   1   3  2   
  3   1   4  am  
  4   1   5  1   
  5   4  22  1   
  6   4  23  1   
  7   5   6  1   
  8   5  24  1   
  9   5  25  1   
 10   6   7  1   
 11   6  26  1   
 12   6  27  1   
 13   7   8  1   
 14   7  28  1   
 15   7  29  1   
 16   8   9  2   
 17   8  10  am  
 18  10  11  1   
 19  10  12  1   
 20  11  13  1   
 21  11  14  1   
 22  11  30  1   
 23  12  31  1   
 24  12  32  1   
 25  12  33  1   
 26  13  15  ar  
 27  13  16  ar  
 28  14  17  1   
 29  14  34  1   
 30  14  35  1   
 31  15  18  ar  
 32  16  19  ar  
 33  16  36  1   
 34  17  20  1   
 35  18  21  ar  
 36  18  37  1   
 37  19  21  ar  
 38  19  38  1   
 39  20  39  1   
 40  20  40  1   
 41  20  41  1   
 42  21  42  1   
@<TRIPOS>SUBSTRUCTURE
  1 ****   8 GROUP 4 **** **** 0

# MOE 2024.06 (io_trps.svl 2023.06)
