@<TRIPOS>MOLECULE
NONAME
43 46 1 0 0 
SMALL
USER_CHARGES


@<TRIPOS>ATOM
  1 O       -1.8230     1.4430    -2.1740 O.2   1 <1>  -0.5700 
  2 C       -1.8630     1.1880    -0.9830 C.2   1 <1>   0.7160 
  3 N       -2.0980    -0.1000    -0.5910 N.am  1 <1>  -0.5100 
  4 C       -1.6480     2.2090    -0.0150 C.2   1 <1>  -0.0860 
  5 C       -2.9250    -1.0740    -1.3840 C.3   1 <1>   0.2250 
  6 C       -2.8750    -0.4850     0.6390 C.3   1 <1>   0.2250 
  7 C       -2.6530     2.9510     0.6040 C.2   1 <1>   0.3720 
  8 C       -0.5080     2.6630     0.5650 C.2   1 <1>   0.0870 
  9 C       -3.1870    -1.8330    -0.0590 C.3   1 <1>   0.2580 
 10 N       -2.1610     3.7530     1.4820 N.2   1 <1>  -0.4100 
 11 N       -4.0170     2.8280     0.3170 N.pl3 1 <1>  -0.8210 
 12 O       -0.8670     3.5670     1.4410 O.3   1 <1>  -0.0190 
 13 C        0.8790     2.3140     0.3870 C.ar  1 <1>   0.0530 
 14 O       -2.2110    -2.7950     0.1980 O.3   1 <1>  -0.6580 
 15 C       -4.9430     3.3020     1.3940 C.3   1 <1>   0.2090 
 16 C       -4.4120     3.4310    -0.9940 C.3   1 <1>   0.2090 
 17 C        1.7800     2.4050     1.4480 C.ar  1 <1>  -0.1500 
 18 C        1.3740     1.8740    -0.8410 C.ar  1 <1>  -0.1500 
 19 C       -6.4110     3.0560     1.0030 C.3   1 <1>   0.1200 
 20 C       -5.9030     3.1820    -1.2860 C.3   1 <1>   0.1200 
 21 C        3.1110     2.0640     1.2960 C.ar  1 <1>  -0.1500 
 22 C        2.7040     1.5290    -0.9990 C.ar  1 <1>  -0.1500 
 23 O       -6.7060     3.6440    -0.2340 O.3   1 <1>  -0.5600 
 24 C        3.5760     1.6220     0.0700 C.ar  1 <1>  -0.1500 
 25 H       -2.3410    -1.6230    -2.1010 H     1 <1>   0.0000 
 26 H       -3.8000    -0.5990    -1.7930 H     1 <1>   0.0000 
 27 H       -3.7420     0.1380     0.7710 H     1 <1>   0.0000 
 28 H       -2.2520    -0.5710     1.5120 H     1 <1>   0.0000 
 29 H       -4.1780    -2.2270     0.0810 H     1 <1>   0.0000 
 30 H       -1.3290    -2.4040     0.0360 H     1 <1>   0.4000 
 31 H       -4.7950     4.3550     1.5650 H     1 <1>   0.0800 
 32 H       -4.7220     2.7810     2.3090 H     1 <1>   0.0800 
 33 H       -3.8250     3.0070    -1.7880 H     1 <1>   0.0800 
 34 H       -4.2260     4.4920    -0.9740 H     1 <1>   0.0800 
 35 H        1.4320     2.7470     2.4070 H     1 <1>   0.1500 
 36 H        0.7180     1.8060    -1.6910 H     1 <1>   0.1500 
 37 H       -7.0670     3.4890     1.7360 H     1 <1>   0.0800 
 38 H       -6.6100     2.0010     0.9390 H     1 <1>   0.0800 
 39 H       -6.0870     2.1310    -1.4240 H     1 <1>   0.0800 
 40 H       -6.1980     3.7060    -2.1770 H     1 <1>   0.0800 
 41 H        3.7870     2.1410     2.1300 H     1 <1>   0.1500 
 42 H        3.0620     1.1900    -1.9560 H     1 <1>   0.1500 
 43 H        4.6110     1.3540    -0.0510 H     1 <1>   0.1500 
@<TRIPOS>BOND
  1   1   2  2   
  2   2   3  am  
  3   2   4  1   
  4   3   5  1   
  5   3   6  1   
  6   4   7  1   
  7   4   8  2   
  8   5   9  1   
  9   5  25  1   
 10   5  26  1   
 11   6   9  1   
 12   6  27  1   
 13   6  28  1   
 14   7  10  2   
 15   7  11  1   
 16   8  12  1   
 17   8  13  1   
 18   9  14  1   
 19   9  29  1   
 20  10  12  1   
 21  11  15  1   
 22  11  16  1   
 23  13  17  ar  
 24  13  18  ar  
 25  14  30  1   
 26  15  19  1   
 27  15  31  1   
 28  15  32  1   
 29  16  20  1   
 30  16  33  1   
 31  16  34  1   
 32  17  21  ar  
 33  17  35  1   
 34  18  22  ar  
 35  18  36  1   
 36  19  23  1   
 37  19  37  1   
 38  19  38  1   
 39  20  23  1   
 40  20  39  1   
 41  20  40  1   
 42  21  24  ar  
 43  21  41  1   
 44  22  24  ar  
 45  22  42  1   
 46  24  43  1   
@<TRIPOS>SUBSTRUCTURE
  1 ****   4 GROUP 4 **** **** 0

# MOE 2024.06 (io_trps.svl 2023.06)
