@<TRIPOS>MOLECULE
NONAME
46 48 1 0 0 
SMALL
USER_CHARGES


@<TRIPOS>ATOM
  1 S        0.0260    -0.1460    -1.0470 S.3   1 <1>   0.1810 
  2 N        0.3050    -0.6000    -2.6520 N.2   1 <1>  -0.2210 
  3 C        1.7010     0.1770    -0.7640 C.2   1 <1>  -0.1400 
  4 N        1.5310    -0.5330    -2.9320 N.2   1 <1>  -0.2270 
  5 C        2.3400    -0.1130    -1.9010 C.2   1 <1>   0.0460 
  6 C        2.1060     0.6660     0.6050 C.3   1 <1>   0.5230 
  7 C        3.8260    -0.0390    -2.1970 C.3   1 <1>  -0.0590 
  8 N        2.2100     2.1580     0.5990 N.4   1 <1>  -0.9590 
  9 C        2.8680     2.6580     1.8460 C.3   1 <1>   0.4860 
 10 C        0.8860     2.8250     0.3470 C.3   1 <1>   0.2630 
 11 C        3.1110     4.1460     1.7370 C.ar  1 <1>  -0.1430 
 12 C        2.3080     5.0530     2.3920 C.ar  1 <1>   0.1600 
 13 C        4.1400     4.6620     0.9800 C.ar  1 <1>   0.1600 
 14 N        2.4830     6.3440     2.2830 N.ar  1 <1>  -0.6200 
 15 N        4.3360     5.9480     0.8580 N.ar  1 <1>  -0.6200 
 16 C        3.4920     6.7320     1.5190 C.ar  1 <1>   0.7200 
 17 N        3.6410     8.0680     1.4230 N.pl3 1 <1>  -0.8690 
 18 C        4.9230     8.7490     1.0850 C.3   1 <1>   0.2090 
 19 C        5.0710     8.9660    -0.4280 C.3   1 <1>   0.2000 
 20 O        6.1950     9.7470    -0.6810 O.3   1 <1>  -0.5600 
 21 C        3.9320     9.7390    -1.0820 C.3   1 <1>  -0.1600 
 22 C        6.0990    10.3240    -1.9440 C.3   1 <1>   0.1200 
 23 C        4.6090    10.4100    -2.2660 C.3   1 <1>  -0.1600 
 24 H        3.0640     0.2360     0.8500 H     1 <1>   0.0800 
 25 H        1.3900     0.3350     1.3400 H     1 <1>   0.0800 
 26 H        4.3840     0.2780    -1.3360 H     1 <1>   0.0800 
 27 H        4.0020     0.6500    -3.0040 H     1 <1>   0.0800 
 28 H        4.1800    -1.0090    -2.4990 H     1 <1>   0.0800 
 29 H        2.8150     2.4080    -0.1960 H     1 <1>   0.4500 
 30 H        3.8120     2.1590     1.9940 H     1 <1>   0.0800 
 31 H        2.2430     2.4560     2.7010 H     1 <1>   0.0800 
 32 H        0.1810     2.5800     1.1260 H     1 <1>   0.0800 
 33 H        0.4780     2.5070    -0.5990 H     1 <1>   0.0800 
 34 H        1.0030     3.8970     0.3120 H     1 <1>   0.0800 
 35 H        1.4960     4.7240     3.0200 H     1 <1>   0.1500 
 36 H        4.8240     4.0160     0.4570 H     1 <1>   0.1500 
 37 H        3.0220     8.5780     2.0530 H     1 <1>   0.4000 
 38 H        5.7510     8.1570     1.4360 H     1 <1>   0.0800 
 39 H        4.9520     9.7040     1.5810 H     1 <1>   0.0800 
 40 H        5.2180     8.0210    -0.9220 H     1 <1>   0.0800 
 41 H        3.5570    10.4790    -0.3980 H     1 <1>   0.0800 
 42 H        3.1300     9.0850    -1.3730 H     1 <1>   0.0800 
 43 H        6.6150     9.6880    -2.6430 H     1 <1>   0.0800 
 44 H        6.5660    11.2940    -1.9120 H     1 <1>   0.0800 
 45 H        4.2920    11.4320    -2.3750 H     1 <1>   0.0800 
 46 H        4.4050     9.8800    -3.1800 H     1 <1>   0.0800 
@<TRIPOS>BOND
  1   1   2  1   
  2   1   3  1   
  3   2   4  2   
  4   3   5  2   
  5   3   6  1   
  6   4   5  1   
  7   5   7  1   
  8   6   8  1   
  9   6  24  1   
 10   6  25  1   
 11   7  26  1   
 12   7  27  1   
 13   7  28  1   
 14   8   9  1   
 15   8  10  1   
 16   8  29  1   
 17   9  11  1   
 18   9  30  1   
 19   9  31  1   
 20  10  32  1   
 21  10  33  1   
 22  10  34  1   
 23  11  12  ar  
 24  11  13  ar  
 25  12  14  ar  
 26  12  35  1   
 27  13  15  ar  
 28  13  36  1   
 29  14  16  ar  
 30  15  16  ar  
 31  16  17  1   
 32  17  18  1   
 33  17  37  1   
 34  18  19  1   
 35  18  38  1   
 36  18  39  1   
 37  19  20  1   
 38  19  21  1   
 39  19  40  1   
 40  20  22  1   
 41  21  23  1   
 42  21  41  1   
 43  21  42  1   
 44  22  23  1   
 45  22  43  1   
 46  22  44  1   
 47  23  45  1   
 48  23  46  1   
@<TRIPOS>SUBSTRUCTURE
  1 ****  13 GROUP 4 **** **** 0

# MOE 2024.06 (io_trps.svl 2023.06)
