@<TRIPOS>MOLECULE
NONAME
44 46 1 0 0 
SMALL
USER_CHARGES


@<TRIPOS>ATOM
  1 S        1.1490     0.8720    -0.1070 S.o2  1 <1>   1.4470 
  2 O        1.4930     1.7910     0.9490 O.2   1 <1>  -0.6500 
  3 O        1.7950     0.9020    -1.3950 O.2   1 <1>  -0.6500 
  4 N       -0.4700     1.1220    -0.4110 N.am  1 <1>  -0.9780 
  5 C        1.1700    -0.8270     0.5370 C.ar  1 <1>  -0.0090 
  6 C        1.0120    -1.9130    -0.3160 C.ar  1 <1>  -0.1500 
  7 C        1.3250    -1.0790     1.8980 C.ar  1 <1>  -0.1500 
  8 C        0.9960    -3.2380     0.1290 C.ar  1 <1>   0.0860 
  9 C        1.3190    -2.3730     2.3850 C.ar  1 <1>  -0.1500 
 10 C        1.1540    -3.4220     1.5030 C.ar  1 <1>   0.1900 
 11 C        0.8090    -4.3220    -0.8150 C.2   1 <1>   0.5440 
 12 F        1.1380    -4.6250     2.0080 F     1 <1>  -0.1900 
 13 O        0.1350    -4.1460    -1.8100 O.2   1 <1>  -0.5700 
 14 N        1.3740    -5.5480    -0.6300 N.am  1 <1>  -0.7300 
 15 C        1.2290    -6.7150    -1.5320 C.3   1 <1>   0.2200 
 16 C        0.2510    -7.7330    -0.9610 C.3   1 <1>  -0.0800 
 17 C        2.5200    -7.5230    -1.5020 C.3   1 <1>   0.1200 
 18 C        1.1240    -8.5500    -0.0010 C.3   1 <1>   0.1200 
 19 C       -1.0250    -7.1580    -0.3200 C.3   1 <1>  -0.0170 
 20 O        2.4560    -8.2680    -0.3240 O.3   1 <1>  -0.5600 
 21 C       -1.9560    -8.2720     0.1310 C.ar  1 <1>  -0.1430 
 22 C       -2.8010    -8.9130    -0.7520 C.ar  1 <1>  -0.1500 
 23 C       -2.0060    -8.7010     1.4420 C.ar  1 <1>  -0.1500 
 24 C       -3.6260    -9.9280    -0.2960 C.ar  1 <1>   0.1600 
 25 C       -2.8690    -9.7250     1.7950 C.ar  1 <1>   0.1600 
 26 N       -3.6790   -10.3510     0.9560 N.ar  1 <1>  -0.6200 
 27 H       -0.9750     0.9990     0.4590 H     1 <1>   0.4200 
 28 H       -0.7670     0.4420    -1.1030 H     1 <1>   0.4200 
 29 H        0.9000    -1.7330    -1.3740 H     1 <1>   0.1500 
 30 H        1.4550    -0.2540     2.5820 H     1 <1>   0.1500 
 31 H        1.4410    -2.5670     3.4370 H     1 <1>   0.1500 
 32 H        1.8770    -5.7590     0.2380 H     1 <1>   0.3700 
 33 H        0.9690    -6.3990    -2.5280 H     1 <1>   0.0800 
 34 H       -0.0430    -8.3890    -1.7620 H     1 <1>   0.0800 
 35 H        3.4000    -6.9050    -1.4960 H     1 <1>   0.0800 
 36 H        2.5590    -8.2120    -2.3280 H     1 <1>   0.0800 
 37 H        0.9530    -9.6070    -0.1080 H     1 <1>   0.0800 
 38 H        0.9710    -8.2580     1.0230 H     1 <1>   0.0800 
 39 H       -1.5340    -6.5350    -1.0370 H     1 <1>   0.0800 
 40 H       -0.7780    -6.5400     0.5250 H     1 <1>   0.0800 
 41 H       -2.8240    -8.6330    -1.7890 H     1 <1>   0.1500 
 42 H       -1.3840    -8.2490     2.1930 H     1 <1>   0.1500 
 43 H       -4.2780   -10.4160    -1.0000 H     1 <1>   0.1500 
 44 H       -2.8930   -10.0470     2.8220 H     1 <1>   0.1500 
@<TRIPOS>BOND
  1   1   2  2   
  2   1   3  2   
  3   1   4  am  
  4   1   5  1   
  5   4  27  1   
  6   4  28  1   
  7   5   6  ar  
  8   5   7  ar  
  9   6   8  ar  
 10   6  29  1   
 11   7   9  ar  
 12   7  30  1   
 13   8  10  ar  
 14   8  11  1   
 15   9  10  ar  
 16   9  31  1   
 17  10  12  1   
 18  11  13  2   
 19  11  14  am  
 20  14  15  1   
 21  14  32  1   
 22  15  16  1   
 23  15  17  1   
 24  15  33  1   
 25  16  18  1   
 26  16  19  1   
 27  16  34  1   
 28  17  20  1   
 29  17  35  1   
 30  17  36  1   
 31  18  20  1   
 32  18  37  1   
 33  18  38  1   
 34  19  21  1   
 35  19  39  1   
 36  19  40  1   
 37  21  22  ar  
 38  21  23  ar  
 39  22  24  ar  
 40  22  41  1   
 41  23  25  ar  
 42  23  42  1   
 43  24  26  ar  
 44  24  43  1   
 45  25  26  ar  
 46  25  44  1   
@<TRIPOS>SUBSTRUCTURE
  1 ****  11 GROUP 4 **** **** 0

# MOE 2024.06 (io_trps.svl 2023.06)
