@<TRIPOS>MOLECULE
NONAME
45 47 1 0 0 
SMALL
USER_CHARGES


@<TRIPOS>ATOM
  1 O       -0.4300     0.2390     0.5560 O.2   1 <1>  -0.5700 
  2 C       -1.4440     0.7850     0.1910 C.2   1 <1>   0.5690 
  3 N       -2.5590     0.0660    -0.1310 N.am  1 <1>  -0.6600 
  4 C       -1.4820     2.3020     0.1010 C.3   1 <1>  -0.0990 
  5 C       -3.9140     0.5960    -0.4350 C.3   1 <1>   0.1400 
  6 C       -2.6000    -1.4190    -0.0660 C.3   1 <1>   0.1400 
  7 C       -0.0990     2.9610     0.2070 C.3   1 <1>  -0.0160 
  8 C       -4.8550    -0.5250    -0.0020 C.3   1 <1>   0.2000 
  9 C       -4.0630    -1.7950    -0.3270 C.3   1 <1>  -0.0800 
 10 C       -0.2270     4.4700     0.0870 C.ar  1 <1>  -0.1440 
 11 O       -5.0290    -0.4240     1.3710 O.3   1 <1>  -0.6800 
 12 C       -4.5160    -3.0710     0.4050 C.3   1 <1>   0.0210 
 13 C       -0.4680     5.2690     1.1860 C.ar  1 <1>  -0.1500 
 14 C       -0.1140     5.1180    -1.1260 C.ar  1 <1>  -0.1500 
 15 C       -3.6500    -4.2520     0.0130 C.2   1 <1>   0.1080 
 16 C       -0.5860     6.6390     1.0230 C.ar  1 <1>   0.1600 
 17 C       -0.2480     6.4960    -1.1800 C.ar  1 <1>   0.1600 
 18 N       -3.5450    -4.6740    -1.2090 N.2   1 <1>  -0.7070 
 19 C       -2.8740    -4.9970     0.8950 C.2   1 <1>  -0.1500 
 20 N       -0.4840     7.2720    -0.1350 N.ar  1 <1>  -0.6200 
 21 N       -2.6900    -5.7120    -1.1380 N.pl3 1 <1>   0.3000 
 22 C       -2.2680    -5.9260     0.1260 C.2   1 <1>  -0.3320 
 23 C       -1.2980    -7.0210     0.5270 C.3   1 <1>  -0.0600 
 24 H       -1.9240     2.5800    -0.8370 H     1 <1>   0.0800 
 25 H       -2.1070     2.6710     0.8930 H     1 <1>   0.0800 
 26 H       -4.1250     1.5130     0.0870 H     1 <1>   0.0800 
 27 H       -3.9970     0.7530    -1.4970 H     1 <1>   0.0800 
 28 H       -1.9480    -1.8520    -0.8070 H     1 <1>   0.0800 
 29 H       -2.2830    -1.7400     0.9120 H     1 <1>   0.0800 
 30 H        0.5420     2.5840    -0.5710 H     1 <1>   0.0800 
 31 H        0.3530     2.7090     1.1510 H     1 <1>   0.0800 
 32 H       -5.8200    -0.4840    -0.4780 H     1 <1>   0.0800 
 33 H       -4.1580    -1.9730    -1.3850 H     1 <1>   0.0800 
 34 H       -4.1470    -0.3540     1.7890 H     1 <1>   0.4000 
 35 H       -5.5360    -3.2910     0.1460 H     1 <1>   0.0800 
 36 H       -4.4650    -2.9370     1.4700 H     1 <1>   0.0800 
 37 H       -0.5660     4.8390     2.1660 H     1 <1>   0.1500 
 38 H        0.0770     4.5670    -2.0280 H     1 <1>   0.1500 
 39 H       -0.7750     7.2470     1.8910 H     1 <1>   0.1500 
 40 H       -0.1560     6.9850    -2.1350 H     1 <1>   0.1500 
 41 H       -2.7920    -4.8420     1.9560 H     1 <1>   0.1500 
 42 H       -2.4150    -6.2510    -1.9680 H     1 <1>   0.2700 
 43 H       -1.1180    -6.9850     1.5870 H     1 <1>   0.0800 
 44 H       -0.3590    -6.8920     0.0180 H     1 <1>   0.0800 
 45 H       -1.7030    -7.9860     0.2810 H     1 <1>   0.0800 
@<TRIPOS>BOND
  1   1   2  2   
  2   2   3  am  
  3   2   4  1   
  4   3   5  1   
  5   3   6  1   
  6   4   7  1   
  7   4  24  1   
  8   4  25  1   
  9   5   8  1   
 10   5  26  1   
 11   5  27  1   
 12   6   9  1   
 13   6  28  1   
 14   6  29  1   
 15   7  10  1   
 16   7  30  1   
 17   7  31  1   
 18   8   9  1   
 19   8  11  1   
 20   8  32  1   
 21   9  12  1   
 22   9  33  1   
 23  10  13  ar  
 24  10  14  ar  
 25  11  34  1   
 26  12  15  1   
 27  12  35  1   
 28  12  36  1   
 29  13  16  ar  
 30  13  37  1   
 31  14  17  ar  
 32  14  38  1   
 33  15  18  2   
 34  15  19  1   
 35  16  20  ar  
 36  16  39  1   
 37  17  20  ar  
 38  17  40  1   
 39  18  21  1   
 40  19  22  2   
 41  19  41  1   
 42  21  22  1   
 43  21  42  1   
 44  22  23  1   
 45  23  43  1   
 46  23  44  1   
 47  23  45  1   
@<TRIPOS>SUBSTRUCTURE
  1 ****   3 GROUP 4 **** **** 0

# MOE 2024.06 (io_trps.svl 2023.06)
