@<TRIPOS>MOLECULE
NONAME
47 49 1 0 0 
SMALL
USER_CHARGES


@<TRIPOS>ATOM
  1 N       -0.6230    -0.5390     1.2940 N.2   1 <1>  -0.7070 
  2 N       -1.4220    -0.0460     0.3330 N.pl3 1 <1>   0.3140 
  3 C       -0.4800    -1.7930     1.0210 C.2   1 <1>   0.1080 
  4 C       -1.7940    -1.0170    -0.5250 C.2   1 <1>  -0.3020 
  5 C       -1.8060     1.3830     0.2950 C.3   1 <1>   0.0960 
  6 C       -1.2060    -2.1610    -0.1090 C.2   1 <1>  -0.1810 
  7 C        0.3960    -2.6760     1.8850 C.3   1 <1>  -0.0590 
  8 C       -0.7500     2.2480    -0.4140 C.3   1 <1>  -0.1600 
  9 C       -1.3050    -3.5430    -0.7100 C.3   1 <1>   0.5240 
 10 C       -0.5850     1.9100    -1.9020 C.3   1 <1>  -0.2400 
 11 N       -2.2310    -4.3380     0.1370 N.4   1 <1>  -0.9590 
 12 C       -2.1710    -5.7910    -0.2290 C.3   1 <1>   0.3430 
 13 C       -3.6190    -3.7950     0.0680 C.3   1 <1>   0.3430 
 14 C       -3.0910    -6.6590     0.6490 C.3   1 <1>   0.1000 
 15 C       -4.5360    -4.6000     0.9930 C.3   1 <1>  -0.1600 
 16 C       -3.0670    -8.0830     0.1190 C.2   1 <1>   0.0060 
 17 C       -4.5240    -6.0990     0.6520 C.3   1 <1>  -0.1600 
 18 N       -2.4890    -8.4140    -0.9920 N.2   1 <1>  -0.5650 
 19 N       -3.6400    -9.1300     0.7580 N.pl3 1 <1>   0.0330 
 20 C       -2.6970    -9.7420    -1.0860 C.2   1 <1>   0.0770 
 21 C       -3.3980   -10.1950    -0.0250 C.2   1 <1>  -0.3020 
 22 H       -2.4380    -0.8240    -1.3640 H     1 <1>   0.1500 
 23 H       -1.9180     1.7180     1.3100 H     1 <1>   0.0800 
 24 H       -2.7540     1.4740    -0.1990 H     1 <1>   0.0800 
 25 H        1.3000    -2.1450     2.1240 H     1 <1>   0.0800 
 26 H        0.6590    -3.5850     1.3810 H     1 <1>   0.0800 
 27 H       -0.1130    -2.9030     2.8030 H     1 <1>   0.0800 
 28 H        0.1950     2.1370     0.0930 H     1 <1>   0.0800 
 29 H       -1.0420     3.2800    -0.3250 H     1 <1>   0.0800 
 30 H       -0.3270    -3.9960    -0.7310 H     1 <1>   0.0800 
 31 H       -1.6790    -3.4810    -1.7190 H     1 <1>   0.0800 
 32 H       -0.2100     0.9090    -2.0260 H     1 <1>   0.0800 
 33 H        0.1180     2.5880    -2.3530 H     1 <1>   0.0800 
 34 H       -1.5240     2.0010    -2.4190 H     1 <1>   0.0800 
 35 H       -1.9070    -4.2110     1.1030 H     1 <1>   0.4500 
 36 H       -1.1620    -6.1600    -0.1430 H     1 <1>   0.0800 
 37 H       -2.4760    -5.9150    -1.2560 H     1 <1>   0.0800 
 38 H       -3.9860    -3.8570    -0.9440 H     1 <1>   0.0800 
 39 H       -3.6270    -2.7590     0.3690 H     1 <1>   0.0800 
 40 H       -2.7000    -6.6640     1.6510 H     1 <1>   0.0800 
 41 H       -5.5400    -4.2240     0.8970 H     1 <1>   0.0800 
 42 H       -4.2340    -4.4490     2.0150 H     1 <1>   0.0800 
 43 H       -5.1280    -6.6370     1.3630 H     1 <1>   0.0800 
 44 H       -4.9610    -6.2460    -0.3230 H     1 <1>   0.0800 
 45 H       -4.1540    -9.1250     1.6450 H     1 <1>   0.2700 
 46 H       -2.3270   -10.3120    -1.9230 H     1 <1>   0.1500 
 47 H       -3.7280   -11.1920     0.2050 H     1 <1>   0.1500 
@<TRIPOS>BOND
  1   1   2  1   
  2   1   3  2   
  3   2   4  1   
  4   2   5  1   
  5   3   6  1   
  6   3   7  1   
  7   4   6  2   
  8   4  22  1   
  9   5   8  1   
 10   5  23  1   
 11   5  24  1   
 12   6   9  1   
 13   7  25  1   
 14   7  26  1   
 15   7  27  1   
 16   8  10  1   
 17   8  28  1   
 18   8  29  1   
 19   9  11  1   
 20   9  30  1   
 21   9  31  1   
 22  10  32  1   
 23  10  33  1   
 24  10  34  1   
 25  11  12  1   
 26  11  13  1   
 27  11  35  1   
 28  12  14  1   
 29  12  36  1   
 30  12  37  1   
 31  13  15  1   
 32  13  38  1   
 33  13  39  1   
 34  14  16  1   
 35  14  17  1   
 36  14  40  1   
 37  15  17  1   
 38  15  41  1   
 39  15  42  1   
 40  16  18  2   
 41  16  19  1   
 42  17  43  1   
 43  17  44  1   
 44  18  20  1   
 45  19  21  1   
 46  19  45  1   
 47  20  21  2   
 48  20  46  1   
 49  21  47  1   
@<TRIPOS>SUBSTRUCTURE
  1 ****  11 GROUP 4 **** **** 0

# MOE 2024.06 (io_trps.svl 2023.06)
