@<TRIPOS>MOLECULE
NONAME
46 47 1 0 0 
SMALL
USER_CHARGES


@<TRIPOS>ATOM
  1 S        0.9490     0.4690     1.6640 S.o2  1 <1>   1.3330 
  2 O        1.9210     1.3530     2.2680 O.2   1 <1>  -0.6500 
  3 O       -0.0190    -0.2210     2.4780 O.2   1 <1>  -0.6500 
  4 N        1.8400    -0.7110     0.7660 N.am  1 <1>  -0.6930 
  5 C        0.1180     1.3670     0.3700 C.3   1 <1>  -0.1350 
  6 C        1.1760    -1.6170    -0.0590 C.ar  1 <1>   0.1990 
  7 C        3.3330    -0.5730     0.7590 C.3   1 <1>   0.3370 
  8 C        0.3500    -2.5920     0.4870 C.ar  1 <1>  -0.1500 
  9 C        1.3080    -1.5600    -1.4440 C.ar  1 <1>  -0.1500 
 10 C        3.8250     0.5540    -0.1790 C.2   1 <1>   0.5690 
 11 C        4.0050    -1.9310     0.4930 C.3   1 <1>  -0.2400 
 12 C       -0.3260    -3.4870    -0.3220 C.ar  1 <1>  -0.1500 
 13 C        0.6350    -2.4540    -2.2580 C.ar  1 <1>  -0.1500 
 14 O        4.1990     0.2860    -1.2990 O.2   1 <1>  -0.5700 
 15 N        3.8020     1.8370     0.2900 N.am  1 <1>  -0.4930 
 16 C       -0.1830    -3.4190    -1.6970 C.ar  1 <1>  -0.1500 
 17 C        4.1620     3.0390    -0.3650 C.2   1 <1>   0.0630 
 18 C        4.6870     3.2350    -1.6430 C.2   1 <1>   0.1390 
 19 C        4.0550     4.2800     0.1490 C.2   1 <1>  -0.3020 
 20 N        4.8900     4.4930    -1.9050 N.2   1 <1>  -0.7070 
 21 N        4.5010     5.1450    -0.7920 N.pl3 1 <1>   0.3140 
 22 C        4.5890     6.6280    -0.6870 C.3   1 <1>   0.1760 
 23 C        5.5240     7.0380     0.4590 C.3   1 <1>  -0.2400 
 24 C        3.1940     7.2440    -0.5080 C.3   1 <1>  -0.2400 
 25 H       -0.4620     2.1650     0.7900 H     1 <1>   0.0800 
 26 H       -0.5410     0.7140    -0.1690 H     1 <1>   0.0800 
 27 H        0.8300     1.7810    -0.3150 H     1 <1>   0.0800 
 28 H        3.6350    -0.2990     1.7550 H     1 <1>   0.0800 
 29 H        0.2380    -2.6470     1.5560 H     1 <1>   0.1500 
 30 H        1.9400    -0.8150    -1.8900 H     1 <1>   0.1500 
 31 H        3.8230    -2.2640    -0.5130 H     1 <1>   0.0800 
 32 H        3.6430    -2.6690     1.1860 H     1 <1>   0.0800 
 33 H        5.0680    -1.8360     0.6190 H     1 <1>   0.0800 
 34 H       -0.9620    -4.2360     0.1170 H     1 <1>   0.1500 
 35 H        0.7500    -2.3990    -3.3270 H     1 <1>   0.1500 
 36 H        3.3900     1.9650     1.2260 H     1 <1>   0.3700 
 37 H       -0.7080    -4.1160    -2.3290 H     1 <1>   0.1500 
 38 H        4.9030     2.4410    -2.3380 H     1 <1>   0.1500 
 39 H        3.6970     4.5940     1.1110 H     1 <1>   0.1500 
 40 H        5.0050     6.9850    -1.6130 H     1 <1>   0.0800 
 41 H        5.1350     6.7120     1.4070 H     1 <1>   0.0800 
 42 H        5.6290     8.1080     0.4820 H     1 <1>   0.0800 
 43 H        6.4980     6.6070     0.3080 H     1 <1>   0.0800 
 44 H        2.7500     6.9250     0.4180 H     1 <1>   0.0800 
 45 H        2.5590     6.9530    -1.3250 H     1 <1>   0.0800 
 46 H        3.2660     8.3170    -0.5020 H     1 <1>   0.0800 
@<TRIPOS>BOND
  1   1   2  2   
  2   1   3  2   
  3   1   4  am  
  4   1   5  1   
  5   4   6  1   
  6   4   7  1   
  7   5  25  1   
  8   5  26  1   
  9   5  27  1   
 10   6   8  ar  
 11   6   9  ar  
 12   7  10  1   
 13   7  11  1   
 14   7  28  1   
 15   8  12  ar  
 16   8  29  1   
 17   9  13  ar  
 18   9  30  1   
 19  10  14  2   
 20  10  15  am  
 21  11  31  1   
 22  11  32  1   
 23  11  33  1   
 24  12  16  ar  
 25  12  34  1   
 26  13  16  ar  
 27  13  35  1   
 28  15  17  1   
 29  15  36  1   
 30  16  37  1   
 31  17  18  1   
 32  17  19  2   
 33  18  20  2   
 34  18  38  1   
 35  19  21  1   
 36  19  39  1   
 37  20  21  1   
 38  21  22  1   
 39  22  23  1   
 40  22  24  1   
 41  22  40  1   
 42  23  41  1   
 43  23  42  1   
 44  23  43  1   
 45  24  44  1   
 46  24  45  1   
 47  24  46  1   
@<TRIPOS>SUBSTRUCTURE
  1 ****  10 GROUP 4 **** **** 0

# MOE 2024.06 (io_trps.svl 2023.06)
