@<TRIPOS>MOLECULE
NONAME
53 55 1 0 0 
SMALL
USER_CHARGES


@<TRIPOS>ATOM
  1 CL       2.3880    -3.1430     3.8970 Cl    1 <1>  -0.1770 
  2 C        2.7860    -3.2870     2.2050 C.ar  1 <1>   0.1770 
  3 C        4.1120    -3.2750     1.8230 C.ar  1 <1>  -0.1500 
  4 C        1.7660    -3.4170     1.2850 C.ar  1 <1>  -0.1500 
  5 C        4.4200    -3.3830     0.4720 C.ar  1 <1>   0.0830 
  6 C        2.0600    -3.5450    -0.0710 C.ar  1 <1>   0.0860 
  7 O        5.6900    -3.4060     0.0040 O.3   1 <1>  -0.3630 
  8 C        3.3980    -3.4950    -0.4560 C.ar  1 <1>  -0.1500 
  9 C        1.0140    -3.7620    -1.0510 C.2   1 <1>   0.5440 
 10 C        6.7240    -3.9050     0.8250 C.3   1 <1>   0.0400 
 11 O        0.7330    -2.8570    -1.8130 O.2   1 <1>  -0.5700 
 12 N        0.3240    -4.9560    -1.1490 N.am  1 <1>  -0.6600 
 13 C        0.6280    -6.1550    -0.2760 C.3   1 <1>   0.3640 
 14 C       -0.8740    -5.0270    -2.0400 C.3   1 <1>   0.1400 
 15 C        2.1190    -6.4910    -0.3830 C.ar  1 <1>  -0.1430 
 16 C       -0.1960    -7.4490    -0.5760 C.3   1 <1>   0.2000 
 17 C       -1.2260    -6.4600    -2.4330 C.3   1 <1>   0.1200 
 18 C        2.8880    -6.6350     0.7630 C.ar  1 <1>  -0.1500 
 19 C        2.7330    -6.6280    -1.6200 C.ar  1 <1>  -0.1500 
 20 O       -1.3860    -7.2160    -1.2790 O.3   1 <1>  -0.5600 
 21 C       -0.6050    -8.2010     0.7010 C.3   1 <1>   0.1200 
 22 C        4.2470    -6.8880     0.6910 C.ar  1 <1>   0.0830 
 23 C        4.0920    -6.8730    -1.7090 C.ar  1 <1>  -0.1500 
 24 O        0.4870    -8.4610     1.5220 O.3   1 <1>  -0.6800 
 25 O        4.8910    -7.0050     1.8850 O.3   1 <1>  -0.3630 
 26 C        4.8690    -6.9830    -0.5610 C.ar  1 <1>   0.0830 
 27 C        5.8510    -8.0240     2.0590 C.3   1 <1>   0.0400 
 28 O        6.2180    -7.1540    -0.6480 O.3   1 <1>  -0.3630 
 29 C        6.9300    -6.5450    -1.7030 C.3   1 <1>   0.0400 
 30 H        4.8720    -3.1800     2.5730 H     1 <1>   0.1500 
 31 H        0.7450    -3.4260     1.6170 H     1 <1>   0.1500 
 32 H        3.6470    -3.5730    -1.4990 H     1 <1>   0.1500 
 33 H        7.6040    -4.0240     0.2190 H     1 <1>   0.0800 
 34 H        6.4240    -4.8580     1.2240 H     1 <1>   0.0800 
 35 H        6.9180    -3.2010     1.6140 H     1 <1>   0.0800 
 36 H        0.4160    -5.8680     0.7390 H     1 <1>   0.0800 
 37 H       -1.7130    -4.5840    -1.5320 H     1 <1>   0.0800 
 38 H       -0.6970    -4.4590    -2.9370 H     1 <1>   0.0800 
 39 H        0.3940    -8.1120    -1.1850 H     1 <1>   0.0800 
 40 H       -0.4590    -6.8970    -3.0480 H     1 <1>   0.0800 
 41 H       -2.1580    -6.4770    -2.9700 H     1 <1>   0.0800 
 42 H        2.4390    -6.5440     1.7370 H     1 <1>   0.1500 
 43 H        2.1550    -6.5250    -2.5230 H     1 <1>   0.1500 
 44 H       -1.0660    -9.1410     0.4500 H     1 <1>   0.0800 
 45 H       -1.2990    -7.6060     1.2690 H     1 <1>   0.0800 
 46 H        4.5330    -6.9700    -2.6830 H     1 <1>   0.1500 
 47 H        1.1310    -9.0540     1.0820 H     1 <1>   0.4000 
 48 H        5.9290    -8.2340     3.1100 H     1 <1>   0.0800 
 49 H        6.7980    -7.6780     1.6860 H     1 <1>   0.0800 
 50 H        5.5320    -8.9040     1.5290 H     1 <1>   0.0800 
 51 H        7.9760    -6.5630    -1.4540 H     1 <1>   0.0800 
 52 H        6.5950    -5.5280    -1.8100 H     1 <1>   0.0800 
 53 H        6.7630    -7.1020    -2.6070 H     1 <1>   0.0800 
@<TRIPOS>BOND
  1   1   2  1   
  2   2   3  ar  
  3   2   4  ar  
  4   3   5  ar  
  5   3  30  1   
  6   4   6  ar  
  7   4  31  1   
  8   5   7  1   
  9   5   8  ar  
 10   6   8  ar  
 11   6   9  1   
 12   7  10  1   
 13   8  32  1   
 14   9  11  2   
 15   9  12  am  
 16  10  33  1   
 17  10  34  1   
 18  10  35  1   
 19  12  13  1   
 20  12  14  1   
 21  13  15  1   
 22  13  16  1   
 23  13  36  1   
 24  14  17  1   
 25  14  37  1   
 26  14  38  1   
 27  15  18  ar  
 28  15  19  ar  
 29  16  20  1   
 30  16  21  1   
 31  16  39  1   
 32  17  20  1   
 33  17  40  1   
 34  17  41  1   
 35  18  22  ar  
 36  18  42  1   
 37  19  23  ar  
 38  19  43  1   
 39  21  24  1   
 40  21  44  1   
 41  21  45  1   
 42  22  25  1   
 43  22  26  ar  
 44  23  26  ar  
 45  23  46  1   
 46  24  47  1   
 47  25  27  1   
 48  26  28  1   
 49  27  48  1   
 50  27  49  1   
 51  27  50  1   
 52  28  29  1   
 53  29  51  1   
 54  29  52  1   
 55  29  53  1   
@<TRIPOS>SUBSTRUCTURE
  1 ****  15 GROUP 4 **** **** 0

# MOE 2024.06 (io_trps.svl 2023.06)
