@<TRIPOS>MOLECULE
NONAME
55 57 1 0 0 
SMALL
USER_CHARGES


@<TRIPOS>ATOM
  1 O       -1.3160     0.6730     1.5330 O.2   1 <1>  -0.5700 
  2 C       -1.4880     1.4730     0.6250 C.2   1 <1>   0.5440 
  3 N       -2.4800     1.1700    -0.2980 N.am  1 <1>  -0.6600 
  4 C       -0.6670     2.6900     0.5900 C.ar  1 <1>   0.3960 
  5 C       -3.0100    -0.2240    -0.3950 C.3   1 <1>   0.1400 
  6 C       -3.0700     2.1870    -1.2170 C.3   1 <1>   0.1400 
  7 N       -0.3100     3.2470    -0.5860 N.ar  1 <1>  -0.6200 
  8 C       -0.2530     3.2530     1.8020 C.ar  1 <1>  -0.1500 
  9 C       -4.2020    -0.4290     0.5510 C.3   1 <1>   0.1400 
 10 C       -4.5910     2.0630    -1.3930 C.3   1 <1>  -0.1600 
 11 C        0.4380     4.3350    -0.5370 C.ar  1 <1>   0.1600 
 12 C        0.5240     4.3900     1.8450 C.ar  1 <1>  -0.1500 
 13 N       -5.4450     0.2370     0.0430 N.am  1 <1>  -0.6600 
 14 C       -5.3480     1.7180    -0.1060 C.3   1 <1>   0.1400 
 15 C        0.8750     4.9420     0.6320 C.ar  1 <1>   0.0820 
 16 C       -6.6050    -0.4180    -0.2950 C.2   1 <1>   0.5690 
 17 O        1.6300     6.0490     0.5840 O.3   1 <1>  -0.5320 
 18 O       -7.5540     0.1730    -0.7570 O.2   1 <1>  -0.5700 
 19 C       -6.7220    -1.9240    -0.1030 C.3   1 <1>  -0.0990 
 20 C       -8.0980    -2.5010    -0.4670 C.3   1 <1>  -0.0160 
 21 C       -8.1110    -4.0040    -0.2390 C.ar  1 <1>  -0.1430 
 22 C       -7.7910    -4.8720    -1.2700 C.ar  1 <1>  -0.1500 
 23 C       -8.4370    -4.5210     1.0040 C.ar  1 <1>  -0.1500 
 24 C       -7.7960    -6.2410    -1.0600 C.ar  1 <1>  -0.1500 
 25 C       -8.4420    -5.8890     1.2140 C.ar  1 <1>  -0.1500 
 26 C       -8.1190    -6.7580     0.1840 C.ar  1 <1>  -0.1430 
 27 C       -8.1260    -8.2600     0.4150 C.3   1 <1>  -0.0170 
 28 C       -9.5070    -8.8440     0.1140 C.3   1 <1>  -0.2400 
 29 H       -2.2290    -0.9110    -0.1170 H     1 <1>   0.0800 
 30 H       -3.2930    -0.4500    -1.4070 H     1 <1>   0.0800 
 31 H       -2.5860     2.1170    -2.1770 H     1 <1>   0.0800 
 32 H       -2.8700     3.1680    -0.8240 H     1 <1>   0.0800 
 33 H       -0.5500     2.7780     2.7210 H     1 <1>   0.1500 
 34 H       -3.9550    -0.0370     1.5220 H     1 <1>   0.0800 
 35 H       -4.3550    -1.4840     0.6640 H     1 <1>   0.0800 
 36 H       -4.8220     1.3420    -2.1570 H     1 <1>   0.0800 
 37 H       -4.9490     3.0110    -1.7510 H     1 <1>   0.0800 
 38 H        0.7290     4.7820    -1.4720 H     1 <1>   0.1500 
 39 H        0.8390     4.8180     2.7800 H     1 <1>   0.1500 
 40 H       -6.3370     2.1410    -0.1560 H     1 <1>   0.0800 
 41 H       -4.8570     2.1440     0.7520 H     1 <1>   0.0800 
 42 H        1.9010     6.3880     1.4570 H     1 <1>   0.4500 
 43 H       -6.5190    -2.1520     0.9270 H     1 <1>   0.0800 
 44 H       -5.9780    -2.4030    -0.7120 H     1 <1>   0.0800 
 45 H       -8.3230    -2.2860    -1.4970 H     1 <1>   0.0800 
 46 H       -8.8580    -2.0350     0.1360 H     1 <1>   0.0800 
 47 H       -7.5370    -4.4870    -2.2420 H     1 <1>   0.1500 
 48 H       -8.6900    -3.8590     1.8140 H     1 <1>   0.1500 
 49 H       -7.5480    -6.9020    -1.8710 H     1 <1>   0.1500 
 50 H       -8.7000    -6.2750     2.1840 H     1 <1>   0.1500 
 51 H       -7.8590    -8.4710     1.4360 H     1 <1>   0.0800 
 52 H       -7.3900    -8.7270    -0.2170 H     1 <1>   0.0800 
 53 H      -10.2470    -8.3940     0.7530 H     1 <1>   0.0800 
 54 H       -9.5060    -9.9060     0.2780 H     1 <1>   0.0800 
 55 H       -9.7750    -8.6510    -0.9100 H     1 <1>   0.0800 
@<TRIPOS>BOND
  1   1   2  2   
  2   2   3  am  
  3   2   4  1   
  4   3   5  1   
  5   3   6  1   
  6   4   7  ar  
  7   4   8  ar  
  8   5   9  1   
  9   5  29  1   
 10   5  30  1   
 11   6  10  1   
 12   6  31  1   
 13   6  32  1   
 14   7  11  ar  
 15   8  12  ar  
 16   8  33  1   
 17   9  13  1   
 18   9  34  1   
 19   9  35  1   
 20  10  14  1   
 21  10  36  1   
 22  10  37  1   
 23  11  15  ar  
 24  11  38  1   
 25  12  15  ar  
 26  12  39  1   
 27  13  14  1   
 28  13  16  am  
 29  14  40  1   
 30  14  41  1   
 31  15  17  1   
 32  16  18  2   
 33  16  19  1   
 34  17  42  1   
 35  19  20  1   
 36  19  43  1   
 37  19  44  1   
 38  20  21  1   
 39  20  45  1   
 40  20  46  1   
 41  21  22  ar  
 42  21  23  ar  
 43  22  24  ar  
 44  22  47  1   
 45  23  25  ar  
 46  23  48  1   
 47  24  26  ar  
 48  24  49  1   
 49  25  26  ar  
 50  25  50  1   
 51  26  27  1   
 52  27  28  1   
 53  27  51  1   
 54  27  52  1   
 55  28  53  1   
 56  28  54  1   
 57  28  55  1   
@<TRIPOS>SUBSTRUCTURE
  1 ****   9 GROUP 4 **** **** 0

# MOE 2024.06 (io_trps.svl 2023.06)
