@<TRIPOS>MOLECULE
NONAME
62 66 1 0 0 
SMALL
USER_CHARGES


@<TRIPOS>ATOM
  1 O       -2.1760    -1.5450    -1.1530 O.3   1 <1>  -0.5600 
  2 C       -2.2550    -1.1510     0.1830 C.3   1 <1>   0.1200 
  3 C       -2.5720    -0.5580    -2.0550 C.3   1 <1>   0.1200 
  4 C       -3.7160    -0.8530     0.5630 C.3   1 <1>   0.2090 
  5 C       -4.0550    -0.2030    -1.8350 C.3   1 <1>   0.2090 
  6 N       -4.3670     0.1250    -0.3890 N.pl3 1 <1>  -0.8380 
  7 C       -5.0610     1.2100     0.0130 C.ar  1 <1>   0.4610 
  8 N       -4.8060     2.3820    -0.5830 N.ar  1 <1>  -0.1790 
  9 C       -6.0550     1.1980     1.0400 C.ar  1 <1>  -0.1430 
 10 C       -5.3900     3.5880    -0.2390 C.ar  1 <1>   0.3610 
 11 C       -6.6590     2.3600     1.4220 C.ar  1 <1>  -0.1500 
 12 C       -6.4980    -0.1050     1.6910 C.3   1 <1>   0.4860 
 13 C       -6.3360     3.5940     0.7970 C.ar  1 <1>   0.0000 
 14 C       -5.0550     4.7810    -0.8860 C.ar  1 <1>  -0.1500 
 15 N       -7.1170    -0.9990     0.6800 N.4   1 <1>  -0.9590 
 16 C       -6.9240     4.8120     1.1600 C.ar  1 <1>  -0.1500 
 17 C       -5.6450     5.9680    -0.5170 C.ar  1 <1>  -0.1430 
 18 C       -8.4160    -0.4710     0.1320 C.3   1 <1>   0.3430 
 19 C       -7.4260    -2.3470     1.2360 C.3   1 <1>   0.3430 
 20 C       -6.5840     5.9750     0.5130 C.ar  1 <1>  -0.1500 
 21 C       -5.2980     7.2780    -1.2050 C.3   1 <1>  -0.0970 
 22 C       -9.4670    -1.5700     0.3610 C.3   1 <1>   0.2000 
 23 C       -8.6300    -2.8430     0.4340 C.3   1 <1>  -0.0800 
 24 O      -10.0360    -1.3580     1.6100 O.3   1 <1>  -0.6800 
 25 C       -8.2740    -3.3520    -0.9880 C.3   1 <1>  -0.0170 
 26 C       -6.9210    -4.0420    -1.0810 C.ar  1 <1>   0.1670 
 27 N       -5.8600    -3.2460    -1.1600 N.ar  1 <1>  -0.6200 
 28 C       -6.8500    -5.4340    -1.0910 C.ar  1 <1>   0.1600 
 29 C       -4.7360    -3.9460    -1.2830 C.ar  1 <1>   0.1600 
 30 N       -5.7260    -6.1210    -1.1820 N.ar  1 <1>  -0.6200 
 31 C       -4.6720    -5.3330    -1.2910 C.ar  1 <1>   0.1600 
 32 H       -1.8690    -1.9550     0.7850 H     1 <1>   0.0800 
 33 H       -1.6300    -0.2860     0.3290 H     1 <1>   0.0800 
 34 H       -1.9380     0.3020    -1.9290 H     1 <1>   0.0800 
 35 H       -2.4260    -0.9470    -3.0480 H     1 <1>   0.0800 
 36 H       -3.7200    -0.4580     1.5640 H     1 <1>   0.0800 
 37 H       -4.2610    -1.7810     0.5630 H     1 <1>   0.0800 
 38 H       -4.6440    -1.0520    -2.1360 H     1 <1>   0.0800 
 39 H       -4.3250     0.6090    -2.4880 H     1 <1>   0.0800 
 40 H       -4.0670     2.3970    -1.2790 H     1 <1>   0.4570 
 41 H       -7.4100     2.3890     2.1980 H     1 <1>   0.1500 
 42 H       -7.2180     0.1030     2.4670 H     1 <1>   0.0800 
 43 H       -5.6560    -0.5940     2.1490 H     1 <1>   0.0800 
 44 H       -4.3300     4.7780    -1.6800 H     1 <1>   0.1500 
 45 H       -6.4490    -1.1560    -0.0980 H     1 <1>   0.4500 
 46 H       -7.6510     4.8380     1.9540 H     1 <1>   0.1500 
 47 H       -8.7240     0.4380     0.6220 H     1 <1>   0.0800 
 48 H       -8.3110    -0.2870    -0.9240 H     1 <1>   0.0800 
 49 H       -6.5830    -3.0160     1.1680 H     1 <1>   0.0800 
 50 H       -7.7200    -2.2550     2.2700 H     1 <1>   0.0800 
 51 H       -7.0440     6.9070     0.8020 H     1 <1>   0.1500 
 52 H       -4.9050     7.9780    -0.4880 H     1 <1>   0.0800 
 53 H       -6.1790     7.7050    -1.6510 H     1 <1>   0.0800 
 54 H       -4.5620     7.1350    -1.9760 H     1 <1>   0.0800 
 55 H      -10.2460    -1.5760    -0.3840 H     1 <1>   0.0800 
 56 H       -9.1340    -3.6280     0.9710 H     1 <1>   0.0800 
 57 H      -10.8560    -1.8850     1.7270 H     1 <1>   0.4000 
 58 H       -8.2610    -2.5420    -1.6960 H     1 <1>   0.0800 
 59 H       -9.0450    -4.0270    -1.3190 H     1 <1>   0.0800 
 60 H       -7.7570    -6.0100    -1.0220 H     1 <1>   0.1500 
 61 H       -3.8120    -3.4050    -1.3870 H     1 <1>   0.1500 
 62 H       -3.7110    -5.8090    -1.3910 H     1 <1>   0.1500 
@<TRIPOS>BOND
  1   1   2  1   
  2   1   3  1   
  3   2   4  1   
  4   2  32  1   
  5   2  33  1   
  6   3   5  1   
  7   3  34  1   
  8   3  35  1   
  9   4   6  1   
 10   4  36  1   
 11   4  37  1   
 12   5   6  1   
 13   5  38  1   
 14   5  39  1   
 15   6   7  1   
 16   7   8  ar  
 17   7   9  ar  
 18   8  10  ar  
 19   8  40  1   
 20   9  11  ar  
 21   9  12  1   
 22  10  13  ar  
 23  10  14  ar  
 24  11  13  ar  
 25  11  41  1   
 26  12  15  1   
 27  12  42  1   
 28  12  43  1   
 29  13  16  ar  
 30  14  17  ar  
 31  14  44  1   
 32  15  18  1   
 33  15  19  1   
 34  15  45  1   
 35  16  20  ar  
 36  16  46  1   
 37  17  20  ar  
 38  17  21  1   
 39  18  22  1   
 40  18  47  1   
 41  18  48  1   
 42  19  23  1   
 43  19  49  1   
 44  19  50  1   
 45  20  51  1   
 46  21  52  1   
 47  21  53  1   
 48  21  54  1   
 49  22  23  1   
 50  22  24  1   
 51  22  55  1   
 52  23  25  1   
 53  23  56  1   
 54  24  57  1   
 55  25  26  1   
 56  25  58  1   
 57  25  59  1   
 58  26  27  ar  
 59  26  28  ar  
 60  27  29  ar  
 61  28  30  ar  
 62  28  60  1   
 63  29  31  ar  
 64  29  61  1   
 65  30  31  ar  
 66  31  62  1   
@<TRIPOS>SUBSTRUCTURE
  1 ****   7 GROUP 4 **** **** 0

# MOE 2024.06 (io_trps.svl 2023.06)
