@<TRIPOS>MOLECULE
NONAME
46 48 1 0 0 
SMALL
USER_CHARGES


@<TRIPOS>ATOM
  1 F       -2.0200     2.2100     2.0830 F     1 <1>  -0.1900 
  2 C       -2.6580     2.0850     0.9510 C.ar  1 <1>   0.1900 
  3 C       -3.6880     1.1670     0.8660 C.ar  1 <1>  -0.1500 
  4 C       -2.2810     2.8770    -0.1170 C.ar  1 <1>  -0.1500 
  5 C       -4.3680     1.0340    -0.3360 C.ar  1 <1>  -0.1440 
  6 C       -2.9650     2.7410    -1.3130 C.ar  1 <1>  -0.1500 
  7 C       -4.0020     1.8250    -1.4180 C.ar  1 <1>  -0.1500 
  8 C       -5.5090     0.0410    -0.4620 C.3   1 <1>   0.2840 
  9 N       -6.7520     0.7370    -0.1130 N.am  1 <1>  -0.7300 
 10 C       -7.9040     0.1050     0.1990 C.2   1 <1>   0.6900 
 11 O       -7.9640    -1.1060     0.0850 O.2   1 <1>  -0.5700 
 12 N       -8.9760     0.8310     0.6500 N.am  1 <1>  -0.6600 
 13 C      -10.1930     0.1610     1.1880 C.3   1 <1>   0.1400 
 14 C       -9.1070     2.3100     0.5430 C.3   1 <1>   0.1400 
 15 C      -11.3880     0.4810     0.2890 C.3   1 <1>  -0.1600 
 16 C      -10.2880     2.6420    -0.3710 C.3   1 <1>  -0.1600 
 17 C      -11.5870     1.9900     0.1230 C.3   1 <1>   0.4180 
 18 O      -11.9020     2.4890     1.4010 O.3   1 <1>  -0.5600 
 19 C      -12.7340     2.2530    -0.8490 C.2   1 <1>  -0.2880 
 20 C      -12.5450     3.7310     1.4700 C.3   1 <1>   0.1200 
 21 C      -13.8060     2.9960    -0.5620 C.2   1 <1>  -0.2760 
 22 C      -13.9210     3.6660     0.7940 C.3   1 <1>  -0.0220 
 23 C      -14.9700     3.2300    -1.5080 C.3   1 <1>  -0.1020 
 24 H       -3.9480     0.5750     1.7250 H     1 <1>   0.1500 
 25 H       -1.4740     3.5790    -0.0100 H     1 <1>   0.1500 
 26 H       -2.6910     3.3450    -2.1610 H     1 <1>   0.1500 
 27 H       -4.5280     1.7300    -2.3530 H     1 <1>   0.1500 
 28 H       -5.3600    -0.7940     0.2030 H     1 <1>   0.0800 
 29 H       -5.5790    -0.3340    -1.4690 H     1 <1>   0.0800 
 30 H       -6.6310     1.6930     0.2070 H     1 <1>   0.3700 
 31 H      -10.3780     0.5200     2.1860 H     1 <1>   0.0800 
 32 H      -10.0530    -0.9050     1.2410 H     1 <1>   0.0800 
 33 H       -8.2140     2.7540     0.1440 H     1 <1>   0.0800 
 34 H       -9.2770     2.7170     1.5260 H     1 <1>   0.0800 
 35 H      -12.2820     0.0500     0.7010 H     1 <1>   0.0800 
 36 H      -11.2220     0.0290    -0.6720 H     1 <1>   0.0800 
 37 H      -10.0660     2.2790    -1.3580 H     1 <1>   0.0800 
 38 H      -10.4110     3.7050    -0.4460 H     1 <1>   0.0800 
 39 H      -12.5940     1.7660    -1.7970 H     1 <1>   0.1500 
 40 H      -11.9250     4.4680     0.9930 H     1 <1>   0.0800 
 41 H      -12.6520     3.9890     2.5090 H     1 <1>   0.0800 
 42 H      -14.2960     4.6680     0.6850 H     1 <1>   0.0800 
 43 H      -14.6060     3.1160     1.4150 H     1 <1>   0.0800 
 44 H      -15.8830     2.8710    -1.0660 H     1 <1>   0.0800 
 45 H      -14.8120     2.7080    -2.4350 H     1 <1>   0.0800 
 46 H      -15.0740     4.2790    -1.7200 H     1 <1>   0.0800 
@<TRIPOS>BOND
  1   1   2  1   
  2   2   3  ar  
  3   2   4  ar  
  4   3   5  ar  
  5   3  24  1   
  6   4   6  ar  
  7   4  25  1   
  8   5   7  ar  
  9   5   8  1   
 10   6   7  ar  
 11   6  26  1   
 12   7  27  1   
 13   8   9  1   
 14   8  28  1   
 15   8  29  1   
 16   9  10  am  
 17   9  30  1   
 18  10  11  2   
 19  10  12  am  
 20  12  13  1   
 21  12  14  1   
 22  13  15  1   
 23  13  31  1   
 24  13  32  1   
 25  14  16  1   
 26  14  33  1   
 27  14  34  1   
 28  15  17  1   
 29  15  35  1   
 30  15  36  1   
 31  16  17  1   
 32  16  37  1   
 33  16  38  1   
 34  17  18  1   
 35  17  19  1   
 36  18  20  1   
 37  19  21  2   
 38  19  39  1   
 39  20  22  1   
 40  20  40  1   
 41  20  41  1   
 42  21  22  1   
 43  21  23  1   
 44  22  42  1   
 45  22  43  1   
 46  23  44  1   
 47  23  45  1   
 48  23  46  1   
@<TRIPOS>SUBSTRUCTURE
  1 ****  14 GROUP 4 **** **** 0

# MOE 2024.06 (io_trps.svl 2023.06)
