@<TRIPOS>MOLECULE
NONAME
42 45 1 0 0 
SMALL
USER_CHARGES


@<TRIPOS>ATOM
  1 O        0.5200    -0.7590    -2.0570 O.3   1 <1>  -0.0190 
  2 N        0.5930    -2.0450    -2.2190 N.2   1 <1>  -0.4100 
  3 C        0.7500    -0.5860    -0.7790 C.2   1 <1>   0.3930 
  4 C        0.8420    -2.5540    -1.0770 C.2   1 <1>   0.3350 
  5 N        0.9620    -1.6490    -0.1110 N.2   1 <1>  -0.5650 
  6 C        0.7400     0.8320    -0.2290 C.3   1 <1>  -0.0150 
  7 C        1.0210    -4.0510    -0.8070 C.3   1 <1>   0.2910 
  8 C        1.9400     1.7150    -0.3880 C.3   1 <1>  -0.2000 
  9 C        1.5510     1.2170     0.9720 C.3   1 <1>  -0.2000 
 10 N       -0.2350    -4.7690    -0.4590 N.3   1 <1>  -0.8100 
 11 C       -0.0060    -6.2190    -0.4030 C.3   1 <1>   0.2900 
 12 C       -0.8060    -4.2670     0.8060 C.3   1 <1>   0.0300 
 13 C       -1.3390    -6.9310    -0.4270 C.2   1 <1>  -0.3320 
 14 N       -2.3650    -6.4910    -1.1730 N.pl3 1 <1>   0.3000 
 15 C       -1.7780    -8.0340     0.2110 C.2   1 <1>  -0.1500 
 16 N       -3.4510    -7.2720    -1.0460 N.2   1 <1>  -0.7070 
 17 C       -3.1020    -8.2180    -0.2070 C.2   1 <1>   0.2350 
 18 C       -3.9810    -9.2910     0.2210 C.ar  1 <1>   0.0540 
 19 C       -3.4870   -10.4980     0.7180 C.ar  1 <1>  -0.1500 
 20 C       -5.3670    -9.1510     0.1490 C.ar  1 <1>  -0.1500 
 21 C       -4.3340   -11.5100     1.1330 C.ar  1 <1>  -0.1500 
 22 C       -6.2210   -10.1580     0.5610 C.ar  1 <1>  -0.1500 
 23 C       -5.7050   -11.3420     1.0560 C.ar  1 <1>  -0.1500 
 24 H       -0.2280     1.2890    -0.3330 H     1 <1>   0.1000 
 25 H        1.7410    -4.1730    -0.0160 H     1 <1>   0.0800 
 26 H        1.4340    -4.4860    -1.7000 H     1 <1>   0.0800 
 27 H        1.7880     2.7530    -0.6270 H     1 <1>   0.1000 
 28 H        2.8240     1.3100    -0.8500 H     1 <1>   0.1000 
 29 H        2.1610     0.4650     1.4430 H     1 <1>   0.1000 
 30 H        1.1270     1.9070     1.6790 H     1 <1>   0.1000 
 31 H        0.5500    -6.4820     0.4820 H     1 <1>   0.0800 
 32 H        0.5560    -6.5300    -1.2680 H     1 <1>   0.0800 
 33 H       -1.0710    -3.2280     0.7070 H     1 <1>   0.0800 
 34 H       -0.0980    -4.3710     1.6100 H     1 <1>   0.0800 
 35 H       -1.7010    -4.8090     1.0590 H     1 <1>   0.0800 
 36 H       -2.3370    -5.6330    -1.7420 H     1 <1>   0.2700 
 37 H       -1.2480    -8.6600     0.9050 H     1 <1>   0.1500 
 38 H       -2.4260   -10.6540     0.7770 H     1 <1>   0.1500 
 39 H       -5.7730    -8.2330    -0.2390 H     1 <1>   0.1500 
 40 H       -3.9280   -12.4310     1.5140 H     1 <1>   0.1500 
 41 H       -7.2860   -10.0190     0.4940 H     1 <1>   0.1500 
 42 H       -6.3670   -12.1270     1.3780 H     1 <1>   0.1500 
@<TRIPOS>BOND
  1   1   2  1   
  2   1   3  1   
  3   2   4  2   
  4   3   5  2   
  5   3   6  1   
  6   4   5  1   
  7   4   7  1   
  8   6   8  1   
  9   6   9  1   
 10   6  24  1   
 11   7  10  1   
 12   7  25  1   
 13   7  26  1   
 14   8   9  1   
 15   8  27  1   
 16   8  28  1   
 17   9  29  1   
 18   9  30  1   
 19  10  11  1   
 20  10  12  1   
 21  11  13  1   
 22  11  31  1   
 23  11  32  1   
 24  12  33  1   
 25  12  34  1   
 26  12  35  1   
 27  13  14  1   
 28  13  15  2   
 29  14  16  1   
 30  14  36  1   
 31  15  17  1   
 32  15  37  1   
 33  16  17  2   
 34  17  18  1   
 35  18  19  ar  
 36  18  20  ar  
 37  19  21  ar  
 38  19  38  1   
 39  20  22  ar  
 40  20  39  1   
 41  21  23  ar  
 42  21  40  1   
 43  22  23  ar  
 44  22  41  1   
 45  23  42  1   
@<TRIPOS>SUBSTRUCTURE
  1 ****  10 GROUP 4 **** **** 0

# MOE 2024.06 (io_trps.svl 2023.06)
