@<TRIPOS>MOLECULE
NONAME
47 49 1 0 0 
SMALL
USER_CHARGES


@<TRIPOS>ATOM
  1 CL      -0.7810    -1.9630     2.9580 Cl    1 <1>  -0.1770 
  2 C       -1.7140    -1.8800     1.4810 C.ar  1 <1>   0.1770 
  3 C       -2.0270    -3.0260     0.7680 C.ar  1 <1>   0.1900 
  4 C       -2.1390    -0.6460     1.0240 C.ar  1 <1>  -0.1500 
  5 F       -1.6050    -4.1850     1.2100 F     1 <1>  -0.1900 
  6 C       -2.7690    -2.9740    -0.4040 C.ar  1 <1>  -0.1440 
  7 C       -2.8760    -0.5740    -0.1480 C.ar  1 <1>  -0.1500 
  8 C       -3.1870    -1.7270    -0.8560 C.ar  1 <1>  -0.1500 
  9 C       -3.1080    -4.2410    -1.1730 C.3   1 <1>   0.2540 
 10 N       -4.2030    -4.9670    -0.5020 N.3   1 <1>  -0.8100 
 11 C       -4.2510    -6.3820    -0.8900 C.3   1 <1>   0.1100 
 12 C       -5.5000    -4.2900    -0.6630 C.3   1 <1>   0.1100 
 13 C       -5.2960    -7.1360    -0.0330 C.3   1 <1>   0.4230 
 14 C       -6.5510    -4.9890     0.2060 C.3   1 <1>  -0.1600 
 15 N       -5.2850    -8.6470    -0.2320 N.4   1 <1>  -0.9590 
 16 C       -6.7100    -6.4970    -0.1260 C.3   1 <1>   0.0000 
 17 C       -6.5220    -9.3350     0.2650 C.3   1 <1>   0.3430 
 18 C       -4.9680    -9.1100    -1.6220 C.3   1 <1>   0.2630 
 19 C       -7.6440    -7.1510     0.9360 C.3   1 <1>  -0.1600 
 20 C       -7.2950    -6.6820    -1.5550 C.3   1 <1>   0.1200 
 21 C       -7.1750    -8.5450     1.3970 C.3   1 <1>  -0.1600 
 22 O       -8.4520    -5.9430    -1.7380 O.3   1 <1>  -0.6800 
 23 H       -1.8940     0.2430     1.5790 H     1 <1>   0.1500 
 24 H       -3.2110     0.3830    -0.5120 H     1 <1>   0.1500 
 25 H       -3.7620    -1.6470    -1.7630 H     1 <1>   0.1500 
 26 H       -2.2270    -4.8590    -1.2070 H     1 <1>   0.0800 
 27 H       -3.3860    -4.0050    -2.1870 H     1 <1>   0.0800 
 28 H       -4.4790    -6.4520    -1.9380 H     1 <1>   0.0800 
 29 H       -3.2820    -6.8160    -0.7110 H     1 <1>   0.0800 
 30 H       -5.4200    -3.2660    -0.3370 H     1 <1>   0.0800 
 31 H       -5.8010    -4.2870    -1.6970 H     1 <1>   0.0800 
 32 H       -4.9840    -6.9660     0.9850 H     1 <1>   0.0800 
 33 H       -6.2460    -4.8660     1.2310 H     1 <1>   0.0800 
 34 H       -7.4890    -4.4730     0.0990 H     1 <1>   0.0800 
 35 H       -4.5180    -8.9730     0.3740 H     1 <1>   0.4500 
 36 H       -7.2340    -9.4290    -0.5390 H     1 <1>   0.0800 
 37 H       -6.2760   -10.3290     0.6070 H     1 <1>   0.0800 
 38 H       -5.7150    -8.7620    -2.3160 H     1 <1>   0.0800 
 39 H       -4.9410   -10.1880    -1.6590 H     1 <1>   0.0800 
 40 H       -4.0060    -8.7380    -1.9350 H     1 <1>   0.0800 
 41 H       -7.7130    -6.5290     1.8130 H     1 <1>   0.0800 
 42 H       -8.6450    -7.2300     0.5490 H     1 <1>   0.0800 
 43 H       -7.5390    -7.7100    -1.7500 H     1 <1>   0.0800 
 44 H       -6.6030    -6.3500    -2.3080 H     1 <1>   0.0800 
 45 H       -8.0220    -9.0950     1.7710 H     1 <1>   0.0800 
 46 H       -6.4770    -8.4510     2.2110 H     1 <1>   0.0800 
 47 H       -9.1450    -6.1750    -1.0890 H     1 <1>   0.4000 
@<TRIPOS>BOND
  1   1   2  1   
  2   2   3  ar  
  3   2   4  ar  
  4   3   5  1   
  5   3   6  ar  
  6   4   7  ar  
  7   4  23  1   
  8   6   8  ar  
  9   6   9  1   
 10   7   8  ar  
 11   7  24  1   
 12   8  25  1   
 13   9  10  1   
 14   9  26  1   
 15   9  27  1   
 16  10  11  1   
 17  10  12  1   
 18  11  13  1   
 19  11  28  1   
 20  11  29  1   
 21  12  14  1   
 22  12  30  1   
 23  12  31  1   
 24  13  15  1   
 25  13  16  1   
 26  13  32  1   
 27  14  16  1   
 28  14  33  1   
 29  14  34  1   
 30  15  17  1   
 31  15  18  1   
 32  15  35  1   
 33  16  19  1   
 34  16  20  1   
 35  17  21  1   
 36  17  36  1   
 37  17  37  1   
 38  18  38  1   
 39  18  39  1   
 40  18  40  1   
 41  19  21  1   
 42  19  41  1   
 43  19  42  1   
 44  20  22  1   
 45  20  43  1   
 46  20  44  1   
 47  21  45  1   
 48  21  46  1   
 49  22  47  1   
@<TRIPOS>SUBSTRUCTURE
  1 ****  10 GROUP 4 **** **** 0

# MOE 2024.06 (io_trps.svl 2023.06)
