@<TRIPOS>MOLECULE
NONAME
51 53 1 0 0 
SMALL
USER_CHARGES


@<TRIPOS>ATOM
  1 O       -0.1040     0.3510    -1.0650 O.2   1 <1>  -0.5700 
  2 C       -0.0780     1.5340    -0.8210 C.2   1 <1>   0.5690 
  3 N       -1.1790     2.2140    -0.3730 N.am  1 <1>  -0.6600 
  4 C        1.2350     2.2830    -1.0600 C.3   1 <1>   0.1810 
  5 C       -1.1210     3.6840    -0.0720 C.3   1 <1>   0.3640 
  6 C       -2.4560     1.5220    -0.0310 C.3   1 <1>   0.0600 
  7 O        1.3200     3.5010    -0.3610 O.3   1 <1>  -0.5600 
  8 C       -2.3080     4.3920    -0.7460 C.ar  1 <1>  -0.1430 
  9 C        0.2010     4.3480    -0.5390 C.3   1 <1>   0.2610 
 10 C       -3.2080     5.1990    -0.0480 C.ar  1 <1>  -0.1430 
 11 C       -2.4850     4.2200    -2.1150 C.ar  1 <1>  -0.1500 
 12 C        0.4180     5.6880     0.1770 C.2   1 <1>   0.5690 
 13 C       -4.2380     5.8260    -0.7340 C.ar  1 <1>  -0.1500 
 14 C       -3.1200     5.4340     1.4560 C.3   1 <1>  -0.0960 
 15 C       -3.5180     4.8440    -2.7890 C.ar  1 <1>  -0.1500 
 16 O        0.1850     5.7530     1.3660 O.2   1 <1>  -0.5700 
 17 N        0.8650     6.7840    -0.5260 N.am  1 <1>  -0.5090 
 18 C       -4.3950     5.6540    -2.0960 C.ar  1 <1>  -0.1500 
 19 C        0.7770     8.1530     0.0470 C.3   1 <1>   0.0540 
 20 C        1.5810     6.6940    -1.8280 C.3   1 <1>   0.0600 
 21 C       -0.6060     8.6840     0.2680 C.3   1 <1>  -0.2000 
 22 C        0.2340     9.2320    -0.8450 C.3   1 <1>  -0.2000 
 23 C        1.8890     8.4200     1.0830 C.3   1 <1>   0.2150 
 24 O        1.8910     9.7580     1.4900 O.3   1 <1>  -0.5600 
 25 C        2.8060    10.0380     2.4980 C.3   1 <1>   0.0400 
 26 H        1.3450     2.4840    -2.1100 H     1 <1>   0.0800 
 27 H        2.0550     1.6670    -0.7390 H     1 <1>   0.0800 
 28 H       -1.1830     3.7820     0.9950 H     1 <1>   0.0800 
 29 H       -2.7560     1.7800     0.9690 H     1 <1>   0.0800 
 30 H       -2.3390     0.4540    -0.0900 H     1 <1>   0.0800 
 31 H       -3.2290     1.8200    -0.7180 H     1 <1>   0.0800 
 32 H        0.1200     4.5400    -1.5910 H     1 <1>   0.0800 
 33 H       -1.8180     3.5840    -2.6720 H     1 <1>   0.1500 
 34 H       -4.9320     6.4590    -0.2090 H     1 <1>   0.1500 
 35 H       -4.0180     5.8950     1.8240 H     1 <1>   0.0800 
 36 H       -2.2980     6.0870     1.6840 H     1 <1>   0.0800 
 37 H       -2.9950     4.5060     1.9820 H     1 <1>   0.0800 
 38 H       -3.6400     4.7000    -3.8480 H     1 <1>   0.1500 
 39 H       -5.2000     6.1460    -2.6130 H     1 <1>   0.1500 
 40 H        2.3330     7.4620    -1.8840 H     1 <1>   0.0800 
 41 H        0.8830     6.8290    -2.6350 H     1 <1>   0.0800 
 42 H        2.0670     5.7390    -1.9260 H     1 <1>   0.0800 
 43 H       -1.4440     8.0520     0.0340 H     1 <1>   0.1000 
 44 H       -0.7860     9.3140     1.1210 H     1 <1>   0.1000 
 45 H        0.6050    10.2360    -0.7390 H     1 <1>   0.1000 
 46 H       -0.0670     9.0070    -1.8510 H     1 <1>   0.1000 
 47 H        2.8490     8.2030     0.6510 H     1 <1>   0.0800 
 48 H        1.7280     7.7990     1.9480 H     1 <1>   0.0800 
 49 H        2.7340    11.0850     2.7330 H     1 <1>   0.0800 
 50 H        3.7990     9.8110     2.1510 H     1 <1>   0.0800 
 51 H        2.5640     9.4530     3.3690 H     1 <1>   0.0800 
@<TRIPOS>BOND
  1   1   2  2   
  2   2   3  am  
  3   2   4  1   
  4   3   5  1   
  5   3   6  1   
  6   4   7  1   
  7   4  26  1   
  8   4  27  1   
  9   5   8  1   
 10   5   9  1   
 11   5  28  1   
 12   6  29  1   
 13   6  30  1   
 14   6  31  1   
 15   7   9  1   
 16   8  10  ar  
 17   8  11  ar  
 18   9  12  1   
 19   9  32  1   
 20  10  13  ar  
 21  10  14  1   
 22  11  15  ar  
 23  11  33  1   
 24  12  16  2   
 25  12  17  am  
 26  13  18  ar  
 27  13  34  1   
 28  14  35  1   
 29  14  36  1   
 30  14  37  1   
 31  15  18  ar  
 32  15  38  1   
 33  17  19  1   
 34  17  20  1   
 35  18  39  1   
 36  19  21  1   
 37  19  22  1   
 38  19  23  1   
 39  20  40  1   
 40  20  41  1   
 41  20  42  1   
 42  21  22  1   
 43  21  43  1   
 44  21  44  1   
 45  22  45  1   
 46  22  46  1   
 47  23  24  1   
 48  23  47  1   
 49  23  48  1   
 50  24  25  1   
 51  25  49  1   
 52  25  50  1   
 53  25  51  1   
@<TRIPOS>SUBSTRUCTURE
  1 ****  12 GROUP 4 **** **** 0

# MOE 2024.06 (io_trps.svl 2023.06)
