@<TRIPOS>MOLECULE
NONAME
44 44 1 0 0 
SMALL
USER_CHARGES


@<TRIPOS>ATOM
  1 O        0.0060    -0.3200    -1.3180 O.2   1 <1>  -0.5700 
  2 C       -0.7570    -0.5550    -0.4050 C.2   1 <1>   0.7800 
  3 O       -0.9000    -1.7760     0.1060 O.3   1 <1>  -0.4300 
  4 N       -1.5230     0.3970     0.1690 N.am  1 <1>  -0.7300 
  5 C       -0.2290    -2.9500    -0.2990 C.3   1 <1>   0.2800 
  6 C       -1.5540     1.8160    -0.2040 C.3   1 <1>   0.2200 
  7 C       -0.5770    -3.2850    -1.7540 C.3   1 <1>  -0.2400 
  8 C       -0.7660    -4.0530     0.6150 C.3   1 <1>  -0.2400 
  9 C        1.2810    -2.8020    -0.0770 C.3   1 <1>  -0.2400 
 10 C       -1.1820     2.6580     1.0210 C.3   1 <1>  -0.1600 
 11 C       -2.9570     2.1630    -0.7110 C.3   1 <1>  -0.1600 
 12 C       -1.3070     4.1600     0.7210 C.3   1 <1>  -0.1600 
 13 C       -3.0890     3.6650    -1.0100 C.3   1 <1>  -0.1600 
 14 C       -2.7200     4.5240     0.2150 C.3   1 <1>  -0.0190 
 15 C       -2.8710     6.0140    -0.0970 C.2   1 <1>   0.6590 
 16 O       -1.9360     6.7180    -0.3820 O.2   1 <1>  -0.5700 
 17 O       -4.1100     6.4850    -0.0390 O.3   1 <1>  -0.4300 
 18 C       -4.3950     7.8370    -0.3120 C.3   1 <1>   0.1200 
 19 C       -5.9000     8.0430    -0.1640 C.3   1 <1>  -0.2400 
 20 H       -2.1330     0.1020     0.9260 H     1 <1>   0.3700 
 21 H       -0.8390     2.0010    -0.9900 H     1 <1>   0.0800 
 22 H       -1.6430    -3.3110    -1.8870 H     1 <1>   0.0800 
 23 H       -0.1770    -4.2490    -2.0140 H     1 <1>   0.0800 
 24 H       -0.1530    -2.5660    -2.4300 H     1 <1>   0.0800 
 25 H       -1.8290    -4.1550     0.4910 H     1 <1>   0.0800 
 26 H       -0.5520    -3.8220     1.6430 H     1 <1>   0.0800 
 27 H       -0.3050    -4.9940     0.3760 H     1 <1>   0.0800 
 28 H        1.7040    -2.0820    -0.7550 H     1 <1>   0.0800 
 29 H        1.7720    -3.7410    -0.2550 H     1 <1>   0.0800 
 30 H        1.4830    -2.4970     0.9330 H     1 <1>   0.0800 
 31 H       -0.1670     2.4370     1.3050 H     1 <1>   0.0800 
 32 H       -1.8290     2.4080     1.8430 H     1 <1>   0.0800 
 33 H       -3.6880     1.8870     0.0290 H     1 <1>   0.0800 
 34 H       -3.1550     1.6040    -1.6100 H     1 <1>   0.0800 
 35 H       -0.5790     4.4320    -0.0260 H     1 <1>   0.0800 
 36 H       -1.0860     4.7240     1.6110 H     1 <1>   0.0800 
 37 H       -4.1000     3.8810    -1.3110 H     1 <1>   0.0800 
 38 H       -2.4410     3.9220    -1.8310 H     1 <1>   0.0800 
 39 H       -3.4170     4.3020     1.0030 H     1 <1>   0.0800 
 40 H       -4.0710     8.0580    -1.3150 H     1 <1>   0.0800 
 41 H       -3.8500     8.4480     0.3870 H     1 <1>   0.0800 
 42 H       -6.4290     7.4180    -0.8610 H     1 <1>   0.0800 
 43 H       -6.1460     9.0690    -0.3680 H     1 <1>   0.0800 
 44 H       -6.2090     7.8080     0.8380 H     1 <1>   0.0800 
@<TRIPOS>BOND
  1   1   2  2   
  2   2   3  1   
  3   2   4  am  
  4   3   5  1   
  5   4   6  1   
  6   4  20  1   
  7   5   7  1   
  8   5   8  1   
  9   5   9  1   
 10   6  10  1   
 11   6  11  1   
 12   6  21  1   
 13   7  22  1   
 14   7  23  1   
 15   7  24  1   
 16   8  25  1   
 17   8  26  1   
 18   8  27  1   
 19   9  28  1   
 20   9  29  1   
 21   9  30  1   
 22  10  12  1   
 23  10  31  1   
 24  10  32  1   
 25  11  13  1   
 26  11  33  1   
 27  11  34  1   
 28  12  14  1   
 29  12  35  1   
 30  12  36  1   
 31  13  14  1   
 32  13  37  1   
 33  13  38  1   
 34  14  15  1   
 35  14  39  1   
 36  15  16  2   
 37  15  17  1   
 38  17  18  1   
 39  18  19  1   
 40  18  40  1   
 41  18  41  1   
 42  19  42  1   
 43  19  43  1   
 44  19  44  1   
@<TRIPOS>SUBSTRUCTURE
  1 ****   6 GROUP 4 **** **** 0

# MOE 2024.06 (io_trps.svl 2023.06)
