@<TRIPOS>MOLECULE
NONAME
47 49 1 0 0 
SMALL
USER_CHARGES


@<TRIPOS>ATOM
  1 O        2.0460    -0.2020     2.3820 O.2   1 <1>  -0.5700 
  2 C        2.1730    -0.6330     1.2510 C.2   1 <1>   0.5440 
  3 N        2.6390     0.2230     0.2640 N.am  1 <1>  -0.6600 
  4 C        1.8770    -2.0270     0.9820 C.ar  1 <1>   0.0860 
  5 C        3.0020     1.6290     0.6330 C.3   1 <1>   0.1400 
  6 C        3.0960    -0.2930    -1.0650 C.3   1 <1>   0.1400 
  7 C        0.7250    -2.4500     0.3070 C.ar  1 <1>  -0.1440 
  8 C        2.7990    -2.9880     1.3900 C.ar  1 <1>  -0.1500 
  9 C        4.5220     1.8400     0.8650 C.3   1 <1>   0.4230 
 10 C        4.5790    -0.0050    -1.3880 C.3   1 <1>  -0.0800 
 11 C        0.5370    -3.8020     0.0250 C.ar  1 <1>   0.0830 
 12 C       -0.3370    -1.4370    -0.1270 C.3   1 <1>  -0.0970 
 13 C        2.6080    -4.3290     1.1240 C.ar  1 <1>  -0.1500 
 14 N        5.2720     2.2180    -0.3900 N.4   1 <1>  -0.9590 
 15 C        5.2420     0.6630     1.5790 C.3   1 <1>   0.1200 
 16 C        5.6120    -0.6620    -0.4440 C.3   1 <1>   0.1200 
 17 C        4.8250     1.4890    -1.6140 C.3   1 <1>   0.3430 
 18 O       -0.5820    -4.1580    -0.6620 O.3   1 <1>  -0.3630 
 19 C        1.4810    -4.7380     0.4390 C.ar  1 <1>  -0.1500 
 20 C        5.2500     3.6960    -0.6190 C.3   1 <1>   0.2630 
 21 O        5.2560    -0.5690     0.8990 O.3   1 <1>  -0.5600 
 22 C       -0.9130    -5.5070    -0.9050 C.3   1 <1>   0.0400 
 23 H        2.6370     2.3030    -0.1210 H     1 <1>   0.0800 
 24 H        2.4930     1.9010     1.5410 H     1 <1>   0.0800 
 25 H        2.9510    -1.3580    -1.1200 H     1 <1>   0.0800 
 26 H        2.4700     0.1400    -1.8260 H     1 <1>   0.0800 
 27 H        3.6790    -2.6670     1.9210 H     1 <1>   0.1500 
 28 H        4.5990     2.6760     1.5390 H     1 <1>   0.0800 
 29 H        4.7430    -0.4550    -2.3510 H     1 <1>   0.0800 
 30 H       -0.2890    -0.5330     0.4510 H     1 <1>   0.0800 
 31 H       -1.3220    -1.8470     0.0080 H     1 <1>   0.0800 
 32 H       -0.2070    -1.1960    -1.1660 H     1 <1>   0.0800 
 33 H        3.3360    -5.0520     1.4510 H     1 <1>   0.1500 
 34 H        6.2450     1.9320    -0.2150 H     1 <1>   0.4500 
 35 H        4.7470     0.4810     2.5180 H     1 <1>   0.0800 
 36 H        6.2600     0.9290     1.7980 H     1 <1>   0.0800 
 37 H        6.6000    -0.2570    -0.5730 H     1 <1>   0.0800 
 38 H        5.6580    -1.7160    -0.6630 H     1 <1>   0.0800 
 39 H        3.9180     1.9320    -1.9920 H     1 <1>   0.0800 
 40 H        5.5800     1.6010    -2.3760 H     1 <1>   0.0800 
 41 H        1.3590    -5.7850     0.2390 H     1 <1>   0.1500 
 42 H        4.2420     4.0340    -0.7970 H     1 <1>   0.0800 
 43 H        5.8540     3.9510    -1.4750 H     1 <1>   0.0800 
 44 H        5.6410     4.2150     0.2410 H     1 <1>   0.0800 
 45 H       -1.8560    -5.5310    -1.4200 H     1 <1>   0.0800 
 46 H       -0.9980    -6.0200     0.0360 H     1 <1>   0.0800 
 47 H       -0.1500    -5.9490    -1.5200 H     1 <1>   0.0800 
@<TRIPOS>BOND
  1   1   2  2   
  2   2   3  am  
  3   2   4  1   
  4   3   5  1   
  5   3   6  1   
  6   4   7  ar  
  7   4   8  ar  
  8   5   9  1   
  9   5  23  1   
 10   5  24  1   
 11   6  10  1   
 12   6  25  1   
 13   6  26  1   
 14   7  11  ar  
 15   7  12  1   
 16   8  13  ar  
 17   8  27  1   
 18   9  14  1   
 19   9  15  1   
 20   9  28  1   
 21  10  16  1   
 22  10  17  1   
 23  10  29  1   
 24  11  18  1   
 25  11  19  ar  
 26  12  30  1   
 27  12  31  1   
 28  12  32  1   
 29  13  19  ar  
 30  13  33  1   
 31  14  17  1   
 32  14  20  1   
 33  14  34  1   
 34  15  21  1   
 35  15  35  1   
 36  15  36  1   
 37  16  21  1   
 38  16  37  1   
 39  16  38  1   
 40  17  39  1   
 41  17  40  1   
 42  18  22  1   
 43  19  41  1   
 44  20  42  1   
 45  20  43  1   
 46  20  44  1   
 47  22  45  1   
 48  22  46  1   
 49  22  47  1   
@<TRIPOS>SUBSTRUCTURE
  1 ****   3 GROUP 4 **** **** 0

# MOE 2024.06 (io_trps.svl 2023.06)
