@<TRIPOS>MOLECULE
NONAME
48 50 1 0 0 
SMALL
USER_CHARGES


@<TRIPOS>ATOM
  1 S        0.3440     0.2130    -1.2460 S.o2  1 <1>   1.4470 
  2 O       -0.1660     1.5630    -1.3860 O.2   1 <1>  -0.6500 
  3 O        0.9570    -0.4550    -2.3740 O.2   1 <1>  -0.6500 
  4 N        1.4620     0.2020     0.0390 N.am  1 <1>  -0.8490 
  5 C       -0.9760    -0.8500    -0.5940 C.ar  1 <1>  -0.0090 
  6 C        1.4370     1.3800     0.9300 C.3   1 <1>   0.1960 
  7 C        2.7810    -0.4190    -0.2030 C.3   1 <1>   0.1960 
  8 C       -0.8510    -2.2340    -0.6070 C.ar  1 <1>  -0.1500 
  9 C       -2.1320    -0.3110    -0.0420 C.ar  1 <1>  -0.1500 
 10 C        2.2960     2.5990     0.4870 C.3   1 <1>   0.2200 
 11 C        3.8810     0.4910    -0.7990 C.3   1 <1>  -0.0190 
 12 C       -1.8420    -3.0510    -0.0910 C.ar  1 <1>  -0.1500 
 13 C       -3.1270    -1.1220     0.4770 C.ar  1 <1>  -0.1500 
 14 N        2.6170     2.6090    -0.9650 N.am  1 <1>  -0.7300 
 15 C        3.6010     2.6890     1.3070 C.3   1 <1>   0.1200 
 16 C        3.3480     1.6660    -1.5900 C.2   1 <1>   0.5690 
 17 C        4.8870     0.9850     0.2540 C.3   1 <1>   0.1200 
 18 C       -2.9870    -2.4990     0.4570 C.ar  1 <1>  -0.1430 
 19 O        4.2580     1.4550     1.4090 O.3   1 <1>  -0.5600 
 20 O        3.6020     1.7650    -2.7630 O.2   1 <1>  -0.5700 
 21 C       -4.0780    -3.3940     1.0230 C.3   1 <1>  -0.0170 
 22 C       -5.0980    -3.7540    -0.0640 C.3   1 <1>  -0.1600 
 23 C       -6.2100    -4.6570     0.4820 C.3   1 <1>  -0.1600 
 24 C       -7.2200    -5.0080    -0.6140 C.3   1 <1>  -0.2400 
 25 H        0.4190     1.7080     1.0450 H     1 <1>   0.0800 
 26 H        1.7560     1.0690     1.9100 H     1 <1>   0.0800 
 27 H        3.1370    -0.8180     0.7310 H     1 <1>   0.0800 
 28 H        2.6500    -1.2660    -0.8550 H     1 <1>   0.0800 
 29 H        0.0340    -2.6770    -1.0310 H     1 <1>   0.1500 
 30 H       -2.2590     0.7580    -0.0190 H     1 <1>   0.1500 
 31 H        1.7350     3.4920     0.6990 H     1 <1>   0.0800 
 32 H        4.4450    -0.1090    -1.4880 H     1 <1>   0.0800 
 33 H       -1.7170    -4.1200    -0.1190 H     1 <1>   0.1500 
 34 H       -4.0130    -0.6760     0.8940 H     1 <1>   0.1500 
 35 H        2.0650     3.2240    -1.5680 H     1 <1>   0.3700 
 36 H        3.3630     2.9900     2.3120 H     1 <1>   0.0800 
 37 H        4.2730     3.4180     0.8890 H     1 <1>   0.0800 
 38 H        5.5200     1.7610    -0.1450 H     1 <1>   0.0800 
 39 H        5.5140     0.1650     0.5580 H     1 <1>   0.0800 
 40 H       -3.6380    -4.2920     1.4200 H     1 <1>   0.0800 
 41 H       -4.5740    -2.8880     1.8330 H     1 <1>   0.0800 
 42 H       -5.5280    -2.8480    -0.4560 H     1 <1>   0.0800 
 43 H       -4.5900    -4.2540    -0.8710 H     1 <1>   0.0800 
 44 H       -5.7830    -5.5650     0.8720 H     1 <1>   0.0800 
 45 H       -6.7230    -4.1570     1.2870 H     1 <1>   0.0800 
 46 H       -6.7350    -5.5300    -1.4200 H     1 <1>   0.0800 
 47 H       -7.6780    -4.1160    -1.0040 H     1 <1>   0.0800 
 48 H       -7.9920    -5.6420    -0.2130 H     1 <1>   0.0800 
@<TRIPOS>BOND
  1   1   2  2   
  2   1   3  2   
  3   1   4  am  
  4   1   5  1   
  5   4   6  1   
  6   4   7  1   
  7   5   8  ar  
  8   5   9  ar  
  9   6  10  1   
 10   6  25  1   
 11   6  26  1   
 12   7  11  1   
 13   7  27  1   
 14   7  28  1   
 15   8  12  ar  
 16   8  29  1   
 17   9  13  ar  
 18   9  30  1   
 19  10  14  1   
 20  10  15  1   
 21  10  31  1   
 22  11  16  1   
 23  11  17  1   
 24  11  32  1   
 25  12  18  ar  
 26  12  33  1   
 27  13  18  ar  
 28  13  34  1   
 29  14  16  am  
 30  14  35  1   
 31  15  19  1   
 32  15  36  1   
 33  15  37  1   
 34  16  20  2   
 35  17  19  1   
 36  17  38  1   
 37  17  39  1   
 38  18  21  1   
 39  21  22  1   
 40  21  40  1   
 41  21  41  1   
 42  22  23  1   
 43  22  42  1   
 44  22  43  1   
 45  23  24  1   
 46  23  44  1   
 47  23  45  1   
 48  24  46  1   
 49  24  47  1   
 50  24  48  1   
@<TRIPOS>SUBSTRUCTURE
  1 ****   5 GROUP 4 **** **** 0

# MOE 2024.06 (io_trps.svl 2023.06)
