@<TRIPOS>MOLECULE
NONAME
45 47 1 0 0 
SMALL
USER_CHARGES


@<TRIPOS>ATOM
  1 O        0.2440    -0.6850     1.1350 O.3   1 <1>  -0.3630 
  2 C        0.1710    -1.9480     0.7050 C.ar  1 <1>   0.0830 
  3 C       -0.1900     0.1430     0.0570 C.3   1 <1>   0.4000 
  4 C       -0.2860    -1.9790    -0.5790 C.ar  1 <1>   0.0830 
  5 C        0.4890    -3.1020     1.3890 C.ar  1 <1>  -0.1500 
  6 O       -0.5230    -0.7380    -1.0170 O.3   1 <1>  -0.3630 
  7 C       -0.4540    -3.1670    -1.2600 C.ar  1 <1>  -0.1500 
  8 C        0.3250    -4.3180     0.7240 C.ar  1 <1>   0.0830 
  9 C       -0.1450    -4.3490    -0.5940 C.ar  1 <1>  -0.1440 
 10 O        0.5960    -5.5180     1.3050 O.3   1 <1>  -0.3630 
 11 C       -0.3210    -5.6830    -1.2920 C.3   1 <1>   0.4870 
 12 C        1.0220    -5.6060     2.6490 C.3   1 <1>   0.0400 
 13 N       -1.3570    -6.4640    -0.5780 N.4   1 <1>  -0.9590 
 14 C       -1.3430    -7.9020    -0.9510 C.3   1 <1>   0.5240 
 15 C       -2.7060    -5.8130    -0.6040 C.3   1 <1>   0.3430 
 16 C       -1.6750    -8.7230     0.2890 C.2   1 <1>   0.0460 
 17 C       -3.6200    -6.2530     0.5480 C.3   1 <1>   0.1200 
 18 N       -1.1980    -8.3410     1.4940 N.2   1 <1>  -0.5650 
 19 C       -2.4310    -9.8400     0.4020 C.2   1 <1>  -0.3320 
 20 O       -4.8040    -5.5420     0.4450 O.3   1 <1>  -0.6800 
 21 C       -1.6580    -9.2350     2.3080 C.2   1 <1>   0.0360 
 22 N       -2.4160   -10.1760     1.7070 N.pl3 1 <1>   0.0330 
 23 C       -3.1880   -10.6550    -0.6350 C.3   1 <1>  -0.0600 
 24 H        0.6120     0.7930    -0.2440 H     1 <1>   0.0800 
 25 H       -1.0620     0.6970     0.3550 H     1 <1>   0.0800 
 26 H        0.8480    -3.0250     2.3970 H     1 <1>   0.1500 
 27 H       -0.8150    -3.1450    -2.2730 H     1 <1>   0.1500 
 28 H        0.6190    -6.2100    -1.2650 H     1 <1>   0.0800 
 29 H       -0.6050    -5.5310    -2.3200 H     1 <1>   0.0800 
 30 H        1.1430    -6.6460     2.8950 H     1 <1>   0.0800 
 31 H        0.2740    -5.1670     3.2860 H     1 <1>   0.0800 
 32 H        1.9640    -5.0950     2.7530 H     1 <1>   0.0800 
 33 H       -1.0320    -6.4800     0.4120 H     1 <1>   0.4500 
 34 H       -0.3570    -8.1850    -1.2780 H     1 <1>   0.0800 
 35 H       -2.0460    -8.1050    -1.7410 H     1 <1>   0.0800 
 36 H       -3.1950    -6.0220    -1.5400 H     1 <1>   0.0800 
 37 H       -2.5850    -4.7450    -0.5200 H     1 <1>   0.0800 
 38 H       -3.1700    -6.0260     1.5000 H     1 <1>   0.0800 
 39 H       -3.8610    -7.2990     0.4880 H     1 <1>   0.0800 
 40 H       -5.4020    -5.7340     1.1990 H     1 <1>   0.4000 
 41 H       -1.4660    -9.2510     3.3680 H     1 <1>   0.1500 
 42 H       -2.8710   -10.9770     2.1570 H     1 <1>   0.2700 
 43 H       -3.0740   -10.2330    -1.6180 H     1 <1>   0.0800 
 44 H       -4.2370   -10.6800    -0.3960 H     1 <1>   0.0800 
 45 H       -2.8170   -11.6650    -0.6560 H     1 <1>   0.0800 
@<TRIPOS>BOND
  1   1   2  1   
  2   1   3  1   
  3   2   4  ar  
  4   2   5  ar  
  5   3   6  1   
  6   3  24  1   
  7   3  25  1   
  8   4   6  1   
  9   4   7  ar  
 10   5   8  ar  
 11   5  26  1   
 12   7   9  ar  
 13   7  27  1   
 14   8   9  ar  
 15   8  10  1   
 16   9  11  1   
 17  10  12  1   
 18  11  13  1   
 19  11  28  1   
 20  11  29  1   
 21  12  30  1   
 22  12  31  1   
 23  12  32  1   
 24  13  14  1   
 25  13  15  1   
 26  13  33  1   
 27  14  16  1   
 28  14  34  1   
 29  14  35  1   
 30  15  17  1   
 31  15  36  1   
 32  15  37  1   
 33  16  18  1   
 34  16  19  2   
 35  17  20  1   
 36  17  38  1   
 37  17  39  1   
 38  18  21  2   
 39  19  22  1   
 40  19  23  1   
 41  20  40  1   
 42  21  22  1   
 43  21  41  1   
 44  22  42  1   
 45  23  43  1   
 46  23  44  1   
 47  23  45  1   
@<TRIPOS>SUBSTRUCTURE
  1 ****  13 GROUP 4 **** **** 0

# MOE 2024.06 (io_trps.svl 2023.06)
