@<TRIPOS>MOLECULE
NONAME
42 43 1 0 0 
SMALL
USER_CHARGES


@<TRIPOS>ATOM
  1 S        0.2230    -0.3270    -0.5930 S.3   1 <1>  -0.0800 
  2 C       -1.3320    -0.9180    -0.1010 C.2   1 <1>   0.4420 
  3 C       -0.3150     1.2520    -0.1340 C.2   1 <1>   0.1980 
  4 N       -2.0840     0.0220     0.3440 N.2   1 <1>  -0.3380 
  5 N       -1.5520    -2.2720    -0.2310 N.am  1 <1>  -0.4940 
  6 N       -1.4990     1.2560     0.3220 N.2   1 <1>  -0.3380 
  7 C        0.6240     2.4240    -0.3080 C.3   1 <1>   0.0200 
  8 C       -2.7000    -2.9960    -0.0300 C.2   1 <1>   0.6160 
  9 C       -0.0850     3.6990     0.1640 C.3   1 <1>   0.3430 
 10 O       -3.7570    -2.4360     0.1610 O.2   1 <1>  -0.5700 
 11 C       -2.6460    -4.4450    -0.1020 C.2   1 <1>   0.1230 
 12 N        0.7860     4.9210     0.0910 N.4   1 <1>  -0.9590 
 13 N       -1.6400    -5.1830     0.5510 N.am  1 <1>  -0.4690 
 14 C       -3.5600    -5.1440    -0.8230 C.2   1 <1>  -0.1360 
 15 C        0.1230     6.0490     0.8170 C.3   1 <1>   0.2630 
 16 C        1.0870     5.3290    -1.3190 C.3   1 <1>   0.2630 
 17 C       -1.4870    -6.5460     0.3200 C.2   1 <1>   0.6900 
 18 C       -0.8740    -4.5880     1.6930 C.3   1 <1>   0.0600 
 19 C       -3.4870    -6.5470    -0.9900 C.2   1 <1>   0.6160 
 20 O       -0.5380    -7.1390     0.7990 O.2   1 <1>  -0.5700 
 21 N       -2.4120    -7.2210    -0.4520 N.am  1 <1>  -0.4200 
 22 O       -4.3450    -7.1450    -1.6130 O.2   1 <1>  -0.5700 
 23 C       -2.2800    -8.6950    -0.6550 C.3   1 <1>   0.0600 
 24 H       -0.7520    -2.8210    -0.5340 H     1 <1>   0.3700 
 25 H        0.8880     2.4970    -1.3470 H     1 <1>   0.0800 
 26 H        1.5070     2.2500     0.2790 H     1 <1>   0.0800 
 27 H       -0.4020     3.5470     1.1840 H     1 <1>   0.0800 
 28 H       -0.9740     3.8480    -0.4290 H     1 <1>   0.0800 
 29 H        1.6750     4.7200     0.5760 H     1 <1>   0.4500 
 30 H       -4.3820    -4.6550    -1.3130 H     1 <1>   0.1500 
 31 H       -0.8180     6.2950     0.3510 H     1 <1>   0.0800 
 32 H        0.7520     6.9250     0.8050 H     1 <1>   0.0800 
 33 H       -0.0640     5.7770     1.8440 H     1 <1>   0.0800 
 34 H        0.1730     5.5320    -1.8540 H     1 <1>   0.0800 
 35 H        1.6220     4.5480    -1.8350 H     1 <1>   0.0800 
 36 H        1.6950     6.2200    -1.3290 H     1 <1>   0.0800 
 37 H       -1.4100    -3.7620     2.1280 H     1 <1>   0.0800 
 38 H        0.0900    -4.2560     1.3510 H     1 <1>   0.0800 
 39 H       -0.7270    -5.3250     2.4640 H     1 <1>   0.0800 
 40 H       -1.2430    -8.9830    -0.6620 H     1 <1>   0.0800 
 41 H       -2.7180    -8.9860    -1.5940 H     1 <1>   0.0800 
 42 H       -2.7830    -9.2120     0.1430 H     1 <1>   0.0800 
@<TRIPOS>BOND
  1   1   2  1   
  2   1   3  1   
  3   2   4  2   
  4   2   5  1   
  5   3   6  2   
  6   3   7  1   
  7   4   6  1   
  8   5   8  am  
  9   5  24  1   
 10   7   9  1   
 11   7  25  1   
 12   7  26  1   
 13   8  10  2   
 14   8  11  1   
 15   9  12  1   
 16   9  27  1   
 17   9  28  1   
 18  11  13  1   
 19  11  14  2   
 20  12  15  1   
 21  12  16  1   
 22  12  29  1   
 23  13  17  am  
 24  13  18  1   
 25  14  19  1   
 26  14  30  1   
 27  15  31  1   
 28  15  32  1   
 29  15  33  1   
 30  16  34  1   
 31  16  35  1   
 32  16  36  1   
 33  17  20  2   
 34  17  21  am  
 35  18  37  1   
 36  18  38  1   
 37  18  39  1   
 38  19  21  am  
 39  19  22  2   
 40  21  23  1   
 41  23  40  1   
 42  23  41  1   
 43  23  42  1   
@<TRIPOS>SUBSTRUCTURE
  1 ****   5 GROUP 4 **** **** 0

# MOE 2024.06 (io_trps.svl 2023.06)
