@<TRIPOS>MOLECULE
NONAME
56 58 1 0 0 
SMALL
USER_CHARGES


@<TRIPOS>ATOM
  1 O       -0.6240     0.0840    -0.0490 O.2   1 <1>  -0.5700 
  2 C       -0.3910     1.2420     0.2050 C.2   1 <1>   0.5690 
  3 N       -1.3830     2.1820     0.3090 N.am  1 <1>  -0.6600 
  4 C        1.0710     1.6580     0.3840 C.3   1 <1>   0.1810 
  5 C       -1.0660     3.6170     0.6130 C.3   1 <1>   0.3640 
  6 C       -2.8300     1.8190     0.2750 C.3   1 <1>   0.0600 
  7 O        1.2240     2.8700     1.0790 O.3   1 <1>  -0.5600 
  8 C       -1.7980     4.5360    -0.3780 C.ar  1 <1>  -0.1430 
  9 C        0.4480     3.9330     0.5610 C.3   1 <1>   0.2610 
 10 C       -2.5500     5.6380     0.0330 C.ar  1 <1>  -0.1430 
 11 C       -1.6850     4.2690    -1.7390 C.ar  1 <1>  -0.1500 
 12 C        0.7060     5.2430     1.3190 C.2   1 <1>   0.5690 
 13 C       -3.1500     6.4490    -0.9190 C.ar  1 <1>  -0.1500 
 14 C       -2.7470     5.9990     1.5000 C.3   1 <1>  -0.0960 
 15 C       -2.2890     5.0810    -2.6790 C.ar  1 <1>  -0.1500 
 16 O        0.5460     5.2600     2.5200 O.2   1 <1>  -0.5700 
 17 N        1.0630     6.3890     0.6530 N.am  1 <1>  -0.6600 
 18 C       -3.0210     6.1760    -2.2680 C.ar  1 <1>  -0.1500 
 19 C        1.3160     7.6630     1.3670 C.3   1 <1>   0.1400 
 20 C        1.0890     6.6060    -0.8090 C.3   1 <1>   0.1400 
 21 C        1.8150     8.6540     0.3000 C.3   1 <1>   0.0000 
 22 C        1.1330     8.1210    -0.9710 C.3   1 <1>  -0.1600 
 23 C        3.3620     8.5400     0.1930 C.3   1 <1>  -0.1600 
 24 C        1.3330    10.0950     0.6040 C.3   1 <1>  -0.1600 
 25 C        4.0350     9.4820    -0.8190 C.3   1 <1>  -0.2400 
 26 C        1.8990    10.6990     1.8990 C.3   1 <1>  -0.2400 
 27 H        1.5370     1.7560    -0.5800 H     1 <1>   0.0800 
 28 H        1.5880     0.8980     0.9410 H     1 <1>   0.0800 
 29 H       -1.4020     3.8060     1.6150 H     1 <1>   0.0800 
 30 H       -3.3220     2.1940     1.1550 H     1 <1>   0.0800 
 31 H       -2.9540     0.7500     0.2430 H     1 <1>   0.0800 
 32 H       -3.2960     2.2440    -0.5970 H     1 <1>   0.0800 
 33 H        0.7470     4.0590    -0.4610 H     1 <1>   0.0800 
 34 H       -1.1230     3.4150    -2.0770 H     1 <1>   0.1500 
 35 H       -3.7290     7.3040    -0.6160 H     1 <1>   0.1500 
 36 H       -3.4480     6.8060     1.6080 H     1 <1>   0.0800 
 37 H       -1.8170     6.3120     1.9390 H     1 <1>   0.0800 
 38 H       -3.1300     5.1580     2.0480 H     1 <1>   0.0800 
 39 H       -2.1930     4.8590    -3.7280 H     1 <1>   0.1500 
 40 H       -3.4950     6.8140    -2.9950 H     1 <1>   0.1500 
 41 H        0.3890     8.0010     1.7960 H     1 <1>   0.0800 
 42 H        2.0330     7.5200     2.1570 H     1 <1>   0.0800 
 43 H        1.9760     6.1570    -1.2200 H     1 <1>   0.0800 
 44 H        0.2140     6.1990    -1.2850 H     1 <1>   0.0800 
 45 H        1.6270     8.4060    -1.8800 H     1 <1>   0.0800 
 46 H        0.1170     8.4730    -1.0220 H     1 <1>   0.0800 
 47 H        3.7950     8.7280     1.1600 H     1 <1>   0.0800 
 48 H        3.6270     7.5280    -0.0610 H     1 <1>   0.0800 
 49 H        1.5830    10.7390    -0.2210 H     1 <1>   0.0800 
 50 H        0.2590    10.0950     0.6800 H     1 <1>   0.0800 
 51 H        3.8750    10.5110    -0.5550 H     1 <1>   0.0800 
 52 H        3.6680     9.3170    -1.8150 H     1 <1>   0.0800 
 53 H        5.0960     9.3040    -0.8230 H     1 <1>   0.0800 
 54 H        2.9660    10.8130     1.8380 H     1 <1>   0.0800 
 55 H        1.6630    10.0820     2.7480 H     1 <1>   0.0800 
 56 H        1.4700    11.6730     2.0610 H     1 <1>   0.0800 
@<TRIPOS>BOND
  1   1   2  2   
  2   2   3  am  
  3   2   4  1   
  4   3   5  1   
  5   3   6  1   
  6   4   7  1   
  7   4  27  1   
  8   4  28  1   
  9   5   8  1   
 10   5   9  1   
 11   5  29  1   
 12   6  30  1   
 13   6  31  1   
 14   6  32  1   
 15   7   9  1   
 16   8  10  ar  
 17   8  11  ar  
 18   9  12  1   
 19   9  33  1   
 20  10  13  ar  
 21  10  14  1   
 22  11  15  ar  
 23  11  34  1   
 24  12  16  2   
 25  12  17  am  
 26  13  18  ar  
 27  13  35  1   
 28  14  36  1   
 29  14  37  1   
 30  14  38  1   
 31  15  18  ar  
 32  15  39  1   
 33  17  19  1   
 34  17  20  1   
 35  18  40  1   
 36  19  21  1   
 37  19  41  1   
 38  19  42  1   
 39  20  22  1   
 40  20  43  1   
 41  20  44  1   
 42  21  22  1   
 43  21  23  1   
 44  21  24  1   
 45  22  45  1   
 46  22  46  1   
 47  23  25  1   
 48  23  47  1   
 49  23  48  1   
 50  24  26  1   
 51  24  49  1   
 52  24  50  1   
 53  25  51  1   
 54  25  52  1   
 55  25  53  1   
 56  26  54  1   
 57  26  55  1   
 58  26  56  1   
@<TRIPOS>SUBSTRUCTURE
  1 ****  12 GROUP 4 **** **** 0

# MOE 2024.06 (io_trps.svl 2023.06)
