@<TRIPOS>MOLECULE
NONAME
55 58 1 0 0 
SMALL
USER_CHARGES


@<TRIPOS>ATOM
  1 O        2.3040     0.0210     1.9720 O.2   1 <1>  -0.5700 
  2 C        2.8270    -0.6640     1.1080 C.2   1 <1>   0.7160 
  3 N        4.1940    -0.5270     0.9220 N.am  1 <1>  -0.6600 
  4 C        1.9820    -1.5630     0.3290 C.2   1 <1>   0.2030 
  5 C        5.0450    -1.4510     0.1040 C.3   1 <1>   0.1400 
  6 C        4.9400     0.6300     1.4920 C.3   1 <1>   0.1400 
  7 N        2.2240    -2.1030    -0.8330 N.2   1 <1>  -0.4100 
  8 C        0.7170    -1.9710     0.7280 C.2   1 <1>  -0.1500 
  9 C        5.3470    -0.8860    -1.2940 C.3   1 <1>   0.1400 
 10 C        4.8410     1.8550     0.5710 C.3   1 <1>  -0.1600 
 11 O        1.2120    -2.8420    -1.2180 O.3   1 <1>  -0.0190 
 12 C        0.3050    -2.7560    -0.2710 C.2   1 <1>  -0.0400 
 13 N        5.9460     0.4840    -1.2180 N.am  1 <1>  -0.6600 
 14 C        4.9450     1.5530    -0.9310 C.3   1 <1>   0.1400 
 15 C       -0.9960    -3.5100    -0.4410 C.3   1 <1>  -0.0600 
 16 C        7.3040     0.6580    -1.3130 C.2   1 <1>   0.5690 
 17 O        8.0490    -0.2720    -1.5150 O.2   1 <1>  -0.5700 
 18 C        7.9530     2.0150    -1.1250 C.3   1 <1>  -0.0990 
 19 C        8.5740     2.1160     0.2710 C.3   1 <1>   0.0210 
 20 C        8.9340     3.5520     0.5820 C.2   1 <1>   0.1080 
 21 N        8.0600     4.4000     1.0350 N.2   1 <1>  -0.7070 
 22 C       10.1890     4.1300     0.4210 C.2   1 <1>  -0.1810 
 23 N        8.7460     5.5520     1.1780 N.pl3 1 <1>   0.3000 
 24 C       10.0330     5.4090     0.8060 C.2   1 <1>  -0.3320 
 25 C       11.4990     3.5510    -0.0780 C.3   1 <1>   0.0210 
 26 C       11.1230     6.4640     0.8150 C.3   1 <1>   0.0200 
 27 C       12.6650     4.4920     0.2820 C.3   1 <1>  -0.1600 
 28 C       12.3280     5.9700    -0.0080 C.3   1 <1>  -0.1600 
 29 H        4.5710    -2.4110     0.0080 H     1 <1>   0.0800 
 30 H        5.9780    -1.6190     0.6130 H     1 <1>   0.0800 
 31 H        5.9750     0.3600     1.6150 H     1 <1>   0.0800 
 32 H        4.5560     0.8780     2.4680 H     1 <1>   0.0800 
 33 H        0.2270    -1.6880     1.6420 H     1 <1>   0.1500 
 34 H        4.4420    -0.8550    -1.8750 H     1 <1>   0.0800 
 35 H        6.0210    -1.5550    -1.8000 H     1 <1>   0.0800 
 36 H        5.6050     2.5590     0.8480 H     1 <1>   0.0800 
 37 H        3.9000     2.3430     0.7530 H     1 <1>   0.0800 
 38 H        5.1780     2.4500    -1.4760 H     1 <1>   0.0800 
 39 H        3.9800     1.2250    -1.2800 H     1 <1>   0.0800 
 40 H       -1.6370    -3.3450     0.4060 H     1 <1>   0.0800 
 41 H       -0.7980    -4.5630    -0.5290 H     1 <1>   0.0800 
 42 H       -1.4990    -3.1730    -1.3300 H     1 <1>   0.0800 
 43 H        7.2500     2.8110    -1.2640 H     1 <1>   0.0800 
 44 H        8.7230     2.1370    -1.8630 H     1 <1>   0.0800 
 45 H        9.4440     1.4890     0.3320 H     1 <1>   0.0800 
 46 H        7.8740     1.7770     1.0120 H     1 <1>   0.0800 
 47 H        8.3080     6.4120     1.5290 H     1 <1>   0.2700 
 48 H       11.4390     3.4370    -1.1460 H     1 <1>   0.0800 
 49 H       11.6670     2.5830     0.3590 H     1 <1>   0.0800 
 50 H       11.4270     6.6410     1.8320 H     1 <1>   0.0800 
 51 H       10.7560     7.3860     0.4010 H     1 <1>   0.0800 
 52 H       13.5420     4.2010    -0.2700 H     1 <1>   0.0800 
 53 H       12.8840     4.3860     1.3310 H     1 <1>   0.0800 
 54 H       13.1820     6.5890     0.2030 H     1 <1>   0.0800 
 55 H       12.0960     6.0710    -1.0540 H     1 <1>   0.0800 
@<TRIPOS>BOND
  1   1   2  2   
  2   2   3  am  
  3   2   4  1   
  4   3   5  1   
  5   3   6  1   
  6   4   7  2   
  7   4   8  1   
  8   5   9  1   
  9   5  29  1   
 10   5  30  1   
 11   6  10  1   
 12   6  31  1   
 13   6  32  1   
 14   7  11  1   
 15   8  12  2   
 16   8  33  1   
 17   9  13  1   
 18   9  34  1   
 19   9  35  1   
 20  10  14  1   
 21  10  36  1   
 22  10  37  1   
 23  11  12  1   
 24  12  15  1   
 25  13  14  1   
 26  13  16  am  
 27  14  38  1   
 28  14  39  1   
 29  15  40  1   
 30  15  41  1   
 31  15  42  1   
 32  16  17  2   
 33  16  18  1   
 34  18  19  1   
 35  18  43  1   
 36  18  44  1   
 37  19  20  1   
 38  19  45  1   
 39  19  46  1   
 40  20  21  2   
 41  20  22  1   
 42  21  23  1   
 43  22  24  2   
 44  22  25  1   
 45  23  24  1   
 46  23  47  1   
 47  24  26  1   
 48  25  27  1   
 49  25  48  1   
 50  25  49  1   
 51  26  28  1   
 52  26  50  1   
 53  26  51  1   
 54  27  28  1   
 55  27  52  1   
 56  27  53  1   
 57  28  54  1   
 58  28  55  1   
@<TRIPOS>SUBSTRUCTURE
  1 ****  10 GROUP 4 **** **** 0

# MOE 2024.06 (io_trps.svl 2023.06)
