@<TRIPOS>MOLECULE
NONAME
48 50 1 0 0 
SMALL
USER_CHARGES


@<TRIPOS>ATOM
  1 O       -0.0160     0.9050     0.0230 O.2   1 <1>  -0.5700 
  2 C       -0.1900     2.0750    -0.2210 C.2   1 <1>   0.5690 
  3 N       -1.0660     2.8520     0.4900 N.am  1 <1>  -0.6600 
  4 C        0.5950     2.6960    -1.3770 C.3   1 <1>   0.1810 
  5 C       -1.2560     4.3040     0.1660 C.3   1 <1>   0.3640 
  6 C       -1.8260     2.3320     1.6640 C.3   1 <1>   0.0600 
  7 O        0.7800     4.0800    -1.2150 O.3   1 <1>  -0.5600 
  8 C       -2.7400     4.6680     0.0110 C.ar  1 <1>  -0.1430 
  9 C       -0.4310     4.8020    -1.0480 C.3   1 <1>   0.2610 
 10 C       -3.6480     3.9880    -0.8080 C.ar  1 <1>  -0.1430 
 11 C       -3.1880     5.7630     0.7420 C.ar  1 <1>  -0.1500 
 12 C       -0.1770     6.3090    -0.9070 C.2   1 <1>   0.5690 
 13 C       -4.9670     4.4150    -0.8620 C.ar  1 <1>  -0.1500 
 14 C       -3.2780     2.7780    -1.6600 C.3   1 <1>  -0.0960 
 15 C       -4.5030     6.1800     0.6770 C.ar  1 <1>  -0.1500 
 16 O       -0.8250     7.0380    -1.6220 O.2   1 <1>  -0.5700 
 17 N        0.7240     6.8350    -0.0060 N.am  1 <1>  -0.6600 
 18 C       -5.3970     5.5030    -0.1270 C.ar  1 <1>  -0.1500 
 19 C        1.0620     8.3060    -0.0300 C.3   1 <1>   0.2010 
 20 C        1.6490     6.0550     0.8690 C.3   1 <1>   0.1400 
 21 C        2.5660     8.6160    -0.0050 C.2   1 <1>   0.5690 
 22 C        3.0880     6.1840     0.3530 C.3   1 <1>   0.1400 
 23 O        2.8990     9.7710    -0.1360 O.2   1 <1>  -0.5700 
 24 N        3.4900     7.6120     0.1840 N.am  1 <1>  -0.6600 
 25 C        4.9570     7.8620     0.1350 C.3   1 <1>   0.0600 
 26 H        0.0800     2.5220    -2.3040 H     1 <1>   0.0800 
 27 H        1.5670     2.2400    -1.4300 H     1 <1>   0.0800 
 28 H       -0.8910     4.8380     1.0240 H     1 <1>   0.0800 
 29 H       -1.6190     2.9340     2.5310 H     1 <1>   0.0800 
 30 H       -1.5490     1.3140     1.8780 H     1 <1>   0.0800 
 31 H       -2.8830     2.3610     1.4610 H     1 <1>   0.0800 
 32 H       -1.0050     4.6640    -1.9450 H     1 <1>   0.0800 
 33 H       -2.5120     6.3150     1.3730 H     1 <1>   0.1500 
 34 H       -5.6790     3.9010    -1.4840 H     1 <1>   0.1500 
 35 H       -4.0560     2.5550    -2.3670 H     1 <1>   0.0800 
 36 H       -3.1420     1.9140    -1.0350 H     1 <1>   0.0800 
 37 H       -2.3790     2.9550    -2.2150 H     1 <1>   0.0800 
 38 H       -4.8300     7.0310     1.2480 H     1 <1>   0.1500 
 39 H       -6.4230     5.8220    -0.1830 H     1 <1>   0.1500 
 40 H        0.6540     8.7690    -0.9110 H     1 <1>   0.0800 
 41 H        0.6110     8.7790     0.8220 H     1 <1>   0.0800 
 42 H        1.5980     6.4440     1.8720 H     1 <1>   0.0800 
 43 H        1.3780     5.0180     0.9140 H     1 <1>   0.0800 
 44 H        3.1720     5.6780    -0.5930 H     1 <1>   0.0800 
 45 H        3.7530     5.7050     1.0510 H     1 <1>   0.0800 
 46 H        5.4070     7.5790     1.0700 H     1 <1>   0.0800 
 47 H        5.1610     8.9050    -0.0420 H     1 <1>   0.0800 
 48 H        5.3970     7.2880    -0.6610 H     1 <1>   0.0800 
@<TRIPOS>BOND
  1   1   2  2   
  2   2   3  am  
  3   2   4  1   
  4   3   5  1   
  5   3   6  1   
  6   4   7  1   
  7   4  26  1   
  8   4  27  1   
  9   5   8  1   
 10   5   9  1   
 11   5  28  1   
 12   6  29  1   
 13   6  30  1   
 14   6  31  1   
 15   7   9  1   
 16   8  10  ar  
 17   8  11  ar  
 18   9  12  1   
 19   9  32  1   
 20  10  13  ar  
 21  10  14  1   
 22  11  15  ar  
 23  11  33  1   
 24  12  16  2   
 25  12  17  am  
 26  13  18  ar  
 27  13  34  1   
 28  14  35  1   
 29  14  36  1   
 30  14  37  1   
 31  15  18  ar  
 32  15  38  1   
 33  17  19  1   
 34  17  20  1   
 35  18  39  1   
 36  19  21  1   
 37  19  40  1   
 38  19  41  1   
 39  20  22  1   
 40  20  42  1   
 41  20  43  1   
 42  21  23  2   
 43  21  24  am  
 44  22  24  1   
 45  22  44  1   
 46  22  45  1   
 47  24  25  1   
 48  25  46  1   
 49  25  47  1   
 50  25  48  1   
@<TRIPOS>SUBSTRUCTURE
  1 ****   9 GROUP 4 **** **** 0

# MOE 2024.06 (io_trps.svl 2023.06)
