@<TRIPOS>MOLECULE
NONAME
47 49 1 0 0 
SMALL
USER_CHARGES


@<TRIPOS>ATOM
  1 S       -0.0290    -0.3360     0.8500 S.3   1 <1>  -0.4600 
  2 C       -0.6910    -1.5400    -0.3380 C.3   1 <1>   0.0700 
  3 C       -1.2600    -0.3990     2.1870 C.3   1 <1>   0.0700 
  4 C       -2.1530    -1.1920    -0.6410 C.3   1 <1>   0.1400 
  5 C       -2.6590    -0.1930     1.5960 C.3   1 <1>   0.1400 
  6 N       -2.9760    -1.2660     0.6050 N.am  1 <1>  -0.6600 
  7 C       -3.7850    -2.3280     0.9450 C.2   1 <1>   0.5690 
  8 O       -4.2540    -2.4090     2.0600 O.2   1 <1>  -0.5700 
  9 C       -4.1060    -3.4360    -0.0760 C.3   1 <1>   0.2610 
 10 O       -2.9550    -4.2310    -0.3330 O.3   1 <1>  -0.5600 
 11 C       -5.3110    -4.3070     0.3730 C.3   1 <1>   0.3640 
 12 C       -3.1210    -5.2070    -1.3400 C.3   1 <1>   0.1810 
 13 N       -5.3830    -5.5830    -0.3780 N.am  1 <1>  -0.7300 
 14 C       -6.6210    -3.5510     0.1690 C.ar  1 <1>  -0.1440 
 15 C       -4.3870    -6.0500    -1.1620 C.2   1 <1>   0.5690 
 16 C       -7.1650    -3.3850    -1.0970 C.ar  1 <1>  -0.1500 
 17 C       -7.2840    -3.0000     1.2540 C.ar  1 <1>  -0.1500 
 18 O       -4.4970    -7.1020    -1.7380 O.2   1 <1>  -0.5700 
 19 C       -8.3430    -2.6850    -1.2940 C.ar  1 <1>   0.0820 
 20 C       -8.4600    -2.2930     1.0770 C.ar  1 <1>  -0.1500 
 21 O       -8.7490    -2.6120    -2.5930 O.3   1 <1>  -0.3620 
 22 C       -9.0030    -2.1140    -0.1930 C.ar  1 <1>   0.0820 
 23 C      -10.1180    -2.5630    -2.9300 C.3   1 <1>   0.0400 
 24 O      -10.1420    -1.3850    -0.3800 O.3   1 <1>  -0.3630 
 25 C      -10.7110    -0.6080     0.6510 C.3   1 <1>   0.0400 
 26 H       -0.0820    -1.4810    -1.2220 H     1 <1>   0.0800 
 27 H       -0.6070    -2.5190     0.1010 H     1 <1>   0.0800 
 28 H       -1.1800    -1.3590     2.6650 H     1 <1>   0.0800 
 29 H       -1.0120     0.3790     2.8860 H     1 <1>   0.0800 
 30 H       -2.5240    -1.8650    -1.3910 H     1 <1>   0.0800 
 31 H       -2.2060    -0.1950    -1.0450 H     1 <1>   0.0800 
 32 H       -2.7080     0.7680     1.1130 H     1 <1>   0.0800 
 33 H       -3.3830    -0.1940     2.3920 H     1 <1>   0.0800 
 34 H       -4.3750    -2.9550    -0.9980 H     1 <1>   0.0800 
 35 H       -5.1990    -4.5520     1.4160 H     1 <1>   0.0800 
 36 H       -3.1570    -4.7100    -2.2920 H     1 <1>   0.0800 
 37 H       -2.2610    -5.8510    -1.3170 H     1 <1>   0.0800 
 38 H       -6.2370    -6.1340    -0.2810 H     1 <1>   0.3700 
 39 H       -6.6790    -3.8050    -1.9600 H     1 <1>   0.1500 
 40 H       -6.8810    -3.1110     2.2470 H     1 <1>   0.1500 
 41 H       -8.9330    -1.8860     1.9500 H     1 <1>   0.1500 
 42 H      -10.2220    -2.8700    -3.9540 H     1 <1>   0.0800 
 43 H      -10.4660    -1.5520    -2.8160 H     1 <1>   0.0800 
 44 H      -10.6630    -3.2300    -2.2860 H     1 <1>   0.0800 
 45 H      -11.5360    -0.0570     0.2370 H     1 <1>   0.0800 
 46 H       -9.9680     0.0740     1.0260 H     1 <1>   0.0800 
 47 H      -11.0650    -1.2620     1.4280 H     1 <1>   0.0800 
@<TRIPOS>BOND
  1   1   2  1   
  2   1   3  1   
  3   2   4  1   
  4   2  26  1   
  5   2  27  1   
  6   3   5  1   
  7   3  28  1   
  8   3  29  1   
  9   4   6  1   
 10   4  30  1   
 11   4  31  1   
 12   5   6  1   
 13   5  32  1   
 14   5  33  1   
 15   6   7  am  
 16   7   8  2   
 17   7   9  1   
 18   9  10  1   
 19   9  11  1   
 20   9  34  1   
 21  10  12  1   
 22  11  13  1   
 23  11  14  1   
 24  11  35  1   
 25  12  15  1   
 26  12  36  1   
 27  12  37  1   
 28  13  15  am  
 29  13  38  1   
 30  14  16  ar  
 31  14  17  ar  
 32  15  18  2   
 33  16  19  ar  
 34  16  39  1   
 35  17  20  ar  
 36  17  40  1   
 37  19  21  1   
 38  19  22  ar  
 39  20  22  ar  
 40  20  41  1   
 41  21  23  1   
 42  22  24  1   
 43  23  42  1   
 44  23  43  1   
 45  23  44  1   
 46  24  25  1   
 47  25  45  1   
 48  25  46  1   
 49  25  47  1   
@<TRIPOS>SUBSTRUCTURE
  1 ****   9 GROUP 4 **** **** 0

# MOE 2024.06 (io_trps.svl 2023.06)
