@<TRIPOS>MOLECULE
NONAME
49 51 1 0 0 
SMALL
USER_CHARGES


@<TRIPOS>ATOM
  1 O        0.9130    -1.9180     1.6660 O.2   1 <1>  -0.5700 
  2 C        1.0840    -0.8420     1.1430 C.2   1 <1>   0.5690 
  3 N        1.7120    -0.7170    -0.0710 N.am  1 <1>  -0.6600 
  4 C        0.5700     0.3840     1.8800 C.3   1 <1>  -0.0990 
  5 C        1.7900     0.5630    -0.8310 C.3   1 <1>   0.1400 
  6 C        2.3040    -1.8980    -0.7630 C.3   1 <1>   0.1400 
  7 C        0.3470     1.5960     0.9680 C.3   1 <1>  -0.1600 
  8 C        1.5690     1.7840     0.0670 C.3   1 <1>  -0.1600 
  9 C        1.2690    -2.5750    -1.6710 C.3   1 <1>  -0.0990 
 10 C        0.9620    -3.9880    -1.2260 C.2   1 <1>   0.5690 
 11 O        1.0980    -4.8920    -2.0130 O.2   1 <1>  -0.5700 
 12 N        0.5370    -4.1960     0.0400 N.am  1 <1>  -0.7300 
 13 C        0.2680    -5.5160     0.6430 C.3   1 <1>   0.2200 
 14 C       -1.2160    -5.8180     0.6700 C.3   1 <1>  -0.0800 
 15 C        0.6410    -5.5760     2.1180 C.3   1 <1>   0.1200 
 16 C       -1.3340    -6.7500     1.8730 C.3   1 <1>   0.1200 
 17 C       -1.7310    -6.4210    -0.6460 C.3   1 <1>  -0.0170 
 18 O       -0.2570    -6.4660     2.7160 O.3   1 <1>  -0.5600 
 19 C       -3.1950    -6.8190    -0.5340 C.ar  1 <1>  -0.1440 
 20 C       -4.2050    -5.8790    -0.5600 C.ar  1 <1>  -0.1500 
 21 C       -3.5910    -8.1340    -0.3970 C.ar  1 <1>  -0.1500 
 22 C       -5.5240    -6.2870    -0.4480 C.ar  1 <1>   0.1600 
 23 C       -4.9380    -8.4360    -0.2930 C.ar  1 <1>   0.1600 
 24 N       -5.9150    -7.5440    -0.3130 N.ar  1 <1>  -0.6200 
 25 H       -0.3490     0.1320     2.3770 H     1 <1>   0.0800 
 26 H        1.2940     0.6330     2.6340 H     1 <1>   0.0800 
 27 H        2.7540     0.6470    -1.3030 H     1 <1>   0.0800 
 28 H        1.0380     0.5470    -1.6020 H     1 <1>   0.0800 
 29 H        3.1490    -1.5830    -1.3510 H     1 <1>   0.0800 
 30 H        2.6760    -2.5940    -0.0290 H     1 <1>   0.0800 
 31 H       -0.5270     1.4330     0.3590 H     1 <1>   0.0800 
 32 H        0.1830     2.4770     1.5640 H     1 <1>   0.0800 
 33 H        2.4470     1.9430     0.6700 H     1 <1>   0.0800 
 34 H        1.4370     2.6560    -0.5490 H     1 <1>   0.0800 
 35 H        1.6590    -2.6180    -2.6710 H     1 <1>   0.0800 
 36 H        0.3520    -2.0170    -1.6960 H     1 <1>   0.0800 
 37 H        0.5050    -3.3940     0.6920 H     1 <1>   0.3700 
 38 H        0.8050    -6.2860     0.1130 H     1 <1>   0.0800 
 39 H       -1.7620    -4.9190     0.8980 H     1 <1>   0.0800 
 40 H        0.5110    -4.6170     2.5910 H     1 <1>   0.0800 
 41 H        1.6430    -5.9360     2.2680 H     1 <1>   0.0800 
 42 H       -1.2490    -7.7820     1.5790 H     1 <1>   0.0800 
 43 H       -2.2540    -6.6010     2.4120 H     1 <1>   0.0800 
 44 H       -1.1400    -7.2800    -0.9110 H     1 <1>   0.0800 
 45 H       -1.6180    -5.7000    -1.4370 H     1 <1>   0.0800 
 46 H       -3.9770    -4.8340    -0.6660 H     1 <1>   0.1500 
 47 H       -2.8650    -8.9260    -0.3720 H     1 <1>   0.1500 
 48 H       -6.2980    -5.5390    -0.4700 H     1 <1>   0.1500 
 49 H       -5.2280    -9.4680    -0.1880 H     1 <1>   0.1500 
@<TRIPOS>BOND
  1   1   2  2   
  2   2   3  am  
  3   2   4  1   
  4   3   5  1   
  5   3   6  1   
  6   4   7  1   
  7   4  25  1   
  8   4  26  1   
  9   5   8  1   
 10   5  27  1   
 11   5  28  1   
 12   6   9  1   
 13   6  29  1   
 14   6  30  1   
 15   7   8  1   
 16   7  31  1   
 17   7  32  1   
 18   8  33  1   
 19   8  34  1   
 20   9  10  1   
 21   9  35  1   
 22   9  36  1   
 23  10  11  2   
 24  10  12  am  
 25  12  13  1   
 26  12  37  1   
 27  13  14  1   
 28  13  15  1   
 29  13  38  1   
 30  14  16  1   
 31  14  17  1   
 32  14  39  1   
 33  15  18  1   
 34  15  40  1   
 35  15  41  1   
 36  16  18  1   
 37  16  42  1   
 38  16  43  1   
 39  17  19  1   
 40  17  44  1   
 41  17  45  1   
 42  19  20  ar  
 43  19  21  ar  
 44  20  22  ar  
 45  20  46  1   
 46  21  23  ar  
 47  21  47  1   
 48  22  24  ar  
 49  22  48  1   
 50  23  24  ar  
 51  23  49  1   
@<TRIPOS>SUBSTRUCTURE
  1 ****  12 GROUP 4 **** **** 0

# MOE 2024.06 (io_trps.svl 2023.06)
