@<TRIPOS>MOLECULE
NONAME
47 50 1 0 0 
SMALL
USER_CHARGES


@<TRIPOS>ATOM
  1 F        0.4980    -0.3370     0.9940 F     1 <1>  -0.1900 
  2 C        0.9410    -1.5320     0.6930 C.ar  1 <1>   0.1900 
  3 C        0.3050    -2.6300     1.2100 C.ar  1 <1>  -0.1500 
  4 C        2.0530    -1.6230    -0.1490 C.ar  1 <1>  -0.1500 
  5 C        0.8010    -3.8940     0.8690 C.ar  1 <1>   0.0000 
  6 C        2.5410    -2.8660    -0.4830 C.ar  1 <1>  -0.1500 
  7 C        1.9070    -4.0080     0.0290 C.ar  1 <1>  -0.1520 
  8 C        0.4210    -5.2020     1.2040 C.2   1 <1>  -0.1500 
  9 N        2.1800    -5.3450    -0.1400 N.pl3 1 <1>   0.0480 
 10 C        1.2590    -6.0800     0.5780 C.2   1 <1>  -0.2370 
 11 C        3.2960    -5.8980    -0.9370 C.3   1 <1>   0.0160 
 12 C        1.2610    -7.5220     0.6200 C.2   1 <1>   0.7150 
 13 O        2.3050    -8.1250     0.7860 O.2   1 <1>  -0.5700 
 14 N        0.1020    -8.2400     0.4560 N.am  1 <1>  -0.6600 
 15 C       -1.1640    -7.6970    -0.1030 C.3   1 <1>   0.1400 
 16 C        0.0840    -9.7260     0.3990 C.3   1 <1>   0.1400 
 17 C       -2.1370    -8.8720    -0.0510 C.3   1 <1>   0.2000 
 18 C       -1.2380   -10.0870    -0.2870 C.3   1 <1>  -0.0800 
 19 O       -2.6680    -8.9280     1.2290 O.3   1 <1>  -0.6800 
 20 C       -1.8180   -11.4430     0.1560 C.3   1 <1>   0.0210 
 21 C       -0.8320   -12.5650    -0.1070 C.2   1 <1>   0.1080 
 22 N       -0.3570   -12.8250    -1.2860 N.2   1 <1>  -0.7070 
 23 C       -0.3240   -13.4200     0.8650 C.2   1 <1>  -0.1500 
 24 N        0.4750   -13.8660    -1.0950 N.pl3 1 <1>   0.3000 
 25 C        0.5130   -14.2440     0.2000 C.2   1 <1>  -0.3320 
 26 C        1.3610   -15.3860     0.7300 C.3   1 <1>  -0.0600 
 27 H       -0.5460    -2.5350     1.8570 H     1 <1>   0.1500 
 28 H        2.5070    -0.7210    -0.5190 H     1 <1>   0.1500 
 29 H        3.3970    -2.9620    -1.1260 H     1 <1>   0.1500 
 30 H       -0.3970    -5.4350     1.8620 H     1 <1>   0.1500 
 31 H        2.9590    -6.7660    -1.4740 H     1 <1>   0.0800 
 32 H        4.0940    -6.1790    -0.2740 H     1 <1>   0.0800 
 33 H        3.6490    -5.1660    -1.6380 H     1 <1>   0.0800 
 34 H       -1.5350    -6.8590     0.4600 H     1 <1>   0.0800 
 35 H       -0.9960    -7.4000    -1.1230 H     1 <1>   0.0800 
 36 H        0.9250   -10.1060    -0.1590 H     1 <1>   0.0800 
 37 H        0.1200   -10.1170     1.4010 H     1 <1>   0.0800 
 38 H       -2.9450    -8.7900    -0.7580 H     1 <1>   0.0800 
 39 H       -1.0390   -10.1440    -1.3430 H     1 <1>   0.0800 
 40 H       -1.9340    -8.8490     1.8710 H     1 <1>   0.4000 
 41 H       -2.7210   -11.6430    -0.3930 H     1 <1>   0.0800 
 42 H       -2.0610   -11.4290     1.2020 H     1 <1>   0.0800 
 43 H       -0.5640   -13.4050     1.9130 H     1 <1>   0.1500 
 44 H        1.0000   -14.2940    -1.8670 H     1 <1>   0.2700 
 45 H        1.2180   -15.4900     1.7910 H     1 <1>   0.0800 
 46 H        2.4020   -15.1950     0.5420 H     1 <1>   0.0800 
 47 H        1.0800   -16.3090     0.2550 H     1 <1>   0.0800 
@<TRIPOS>BOND
  1   1   2  1   
  2   2   3  ar  
  3   2   4  ar  
  4   3   5  ar  
  5   3  27  1   
  6   4   6  ar  
  7   4  28  1   
  8   5   7  ar  
  9   5   8  1   
 10   6   7  ar  
 11   6  29  1   
 12   7   9  1   
 13   8  10  2   
 14   8  30  1   
 15   9  10  1   
 16   9  11  1   
 17  10  12  1   
 18  11  31  1   
 19  11  32  1   
 20  11  33  1   
 21  12  13  2   
 22  12  14  am  
 23  14  15  1   
 24  14  16  1   
 25  15  17  1   
 26  15  34  1   
 27  15  35  1   
 28  16  18  1   
 29  16  36  1   
 30  16  37  1   
 31  17  18  1   
 32  17  19  1   
 33  17  38  1   
 34  18  20  1   
 35  18  39  1   
 36  19  40  1   
 37  20  21  1   
 38  20  41  1   
 39  20  42  1   
 40  21  22  2   
 41  21  23  1   
 42  22  24  1   
 43  23  25  2   
 44  23  43  1   
 45  24  25  1   
 46  24  44  1   
 47  25  26  1   
 48  26  45  1   
 49  26  46  1   
 50  26  47  1   
@<TRIPOS>SUBSTRUCTURE
  1 ****  14 GROUP 4 **** **** 0

# MOE 2024.06 (io_trps.svl 2023.06)
