@<TRIPOS>MOLECULE
NONAME
32 32 1 0 0 
SMALL
USER_CHARGES


@<TRIPOS>ATOM
  1 O        1.1330     1.7260     1.5540 O.2   1 <1>  -0.5700 
  2 C        0.9240     1.6780     0.3700 C.2   1 <1>   0.6590 
  3 O        0.5090     0.5720    -0.2330 O.3   1 <1>  -0.4300 
  4 C        1.1280     2.8810    -0.5050 C.3   1 <1>  -0.0380 
  5 C        0.3060    -0.6310     0.4780 C.3   1 <1>   0.0400 
  6 C        2.4820     2.7980    -1.1640 C.2   1 <1>   0.4480 
  7 O        2.5730     2.7150    -2.3510 O.2   1 <1>  -0.5700 
  8 C        3.7210     2.8800    -0.2820 C.3   1 <1>  -0.0990 
  9 C        4.6940     1.7010    -0.4790 C.3   1 <1>  -0.0800 
 10 C        4.0360     0.3480    -0.1450 C.3   1 <1>  -0.1600 
 11 C        5.9540     1.9120     0.3790 C.3   1 <1>  -0.1600 
 12 C        5.0280    -0.8140    -0.2860 C.3   1 <1>  -0.1600 
 13 C        6.9430     0.7490     0.2300 C.3   1 <1>  -0.1600 
 14 C        6.2770    -0.5890     0.5730 C.3   1 <1>  -0.1600 
 15 H        1.0670     3.7740     0.0870 H     1 <1>   0.0800 
 16 H        0.3600     2.9100    -1.2530 H     1 <1>   0.0800 
 17 H       -0.0260    -1.3840    -0.2150 H     1 <1>   0.0800 
 18 H       -0.4420    -0.4670     1.2340 H     1 <1>   0.0800 
 19 H        1.2350    -0.9290     0.9320 H     1 <1>   0.0800 
 20 H        3.4350     2.9380     0.7530 H     1 <1>   0.0800 
 21 H        4.2290     3.7940    -0.5270 H     1 <1>   0.0800 
 22 H        4.9930     1.6820    -1.5150 H     1 <1>   0.0800 
 23 H        3.2100     0.1690    -0.8100 H     1 <1>   0.0800 
 24 H        3.6590     0.3690     0.8630 H     1 <1>   0.0800 
 25 H        5.6740     2.0010     1.4150 H     1 <1>   0.0800 
 26 H        6.4430     2.8270     0.0890 H     1 <1>   0.0800 
 27 H        5.3180    -0.9090    -1.3180 H     1 <1>   0.0800 
 28 H        4.5500    -1.7330     0.0080 H     1 <1>   0.0800 
 29 H        7.7880     0.9080     0.8780 H     1 <1>   0.0800 
 30 H        7.3060     0.7170    -0.7830 H     1 <1>   0.0800 
 31 H        6.9760    -1.3910     0.4110 H     1 <1>   0.0800 
 32 H        6.0010    -0.5940     1.6130 H     1 <1>   0.0800 
@<TRIPOS>BOND
  1   1   2  2   
  2   2   3  1   
  3   2   4  1   
  4   3   5  1   
  5   4   6  1   
  6   4  15  1   
  7   4  16  1   
  8   5  17  1   
  9   5  18  1   
 10   5  19  1   
 11   6   7  2   
 12   6   8  1   
 13   8   9  1   
 14   8  20  1   
 15   8  21  1   
 16   9  10  1   
 17   9  11  1   
 18   9  22  1   
 19  10  12  1   
 20  10  23  1   
 21  10  24  1   
 22  11  13  1   
 23  11  25  1   
 24  11  26  1   
 25  12  14  1   
 26  12  27  1   
 27  12  28  1   
 28  13  14  1   
 29  13  29  1   
 30  13  30  1   
 31  14  31  1   
 32  14  32  1   
@<TRIPOS>SUBSTRUCTURE
  1 ****  10 GROUP 4 **** **** 0

# MOE 2024.06 (io_trps.svl 2023.06)
