@<TRIPOS>MOLECULE
NONAME
46 49 1 0 0 
SMALL
USER_CHARGES


@<TRIPOS>ATOM
  1 O       -0.9490     0.6310     1.1110 O.co2 1 <1>  -0.9000 
  2 C       -1.8250     1.3030     0.5470 C.2   1 <1>   0.9790 
  3 O       -2.8910     0.7650     0.2110 O.co2 1 <1>  -0.9000 
  4 C       -1.6600     2.7250     0.3270 C.ar  1 <1>  -0.1790 
  5 C       -0.4140     3.3190    -0.0700 C.ar  1 <1>   0.0000 
  6 C       -2.7440     3.5490     0.4940 C.ar  1 <1>  -0.1500 
  7 C       -0.3660     4.7150    -0.2240 C.ar  1 <1>   0.3610 
  8 C        0.7670     2.6030    -0.3340 C.ar  1 <1>  -0.1500 
  9 C       -2.6980     4.9490     0.3270 C.ar  1 <1>   0.4610 
 10 N       -1.5120     5.4560    -0.0110 N.ar  1 <1>  -0.1790 
 11 C        0.8240     5.3490    -0.6010 C.ar  1 <1>  -0.1500 
 12 C        1.9280     3.2350    -0.7070 C.ar  1 <1>  -0.1500 
 13 N       -3.7550     5.7820     0.4900 N.pl3 1 <1>  -0.8380 
 14 C        1.9620     4.6190    -0.8400 C.ar  1 <1>  -0.1500 
 15 C       -5.0710     5.3270     1.0590 C.3   1 <1>   0.2090 
 16 C       -3.8240     7.2120     0.0250 C.3   1 <1>   0.2090 
 17 C       -6.1390     5.2360    -0.0560 C.3   1 <1>   0.0000 
 18 C       -5.2310     7.5970    -0.4690 C.3   1 <1>  -0.1600 
 19 C       -7.5410     5.1830     0.5800 C.3   1 <1>   0.2000 
 20 C       -5.9690     6.3960    -1.0870 C.3   1 <1>  -0.1600 
 21 C       -6.1110     3.8890    -0.7970 C.3   1 <1>  -0.1600 
 22 O       -8.0230     6.4350     0.9130 O.3   1 <1>  -0.6800 
 23 C       -8.4550     4.5010    -0.4400 C.3   1 <1>  -0.1600 
 24 C       -7.5200     3.7220    -1.3760 C.3   1 <1>  -0.1600 
 25 H       -3.6750     3.0840     0.7550 H     1 <1>   0.1500 
 26 H        0.7700     1.5290    -0.2410 H     1 <1>   0.1500 
 27 H       -1.4590     6.4600    -0.0880 H     1 <1>   0.4570 
 28 H        0.8580     6.4170    -0.7090 H     1 <1>   0.1500 
 29 H        2.8180     2.6570    -0.8970 H     1 <1>   0.1500 
 30 H        2.8840     5.0970    -1.1310 H     1 <1>   0.1500 
 31 H       -4.9910     4.3950     1.5880 H     1 <1>   0.0800 
 32 H       -5.3920     6.0540     1.7870 H     1 <1>   0.0800 
 33 H       -3.5400     7.8700     0.8300 H     1 <1>   0.0800 
 34 H       -3.1420     7.3580    -0.7940 H     1 <1>   0.0800 
 35 H       -5.8020     7.9820     0.3580 H     1 <1>   0.0800 
 36 H       -5.1500     8.3900    -1.1920 H     1 <1>   0.0800 
 37 H       -7.5130     4.5910     1.4800 H     1 <1>   0.0800 
 38 H       -5.3800     6.0560    -1.9200 H     1 <1>   0.0800 
 39 H       -6.9180     6.7060    -1.4870 H     1 <1>   0.0800 
 40 H       -5.3490     3.8320    -1.5550 H     1 <1>   0.0800 
 41 H       -5.9390     3.0880    -0.0960 H     1 <1>   0.0800 
 42 H       -8.2050     6.9450     0.1020 H     1 <1>   0.4000 
 43 H       -9.1290     3.8310     0.0650 H     1 <1>   0.0800 
 44 H       -9.0230     5.2180    -1.0060 H     1 <1>   0.0800 
 45 H       -7.7920     2.6820    -1.4380 H     1 <1>   0.0800 
 46 H       -7.5590     4.1480    -2.3640 H     1 <1>   0.0800 
@<TRIPOS>BOND
  1   1   2  ar  
  2   2   3  ar  
  3   2   4  1   
  4   4   5  ar  
  5   4   6  ar  
  6   5   7  ar  
  7   5   8  ar  
  8   6   9  ar  
  9   6  25  1   
 10   7  10  ar  
 11   7  11  ar  
 12   8  12  ar  
 13   8  26  1   
 14   9  10  ar  
 15   9  13  1   
 16  10  27  1   
 17  11  14  ar  
 18  11  28  1   
 19  12  14  ar  
 20  12  29  1   
 21  13  15  1   
 22  13  16  1   
 23  14  30  1   
 24  15  17  1   
 25  15  31  1   
 26  15  32  1   
 27  16  18  1   
 28  16  33  1   
 29  16  34  1   
 30  17  19  1   
 31  17  20  1   
 32  17  21  1   
 33  18  20  1   
 34  18  35  1   
 35  18  36  1   
 36  19  22  1   
 37  19  23  1   
 38  19  37  1   
 39  20  38  1   
 40  20  39  1   
 41  21  24  1   
 42  21  40  1   
 43  21  41  1   
 44  22  42  1   
 45  23  24  1   
 46  23  43  1   
 47  23  44  1   
 48  24  45  1   
 49  24  46  1   
@<TRIPOS>SUBSTRUCTURE
  1 ****   9 GROUP 4 **** **** 0

# MOE 2024.06 (io_trps.svl 2023.06)
