@<TRIPOS>MOLECULE
NONAME
43 44 1 0 0 
SMALL
USER_CHARGES


@<TRIPOS>ATOM
  1 O       -0.8700     0.7140     0.6840 O.3   1 <1>  -0.3630 
  2 C       -1.1950    -0.3510    -0.1000 C.ar  1 <1>   0.0830 
  3 C       -0.5340     1.9820     0.1650 C.3   1 <1>   0.2000 
  4 C       -1.5450    -1.5350     0.5410 C.ar  1 <1>   0.1600 
  5 C       -1.1940    -0.3280    -1.4870 C.ar  1 <1>  -0.1500 
  6 C        0.2800     2.6990     1.2550 C.3   1 <1>   0.2090 
  7 C       -1.8280     2.7270    -0.1920 C.3   1 <1>  -0.2400 
  8 N       -1.8760    -2.6650    -0.0650 N.ar  1 <1>  -0.6200 
  9 C       -1.5390    -1.4970    -2.1310 C.ar  1 <1>  -0.1500 
 10 N        0.8200     4.0030     0.7660 N.pl3 1 <1>  -0.8690 
 11 C       -1.8650    -2.6190    -1.3870 C.ar  1 <1>   0.1600 
 12 C        2.0550     4.5040     0.6620 C.ar  1 <1>   0.7710 
 13 N        2.1410     5.7020     0.1290 N.ar  1 <1>  -0.6200 
 14 N        3.1250     3.8070     1.0810 N.ar  1 <1>  -0.1790 
 15 C        3.3400     6.2430    -0.0070 C.ar  1 <1>   0.4100 
 16 C        4.3720     4.3250     0.9740 C.ar  1 <1>   0.2110 
 17 N        3.4180     7.4780    -0.5760 N.pl3 1 <1>  -0.8380 
 18 C        4.4950     5.5570     0.4250 C.ar  1 <1>  -0.1500 
 19 C        4.6460     8.0470    -1.1950 C.3   1 <1>   0.2090 
 20 C        2.2060     8.3370    -0.7710 C.3   1 <1>   0.1290 
 21 C        5.3350     8.9720    -0.1960 C.3   1 <1>  -0.2400 
 22 H        0.0920     1.8410    -0.6980 H     1 <1>   0.0800 
 23 H       -1.5490    -1.5420     1.6160 H     1 <1>   0.1500 
 24 H       -0.9440     0.5430    -2.0620 H     1 <1>   0.1500 
 25 H        1.0810     2.0530     1.5650 H     1 <1>   0.0800 
 26 H       -0.3580     2.8810     2.1050 H     1 <1>   0.0800 
 27 H       -2.4320     2.8730     0.6850 H     1 <1>   0.0800 
 28 H       -2.3980     2.1730    -0.9160 H     1 <1>   0.0800 
 29 H       -1.6030     3.6880    -0.6180 H     1 <1>   0.0800 
 30 H       -1.5570    -1.5450    -3.2050 H     1 <1>   0.1500 
 31 H        0.0950     4.6550     0.4410 H     1 <1>   0.4000 
 32 H       -2.1320    -3.5250    -1.9060 H     1 <1>   0.1500 
 33 H        2.9420     2.8960     1.4860 H     1 <1>   0.4570 
 34 H        5.2170     3.7540     1.3250 H     1 <1>   0.1500 
 35 H        5.4560     6.0240     0.3250 H     1 <1>   0.1500 
 36 H        4.3820     8.6010    -2.0820 H     1 <1>   0.0800 
 37 H        5.3150     7.2600    -1.4980 H     1 <1>   0.0800 
 38 H        1.4630     8.1260    -0.0220 H     1 <1>   0.0800 
 39 H        1.7830     8.1510    -1.7430 H     1 <1>   0.0800 
 40 H        2.4670     9.3780    -0.6960 H     1 <1>   0.0800 
 41 H        4.6920     9.7940     0.0590 H     1 <1>   0.0800 
 42 H        6.2340     9.3690    -0.6310 H     1 <1>   0.0800 
 43 H        5.5940     8.4380     0.7000 H     1 <1>   0.0800 
@<TRIPOS>BOND
  1   1   2  1   
  2   1   3  1   
  3   2   4  ar  
  4   2   5  ar  
  5   3   6  1   
  6   3   7  1   
  7   3  22  1   
  8   4   8  ar  
  9   4  23  1   
 10   5   9  ar  
 11   5  24  1   
 12   6  10  1   
 13   6  25  1   
 14   6  26  1   
 15   7  27  1   
 16   7  28  1   
 17   7  29  1   
 18   8  11  ar  
 19   9  11  ar  
 20   9  30  1   
 21  10  12  1   
 22  10  31  1   
 23  11  32  1   
 24  12  13  ar  
 25  12  14  ar  
 26  13  15  ar  
 27  14  16  ar  
 28  14  33  1   
 29  15  17  1   
 30  15  18  ar  
 31  16  18  ar  
 32  16  34  1   
 33  17  19  1   
 34  17  20  1   
 35  18  35  1   
 36  19  21  1   
 37  19  36  1   
 38  19  37  1   
 39  20  38  1   
 40  20  39  1   
 41  20  40  1   
 42  21  41  1   
 43  21  42  1   
 44  21  43  1   
@<TRIPOS>SUBSTRUCTURE
  1 ****  10 GROUP 4 **** **** 0

# MOE 2024.06 (io_trps.svl 2023.06)
