@<TRIPOS>MOLECULE
NONAME
37 39 1 0 0 
SMALL
USER_CHARGES


@<TRIPOS>ATOM
  1 CL       0.6520    -2.3090    -2.1800 Cl    1 <1>  -0.1240 
  2 C       -0.3510    -2.9510    -0.9090 C.2   1 <1>   0.1640 
  3 S       -2.0810    -2.8220    -1.1310 S.3   1 <1>  -0.0800 
  4 C       -0.0370    -3.5480     0.2520 C.2   1 <1>  -0.1500 
  5 C       -2.3770    -3.6200     0.4180 C.2   1 <1>  -0.0220 
  6 C       -1.1960    -3.9240     1.0040 C.2   1 <1>  -0.1500 
  7 S       -4.0930    -3.8600     0.9420 S.o2  1 <1>   1.5000 
  8 O       -4.1950    -5.0300     1.7830 O.2   1 <1>  -0.6500 
  9 O       -4.6480    -2.6140     1.4120 O.2   1 <1>  -0.6500 
 10 N       -4.9430    -4.1570    -0.4770 N.am  1 <1>  -0.9140 
 11 C       -5.1240    -5.5250    -0.9730 C.3   1 <1>   0.2760 
 12 C       -6.0830    -6.3790    -0.1360 C.3   1 <1>  -0.0800 
 13 C       -3.8540    -6.3760    -1.0900 C.3   1 <1>   0.1200 
 14 C       -5.2410    -7.6190     0.1830 C.3   1 <1>   0.1200 
 15 C       -7.3570    -6.7310    -0.9260 C.3   1 <1>  -0.0160 
 16 O       -4.2690    -7.6720    -0.8080 O.3   1 <1>  -0.5600 
 17 C       -8.3110    -7.5930    -0.1120 C.ar  1 <1>  -0.1430 
 18 C       -9.0330    -7.0820     0.9480 C.ar  1 <1>  -0.1500 
 19 C       -8.5050    -8.9310    -0.3920 C.ar  1 <1>  -0.1500 
 20 C       -9.8880    -7.9100     1.6570 C.ar  1 <1>   0.1600 
 21 C       -9.3850    -9.6720     0.3800 C.ar  1 <1>   0.1600 
 22 N      -10.0810    -9.1930     1.3980 N.ar  1 <1>  -0.6200 
 23 H        0.9610    -3.7380     0.6080 H     1 <1>   0.1500 
 24 H       -1.0950    -4.4100     1.9610 H     1 <1>   0.1500 
 25 H       -5.8540    -3.7370    -0.3060 H     1 <1>   0.4200 
 26 H       -5.5220    -5.4430    -1.9710 H     1 <1>   0.0800 
 27 H       -6.3650    -5.8980     0.7820 H     1 <1>   0.0800 
 28 H       -3.1040    -6.1180    -0.3670 H     1 <1>   0.0800 
 29 H       -3.4410    -6.3540    -2.0830 H     1 <1>   0.0800 
 30 H       -5.8020    -8.5370     0.1780 H     1 <1>   0.0800 
 31 H       -4.7420    -7.5100     1.1320 H     1 <1>   0.0800 
 32 H       -7.0900    -7.2480    -1.8320 H     1 <1>   0.0800 
 33 H       -7.8680    -5.8260    -1.2070 H     1 <1>   0.0800 
 34 H       -8.9410    -6.0500     1.2310 H     1 <1>   0.1500 
 35 H       -7.9810    -9.4060    -1.2010 H     1 <1>   0.1500 
 36 H      -10.4420    -7.4950     2.4810 H     1 <1>   0.1500 
 37 H       -9.5230   -10.7140     0.1470 H     1 <1>   0.1500 
@<TRIPOS>BOND
  1   1   2  1   
  2   2   3  1   
  3   2   4  2   
  4   3   5  1   
  5   4   6  1   
  6   4  23  1   
  7   5   6  2   
  8   5   7  1   
  9   6  24  1   
 10   7   8  2   
 11   7   9  2   
 12   7  10  am  
 13  10  11  1   
 14  10  25  1   
 15  11  12  1   
 16  11  13  1   
 17  11  26  1   
 18  12  14  1   
 19  12  15  1   
 20  12  27  1   
 21  13  16  1   
 22  13  28  1   
 23  13  29  1   
 24  14  16  1   
 25  14  30  1   
 26  14  31  1   
 27  15  17  1   
 28  15  32  1   
 29  15  33  1   
 30  17  18  ar  
 31  17  19  ar  
 32  18  20  ar  
 33  18  34  1   
 34  19  21  ar  
 35  19  35  1   
 36  20  22  ar  
 37  20  36  1   
 38  21  22  ar  
 39  21  37  1   
@<TRIPOS>SUBSTRUCTURE
  1 ****  11 GROUP 4 **** **** 0

# MOE 2024.06 (io_trps.svl 2023.06)
