@<TRIPOS>MOLECULE
NONAME
44 45 1 0 0 
SMALL
USER_CHARGES


@<TRIPOS>ATOM
  1 S        0.2820     0.3980    -1.1540 S.o2  1 <1>   1.3330 
  2 O       -0.7480     1.2810    -1.6520 O.2   1 <1>  -0.6500 
  3 O        0.4810    -0.8940    -1.7710 O.2   1 <1>  -0.6500 
  4 N       -0.0290     0.1450     0.4980 N.am  1 <1>  -0.8490 
  5 C        1.8540     1.2640    -1.1580 C.3   1 <1>  -0.0550 
  6 C       -0.6130     1.3140     1.1650 C.3   1 <1>   0.1160 
  7 C       -0.8800    -1.0280     0.7250 C.3   1 <1>   0.1160 
  8 C        3.0610     0.3880    -0.7540 C.3   1 <1>  -0.0800 
  9 C        4.4160     1.0660    -0.8850 C.3   1 <1>   0.2200 
 10 C        3.0660    -0.0980     0.7020 C.3   1 <1>   0.1200 
 11 N        4.3700     2.4470    -0.3440 N.am  1 <1>  -0.7300 
 12 C        5.2430     0.2050     0.0590 C.3   1 <1>   0.1200 
 13 O        4.3960    -0.0510     1.1370 O.3   1 <1>  -0.5600 
 14 C        4.3360     3.5920    -1.0850 C.2   1 <1>   0.5440 
 15 O        4.2220     3.4860    -2.2890 O.2   1 <1>  -0.5700 
 16 C        4.3710     4.8930    -0.4680 C.ar  1 <1>   0.0860 
 17 C        5.2260     5.2780     0.5620 C.ar  1 <1>   0.1670 
 18 C        3.4910     5.8740    -0.8970 C.ar  1 <1>   0.1600 
 19 N        5.1630     6.4630     1.1200 N.ar  1 <1>  -0.6200 
 20 C        6.3100     4.3640     1.1120 C.3   1 <1>  -0.0970 
 21 N        3.4140     7.0670    -0.3610 N.ar  1 <1>  -0.6200 
 22 C        4.2520     7.2890     0.6350 C.ar  1 <1>   0.7200 
 23 N        4.1840     8.4880     1.2040 N.pl3 1 <1>  -0.9000 
 24 H        2.0330     1.6300    -2.1510 H     1 <1>   0.0800 
 25 H        1.7880     2.1160    -0.5120 H     1 <1>   0.0800 
 26 H       -0.7050     1.1300     2.2220 H     1 <1>   0.0800 
 27 H       -1.5890     1.5310     0.7610 H     1 <1>   0.0800 
 28 H        0.0150     2.1770     1.0250 H     1 <1>   0.0800 
 29 H       -1.0500    -1.1700     1.7780 H     1 <1>   0.0800 
 30 H       -0.3990    -1.9130     0.3410 H     1 <1>   0.0800 
 31 H       -1.8270    -0.9070     0.2250 H     1 <1>   0.0800 
 32 H        3.0690    -0.4840    -1.3850 H     1 <1>   0.0800 
 33 H        4.7960     1.0570    -1.8930 H     1 <1>   0.0800 
 34 H        2.7040    -1.1090     0.7870 H     1 <1>   0.0800 
 35 H        2.4930     0.5470     1.3440 H     1 <1>   0.0800 
 36 H        4.3550     2.4800     0.6800 H     1 <1>   0.3700 
 37 H        6.1360     0.6960     0.4030 H     1 <1>   0.0800 
 38 H        5.4920    -0.7370    -0.3990 H     1 <1>   0.0800 
 39 H        2.8270     5.6480    -1.7150 H     1 <1>   0.1500 
 40 H        6.7120     3.7310     0.3420 H     1 <1>   0.0800 
 41 H        5.9120     3.7580     1.9050 H     1 <1>   0.0800 
 42 H        7.1190     4.9520     1.5090 H     1 <1>   0.0800 
 43 H        4.9370     8.7690     1.8240 H     1 <1>   0.4000 
 44 H        3.6520     9.2140     0.7310 H     1 <1>   0.4000 
@<TRIPOS>BOND
  1   1   2  2   
  2   1   3  2   
  3   1   4  am  
  4   1   5  1   
  5   4   6  1   
  6   4   7  1   
  7   5   8  1   
  8   5  24  1   
  9   5  25  1   
 10   6  26  1   
 11   6  27  1   
 12   6  28  1   
 13   7  29  1   
 14   7  30  1   
 15   7  31  1   
 16   8   9  1   
 17   8  10  1   
 18   8  32  1   
 19   9  11  1   
 20   9  12  1   
 21   9  33  1   
 22  10  13  1   
 23  10  34  1   
 24  10  35  1   
 25  11  14  am  
 26  11  36  1   
 27  12  13  1   
 28  12  37  1   
 29  12  38  1   
 30  14  15  2   
 31  14  16  1   
 32  16  17  ar  
 33  16  18  ar  
 34  17  19  ar  
 35  17  20  1   
 36  18  21  ar  
 37  18  39  1   
 38  19  22  ar  
 39  20  40  1   
 40  20  41  1   
 41  20  42  1   
 42  21  22  ar  
 43  22  23  1   
 44  23  43  1   
 45  23  44  1   
@<TRIPOS>SUBSTRUCTURE
  1 ****  11 GROUP 4 **** **** 0

# MOE 2024.06 (io_trps.svl 2023.06)
