@<TRIPOS>MOLECULE
NONAME
59 64 1 0 0 
SMALL
USER_CHARGES


@<TRIPOS>ATOM
  1 O       -0.5380    -0.1990    -0.3910 O.2   1 <1>  -0.5700 
  2 C       -1.5010     0.5180    -0.2230 C.2   1 <1>   0.5690 
  3 N       -2.7410    -0.0750    -0.0950 N.am  1 <1>  -0.6600 
  4 C       -1.2470     2.0550    -0.1400 C.3   1 <1>   0.0610 
  5 C       -4.0800     0.5340     0.1230 C.3   1 <1>   0.1400 
  6 C       -2.8830    -1.5520    -0.0820 C.3   1 <1>   0.1400 
  7 C       -1.4360     2.5670     1.3130 C.3   1 <1>  -0.1600 
  8 C        0.2230     2.3830    -0.5430 C.3   1 <1>  -0.1600 
  9 C       -2.1600     2.8770    -1.0920 C.3   1 <1>  -0.1600 
 10 C       -4.9990    -0.6140     0.5530 C.3   1 <1>   0.2000 
 11 C       -4.0930    -1.8180     0.8120 C.3   1 <1>  -0.0800 
 12 C       -1.1550     4.0790     1.4160 C.3   1 <1>  -0.0800 
 13 C        0.5320     3.8880    -0.4440 C.3   1 <1>  -0.0800 
 14 C       -1.8720     4.3860    -0.9860 C.3   1 <1>  -0.0800 
 15 O       -5.6950    -0.2940     1.7070 O.3   1 <1>  -0.6800 
 16 C       -4.8020    -3.1560     0.5300 C.3   1 <1>  -0.0170 
 17 C        0.3020     4.3520     1.0050 C.3   1 <1>  -0.1600 
 18 C       -2.0990     4.8410     0.4680 C.3   1 <1>  -0.1600 
 19 C       -0.4110     4.6560    -1.3830 C.3   1 <1>  -0.1600 
 20 C       -3.9880    -4.4310     0.7830 C.ar  1 <1>  -0.1440 
 21 C       -4.4550    -5.6770     0.2950 C.ar  1 <1>   0.0000 
 22 C       -2.8120    -4.4440     1.4830 C.ar  1 <1>  -0.1500 
 23 C       -3.6580    -6.8250     0.5300 C.ar  1 <1>   0.3100 
 24 C       -5.6710    -5.8570    -0.4070 C.ar  1 <1>  -0.1500 
 25 C       -2.1060    -5.6380     1.6660 C.ar  1 <1>   0.1600 
 26 N       -2.4890    -6.7890     1.2140 N.ar  1 <1>  -0.6200 
 27 C       -4.0900    -8.0690     0.0420 C.ar  1 <1>  -0.1500 
 28 C       -6.0660    -7.0840    -0.8660 C.ar  1 <1>  -0.1500 
 29 C       -5.2660    -8.2060    -0.6430 C.ar  1 <1>  -0.1500 
 30 H       -4.0430     1.2950     0.8780 H     1 <1>   0.0800 
 31 H       -4.4410     0.9460    -0.8020 H     1 <1>   0.0800 
 32 H       -3.0630    -1.8940    -1.0870 H     1 <1>   0.0800 
 33 H       -1.9950    -2.0280     0.2970 H     1 <1>   0.0800 
 34 H       -2.4330     2.3790     1.6560 H     1 <1>   0.0800 
 35 H       -0.7680     2.0320     1.9660 H     1 <1>   0.0800 
 36 H        0.9030     1.8480     0.0980 H     1 <1>   0.0800 
 37 H        0.4040     2.0470    -1.5490 H     1 <1>   0.0800 
 38 H       -2.0100     2.5480    -2.1060 H     1 <1>   0.0800 
 39 H       -3.1930     2.7360    -0.8550 H     1 <1>   0.0800 
 40 H       -5.7160    -0.8130    -0.2260 H     1 <1>   0.0800 
 41 H       -3.7590    -1.7890     1.8340 H     1 <1>   0.0800 
 42 H       -1.3120     4.4090     2.4290 H     1 <1>   0.0800 
 43 H        1.5550     4.0690    -0.7260 H     1 <1>   0.0800 
 44 H       -2.5300     4.9290    -1.6430 H     1 <1>   0.0800 
 45 H       -5.0760    -0.1680     2.4520 H     1 <1>   0.4000 
 46 H       -5.1080    -3.1450    -0.5010 H     1 <1>   0.0800 
 47 H       -5.6930    -3.2040     1.1330 H     1 <1>   0.0800 
 48 H        0.9730     3.8300     1.6650 H     1 <1>   0.0800 
 49 H        0.5140     5.4040     1.0880 H     1 <1>   0.0800 
 50 H       -1.9170     5.8990     0.5490 H     1 <1>   0.0800 
 51 H       -3.1220     4.6650     0.7520 H     1 <1>   0.0800 
 52 H       -0.2450     4.3470    -2.4000 H     1 <1>   0.0800 
 53 H       -0.2050     5.7110    -1.3240 H     1 <1>   0.0800 
 54 H       -2.3820    -3.5630     1.9170 H     1 <1>   0.1500 
 55 H       -6.3120    -5.0140    -0.5850 H     1 <1>   0.1500 
 56 H       -1.1820    -5.5950     2.2170 H     1 <1>   0.1500 
 57 H       -3.4590    -8.9180     0.2300 H     1 <1>   0.1500 
 58 H       -6.9930    -7.2020    -1.4010 H     1 <1>   0.1500 
 59 H       -5.5850    -9.1670    -1.0110 H     1 <1>   0.1500 
@<TRIPOS>BOND
  1   1   2  2   
  2   2   3  am  
  3   2   4  1   
  4   3   5  1   
  5   3   6  1   
  6   4   7  1   
  7   4   8  1   
  8   4   9  1   
  9   5  10  1   
 10   5  30  1   
 11   5  31  1   
 12   6  11  1   
 13   6  32  1   
 14   6  33  1   
 15   7  12  1   
 16   7  34  1   
 17   7  35  1   
 18   8  13  1   
 19   8  36  1   
 20   8  37  1   
 21   9  14  1   
 22   9  38  1   
 23   9  39  1   
 24  10  11  1   
 25  10  15  1   
 26  10  40  1   
 27  11  16  1   
 28  11  41  1   
 29  12  17  1   
 30  12  18  1   
 31  12  42  1   
 32  13  17  1   
 33  13  19  1   
 34  13  43  1   
 35  14  18  1   
 36  14  19  1   
 37  14  44  1   
 38  15  45  1   
 39  16  20  1   
 40  16  46  1   
 41  16  47  1   
 42  17  48  1   
 43  17  49  1   
 44  18  50  1   
 45  18  51  1   
 46  19  52  1   
 47  19  53  1   
 48  20  21  ar  
 49  20  22  ar  
 50  21  23  ar  
 51  21  24  ar  
 52  22  25  ar  
 53  22  54  1   
 54  23  26  ar  
 55  23  27  ar  
 56  24  28  ar  
 57  24  55  1   
 58  25  26  ar  
 59  25  56  1   
 60  27  29  ar  
 61  27  57  1   
 62  28  29  ar  
 63  28  58  1   
 64  29  59  1   
@<TRIPOS>SUBSTRUCTURE
  1 ****   6 GROUP 4 **** **** 0

# MOE 2024.06 (io_trps.svl 2023.06)
