@<TRIPOS>MOLECULE
NONAME
46 48 1 0 0 
SMALL
USER_CHARGES


@<TRIPOS>ATOM
  1 O       -2.4230     0.9320    -1.8270 O.2   1 <1>  -0.5700 
  2 C       -2.1130     0.9210    -0.6600 C.2   1 <1>   0.5690 
  3 N       -2.0990    -0.2300     0.0550 N.am  1 <1>  -0.7300 
  4 C       -1.7350     2.2250     0.0400 C.3   1 <1>  -0.0190 
  5 C       -2.4300    -1.5650    -0.4890 C.3   1 <1>   0.2200 
  6 C       -2.9290     3.1990     0.0880 C.3   1 <1>  -0.1600 
  7 C       -0.5150     2.8890    -0.6310 C.3   1 <1>  -0.1600 
  8 C       -3.8230    -1.9590    -0.0280 C.3   1 <1>  -0.0800 
  9 C       -1.5690    -2.6180     0.1970 C.3   1 <1>   0.1200 
 10 C       -2.5550     4.5220     0.7750 C.3   1 <1>  -0.1600 
 11 C       -0.1400     4.2110     0.0560 C.3   1 <1>  -0.1600 
 12 C       -3.5540    -2.5580     1.3600 C.3   1 <1>   0.1200 
 13 C       -4.4680    -2.9760    -0.9890 C.3   1 <1>  -0.0170 
 14 O       -2.1920    -2.8770     1.4180 O.3   1 <1>  -0.5600 
 15 C       -1.3390     5.1620     0.1000 C.3   1 <1>   0.2000 
 16 C       -5.8740    -3.3480    -0.5440 C.ar  1 <1>  -0.1440 
 17 O       -0.9810     6.2780     0.8230 O.3   1 <1>  -0.6800 
 18 C       -6.9370    -2.4840    -0.7070 C.ar  1 <1>  -0.1500 
 19 C       -6.1620    -4.5650     0.0420 C.ar  1 <1>  -0.1500 
 20 C       -8.2000    -2.8630    -0.2830 C.ar  1 <1>   0.1600 
 21 C       -7.4610    -4.8460     0.4310 C.ar  1 <1>   0.1600 
 22 N       -8.4870    -4.0240     0.2840 N.ar  1 <1>  -0.6200 
 23 H       -1.8670    -0.2310     1.0500 H     1 <1>   0.3700 
 24 H       -1.4620     1.9890     1.0540 H     1 <1>   0.0800 
 25 H       -2.3150    -1.5740    -1.5610 H     1 <1>   0.0800 
 26 H       -3.2580     3.4030    -0.9180 H     1 <1>   0.0800 
 27 H       -3.7500     2.7400     0.6110 H     1 <1>   0.0800 
 28 H        0.3240     2.2160    -0.6010 H     1 <1>   0.0800 
 29 H       -0.7420     3.0810    -1.6670 H     1 <1>   0.0800 
 30 H       -4.4640    -1.0990     0.0420 H     1 <1>   0.0800 
 31 H       -0.5600    -2.2860     0.3660 H     1 <1>   0.0800 
 32 H       -1.5610    -3.5330    -0.3690 H     1 <1>   0.0800 
 33 H       -2.3380     4.3290     1.8110 H     1 <1>   0.0800 
 34 H       -3.3900     5.2000     0.7180 H     1 <1>   0.0800 
 35 H        0.6630     4.6780    -0.4870 H     1 <1>   0.0800 
 36 H        0.1970     4.0030     1.0570 H     1 <1>   0.0800 
 37 H       -4.1270    -3.4470     1.5530 H     1 <1>   0.0800 
 38 H       -3.7510    -1.8340     2.1320 H     1 <1>   0.0800 
 39 H       -3.8630    -3.8630    -1.0560 H     1 <1>   0.0800 
 40 H       -4.5240    -2.5460    -1.9750 H     1 <1>   0.0800 
 41 H       -1.5940     5.4840    -0.8960 H     1 <1>   0.0800 
 42 H       -0.7400     6.0220     1.7320 H     1 <1>   0.4000 
 43 H       -6.7960    -1.5190    -1.1600 H     1 <1>   0.1500 
 44 H       -5.3910    -5.2960     0.2010 H     1 <1>   0.1500 
 45 H       -9.0170    -2.1760    -0.4180 H     1 <1>   0.1500 
 46 H       -7.6670    -5.8000     0.8870 H     1 <1>   0.1500 
@<TRIPOS>BOND
  1   1   2  2   
  2   2   3  am  
  3   2   4  1   
  4   3   5  1   
  5   3  23  1   
  6   4   6  1   
  7   4   7  1   
  8   4  24  1   
  9   5   8  1   
 10   5   9  1   
 11   5  25  1   
 12   6  10  1   
 13   6  26  1   
 14   6  27  1   
 15   7  11  1   
 16   7  28  1   
 17   7  29  1   
 18   8  12  1   
 19   8  13  1   
 20   8  30  1   
 21   9  14  1   
 22   9  31  1   
 23   9  32  1   
 24  10  15  1   
 25  10  33  1   
 26  10  34  1   
 27  11  15  1   
 28  11  35  1   
 29  11  36  1   
 30  12  14  1   
 31  12  37  1   
 32  12  38  1   
 33  13  16  1   
 34  13  39  1   
 35  13  40  1   
 36  15  17  1   
 37  15  41  1   
 38  16  18  ar  
 39  16  19  ar  
 40  17  42  1   
 41  18  20  ar  
 42  18  43  1   
 43  19  21  ar  
 44  19  44  1   
 45  20  22  ar  
 46  20  45  1   
 47  21  22  ar  
 48  21  46  1   
@<TRIPOS>SUBSTRUCTURE
  1 ****   3 GROUP 4 **** **** 0

# MOE 2024.06 (io_trps.svl 2023.06)
