@<TRIPOS>MOLECULE
NONAME
47 51 1 0 0 
SMALL
USER_CHARGES


@<TRIPOS>ATOM
  1 S        1.5620     0.9350     0.2330 S.3   1 <1>  -0.0800 
  2 C       -0.0480     1.5310    -0.1380 C.2   1 <1>  -0.1400 
  3 C        1.0740    -0.7110    -0.1480 C.2   1 <1>  -0.1100 
  4 C       -0.8550     0.5250    -0.5000 C.2   1 <1>  -0.1810 
  5 C       -0.4220     3.0040    -0.0420 C.3   1 <1>   0.4600 
  6 C       -0.2210    -0.7580    -0.5160 C.2   1 <1>  -0.1500 
  7 C       -2.2970     0.8170    -0.8460 C.3   1 <1>   0.0210 
  8 O       -1.7350     3.1730    -0.5420 O.3   1 <1>  -0.5600 
  9 C       -0.3770     3.4970     1.4130 C.3   1 <1>  -0.1600 
 10 C        0.4850     3.8600    -0.9350 C.3   1 <1>  -0.1600 
 11 C       -2.6920     2.1810    -0.2460 C.3   1 <1>   0.1200 
 12 C       -0.6870     4.9910     1.5090 C.3   1 <1>   0.1400 
 13 C        0.1660     5.3500    -0.8000 C.3   1 <1>   0.1400 
 14 N        0.2650     5.7310     0.6370 N.am  1 <1>  -0.6600 
 15 C        1.2970     6.4830     1.1500 C.2   1 <1>   0.5440 
 16 O        1.4990     6.4760     2.3520 O.2   1 <1>  -0.5700 
 17 C        2.2110     7.2010     0.2950 C.ar  1 <1>   0.0860 
 18 C        3.4220     6.6210    -0.1250 C.ar  1 <1>   0.0530 
 19 C        1.8800     8.4840    -0.1380 C.ar  1 <1>  -0.1500 
 20 C        3.8400     5.2960     0.2810 C.2   1 <1>   0.1340 
 21 C        4.2400     7.3580    -0.9810 C.ar  1 <1>  -0.1500 
 22 C        2.7120     9.1950    -0.9800 C.ar  1 <1>  -0.1500 
 23 N        4.5240     4.4610    -0.4490 N.2   1 <1>  -0.3380 
 24 N        3.5840     4.7380     1.4730 N.pl3 1 <1>   0.0330 
 25 C        3.8970     8.6260    -1.4050 C.ar  1 <1>  -0.1500 
 26 N        4.7090     3.3500     0.2630 N.2   1 <1>  -0.3380 
 27 C        4.1380     3.5360     1.4010 C.2   1 <1>   0.0360 
 28 H        1.8210    -1.4790    -0.0570 H     1 <1>   0.1500 
 29 H       -0.7610    -1.6440    -0.8000 H     1 <1>   0.1500 
 30 H       -2.9360     0.0520    -0.4430 H     1 <1>   0.0800 
 31 H       -2.4190     0.8370    -1.9140 H     1 <1>   0.0800 
 32 H        0.6050     3.3280     1.8120 H     1 <1>   0.0800 
 33 H       -1.0650     2.9370     2.0160 H     1 <1>   0.0800 
 34 H        0.3670     3.5490    -1.9570 H     1 <1>   0.0800 
 35 H        1.5140     3.7010    -0.6690 H     1 <1>   0.0800 
 36 H       -2.7850     2.1060     0.8230 H     1 <1>   0.0800 
 37 H       -3.6340     2.5040    -0.6510 H     1 <1>   0.0800 
 38 H       -0.6060     5.3210     2.5300 H     1 <1>   0.0800 
 39 H       -1.6930     5.1830     1.1760 H     1 <1>   0.0800 
 40 H       -0.8350     5.5440    -1.1490 H     1 <1>   0.0800 
 41 H        0.8450     5.9230    -1.4070 H     1 <1>   0.0800 
 42 H        0.9550     8.9230     0.1930 H     1 <1>   0.1500 
 43 H        5.1660     6.9220    -1.3190 H     1 <1>   0.1500 
 44 H        2.4410    10.1860    -1.3050 H     1 <1>   0.1500 
 45 H        3.0370     5.1650     2.2320 H     1 <1>   0.2700 
 46 H        4.5520     9.1710    -2.0650 H     1 <1>   0.1500 
 47 H        4.1030     2.8160     2.1990 H     1 <1>   0.1500 
@<TRIPOS>BOND
  1   1   2  1   
  2   1   3  1   
  3   2   4  2   
  4   2   5  1   
  5   3   6  2   
  6   3  28  1   
  7   4   6  1   
  8   4   7  1   
  9   5   8  1   
 10   5   9  1   
 11   5  10  1   
 12   6  29  1   
 13   7  11  1   
 14   7  30  1   
 15   7  31  1   
 16   8  11  1   
 17   9  12  1   
 18   9  32  1   
 19   9  33  1   
 20  10  13  1   
 21  10  34  1   
 22  10  35  1   
 23  11  36  1   
 24  11  37  1   
 25  12  14  1   
 26  12  38  1   
 27  12  39  1   
 28  13  14  1   
 29  13  40  1   
 30  13  41  1   
 31  14  15  am  
 32  15  16  2   
 33  15  17  1   
 34  17  18  ar  
 35  17  19  ar  
 36  18  20  1   
 37  18  21  ar  
 38  19  22  ar  
 39  19  42  1   
 40  20  23  2   
 41  20  24  1   
 42  21  25  ar  
 43  21  43  1   
 44  22  25  ar  
 45  22  44  1   
 46  23  26  1   
 47  24  27  1   
 48  24  45  1   
 49  25  46  1   
 50  26  27  2   
 51  27  47  1   
@<TRIPOS>SUBSTRUCTURE
  1 ****  10 GROUP 4 **** **** 0

# MOE 2024.06 (io_trps.svl 2023.06)
