@<TRIPOS>MOLECULE
NONAME
47 49 1 0 0 
SMALL
USER_CHARGES


@<TRIPOS>ATOM
  1 O        0.8400    -0.1650    -2.3000 O.2   1 <1>  -0.5700 
  2 C        1.3690    -0.3710    -1.2240 C.2   1 <1>   0.7150 
  3 N        2.0260     0.6860    -0.6050 N.am  1 <1>  -0.6600 
  4 C        1.3010    -1.7000    -0.6640 C.2   1 <1>   0.0550 
  5 C        2.2650     0.7450     0.8700 C.3   1 <1>   0.1400 
  6 C        2.2820     1.9510    -1.3520 C.3   1 <1>   0.1400 
  7 O        2.1370    -2.1110     0.2610 O.3   1 <1>  -0.0190 
  8 C        0.4940    -2.7540    -0.9220 C.2   1 <1>  -0.1500 
  9 C        3.6940     0.2910     1.2350 C.3   1 <1>   0.3430 
 10 C        3.6520     2.5520    -1.0170 C.3   1 <1>  -0.1600 
 11 N        1.9340    -3.3320     0.6360 N.2   1 <1>  -0.4100 
 12 C        0.9400    -3.7540    -0.0700 C.2   1 <1>   0.1080 
 13 N        4.7900     1.1650     0.6970 N.4   1 <1>  -0.9590 
 14 C        4.7340     1.5030    -0.7560 C.3   1 <1>   0.3430 
 15 C        0.3380    -5.1530     0.0150 C.3   1 <1>   0.1010 
 16 C        6.1340     0.6470     1.0640 C.3   1 <1>   0.5230 
 17 C       -0.2280    -5.4200     1.4150 C.3   1 <1>  -0.2400 
 18 C        1.3780    -6.2170    -0.3540 C.3   1 <1>  -0.2400 
 19 C        7.0190     1.8560     1.3400 C.2   1 <1>   0.0060 
 20 N        6.5490     3.0580     1.4950 N.2   1 <1>  -0.5650 
 21 N        8.3670     1.7870     1.4550 N.pl3 1 <1>   0.0330 
 22 C        7.6450     3.8080     1.7200 C.2   1 <1>   0.0770 
 23 C        8.7600     3.0480     1.6970 C.2   1 <1>  -0.3020 
 24 H        1.5580     0.1070     1.3720 H     1 <1>   0.0800 
 25 H        2.0940     1.7440     1.2330 H     1 <1>   0.0800 
 26 H        1.5020     2.6620    -1.1350 H     1 <1>   0.0800 
 27 H        2.2510     1.7540    -2.4110 H     1 <1>   0.0800 
 28 H       -0.3130    -2.8160    -1.6300 H     1 <1>   0.1500 
 29 H        3.8330    -0.7140     0.8750 H     1 <1>   0.0800 
 30 H        3.7690     0.2590     2.3100 H     1 <1>   0.0800 
 31 H        3.5740     3.2320    -0.1880 H     1 <1>   0.0800 
 32 H        3.9530     3.1420    -1.8650 H     1 <1>   0.0800 
 33 H        4.7880     2.0800     1.1880 H     1 <1>   0.4500 
 34 H        5.6820     1.9260    -1.0510 H     1 <1>   0.0800 
 35 H        4.5540     0.6210    -1.3500 H     1 <1>   0.0800 
 36 H       -0.4710    -5.2150    -0.6930 H     1 <1>   0.0800 
 37 H        6.5390     0.0450     0.2680 H     1 <1>   0.0800 
 38 H        6.0720     0.0510     1.9600 H     1 <1>   0.0800 
 39 H        0.5560    -5.3810     2.1490 H     1 <1>   0.0800 
 40 H       -0.6910    -6.3900     1.4540 H     1 <1>   0.0800 
 41 H       -0.9650    -4.6770     1.6620 H     1 <1>   0.0800 
 42 H        2.1990    -6.1950     0.3410 H     1 <1>   0.0800 
 43 H        1.7620    -6.0310    -1.3410 H     1 <1>   0.0800 
 44 H        0.9360    -7.1970    -0.3360 H     1 <1>   0.0800 
 45 H        8.9830     0.9680     1.3830 H     1 <1>   0.2700 
 46 H        7.5780     4.8720     1.8900 H     1 <1>   0.1500 
 47 H        9.7870     3.3370     1.8400 H     1 <1>   0.1500 
@<TRIPOS>BOND
  1   1   2  2   
  2   2   3  am  
  3   2   4  1   
  4   3   5  1   
  5   3   6  1   
  6   4   7  1   
  7   4   8  2   
  8   5   9  1   
  9   5  24  1   
 10   5  25  1   
 11   6  10  1   
 12   6  26  1   
 13   6  27  1   
 14   7  11  1   
 15   8  12  1   
 16   8  28  1   
 17   9  13  1   
 18   9  29  1   
 19   9  30  1   
 20  10  14  1   
 21  10  31  1   
 22  10  32  1   
 23  11  12  2   
 24  12  15  1   
 25  13  14  1   
 26  13  16  1   
 27  13  33  1   
 28  14  34  1   
 29  14  35  1   
 30  15  17  1   
 31  15  18  1   
 32  15  36  1   
 33  16  19  1   
 34  16  37  1   
 35  16  38  1   
 36  17  39  1   
 37  17  40  1   
 38  17  41  1   
 39  18  42  1   
 40  18  43  1   
 41  18  44  1   
 42  19  20  2   
 43  19  21  1   
 44  20  22  1   
 45  21  23  1   
 46  21  45  1   
 47  22  23  2   
 48  22  46  1   
 49  23  47  1   
@<TRIPOS>SUBSTRUCTURE
  1 ****   9 GROUP 4 **** **** 0

# MOE 2024.06 (io_trps.svl 2023.06)
