@<TRIPOS>MOLECULE
NONAME
54 57 1 0 0 
SMALL
USER_CHARGES


@<TRIPOS>ATOM
  1 O       -0.0710     0.2310     2.3650 O.2   1 <1>  -0.5700 
  2 C        0.5990    -0.4580     1.6340 C.2   1 <1>   0.5690 
  3 N        1.4510     0.0220     0.6900 N.am  1 <1>  -0.4930 
  4 C        0.5060    -1.9640     1.7860 C.3   1 <1>  -0.0990 
  5 C        1.8570     1.3420     0.3700 C.2   1 <1>   0.0630 
  6 C       -0.1800    -2.6280     0.5800 C.3   1 <1>  -0.1600 
  7 C        3.1420     1.6280    -0.1040 C.2   1 <1>   0.3720 
  8 C        1.2250     2.5360     0.4040 C.2   1 <1>  -0.3320 
  9 C       -0.2730    -4.1490     0.7500 C.3   1 <1>   0.0210 
 10 N        3.3220     2.8920    -0.3260 N.2   1 <1>  -0.7070 
 11 N        4.1350     0.6510    -0.3160 N.pl3 1 <1>  -0.8210 
 12 N        2.1370     3.4560    -0.0020 N.pl3 1 <1>   0.3140 
 13 C       -0.2090     2.8720     0.7860 C.3   1 <1>  -0.0600 
 14 C       -0.9130    -4.8290    -0.4490 C.2   1 <1>  -0.1810 
 15 C        5.2340     0.7760     0.6790 C.3   1 <1>   0.2090 
 16 C        4.7360     0.7370    -1.6770 C.3   1 <1>   0.2090 
 17 C        1.9450     4.9080    -0.1090 C.3   1 <1>   0.0160 
 18 C       -1.0350    -6.2330    -0.5620 C.ar  1 <1>   0.0000 
 19 C       -1.4540    -4.2840    -1.5660 C.2   1 <1>  -0.3020 
 20 C        6.5280     0.5740    -0.0940 C.3   1 <1>  -0.1600 
 21 C        6.2010     1.0990    -1.4820 C.3   1 <1>  -0.1600 
 22 C       -1.6620    -6.4790    -1.7790 C.ar  1 <1>  -0.1520 
 23 C       -0.6710    -7.3100     0.2540 C.ar  1 <1>  -0.1500 
 24 N       -1.9150    -5.2760    -2.3840 N.pl3 1 <1>   0.0330 
 25 C       -1.9330    -7.7840    -2.1990 C.ar  1 <1>  -0.1500 
 26 C       -0.9380    -8.5950    -0.1590 C.ar  1 <1>  -0.1500 
 27 C       -1.5690    -8.8320    -1.3860 C.ar  1 <1>  -0.1500 
 28 H        2.0800    -0.6550     0.2560 H     1 <1>   0.3700 
 29 H       -0.0510    -2.1810     2.6810 H     1 <1>   0.0800 
 30 H        1.4970    -2.3580     1.9120 H     1 <1>   0.0800 
 31 H        0.3710    -2.4090    -0.3180 H     1 <1>   0.0800 
 32 H       -1.1720    -2.2230     0.4710 H     1 <1>   0.0800 
 33 H       -0.8540    -4.3810     1.6260 H     1 <1>   0.0800 
 34 H        0.7130    -4.5560     0.8850 H     1 <1>   0.0800 
 35 H       -0.8260     1.9940     0.7320 H     1 <1>   0.0800 
 36 H       -0.6220     3.6040     0.1160 H     1 <1>   0.0800 
 37 H       -0.2420     3.2510     1.7920 H     1 <1>   0.0800 
 38 H        5.1230     0.0390     1.4550 H     1 <1>   0.0800 
 39 H        5.2250     1.7580     1.1230 H     1 <1>   0.0800 
 40 H        4.2360     1.4650    -2.2940 H     1 <1>   0.0800 
 41 H        4.6550    -0.2280    -2.1470 H     1 <1>   0.0800 
 42 H        1.5250     5.2770     0.8070 H     1 <1>   0.0800 
 43 H        1.2840     5.1140    -0.9290 H     1 <1>   0.0800 
 44 H        2.8960     5.3760    -0.2850 H     1 <1>   0.0800 
 45 H       -1.5450    -3.2460    -1.8350 H     1 <1>   0.1500 
 46 H        6.7520    -0.4770    -0.1380 H     1 <1>   0.0800 
 47 H        7.3500     1.0960     0.3610 H     1 <1>   0.0800 
 48 H        6.2930     2.1710    -1.4990 H     1 <1>   0.0800 
 49 H        6.8270     0.6760    -2.2460 H     1 <1>   0.0800 
 50 H       -0.1880    -7.1170     1.1930 H     1 <1>   0.1500 
 51 H       -2.3730    -5.1560    -3.2920 H     1 <1>   0.2700 
 52 H       -2.4190    -7.9570    -3.1420 H     1 <1>   0.1500 
 53 H       -0.6640    -9.4320     0.4590 H     1 <1>   0.1500 
 54 H       -1.7660    -9.8470    -1.6860 H     1 <1>   0.1500 
@<TRIPOS>BOND
  1   1   2  2   
  2   2   3  am  
  3   2   4  1   
  4   3   5  1   
  5   3  28  1   
  6   4   6  1   
  7   4  29  1   
  8   4  30  1   
  9   5   7  1   
 10   5   8  2   
 11   6   9  1   
 12   6  31  1   
 13   6  32  1   
 14   7  10  2   
 15   7  11  1   
 16   8  12  1   
 17   8  13  1   
 18   9  14  1   
 19   9  33  1   
 20   9  34  1   
 21  10  12  1   
 22  11  15  1   
 23  11  16  1   
 24  12  17  1   
 25  13  35  1   
 26  13  36  1   
 27  13  37  1   
 28  14  18  1   
 29  14  19  2   
 30  15  20  1   
 31  15  38  1   
 32  15  39  1   
 33  16  21  1   
 34  16  40  1   
 35  16  41  1   
 36  17  42  1   
 37  17  43  1   
 38  17  44  1   
 39  18  22  ar  
 40  18  23  ar  
 41  19  24  1   
 42  19  45  1   
 43  20  21  1   
 44  20  46  1   
 45  20  47  1   
 46  21  48  1   
 47  21  49  1   
 48  22  24  1   
 49  22  25  ar  
 50  23  26  ar  
 51  23  50  1   
 52  24  51  1   
 53  25  27  ar  
 54  25  52  1   
 55  26  27  ar  
 56  26  53  1   
 57  27  54  1   
@<TRIPOS>SUBSTRUCTURE
  1 ****   6 GROUP 4 **** **** 0

# MOE 2024.06 (io_trps.svl 2023.06)
