@<TRIPOS>MOLECULE
NONAME
37 39 1 0 0 
SMALL
USER_CHARGES


@<TRIPOS>ATOM
  1 CL      -0.4780    -0.1260     1.7260 Cl    1 <1>  -0.1770 
  2 C       -1.5290     0.9370     0.8310 C.ar  1 <1>   0.1770 
  3 C       -2.3540     0.4130    -0.1430 C.ar  1 <1>  -0.1500 
  4 C       -1.5110     2.2930     1.1140 C.ar  1 <1>  -0.1500 
  5 C       -3.1730     1.2830    -0.8360 C.ar  1 <1>   0.1770 
  6 C       -2.3350     3.1610     0.4060 C.ar  1 <1>  -0.1440 
  7 CL      -4.2280     0.6600    -2.0760 Cl    1 <1>  -0.1770 
  8 C       -3.1730     2.6420    -0.5740 C.ar  1 <1>  -0.1500 
  9 C       -2.3200     4.6530     0.6940 C.3   1 <1>   0.4870 
 10 N       -0.9870     5.1990     0.3280 N.4   1 <1>  -0.9590 
 11 C       -0.7430     6.5710     0.9090 C.3   1 <1>   0.3430 
 12 C       -0.6640     5.0270    -1.1310 C.3   1 <1>   0.3430 
 13 C        0.7270     7.0740     0.8190 C.3   1 <1>   0.2200 
 14 C        0.8250     5.1940    -1.4660 C.3   1 <1>  -0.0190 
 15 N        1.0490     7.4800    -0.5680 N.am  1 <1>  -0.7300 
 16 C        1.7670     6.0480     1.3370 C.3   1 <1>   0.1200 
 17 C        1.1140     6.6610    -1.6310 C.2   1 <1>   0.5690 
 18 C        1.8360     4.5200    -0.5110 C.3   1 <1>   0.1200 
 19 O        1.5510     4.7480     0.8450 O.3   1 <1>  -0.5600 
 20 O        1.3680     7.0980    -2.7190 O.2   1 <1>  -0.5700 
 21 H       -2.3610    -0.6410    -0.3540 H     1 <1>   0.1500 
 22 H       -0.8490     2.6420     1.8890 H     1 <1>   0.1500 
 23 H       -3.8360     3.2720    -1.1440 H     1 <1>   0.1500 
 24 H       -2.5100     4.8100     1.7440 H     1 <1>   0.0800 
 25 H       -3.0930     5.1480     0.1290 H     1 <1>   0.0800 
 26 H       -0.2750     4.6010     0.7930 H     1 <1>   0.4500 
 27 H       -1.3830     7.2910     0.4270 H     1 <1>   0.0800 
 28 H       -1.0100     6.5480     1.9520 H     1 <1>   0.0800 
 29 H       -0.9490     4.0320    -1.4330 H     1 <1>   0.0800 
 30 H       -1.2410     5.7210    -1.7210 H     1 <1>   0.0800 
 31 H        0.8100     7.9570     1.4300 H     1 <1>   0.0800 
 32 H        0.9780     4.7560    -2.4360 H     1 <1>   0.0800 
 33 H        1.3140     8.4580    -0.7370 H     1 <1>   0.3700 
 34 H        1.6990     5.9850     2.4090 H     1 <1>   0.0800 
 35 H        2.7700     6.3560     1.0900 H     1 <1>   0.0800 
 36 H        2.8410     4.8550    -0.7150 H     1 <1>   0.0800 
 37 H        1.8090     3.4540    -0.6570 H     1 <1>   0.0800 
@<TRIPOS>BOND
  1   1   2  1   
  2   2   3  ar  
  3   2   4  ar  
  4   3   5  ar  
  5   3  21  1   
  6   4   6  ar  
  7   4  22  1   
  8   5   7  1   
  9   5   8  ar  
 10   6   8  ar  
 11   6   9  1   
 12   8  23  1   
 13   9  10  1   
 14   9  24  1   
 15   9  25  1   
 16  10  11  1   
 17  10  12  1   
 18  10  26  1   
 19  11  13  1   
 20  11  27  1   
 21  11  28  1   
 22  12  14  1   
 23  12  29  1   
 24  12  30  1   
 25  13  15  1   
 26  13  16  1   
 27  13  31  1   
 28  14  17  1   
 29  14  18  1   
 30  14  32  1   
 31  15  17  am  
 32  15  33  1   
 33  16  19  1   
 34  16  34  1   
 35  16  35  1   
 36  17  20  2   
 37  18  19  1   
 38  18  36  1   
 39  18  37  1   
@<TRIPOS>SUBSTRUCTURE
  1 ****  10 GROUP 4 **** **** 0

# MOE 2024.06 (io_trps.svl 2023.06)
