@<TRIPOS>MOLECULE
NONAME
25 26 1 0 0 
SMALL
USER_CHARGES


@<TRIPOS>ATOM
  1 O       -6.8060    -2.8210    -0.8580 O.2   1 <1>  -0.5700 
  2 C       -5.7050    -3.1650    -0.5010 C.2   1 <1>   0.5690 
  3 N       -4.6690    -2.3570    -0.1290 N.am  1 <1>  -0.4770 
  4 C       -5.3220    -4.6180    -0.4180 C.3   1 <1>  -0.0990 
  5 C       -4.6580    -0.9510    -0.0080 C.ar  1 <1>   0.1170 
  6 C       -3.4820    -3.1560     0.2340 C.3   1 <1>   0.1400 
  7 C       -3.9930    -4.5970     0.3450 C.3   1 <1>  -0.1600 
  8 C       -3.5250    -0.2150    -0.3340 C.ar  1 <1>  -0.1500 
  9 C       -5.7770    -0.2660     0.4550 C.ar  1 <1>  -0.1500 
 10 C       -3.4940     1.1650    -0.2000 C.ar  1 <1>   0.1000 
 11 C       -5.7590     1.1100     0.5990 C.ar  1 <1>  -0.1500 
 12 N       -2.3590     1.8790    -0.5390 N.pl3 1 <1>  -0.9000 
 13 C       -4.6200     1.8230     0.2760 C.ar  1 <1>  -0.1500 
 14 H       -5.1940    -4.9990    -1.4150 H     1 <1>   0.0800 
 15 H       -6.0760    -5.1820     0.0990 H     1 <1>   0.0800 
 16 H       -3.0650    -2.8120     1.1660 H     1 <1>   0.0800 
 17 H       -2.7480    -3.0750    -0.5490 H     1 <1>   0.0800 
 18 H       -3.2840    -5.3030    -0.0490 H     1 <1>   0.0800 
 19 H       -4.1680    -4.8240     1.3830 H     1 <1>   0.0800 
 20 H       -2.6510    -0.7140    -0.7020 H     1 <1>   0.1500 
 21 H       -6.6680    -0.8130     0.7070 H     1 <1>   0.1500 
 22 H       -6.6330     1.6230     0.9610 H     1 <1>   0.1500 
 23 H       -2.5020     2.8750    -0.7250 H     1 <1>   0.4000 
 24 H       -1.7580     1.4490    -1.2480 H     1 <1>   0.4000 
 25 H       -4.6020     2.8900     0.3920 H     1 <1>   0.1500 
@<TRIPOS>BOND
  1   1   2  2   
  2   2   3  am  
  3   2   4  1   
  4   3   5  1   
  5   3   6  1   
  6   4   7  1   
  7   4  14  1   
  8   4  15  1   
  9   5   8  ar  
 10   5   9  ar  
 11   6   7  1   
 12   6  16  1   
 13   6  17  1   
 14   7  18  1   
 15   7  19  1   
 16   8  10  ar  
 17   8  20  1   
 18   9  11  ar  
 19   9  21  1   
 20  10  12  1   
 21  10  13  ar  
 22  11  13  ar  
 23  11  22  1   
 24  12  23  1   
 25  12  24  1   
 26  13  25  1   
@<TRIPOS>SUBSTRUCTURE
  1 ****   5 GROUP 4 **** **** 0

# MOE 2024.06 (io_trps.svl 2023.06)
