@<TRIPOS>MOLECULE
NONAME
45 47 1 0 0 
SMALL
USER_CHARGES


@<TRIPOS>ATOM
  1 S       -1.8370    -0.2710    -1.6890 S.3   1 <1>  -0.0800 
  2 C       -1.5900    -0.9020    -0.0630 C.2   1 <1>  -0.1400 
  3 C       -1.8080     1.3820    -1.1020 C.2   1 <1>  -0.1100 
  4 C       -1.4960     0.1110     0.8200 C.2   1 <1>  -0.1500 
  5 C       -1.5190    -2.4080     0.1270 C.3   1 <1>   0.3800 
  6 C       -1.6210     1.4090     0.2290 C.2   1 <1>  -0.1500 
  7 O       -0.4320    -2.8650    -0.5830 O.3   1 <1>  -0.6800 
  8 C       -2.7790    -3.1540    -0.3650 C.3   1 <1>  -0.0800 
  9 C       -4.0570    -2.6510     0.3330 C.3   1 <1>  -0.1600 
 10 C       -2.6640    -4.6800    -0.1820 C.3   1 <1>  -0.1600 
 11 C       -5.2930    -3.4120    -0.1470 C.3   1 <1>   0.3430 
 12 C       -3.9270    -5.3990    -0.6510 C.3   1 <1>   0.3430 
 13 N       -5.1130    -4.8740     0.0900 N.4   1 <1>  -0.9590 
 14 C       -6.3720    -5.5890    -0.2940 C.3   1 <1>   0.3430 
 15 C       -6.4280    -7.0370     0.2090 C.3   1 <1>   0.0200 
 16 C       -7.7530    -7.6490    -0.2050 C.2   1 <1>   0.0060 
 17 N       -8.6110    -7.0140    -0.9370 N.2   1 <1>  -0.5650 
 18 N       -8.1540    -8.8970     0.1470 N.pl3 1 <1>   0.0480 
 19 C       -9.6260    -7.8860    -1.0740 C.2   1 <1>   0.0770 
 20 C       -9.3640    -9.0370    -0.4200 C.2   1 <1>  -0.3020 
 21 C       -7.4610    -9.9100     0.9650 C.3   1 <1>   0.0160 
 22 H       -1.9330     2.1680    -1.8270 H     1 <1>   0.1500 
 23 H       -1.3400     0.0110     1.8810 H     1 <1>   0.1500 
 24 H       -1.3380    -2.6260     1.1660 H     1 <1>   0.0800 
 25 H       -1.5640     2.2990     0.8330 H     1 <1>   0.1500 
 26 H        0.2160    -2.1360    -0.6570 H     1 <1>   0.4000 
 27 H       -2.8790    -2.9510    -1.4190 H     1 <1>   0.0800 
 28 H       -4.2030    -1.6070     0.1150 H     1 <1>   0.0800 
 29 H       -3.9660    -2.7480     1.4010 H     1 <1>   0.0800 
 30 H       -2.4700    -4.9220     0.8490 H     1 <1>   0.0800 
 31 H       -1.8330    -5.0490    -0.7590 H     1 <1>   0.0800 
 32 H       -5.4400    -3.2290    -1.1990 H     1 <1>   0.0800 
 33 H       -6.1620    -3.0560     0.3830 H     1 <1>   0.0800 
 34 H       -3.8160    -6.4570    -0.4810 H     1 <1>   0.0800 
 35 H       -4.0570    -5.2390    -1.7100 H     1 <1>   0.0800 
 36 H       -4.9510    -5.0030     1.0960 H     1 <1>   0.4500 
 37 H       -6.4840    -5.5880    -1.3670 H     1 <1>   0.0800 
 38 H       -7.2230    -5.0670     0.1140 H     1 <1>   0.0800 
 39 H       -6.3540    -7.0560     1.2810 H     1 <1>   0.0800 
 40 H       -5.6350    -7.6190    -0.2230 H     1 <1>   0.0800 
 41 H      -10.5070    -7.6390    -1.6450 H     1 <1>   0.1500 
 42 H       -9.9640    -9.9240    -0.3330 H     1 <1>   0.1500 
 43 H       -6.5070   -10.1350     0.5250 H     1 <1>   0.0800 
 44 H       -8.0530   -10.8070     1.0020 H     1 <1>   0.0800 
 45 H       -7.3250    -9.5340     1.9620 H     1 <1>   0.0800 
@<TRIPOS>BOND
  1   1   2  1   
  2   1   3  1   
  3   2   4  2   
  4   2   5  1   
  5   3   6  2   
  6   3  22  1   
  7   4   6  1   
  8   4  23  1   
  9   5   7  1   
 10   5   8  1   
 11   5  24  1   
 12   6  25  1   
 13   7  26  1   
 14   8   9  1   
 15   8  10  1   
 16   8  27  1   
 17   9  11  1   
 18   9  28  1   
 19   9  29  1   
 20  10  12  1   
 21  10  30  1   
 22  10  31  1   
 23  11  13  1   
 24  11  32  1   
 25  11  33  1   
 26  12  13  1   
 27  12  34  1   
 28  12  35  1   
 29  13  14  1   
 30  13  36  1   
 31  14  15  1   
 32  14  37  1   
 33  14  38  1   
 34  15  16  1   
 35  15  39  1   
 36  15  40  1   
 37  16  17  2   
 38  16  18  1   
 39  17  19  1   
 40  18  20  1   
 41  18  21  1   
 42  19  20  2   
 43  19  41  1   
 44  20  42  1   
 45  21  43  1   
 46  21  44  1   
 47  21  45  1   
@<TRIPOS>SUBSTRUCTURE
  1 ****  13 GROUP 4 **** **** 0

# MOE 2024.06 (io_trps.svl 2023.06)
