@<TRIPOS>MOLECULE
NONAME
57 59 1 0 0 
SMALL
USER_CHARGES


@<TRIPOS>ATOM
  1 O       -0.4590     0.3050     0.4270 O.2   1 <1>  -0.5700 
  2 C       -1.6240     0.5830     0.2130 C.2   1 <1>   0.5440 
  3 N       -1.9130     1.7890    -0.3920 N.am  1 <1>  -0.6600 
  4 C       -2.6480    -0.3610     0.5880 C.ar  1 <1>   0.0860 
  5 C       -0.8750     2.8510    -0.5560 C.3   1 <1>   0.1400 
  6 C       -3.1740     2.0950    -1.1320 C.3   1 <1>   0.1400 
  7 C       -2.5320    -1.7020     0.2340 C.ar  1 <1>   0.1600 
  8 C       -3.7760    -0.0030     1.3210 C.ar  1 <1>  -0.1500 
  9 C       -1.4750     4.2410    -0.2870 C.3   1 <1>   0.1200 
 10 C       -3.6490     3.5240    -0.8190 C.3   1 <1>   0.1200 
 11 N       -3.4070    -2.6560     0.5000 N.ar  1 <1>  -0.6200 
 12 C       -4.6930    -0.9830     1.6150 C.ar  1 <1>  -0.1500 
 13 O       -2.6250     4.4470    -1.0600 O.3   1 <1>  -0.5600 
 14 C       -4.4820    -2.2910     1.1880 C.ar  1 <1>   0.4100 
 15 N       -5.4080    -3.2520     1.4860 N.pl3 1 <1>  -0.8690 
 16 C       -5.4530    -4.5750     0.8440 C.3   1 <1>   0.4330 
 17 C       -6.9250    -4.9340     0.6500 C.ar  1 <1>  -0.1430 
 18 C       -4.6970    -5.5830     1.7220 C.3   1 <1>  -0.1600 
 19 C       -7.7780    -5.0880     1.7360 C.ar  1 <1>  -0.1500 
 20 C       -7.4320    -5.1020    -0.6310 C.ar  1 <1>  -0.1500 
 21 C       -4.7050    -7.0100     1.1480 C.3   1 <1>  -0.2400 
 22 C       -9.1100    -5.4090     1.5410 C.ar  1 <1>  -0.1500 
 23 C       -8.7630    -5.4240    -0.8290 C.ar  1 <1>  -0.1500 
 24 C       -9.6130    -5.5800     0.2620 C.ar  1 <1>   0.0830 
 25 O      -10.9280    -5.8940     0.1600 O.3   1 <1>  -0.3630 
 26 C      -11.5380    -6.0910    -1.0950 C.3   1 <1>   0.1200 
 27 C      -13.0120    -6.4260    -0.8630 C.3   1 <1>  -0.1600 
 28 C      -13.7480    -6.6550    -2.1870 C.3   1 <1>  -0.2400 
 29 H       -0.4870     2.8160    -1.5590 H     1 <1>   0.0800 
 30 H       -0.0560     2.6830     0.1230 H     1 <1>   0.0800 
 31 H       -3.9500     1.3940    -0.8870 H     1 <1>   0.0800 
 32 H       -2.9860     2.0170    -2.1890 H     1 <1>   0.0800 
 33 H       -1.6480    -1.9940    -0.3090 H     1 <1>   0.1500 
 34 H       -3.9120     1.0130     1.6480 H     1 <1>   0.1500 
 35 H       -0.7650     5.0070    -0.5440 H     1 <1>   0.0800 
 36 H       -1.7340     4.3440     0.7520 H     1 <1>   0.0800 
 37 H       -3.9530     3.6070     0.2100 H     1 <1>   0.0800 
 38 H       -4.4800     3.7860    -1.4480 H     1 <1>   0.0800 
 39 H       -5.5760    -0.7560     2.1800 H     1 <1>   0.1500 
 40 H       -6.3440    -2.9400     1.7440 H     1 <1>   0.4000 
 41 H       -4.9720    -4.5250    -0.1190 H     1 <1>   0.0800 
 42 H       -5.1240    -5.5950     2.7080 H     1 <1>   0.0800 
 43 H       -3.6770    -5.2530     1.8070 H     1 <1>   0.0800 
 44 H       -7.4090    -4.9610     2.7390 H     1 <1>   0.1500 
 45 H       -6.7870    -4.9820    -1.4840 H     1 <1>   0.1500 
 46 H       -5.7100    -7.3910     1.0910 H     1 <1>   0.0800 
 47 H       -4.1300    -7.6620     1.7810 H     1 <1>   0.0800 
 48 H       -4.2730    -7.0200     0.1630 H     1 <1>   0.0800 
 49 H       -9.7690    -5.5310     2.3810 H     1 <1>   0.1500 
 50 H       -9.1180    -5.5470    -1.8340 H     1 <1>   0.1500 
 51 H      -11.0370    -6.9030    -1.5920 H     1 <1>   0.0800 
 52 H      -11.4400    -5.1840    -1.6660 H     1 <1>   0.0800 
 53 H      -13.4790    -5.6140    -0.3330 H     1 <1>   0.0800 
 54 H      -13.0800    -7.3150    -0.2600 H     1 <1>   0.0800 
 55 H      -13.7070    -5.7710    -2.8000 H     1 <1>   0.0800 
 56 H      -14.7810    -6.8890    -1.9960 H     1 <1>   0.0800 
 57 H      -13.3070    -7.4740    -2.7270 H     1 <1>   0.0800 
@<TRIPOS>BOND
  1   1   2  2   
  2   2   3  am  
  3   2   4  1   
  4   3   5  1   
  5   3   6  1   
  6   4   7  ar  
  7   4   8  ar  
  8   5   9  1   
  9   5  29  1   
 10   5  30  1   
 11   6  10  1   
 12   6  31  1   
 13   6  32  1   
 14   7  11  ar  
 15   7  33  1   
 16   8  12  ar  
 17   8  34  1   
 18   9  13  1   
 19   9  35  1   
 20   9  36  1   
 21  10  13  1   
 22  10  37  1   
 23  10  38  1   
 24  11  14  ar  
 25  12  14  ar  
 26  12  39  1   
 27  14  15  1   
 28  15  16  1   
 29  15  40  1   
 30  16  17  1   
 31  16  18  1   
 32  16  41  1   
 33  17  19  ar  
 34  17  20  ar  
 35  18  21  1   
 36  18  42  1   
 37  18  43  1   
 38  19  22  ar  
 39  19  44  1   
 40  20  23  ar  
 41  20  45  1   
 42  21  46  1   
 43  21  47  1   
 44  21  48  1   
 45  22  24  ar  
 46  22  49  1   
 47  23  24  ar  
 48  23  50  1   
 49  24  25  1   
 50  25  26  1   
 51  26  27  1   
 52  26  51  1   
 53  26  52  1   
 54  27  28  1   
 55  27  53  1   
 56  27  54  1   
 57  28  55  1   
 58  28  56  1   
 59  28  57  1   
@<TRIPOS>SUBSTRUCTURE
  1 ****  14 GROUP 4 **** **** 0

# MOE 2024.06 (io_trps.svl 2023.06)
