@<TRIPOS>MOLECULE
NONAME
39 40 1 0 0 
SMALL
USER_CHARGES


@<TRIPOS>ATOM
  1 O        1.0520    -0.3700     1.5350 O.co2 1 <1>  -0.9000 
  2 C        1.2920     0.5100     0.7050 C.2   1 <1>   0.9060 
  3 O        1.6440     0.2530    -0.4520 O.co2 1 <1>  -0.9000 
  4 C        1.1900     1.9410     1.1380 C.3   1 <1>  -0.2660 
  5 C        0.5040     2.7470     0.0520 C.3   1 <1>   0.4330 
  6 N        0.4890     4.1740     0.4430 N.pl3 1 <1>  -0.8690 
  7 C       -0.9580     2.3450    -0.1530 C.ar  1 <1>  -0.1430 
  8 C        1.3440     5.1090    -0.0790 C.ar  1 <1>   0.4100 
  9 C       -1.3420     1.7460    -1.3440 C.ar  1 <1>  -0.1500 
 10 C       -1.9190     2.5710     0.8250 C.ar  1 <1>  -0.1500 
 11 N        2.5210     4.6910    -0.4860 N.ar  1 <1>  -0.6200 
 12 C        0.9820     6.4490    -0.1700 C.ar  1 <1>  -0.1430 
 13 C       -2.6640     1.4010    -1.5650 C.ar  1 <1>  -0.1500 
 14 C       -3.2420     2.2260     0.6060 C.ar  1 <1>  -0.1500 
 15 C        3.3270     5.6010    -0.9840 C.ar  1 <1>   0.4770 
 16 C        1.9180     7.2990    -0.7080 C.ar  1 <1>   0.1600 
 17 C       -0.3970     6.9080     0.3170 C.3   1 <1>  -0.0170 
 18 C       -3.6160     1.6440    -0.5920 C.ar  1 <1>  -0.1500 
 19 N        3.1010     6.8930    -1.1240 N.ar  1 <1>  -0.6200 
 20 C        4.6750     5.1080    -1.4490 C.3   1 <1>  -0.0970 
 21 C       -0.6690     8.4130     0.1970 C.3   1 <1>  -0.2400 
 22 H        2.1860     2.3070     1.2850 H     1 <1>   0.0800 
 23 H        0.6450     1.9910     2.0580 H     1 <1>   0.0800 
 24 H        1.0460     2.6320    -0.8730 H     1 <1>   0.0800 
 25 H       -0.4760     4.4670     0.5670 H     1 <1>   0.4000 
 26 H       -0.5980     1.5370    -2.0950 H     1 <1>   0.1500 
 27 H       -1.6320     3.0070     1.7660 H     1 <1>   0.1500 
 28 H       -2.9430     0.9340    -2.4930 H     1 <1>   0.1500 
 29 H       -3.9760     2.4030     1.3720 H     1 <1>   0.1500 
 30 H        1.7140     8.3490    -0.8130 H     1 <1>   0.1500 
 31 H       -0.5030     6.6250     1.3500 H     1 <1>   0.0800 
 32 H       -1.1490     6.3800    -0.2450 H     1 <1>   0.0800 
 33 H       -4.6420     1.3720    -0.7630 H     1 <1>   0.1500 
 34 H        4.6630     4.0380    -1.5580 H     1 <1>   0.0800 
 35 H        5.4190     5.3800    -0.7260 H     1 <1>   0.0800 
 36 H        4.9170     5.5520    -2.3960 H     1 <1>   0.0800 
 37 H        0.0450     8.9730     0.7750 H     1 <1>   0.0800 
 38 H       -1.6530     8.6360     0.5690 H     1 <1>   0.0800 
 39 H       -0.6190     8.7250    -0.8320 H     1 <1>   0.0800 
@<TRIPOS>BOND
  1   1   2  ar  
  2   2   3  ar  
  3   2   4  1   
  4   4   5  1   
  5   4  22  1   
  6   4  23  1   
  7   5   6  1   
  8   5   7  1   
  9   5  24  1   
 10   6   8  1   
 11   6  25  1   
 12   7   9  ar  
 13   7  10  ar  
 14   8  11  ar  
 15   8  12  ar  
 16   9  13  ar  
 17   9  26  1   
 18  10  14  ar  
 19  10  27  1   
 20  11  15  ar  
 21  12  16  ar  
 22  12  17  1   
 23  13  18  ar  
 24  13  28  1   
 25  14  18  ar  
 26  14  29  1   
 27  15  19  ar  
 28  15  20  1   
 29  16  19  ar  
 30  16  30  1   
 31  17  21  1   
 32  17  31  1   
 33  17  32  1   
 34  18  33  1   
 35  20  34  1   
 36  20  35  1   
 37  20  36  1   
 38  21  37  1   
 39  21  38  1   
 40  21  39  1   
@<TRIPOS>SUBSTRUCTURE
  1 ****   6 GROUP 4 **** **** 0

# MOE 2024.06 (io_trps.svl 2023.06)
