@<TRIPOS>MOLECULE
NONAME
42 44 1 0 0 
SMALL
USER_CHARGES


@<TRIPOS>ATOM
  1 O       -1.3940     0.4260    -1.6040 O.2   1 <1>  -0.5700 
  2 C       -1.6320     0.8640    -0.4940 C.2   1 <1>   0.7160 
  3 N       -2.1210     0.0070     0.4440 N.am  1 <1>  -0.7300 
  4 C       -1.4310     2.2500    -0.1430 C.2   1 <1>  -0.0860 
  5 C       -2.4020    -1.4300     0.2380 C.3   1 <1>   0.2200 
  6 C       -0.9530     3.2880    -0.9560 C.2   1 <1>   0.1080 
  7 C       -1.6530     2.8790     1.0480 C.2   1 <1>  -0.3020 
  8 C       -3.8920    -1.6160     0.0120 C.3   1 <1>  -0.0800 
  9 C       -2.1910    -2.1810     1.5470 C.3   1 <1>   0.1200 
 10 N       -0.8910     4.4230    -0.3370 N.2   1 <1>  -0.7070 
 11 C       -0.5380     3.1620    -2.4060 C.3   1 <1>  -0.0590 
 12 N       -1.3230     4.1700     0.9020 N.pl3 1 <1>   0.3140 
 13 C       -4.4360    -1.6790     1.4450 C.3   1 <1>   0.1200 
 14 C       -4.1850    -2.9020    -0.7830 C.3   1 <1>  -0.0170 
 15 O       -3.3620    -1.9980     2.2830 O.3   1 <1>  -0.5600 
 16 C       -1.3940     5.2310     1.9120 C.3   1 <1>   0.0160 
 17 C       -5.6760    -3.0750    -1.0320 C.ar  1 <1>  -0.1430 
 18 C       -6.3490    -2.3050    -1.9590 C.ar  1 <1>  -0.1500 
 19 C       -6.4330    -4.0050    -0.3490 C.ar  1 <1>  -0.1500 
 20 C       -7.7080    -2.4930    -2.1490 C.ar  1 <1>   0.1600 
 21 C       -7.7880    -4.1140    -0.6150 C.ar  1 <1>   0.1600 
 22 N       -8.4440    -3.3790    -1.4970 N.ar  1 <1>  -0.6200 
 23 H       -2.3780     0.3720     1.3600 H     1 <1>   0.3700 
 24 H       -1.7940    -1.8210    -0.5610 H     1 <1>   0.0800 
 25 H       -2.0220     2.4760     1.9710 H     1 <1>   0.1500 
 26 H       -4.3110    -0.7810    -0.5210 H     1 <1>   0.0800 
 27 H       -1.3480    -1.8150     2.1060 H     1 <1>   0.0800 
 28 H       -2.0780    -3.2360     1.3680 H     1 <1>   0.0800 
 29 H        0.2670     2.4550    -2.4950 H     1 <1>   0.0800 
 30 H       -0.2080     4.1140    -2.7800 H     1 <1>   0.0800 
 31 H       -1.3700     2.8260    -2.9960 H     1 <1>   0.0800 
 32 H       -5.2080    -2.4180     1.5720 H     1 <1>   0.0800 
 33 H       -4.8120    -0.7180     1.7520 H     1 <1>   0.0800 
 34 H       -3.8050    -3.7620    -0.2590 H     1 <1>   0.0800 
 35 H       -3.6830    -2.8540    -1.7340 H     1 <1>   0.0800 
 36 H       -1.7630     4.8290     2.8360 H     1 <1>   0.0800 
 37 H       -2.0520     6.0020     1.5590 H     1 <1>   0.0800 
 38 H       -0.4100     5.6370     2.0560 H     1 <1>   0.0800 
 39 H       -5.8300    -1.5600    -2.5350 H     1 <1>   0.1500 
 40 H       -5.9850    -4.6470     0.3880 H     1 <1>   0.1500 
 41 H       -8.2160    -1.8830    -2.8760 H     1 <1>   0.1500 
 42 H       -8.3630    -4.8450    -0.0720 H     1 <1>   0.1500 
@<TRIPOS>BOND
  1   1   2  2   
  2   2   3  am  
  3   2   4  1   
  4   3   5  1   
  5   3  23  1   
  6   4   6  1   
  7   4   7  2   
  8   5   8  1   
  9   5   9  1   
 10   5  24  1   
 11   6  10  2   
 12   6  11  1   
 13   7  12  1   
 14   7  25  1   
 15   8  13  1   
 16   8  14  1   
 17   8  26  1   
 18   9  15  1   
 19   9  27  1   
 20   9  28  1   
 21  10  12  1   
 22  11  29  1   
 23  11  30  1   
 24  11  31  1   
 25  12  16  1   
 26  13  15  1   
 27  13  32  1   
 28  13  33  1   
 29  14  17  1   
 30  14  34  1   
 31  14  35  1   
 32  16  36  1   
 33  16  37  1   
 34  16  38  1   
 35  17  18  ar  
 36  17  19  ar  
 37  18  20  ar  
 38  18  39  1   
 39  19  21  ar  
 40  19  40  1   
 41  20  22  ar  
 42  20  41  1   
 43  21  22  ar  
 44  21  42  1   
@<TRIPOS>SUBSTRUCTURE
  1 ****   8 GROUP 4 **** **** 0

# MOE 2024.06 (io_trps.svl 2023.06)
