@<TRIPOS>MOLECULE
NONAME
48 49 1 0 0 
SMALL
USER_CHARGES


@<TRIPOS>ATOM
  1 CL      -0.7350    -3.6320    -2.1350 Cl    1 <1>  -0.1770 
  2 C       -1.7820    -2.9260    -0.9210 C.ar  1 <1>   0.1770 
  3 C       -1.3070    -2.1590     0.1500 C.ar  1 <1>   0.0820 
  4 C       -3.1280    -3.2010    -1.0510 C.ar  1 <1>  -0.1500 
  5 O       -0.0190    -1.8140     0.3900 O.3   1 <1>  -0.3630 
  6 C       -2.2280    -1.6970     1.0790 C.ar  1 <1>  -0.1500 
  7 C       -4.0530    -2.7450    -0.1150 C.ar  1 <1>   0.0860 
  8 C        0.9150    -1.5960    -0.6440 C.3   1 <1>   0.0400 
  9 C       -3.5740    -1.9790     0.9470 C.ar  1 <1>  -0.1500 
 10 C       -5.4560    -3.0740    -0.2450 C.2   1 <1>   0.5440 
 11 O       -6.0880    -2.6420    -1.1910 O.2   1 <1>  -0.5700 
 12 N       -6.1040    -3.8990     0.6480 N.am  1 <1>  -0.6600 
 13 C       -5.3760    -4.7400     1.6500 C.3   1 <1>   0.3210 
 14 C       -7.5430    -4.2410     0.4620 C.3   1 <1>   0.1400 
 15 C       -5.0360    -6.1150     1.0760 C.2   1 <1>   0.0460 
 16 C       -7.7450    -5.0040    -0.8600 C.3   1 <1>   0.3430 
 17 N       -5.9990    -7.0290     0.8080 N.2   1 <1>  -0.5650 
 18 C       -3.8090    -6.6130     0.7860 C.2   1 <1>  -0.3320 
 19 N       -9.0580    -5.7310    -0.9270 N.4   1 <1>  -0.9590 
 20 C       -5.3380    -8.0540     0.3730 C.2   1 <1>   0.0360 
 21 N       -4.0050    -7.8630     0.3320 N.pl3 1 <1>   0.0330 
 22 C       -2.4150    -6.0140     0.9100 C.3   1 <1>  -0.0600 
 23 C       -9.0320    -6.9350    -0.0360 C.3   1 <1>   0.2630 
 24 C       -9.3340    -6.1330    -2.3370 C.3   1 <1>   0.2630 
 25 H       -3.4700    -3.7860    -1.8870 H     1 <1>   0.1500 
 26 H       -1.8760    -1.1050     1.9070 H     1 <1>   0.1500 
 27 H        1.6940    -0.9610    -0.2620 H     1 <1>   0.0800 
 28 H        0.4260    -1.1150    -1.4720 H     1 <1>   0.0800 
 29 H        1.3370    -2.5400    -0.9390 H     1 <1>   0.0800 
 30 H       -4.2710    -1.6000     1.6750 H     1 <1>   0.1500 
 31 H       -5.9860    -4.8690     2.5260 H     1 <1>   0.0800 
 32 H       -4.4740    -4.2520     1.9660 H     1 <1>   0.0800 
 33 H       -8.1160    -3.3300     0.4410 H     1 <1>   0.0800 
 34 H       -7.8730    -4.8370     1.2930 H     1 <1>   0.0800 
 35 H       -6.9410    -5.7120    -0.9770 H     1 <1>   0.0800 
 36 H       -7.6810    -4.2940    -1.6680 H     1 <1>   0.0800 
 37 H       -9.8000    -5.0870    -0.6160 H     1 <1>   0.4500 
 38 H       -5.7830    -8.9860     0.0710 H     1 <1>   0.1500 
 39 H       -3.2920    -8.5360     0.0320 H     1 <1>   0.2700 
 40 H       -2.4520    -5.0210     1.3180 H     1 <1>   0.0800 
 41 H       -1.9440    -5.9670    -0.0550 H     1 <1>   0.0800 
 42 H       -1.8080    -6.6200     1.5600 H     1 <1>   0.0800 
 43 H       -8.2420    -7.6040    -0.3390 H     1 <1>   0.0800 
 44 H       -9.9710    -7.4610    -0.0850 H     1 <1>   0.0800 
 45 H       -8.8510    -6.6470     0.9870 H     1 <1>   0.0800 
 46 H       -8.5630    -6.7970    -2.6940 H     1 <1>   0.0800 
 47 H       -9.3610    -5.2630    -2.9750 H     1 <1>   0.0800 
 48 H      -10.2840    -6.6370    -2.4040 H     1 <1>   0.0800 
@<TRIPOS>BOND
  1   1   2  1   
  2   2   3  ar  
  3   2   4  ar  
  4   3   5  1   
  5   3   6  ar  
  6   4   7  ar  
  7   4  25  1   
  8   5   8  1   
  9   6   9  ar  
 10   6  26  1   
 11   7   9  ar  
 12   7  10  1   
 13   8  27  1   
 14   8  28  1   
 15   8  29  1   
 16   9  30  1   
 17  10  11  2   
 18  10  12  am  
 19  12  13  1   
 20  12  14  1   
 21  13  15  1   
 22  13  31  1   
 23  13  32  1   
 24  14  16  1   
 25  14  33  1   
 26  14  34  1   
 27  15  17  1   
 28  15  18  2   
 29  16  19  1   
 30  16  35  1   
 31  16  36  1   
 32  17  20  2   
 33  18  21  1   
 34  18  22  1   
 35  19  23  1   
 36  19  24  1   
 37  19  37  1   
 38  20  21  1   
 39  20  38  1   
 40  21  39  1   
 41  22  40  1   
 42  22  41  1   
 43  22  42  1   
 44  23  43  1   
 45  23  44  1   
 46  23  45  1   
 47  24  46  1   
 48  24  47  1   
 49  24  48  1   
@<TRIPOS>SUBSTRUCTURE
  1 ****  10 GROUP 4 **** **** 0

# MOE 2024.06 (io_trps.svl 2023.06)
