@<TRIPOS>MOLECULE
NONAME
54 56 1 0 0 
SMALL
USER_CHARGES


@<TRIPOS>ATOM
  1 O        1.3530     0.0990     1.8770 O.2   1 <1>  -0.5700 
  2 C        2.0470    -0.2680     0.9480 C.2   1 <1>   0.5440 
  3 N        1.5240    -1.1520     0.0240 N.am  1 <1>  -0.6600 
  4 C        3.4050     0.2330     0.8520 C.ar  1 <1>   0.0860 
  5 C        0.0780    -1.5130     0.0200 C.3   1 <1>   0.1400 
  6 C        2.3530    -1.9520    -0.9210 C.3   1 <1>   0.1400 
  7 C        3.8680     0.8830    -0.2910 C.ar  1 <1>  -0.1500 
  8 C        4.2960     0.0890     1.9130 C.ar  1 <1>  -0.1500 
  9 C       -0.0840    -3.0000     0.3530 C.3   1 <1>  -0.1600 
 10 C        2.2070    -3.4440    -0.6000 C.3   1 <1>  -0.1600 
 11 C        5.1650     1.3540    -0.3780 C.ar  1 <1>  -0.1500 
 12 C        5.5950     0.5580     1.8340 C.ar  1 <1>  -0.1500 
 13 C        0.7370    -3.8850    -0.5960 C.3   1 <1>  -0.1600 
 14 C        6.0420     1.1920     0.6840 C.ar  1 <1>  -0.1430 
 15 C        7.4650     1.7100     0.5940 C.3   1 <1>   0.3530 
 16 N        7.4110     3.1850     0.6380 N.pl3 1 <1>  -0.8690 
 17 C        8.1830     4.1590     0.1520 C.ar  1 <1>   0.7710 
 18 N        7.7410     5.3830     0.3260 N.ar  1 <1>  -0.6200 
 19 N        9.3410     3.8820    -0.4710 N.ar  1 <1>  -0.1790 
 20 C        8.4780     6.3820    -0.1250 C.ar  1 <1>   0.4100 
 21 C       10.1070     4.8750    -0.9820 C.ar  1 <1>   0.2110 
 22 N        8.0090     7.6310     0.1210 N.pl3 1 <1>  -0.8380 
 23 C        9.6900     6.1570    -0.8290 C.ar  1 <1>  -0.1430 
 24 C        6.5540     7.9460     0.0250 C.3   1 <1>   0.1290 
 25 C        8.7950     8.6570     0.8620 C.3   1 <1>   0.1290 
 26 C       10.4950     7.3040    -1.4380 C.3   1 <1>  -0.0970 
 27 H       -0.3290    -1.3110    -0.9550 H     1 <1>   0.0800 
 28 H       -0.4670    -0.9210     0.7350 H     1 <1>   0.0800 
 29 H        3.3910    -1.6800    -0.8540 H     1 <1>   0.0800 
 30 H        2.0190    -1.7610    -1.9270 H     1 <1>   0.0800 
 31 H        3.1900     1.0210    -1.1160 H     1 <1>   0.1500 
 32 H        3.9510    -0.3970     2.8100 H     1 <1>   0.1500 
 33 H       -1.1240    -3.2660     0.2890 H     1 <1>   0.0800 
 34 H        0.2330    -3.1600     1.3690 H     1 <1>   0.0800 
 35 H        2.6440    -3.6330     0.3650 H     1 <1>   0.0800 
 36 H        2.7550    -4.0190    -1.3260 H     1 <1>   0.0800 
 37 H        5.4830     1.8530    -1.2770 H     1 <1>   0.1500 
 38 H        6.2480     0.4260     2.6800 H     1 <1>   0.1500 
 39 H        0.3370    -3.8070    -1.5920 H     1 <1>   0.0800 
 40 H        0.6660    -4.9130    -0.2870 H     1 <1>   0.0800 
 41 H        7.9120     1.3690    -0.3230 H     1 <1>   0.0800 
 42 H        8.0430     1.3430     1.4270 H     1 <1>   0.0800 
 43 H        6.5550     3.5220     1.0980 H     1 <1>   0.4000 
 44 H        9.6030     2.9070    -0.5390 H     1 <1>   0.4570 
 45 H       11.0170     4.6170    -1.5000 H     1 <1>   0.1500 
 46 H        6.0530     7.2200    -0.5920 H     1 <1>   0.0800 
 47 H        6.4160     8.9200    -0.4130 H     1 <1>   0.0800 
 48 H        6.1110     7.9310     1.0060 H     1 <1>   0.0800 
 49 H        9.7260     8.2430     1.2060 H     1 <1>   0.0800 
 50 H        8.2410     8.9940     1.7220 H     1 <1>   0.0800 
 51 H        8.9930     9.4990     0.2220 H     1 <1>   0.0800 
 52 H        9.8340     7.9980    -1.9290 H     1 <1>   0.0800 
 53 H       11.2000     6.9450    -2.1670 H     1 <1>   0.0800 
 54 H       11.0390     7.8300    -0.6740 H     1 <1>   0.0800 
@<TRIPOS>BOND
  1   1   2  2   
  2   2   3  am  
  3   2   4  1   
  4   3   5  1   
  5   3   6  1   
  6   4   7  ar  
  7   4   8  ar  
  8   5   9  1   
  9   5  27  1   
 10   5  28  1   
 11   6  10  1   
 12   6  29  1   
 13   6  30  1   
 14   7  11  ar  
 15   7  31  1   
 16   8  12  ar  
 17   8  32  1   
 18   9  13  1   
 19   9  33  1   
 20   9  34  1   
 21  10  13  1   
 22  10  35  1   
 23  10  36  1   
 24  11  14  ar  
 25  11  37  1   
 26  12  14  ar  
 27  12  38  1   
 28  13  39  1   
 29  13  40  1   
 30  14  15  1   
 31  15  16  1   
 32  15  41  1   
 33  15  42  1   
 34  16  17  1   
 35  16  43  1   
 36  17  18  ar  
 37  17  19  ar  
 38  18  20  ar  
 39  19  21  ar  
 40  19  44  1   
 41  20  22  1   
 42  20  23  ar  
 43  21  23  ar  
 44  21  45  1   
 45  22  24  1   
 46  22  25  1   
 47  23  26  1   
 48  24  46  1   
 49  24  47  1   
 50  24  48  1   
 51  25  49  1   
 52  25  50  1   
 53  25  51  1   
 54  26  52  1   
 55  26  53  1   
 56  26  54  1   
@<TRIPOS>SUBSTRUCTURE
  1 ****  11 GROUP 4 **** **** 0

# MOE 2024.06 (io_trps.svl 2023.06)
