@<TRIPOS>MOLECULE
NONAME
58 60 1 0 0 
SMALL
USER_CHARGES


@<TRIPOS>ATOM
  1 O       -0.7630     0.1550    -0.5490 O.2   1 <1>  -0.5700 
  2 C       -1.5440     0.8270     0.0970 C.2   1 <1>   0.5440 
  3 N       -2.6860     0.2260     0.5790 N.am  1 <1>  -0.6600 
  4 C       -1.2670     2.2210     0.3150 C.ar  1 <1>   0.0860 
  5 C       -2.8040    -1.2650     0.6520 C.3   1 <1>   0.1400 
  6 C       -4.0220     0.8980     0.5580 C.3   1 <1>   0.1400 
  7 C       -1.6200     2.8860     1.4760 C.ar  1 <1>   0.1600 
  8 C       -0.6200     2.9980    -0.6290 C.ar  1 <1>   0.1600 
  9 C       -3.7690    -1.7920    -0.4230 C.3   1 <1>   0.3440 
 10 C       -4.9400     0.2630    -0.5160 C.3   1 <1>   0.2000 
 11 N       -1.4010     4.1630     1.6720 N.ar  1 <1>  -0.6200 
 12 N       -0.3820     4.2770    -0.4670 N.ar  1 <1>  -0.6200 
 13 O       -5.0010    -1.1270    -0.3200 O.3   1 <1>  -0.5600 
 14 C       -3.9810    -3.2940    -0.2620 C.ar  1 <1>  -0.1430 
 15 C       -6.3880     0.8400    -0.5570 C.3   1 <1>   0.0000 
 16 C       -0.7900     4.8030     0.6840 C.ar  1 <1>   0.7200 
 17 C       -4.9860    -3.8040     0.5490 C.ar  1 <1>  -0.1500 
 18 C       -3.1420    -4.1760    -0.9290 C.ar  1 <1>  -0.1500 
 19 C       -7.1600     0.5670     0.7480 C.3   1 <1>  -0.2400 
 20 C       -7.1630     0.1910    -1.7190 C.3   1 <1>  -0.2400 
 21 C       -6.3690     2.3600    -0.8030 C.3   1 <1>  -0.2400 
 22 N       -0.5810     6.1130     0.9130 N.pl3 1 <1>  -0.8690 
 23 C       -5.1490    -5.1710     0.6920 C.ar  1 <1>  -0.1500 
 24 C       -3.3040    -5.5440    -0.7870 C.ar  1 <1>  -0.1500 
 25 C        0.1330     7.0710     0.0700 C.3   1 <1>   0.2890 
 26 C       -4.3080    -6.0420     0.0240 C.ar  1 <1>  -0.1500 
 27 C        1.3270     7.5910     0.8610 C.3   1 <1>  -0.2400 
 28 C       -0.8320     8.1950    -0.2820 C.3   1 <1>  -0.2400 
 29 H       -1.8420    -1.7300     0.5230 H     1 <1>   0.0800 
 30 H       -3.1730    -1.5470     1.6220 H     1 <1>   0.0800 
 31 H       -4.4760     0.8010     1.5280 H     1 <1>   0.0800 
 32 H       -3.9060     1.9450     0.3460 H     1 <1>   0.0800 
 33 H       -2.1010     2.3340     2.2650 H     1 <1>   0.1500 
 34 H       -0.2960     2.5360    -1.5460 H     1 <1>   0.1500 
 35 H       -3.3640    -1.5930    -1.4000 H     1 <1>   0.0800 
 36 H       -4.4910     0.4310    -1.4800 H     1 <1>   0.0800 
 37 H       -5.6480    -3.1340     1.0700 H     1 <1>   0.1500 
 38 H       -2.3560    -3.8030    -1.5630 H     1 <1>   0.1500 
 39 H       -8.1730     0.9190     0.6650 H     1 <1>   0.0800 
 40 H       -6.7040     1.0630     1.5850 H     1 <1>   0.0800 
 41 H       -7.1900    -0.4890     0.9520 H     1 <1>   0.0800 
 42 H       -8.1580     0.5930    -1.7890 H     1 <1>   0.0800 
 43 H       -7.2430    -0.8720    -1.5730 H     1 <1>   0.0800 
 44 H       -6.6600     0.3640    -2.6540 H     1 <1>   0.0800 
 45 H       -7.3700     2.7310    -0.9350 H     1 <1>   0.0800 
 46 H       -5.8070     2.5930    -1.6910 H     1 <1>   0.0800 
 47 H       -5.9350     2.8870     0.0270 H     1 <1>   0.0800 
 48 H       -0.8920     6.4440     1.8220 H     1 <1>   0.4000 
 49 H       -5.9330    -5.5550     1.3220 H     1 <1>   0.1500 
 50 H       -2.6490    -6.2200    -1.3080 H     1 <1>   0.1500 
 51 H        0.4790     6.5960    -0.8340 H     1 <1>   0.0800 
 52 H       -4.4340    -7.1050     0.1340 H     1 <1>   0.1500 
 53 H        1.0040     8.0740     1.7660 H     1 <1>   0.0800 
 54 H        1.8770     8.2990     0.2690 H     1 <1>   0.0800 
 55 H        1.9820     6.7740     1.1070 H     1 <1>   0.0800 
 56 H       -1.1890     8.6840     0.6060 H     1 <1>   0.0800 
 57 H       -1.6680     7.7960    -0.8280 H     1 <1>   0.0800 
 58 H       -0.3380     8.9200    -0.9020 H     1 <1>   0.0800 
@<TRIPOS>BOND
  1   1   2  2   
  2   2   3  am  
  3   2   4  1   
  4   3   5  1   
  5   3   6  1   
  6   4   7  ar  
  7   4   8  ar  
  8   5   9  1   
  9   5  29  1   
 10   5  30  1   
 11   6  10  1   
 12   6  31  1   
 13   6  32  1   
 14   7  11  ar  
 15   7  33  1   
 16   8  12  ar  
 17   8  34  1   
 18   9  13  1   
 19   9  14  1   
 20   9  35  1   
 21  10  13  1   
 22  10  15  1   
 23  10  36  1   
 24  11  16  ar  
 25  12  16  ar  
 26  14  17  ar  
 27  14  18  ar  
 28  15  19  1   
 29  15  20  1   
 30  15  21  1   
 31  16  22  1   
 32  17  23  ar  
 33  17  37  1   
 34  18  24  ar  
 35  18  38  1   
 36  19  39  1   
 37  19  40  1   
 38  19  41  1   
 39  20  42  1   
 40  20  43  1   
 41  20  44  1   
 42  21  45  1   
 43  21  46  1   
 44  21  47  1   
 45  22  25  1   
 46  22  48  1   
 47  23  26  ar  
 48  23  49  1   
 49  24  26  ar  
 50  24  50  1   
 51  25  27  1   
 52  25  28  1   
 53  25  51  1   
 54  26  52  1   
 55  27  53  1   
 56  27  54  1   
 57  27  55  1   
 58  28  56  1   
 59  28  57  1   
 60  28  58  1   
@<TRIPOS>SUBSTRUCTURE
  1 ****   3 GROUP 4 **** **** 0

# MOE 2024.06 (io_trps.svl 2023.06)
