@<TRIPOS>MOLECULE
NONAME
44 45 1 0 0 
SMALL
USER_CHARGES


@<TRIPOS>ATOM
  1 F       -0.3710    -2.0660     0.3080 F     1 <1>  -0.3400 
  2 C       -1.3440    -2.0920     1.2090 C.3   1 <1>   1.1640 
  3 F       -1.1410    -3.1770     1.9460 F     1 <1>  -0.3400 
  4 F       -1.1350    -1.0560     2.0140 F     1 <1>  -0.3400 
  5 C       -2.7350    -2.0840     0.5550 C.ar  1 <1>  -0.1440 
  6 C       -3.2030    -3.2210    -0.0940 C.ar  1 <1>  -0.1500 
  7 C       -3.5500    -0.9560     0.5870 C.ar  1 <1>  -0.1500 
  8 C       -4.4550    -3.2630    -0.7030 C.ar  1 <1>   0.0860 
  9 C       -4.7960    -0.9720    -0.0160 C.ar  1 <1>  -0.1500 
 10 C       -4.9210    -4.4620    -1.3690 C.2   1 <1>   0.5440 
 11 C       -5.2400    -2.1140    -0.6540 C.ar  1 <1>  -0.1500 
 12 O       -4.4450    -4.7540    -2.4500 O.2   1 <1>  -0.5700 
 13 N       -5.8790    -5.2770    -0.8070 N.am  1 <1>  -0.6600 
 14 C       -6.3710    -6.4990    -1.5390 C.3   1 <1>   0.1400 
 15 C       -6.4440    -5.0590     0.5650 C.3   1 <1>   0.1400 
 16 C       -6.9860    -7.5140    -0.5650 C.3   1 <1>   0.2000 
 17 C       -7.9280    -5.4300     0.5630 C.3   1 <1>  -0.1600 
 18 O       -7.3750    -8.6740    -1.2150 O.3   1 <1>  -0.6800 
 19 C       -8.1570    -6.9510     0.2840 C.3   1 <1>  -0.1060 
 20 C       -8.0630    -7.7840     1.5750 C.2   1 <1>   0.9060 
 21 C       -9.5860    -7.1320    -0.3280 C.3   1 <1>  -0.1600 
 22 O       -7.7080    -7.2550     2.6350 O.co2 1 <1>  -0.9000 
 23 O       -8.2800    -9.0030     1.4970 O.co2 1 <1>  -0.9000 
 24 C       -9.8090    -6.6090    -1.7610 C.3   1 <1>  -0.1600 
 25 C      -11.2680    -6.7950    -2.1860 C.3   1 <1>  -0.2400 
 26 H       -2.5940    -4.1090    -0.1430 H     1 <1>   0.1500 
 27 H       -3.2230    -0.0530     1.0770 H     1 <1>   0.1500 
 28 H       -5.4180    -0.0930     0.0110 H     1 <1>   0.1500 
 29 H       -6.2080    -2.1270    -1.1260 H     1 <1>   0.1500 
 30 H       -7.1020    -6.1960    -2.2640 H     1 <1>   0.0800 
 31 H       -5.5480    -6.9650    -2.0510 H     1 <1>   0.0800 
 32 H       -5.9190    -5.6750     1.2770 H     1 <1>   0.0800 
 33 H       -6.3390    -4.0340     0.8690 H     1 <1>   0.0800 
 34 H       -6.1880    -7.8100     0.0980 H     1 <1>   0.0800 
 35 H       -8.3630    -5.1650     1.5100 H     1 <1>   0.0800 
 36 H       -8.4070    -4.8160    -0.1730 H     1 <1>   0.0800 
 37 H       -7.7890    -9.2370    -0.5110 H     1 <1>   0.4000 
 38 H       -9.8310    -8.1810    -0.3270 H     1 <1>   0.0800 
 39 H      -10.2910    -6.6590     0.3330 H     1 <1>   0.0800 
 40 H       -9.5590    -5.5670    -1.8370 H     1 <1>   0.0800 
 41 H       -9.1820    -7.1540    -2.4440 H     1 <1>   0.0800 
 42 H      -11.9230    -6.2460    -1.5330 H     1 <1>   0.0800 
 43 H      -11.5350    -7.8370    -2.1490 H     1 <1>   0.0800 
 44 H      -11.4070    -6.4410    -3.1920 H     1 <1>   0.0800 
@<TRIPOS>BOND
  1   1   2  1   
  2   2   3  1   
  3   2   4  1   
  4   2   5  1   
  5   5   6  ar  
  6   5   7  ar  
  7   6   8  ar  
  8   6  26  1   
  9   7   9  ar  
 10   7  27  1   
 11   8  10  1   
 12   8  11  ar  
 13   9  11  ar  
 14   9  28  1   
 15  10  12  2   
 16  10  13  am  
 17  11  29  1   
 18  13  14  1   
 19  13  15  1   
 20  14  16  1   
 21  14  30  1   
 22  14  31  1   
 23  15  17  1   
 24  15  32  1   
 25  15  33  1   
 26  16  18  1   
 27  16  19  1   
 28  16  34  1   
 29  17  19  1   
 30  17  35  1   
 31  17  36  1   
 32  18  37  1   
 33  19  20  1   
 34  19  21  1   
 35  20  22  ar  
 36  20  23  ar  
 37  21  24  1   
 38  21  38  1   
 39  21  39  1   
 40  24  25  1   
 41  24  40  1   
 42  24  41  1   
 43  25  42  1   
 44  25  43  1   
 45  25  44  1   
@<TRIPOS>SUBSTRUCTURE
  1 ****  13 GROUP 4 **** **** 0

# MOE 2024.06 (io_trps.svl 2023.06)
