@<TRIPOS>MOLECULE
NONAME
52 55 1 0 0 
SMALL
USER_CHARGES


@<TRIPOS>ATOM
  1 O        1.1940     0.9840     1.9310 O.co2 1 <1>  -0.9000 
  2 C        1.5100     0.2270     1.0060 C.2   1 <1>   0.9060 
  3 O        1.5240    -1.0030     1.1700 O.co2 1 <1>  -0.9000 
  4 C        1.9160     0.7910    -0.3710 C.3   1 <1>  -0.1060 
  5 C        3.2340     0.1130    -0.8280 C.3   1 <1>   0.2000 
  6 C        2.1950     2.3210    -0.3060 C.3   1 <1>  -0.1600 
  7 C        0.8010     0.4810    -1.4070 C.3   1 <1>  -0.0160 
  8 O        3.0750    -1.2620    -0.8710 O.3   1 <1>  -0.6800 
  9 C        4.4140     0.4600     0.0920 C.3   1 <1>   0.1400 
 10 C        3.3820     2.6640     0.6040 C.3   1 <1>   0.1400 
 11 C       -0.4070     1.4150    -1.3640 C.ar  1 <1>  -0.1440 
 12 N        4.6050     1.9470     0.1360 N.am  1 <1>  -0.6600 
 13 C       -1.2770     1.3950    -0.2850 C.ar  1 <1>  -0.1500 
 14 C       -0.6500     2.2940    -2.4100 C.ar  1 <1>  -0.1500 
 15 C        5.8000     2.5250    -0.2200 C.2   1 <1>   0.5690 
 16 C       -2.3710     2.2410    -0.2480 C.ar  1 <1>  -0.1500 
 17 C       -1.7450     3.1410    -2.3770 C.ar  1 <1>  -0.1500 
 18 O        6.7250     1.8590    -0.6250 O.2   1 <1>  -0.5700 
 19 C        6.0010     4.0380    -0.1120 C.3   1 <1>  -0.0190 
 20 C       -2.6070     3.1150    -1.2940 C.ar  1 <1>  -0.1500 
 21 C        7.2170     4.6130    -0.8710 C.3   1 <1>  -0.0170 
 22 C        6.1670     4.5230     1.3420 C.3   1 <1>  -0.0170 
 23 C        7.5650     5.8370    -0.0590 C.ar  1 <1>  -0.1430 
 24 C        6.9800     5.7850     1.1820 C.ar  1 <1>  -0.1430 
 25 C        8.3560     6.9100    -0.4240 C.ar  1 <1>  -0.1500 
 26 C        7.1680     6.8040     2.0970 C.ar  1 <1>  -0.1500 
 27 C        8.5490     7.9390     0.4850 C.ar  1 <1>  -0.1500 
 28 C        7.9580     7.8860     1.7400 C.ar  1 <1>  -0.1500 
 29 H        3.4880     0.4270    -1.8250 H     1 <1>   0.0800 
 30 H        1.3270     2.8280     0.0800 H     1 <1>   0.0800 
 31 H        2.3850     2.7060    -1.2910 H     1 <1>   0.0800 
 32 H        1.2230     0.5190    -2.3940 H     1 <1>   0.0800 
 33 H        0.4570    -0.5300    -1.2630 H     1 <1>   0.0800 
 34 H        2.5100    -1.4920    -0.0700 H     1 <1>   0.4000 
 35 H        5.2990    -0.0270    -0.2770 H     1 <1>   0.0800 
 36 H        4.2180     0.1020     1.0880 H     1 <1>   0.0800 
 37 H        3.1710     2.3670     1.6180 H     1 <1>   0.0800 
 38 H        3.5170     3.7280     0.6070 H     1 <1>   0.0800 
 39 H       -1.0990     0.7220     0.5400 H     1 <1>   0.1500 
 40 H        0.0140     2.3220    -3.2540 H     1 <1>   0.1500 
 41 H       -3.0310     2.2160     0.6010 H     1 <1>   0.1500 
 42 H       -1.9260     3.8180    -3.1920 H     1 <1>   0.1500 
 43 H        5.1410     4.5260    -0.5290 H     1 <1>   0.0800 
 44 H       -3.4570     3.7730    -1.2640 H     1 <1>   0.1500 
 45 H        6.9690     4.8570    -1.8880 H     1 <1>   0.0800 
 46 H        8.0560     3.9390    -0.8510 H     1 <1>   0.0800 
 47 H        6.7270     3.8070     1.9190 H     1 <1>   0.0800 
 48 H        5.2220     4.7160     1.8150 H     1 <1>   0.0800 
 49 H        8.8140     6.9460    -1.3960 H     1 <1>   0.1500 
 50 H        6.7100     6.7600     3.0680 H     1 <1>   0.1500 
 51 H        9.1620     8.7820     0.2160 H     1 <1>   0.1500 
 52 H        8.1150     8.6880     2.4400 H     1 <1>   0.1500 
@<TRIPOS>BOND
  1   1   2  ar  
  2   2   3  ar  
  3   2   4  1   
  4   4   5  1   
  5   4   6  1   
  6   4   7  1   
  7   5   8  1   
  8   5   9  1   
  9   5  29  1   
 10   6  10  1   
 11   6  30  1   
 12   6  31  1   
 13   7  11  1   
 14   7  32  1   
 15   7  33  1   
 16   8  34  1   
 17   9  12  1   
 18   9  35  1   
 19   9  36  1   
 20  10  12  1   
 21  10  37  1   
 22  10  38  1   
 23  11  13  ar  
 24  11  14  ar  
 25  12  15  am  
 26  13  16  ar  
 27  13  39  1   
 28  14  17  ar  
 29  14  40  1   
 30  15  18  2   
 31  15  19  1   
 32  16  20  ar  
 33  16  41  1   
 34  17  20  ar  
 35  17  42  1   
 36  19  21  1   
 37  19  22  1   
 38  19  43  1   
 39  20  44  1   
 40  21  23  1   
 41  21  45  1   
 42  21  46  1   
 43  22  24  1   
 44  22  47  1   
 45  22  48  1   
 46  23  24  ar  
 47  23  25  ar  
 48  24  26  ar  
 49  25  27  ar  
 50  25  49  1   
 51  26  28  ar  
 52  26  50  1   
 53  27  28  ar  
 54  27  51  1   
 55  28  52  1   
@<TRIPOS>SUBSTRUCTURE
  1 ****  10 GROUP 4 **** **** 0

# MOE 2024.06 (io_trps.svl 2023.06)
