@<TRIPOS>MOLECULE
NONAME
57 59 1 0 0 
SMALL
USER_CHARGES


@<TRIPOS>ATOM
  1 O       -3.9650     1.6110    -2.5050 O.2   1 <1>  -0.5700 
  2 C       -3.2970     1.2450    -1.5630 C.2   1 <1>   0.5690 
  3 N       -3.6910     0.1650    -0.8060 N.am  1 <1>  -0.6600 
  4 C       -1.9980     2.0030    -1.2930 C.3   1 <1>   0.1810 
  5 C       -2.9060    -0.3280     0.3830 C.3   1 <1>   0.3640 
  6 C       -4.9870    -0.5050    -1.1230 C.3   1 <1>   0.1400 
  7 O       -2.0650     2.7390    -0.0770 O.3   1 <1>  -0.3630 
  8 C       -1.5880    -0.9480    -0.0930 C.ar  1 <1>  -0.1440 
  9 C       -3.6390    -1.3350     1.3280 C.3   1 <1>   0.2000 
 10 C       -5.1570    -1.8390    -0.3960 C.3   1 <1>   0.1200 
 11 C       -1.0320     2.6970     0.8100 C.ar  1 <1>   0.0830 
 12 C       -0.4220    -0.6980     0.6160 C.ar  1 <1>  -0.1500 
 13 C       -1.5160    -1.7480    -1.2240 C.ar  1 <1>  -0.1500 
 14 O       -4.9610    -1.6350     0.9630 O.3   1 <1>  -0.5600 
 15 C       -3.7010    -0.8270     2.7760 C.3   1 <1>   0.1200 
 16 C        0.3270     2.6610     0.4620 C.ar  1 <1>   0.0830 
 17 C       -1.3980     2.6620     2.1460 C.ar  1 <1>  -0.1500 
 18 C        0.7950    -1.2200     0.2150 C.ar  1 <1>   0.0830 
 19 C       -0.3060    -2.2730    -1.6440 C.ar  1 <1>  -0.1500 
 20 O       -2.4250    -0.6190     3.2910 O.3   1 <1>  -0.6800 
 21 O        0.7020     2.7390    -0.8470 O.3   1 <1>  -0.3630 
 22 C        1.2800     2.5560     1.4720 C.ar  1 <1>  -0.1500 
 23 C       -0.4420     2.5570     3.1390 C.ar  1 <1>  -0.1500 
 24 O        1.8590    -0.8950     1.0010 O.3   1 <1>  -0.3620 
 25 C        0.8670    -2.0100    -0.9420 C.ar  1 <1>   0.0830 
 26 C        1.8730     2.0820    -1.2840 C.3   1 <1>   0.0400 
 27 C        0.8980     2.5010     2.8010 C.ar  1 <1>  -0.1500 
 28 C        2.8290    -1.8700     1.3130 C.3   1 <1>   0.0400 
 29 O        2.0770    -2.4790    -1.3650 O.3   1 <1>  -0.3630 
 30 C        2.2250    -3.1830    -2.5790 C.3   1 <1>   0.0400 
 31 H       -1.8110     2.7040    -2.0850 H     1 <1>   0.0800 
 32 H       -1.1880     1.3030    -1.2530 H     1 <1>   0.0800 
 33 H       -2.6610     0.5320     0.9770 H     1 <1>   0.0800 
 34 H       -5.7920     0.1520    -0.8440 H     1 <1>   0.0800 
 35 H       -5.0530    -0.6690    -2.1850 H     1 <1>   0.0800 
 36 H       -3.1060    -2.2700     1.3250 H     1 <1>   0.0800 
 37 H       -4.4610    -2.5780    -0.7520 H     1 <1>   0.0800 
 38 H       -6.1580    -2.2080    -0.5330 H     1 <1>   0.0800 
 39 H       -0.4430    -0.0800     1.4980 H     1 <1>   0.1500 
 40 H       -2.4030    -1.9600    -1.7950 H     1 <1>   0.1500 
 41 H       -4.2040    -1.5410     3.4040 H     1 <1>   0.0800 
 42 H       -4.2250     0.1130     2.8120 H     1 <1>   0.0800 
 43 H       -2.4400     2.7030     2.4070 H     1 <1>   0.1500 
 44 H       -0.3040    -2.8800    -2.5290 H     1 <1>   0.1500 
 45 H       -1.9500    -1.4660     3.4100 H     1 <1>   0.4000 
 46 H        2.3270     2.5220     1.2400 H     1 <1>   0.1500 
 47 H       -0.7420     2.5160     4.1720 H     1 <1>   0.1500 
 48 H        1.8530     2.0420    -2.3580 H     1 <1>   0.0800 
 49 H        1.8880     1.0840    -0.8820 H     1 <1>   0.0800 
 50 H        2.7320     2.6400    -0.9570 H     1 <1>   0.0800 
 51 H        1.6430     2.4150     3.5710 H     1 <1>   0.1500 
 52 H        3.3090    -1.5830     2.2300 H     1 <1>   0.0800 
 53 H        3.5540    -1.9060     0.5200 H     1 <1>   0.0800 
 54 H        2.3460    -2.8240     1.4310 H     1 <1>   0.0800 
 55 H        3.2680    -3.4040    -2.7110 H     1 <1>   0.0800 
 56 H        1.8790    -2.5620    -3.3870 H     1 <1>   0.0800 
 57 H        1.6620    -4.0980    -2.5240 H     1 <1>   0.0800 
@<TRIPOS>BOND
  1   1   2  2   
  2   2   3  am  
  3   2   4  1   
  4   3   5  1   
  5   3   6  1   
  6   4   7  1   
  7   4  31  1   
  8   4  32  1   
  9   5   8  1   
 10   5   9  1   
 11   5  33  1   
 12   6  10  1   
 13   6  34  1   
 14   6  35  1   
 15   7  11  1   
 16   8  12  ar  
 17   8  13  ar  
 18   9  14  1   
 19   9  15  1   
 20   9  36  1   
 21  10  14  1   
 22  10  37  1   
 23  10  38  1   
 24  11  16  ar  
 25  11  17  ar  
 26  12  18  ar  
 27  12  39  1   
 28  13  19  ar  
 29  13  40  1   
 30  15  20  1   
 31  15  41  1   
 32  15  42  1   
 33  16  21  1   
 34  16  22  ar  
 35  17  23  ar  
 36  17  43  1   
 37  18  24  1   
 38  18  25  ar  
 39  19  25  ar  
 40  19  44  1   
 41  20  45  1   
 42  21  26  1   
 43  22  27  ar  
 44  22  46  1   
 45  23  27  ar  
 46  23  47  1   
 47  24  28  1   
 48  25  29  1   
 49  26  48  1   
 50  26  49  1   
 51  26  50  1   
 52  27  51  1   
 53  28  52  1   
 54  28  53  1   
 55  28  54  1   
 56  29  30  1   
 57  30  55  1   
 58  30  56  1   
 59  30  57  1   
@<TRIPOS>SUBSTRUCTURE
  1 ****  12 GROUP 4 **** **** 0

# MOE 2024.06 (io_trps.svl 2023.06)
