@<TRIPOS>MOLECULE
NONAME
40 42 1 0 0 
SMALL
USER_CHARGES


@<TRIPOS>ATOM
  1 O       -0.4070     0.0020     2.1830 O.2   1 <1>  -0.5700 
  2 C       -1.0380     0.7230     1.4460 C.2   1 <1>   0.5690 
  3 N       -1.8310     0.2060     0.4540 N.am  1 <1>  -0.6600 
  4 C       -0.9460     2.2200     1.6940 C.3   1 <1>   0.1570 
  5 C       -2.6140     0.9700    -0.5520 C.3   1 <1>   0.1400 
  6 C       -1.9620    -1.2500     0.2110 C.3   1 <1>   0.1400 
  7 N       -0.4200     2.9500     0.5220 N.pl3 1 <1>   0.0480 
  8 C       -3.3530    -0.0860    -1.3800 C.3   1 <1>   0.2000 
  9 C       -3.2540    -1.3930    -0.5930 C.3   1 <1>  -0.0800 
 10 C        0.6920     2.6460    -0.2000 C.2   1 <1>  -0.3020 
 11 C       -0.9770     4.0520    -0.0520 C.2   1 <1>  -0.3020 
 12 O       -4.6860     0.2520    -1.5570 O.3   1 <1>  -0.6800 
 13 C       -3.2960    -2.6340    -1.5010 C.3   1 <1>  -0.0170 
 14 C        0.8350     3.5370    -1.2160 C.2   1 <1>  -0.1500 
 15 C       -0.2320     4.4350    -1.1210 C.2   1 <1>  -0.1500 
 16 C       -3.2240    -3.9210    -0.6960 C.ar  1 <1>   0.1670 
 17 N       -2.0120    -4.3440    -0.3710 N.ar  1 <1>  -0.6200 
 18 C       -4.3940    -4.5760    -0.3440 C.ar  1 <1>  -0.1500 
 19 C       -1.9640    -5.4610     0.3360 C.ar  1 <1>   0.1600 
 20 C       -4.3300    -5.7400     0.3920 C.ar  1 <1>  -0.1500 
 21 C       -3.0730    -6.1860     0.7380 C.ar  1 <1>  -0.1500 
 22 H       -0.2910     2.3990     2.5250 H     1 <1>   0.0800 
 23 H       -1.9200     2.5960     1.9370 H     1 <1>   0.0800 
 24 H       -3.3030     1.6300    -0.0560 H     1 <1>   0.0800 
 25 H       -1.9510     1.5330    -1.1860 H     1 <1>   0.0800 
 26 H       -1.1130    -1.5890    -0.3600 H     1 <1>   0.0800 
 27 H       -2.0060    -1.8000     1.1360 H     1 <1>   0.0800 
 28 H       -2.8930    -0.1720    -2.3500 H     1 <1>   0.0800 
 29 H       -4.0600    -1.4490     0.1180 H     1 <1>   0.0800 
 30 H        1.3240     1.8090     0.0440 H     1 <1>   0.1500 
 31 H       -1.8730     4.5120     0.3260 H     1 <1>   0.1500 
 32 H       -5.1410     0.2970    -0.6940 H     1 <1>   0.4000 
 33 H       -2.4750    -2.6110    -2.1960 H     1 <1>   0.0800 
 34 H       -4.2050    -2.6220    -2.0750 H     1 <1>   0.0800 
 35 H        1.6090     3.5690    -1.9620 H     1 <1>   0.1500 
 36 H       -0.4020     5.2660    -1.7840 H     1 <1>   0.1500 
 37 H       -5.3490    -4.1810    -0.6400 H     1 <1>   0.1500 
 38 H       -0.9870    -5.8190     0.6110 H     1 <1>   0.1500 
 39 H       -5.2180    -6.2730     0.6840 H     1 <1>   0.1500 
 40 H       -2.9500    -7.0860     1.3120 H     1 <1>   0.1500 
@<TRIPOS>BOND
  1   1   2  2   
  2   2   3  am  
  3   2   4  1   
  4   3   5  1   
  5   3   6  1   
  6   4   7  1   
  7   4  22  1   
  8   4  23  1   
  9   5   8  1   
 10   5  24  1   
 11   5  25  1   
 12   6   9  1   
 13   6  26  1   
 14   6  27  1   
 15   7  10  1   
 16   7  11  1   
 17   8   9  1   
 18   8  12  1   
 19   8  28  1   
 20   9  13  1   
 21   9  29  1   
 22  10  14  2   
 23  10  30  1   
 24  11  15  2   
 25  11  31  1   
 26  12  32  1   
 27  13  16  1   
 28  13  33  1   
 29  13  34  1   
 30  14  15  1   
 31  14  35  1   
 32  15  36  1   
 33  16  17  ar  
 34  16  18  ar  
 35  17  19  ar  
 36  18  20  ar  
 37  18  37  1   
 38  19  21  ar  
 39  19  38  1   
 40  20  21  ar  
 41  20  39  1   
 42  21  40  1   
@<TRIPOS>SUBSTRUCTURE
  1 ****   6 GROUP 4 **** **** 0

# MOE 2024.06 (io_trps.svl 2023.06)
