@<TRIPOS>MOLECULE
NONAME
48 49 1 0 0 
SMALL
USER_CHARGES


@<TRIPOS>ATOM
  1 S       -0.1660     0.3430    -0.6860 S.o2  1 <1>   1.3330 
  2 O        0.0460     1.1920    -1.8360 O.2   1 <1>  -0.6500 
  3 O       -0.9330    -0.8740    -0.8220 O.2   1 <1>  -0.6500 
  4 N        1.3610    -0.0960    -0.0780 N.am  1 <1>  -0.8490 
  5 C       -0.8700     1.3280     0.6450 C.3   1 <1>  -0.0550 
  6 C        2.3310    -0.3350    -1.1530 C.3   1 <1>   0.1160 
  7 C        1.3190    -1.2650     0.8100 C.3   1 <1>   0.1160 
  8 C       -0.3300     2.7650     0.8230 C.3   1 <1>  -0.0800 
  9 C       -0.8590     3.7650    -0.2050 C.3   1 <1>   0.2000 
 10 C        1.1850     2.9510     0.7790 C.3   1 <1>   0.2090 
 11 O       -2.1040     4.2210     0.2080 O.3   1 <1>  -0.6800 
 12 C        0.1760     4.8950    -0.2480 C.3   1 <1>   0.2090 
 13 N        1.3700     4.3900     0.4940 N.pl3 1 <1>  -0.8380 
 14 C        2.6100     4.9710     0.3030 C.ar  1 <1>   0.4100 
 15 N        2.6240     6.1650    -0.2830 N.ar  1 <1>  -0.6200 
 16 C        3.7870     4.3370     0.7050 C.ar  1 <1>  -0.1500 
 17 C        3.8070     6.7190    -0.4790 C.ar  1 <1>   0.1600 
 18 C        5.0080     4.9280     0.4940 C.ar  1 <1>  -0.1500 
 19 C        5.0390     6.1770    -0.1210 C.ar  1 <1>   0.0860 
 20 C        6.2650     6.8950    -0.3890 C.2   1 <1>   0.5440 
 21 O        6.2910     7.7890    -1.2120 O.2   1 <1>  -0.5700 
 22 N        7.4180     6.5990     0.2870 N.am  1 <1>  -0.7300 
 23 C        8.7190     7.2620     0.0760 C.3   1 <1>   0.1400 
 24 C        9.8260     6.2280     0.2450 C.3   1 <1>  -0.2400 
 25 H       -1.9290     1.3990     0.4870 H     1 <1>   0.0800 
 26 H       -0.7310     0.7980     1.5660 H     1 <1>   0.0800 
 27 H        3.2880    -0.6070    -0.7410 H     1 <1>   0.0800 
 28 H        2.4600     0.5580    -1.7410 H     1 <1>   0.0800 
 29 H        1.9850    -1.1260    -1.7990 H     1 <1>   0.0800 
 30 H        2.2920    -1.4440     1.2330 H     1 <1>   0.0800 
 31 H        1.0080    -2.1420     0.2650 H     1 <1>   0.0800 
 32 H        0.6250    -1.0980     1.6160 H     1 <1>   0.0800 
 33 H       -0.6360     3.1050     1.7980 H     1 <1>   0.0800 
 34 H       -0.9660     3.3330    -1.1840 H     1 <1>   0.0800 
 35 H        1.6370     2.3980    -0.0250 H     1 <1>   0.0800 
 36 H        1.6380     2.6770     1.7160 H     1 <1>   0.0800 
 37 H       -2.0120     4.7390     1.0320 H     1 <1>   0.4000 
 38 H       -0.1890     5.7880     0.2280 H     1 <1>   0.0800 
 39 H        0.4410     5.1110    -1.2690 H     1 <1>   0.0800 
 40 H        3.7390     3.3790     1.1820 H     1 <1>   0.1500 
 41 H        3.8090     7.6830    -0.9600 H     1 <1>   0.1500 
 42 H        5.9140     4.4330     0.7920 H     1 <1>   0.1500 
 43 H        7.3860     5.9460     1.0680 H     1 <1>   0.3700 
 44 H        8.7600     7.6870    -0.9150 H     1 <1>   0.0800 
 45 H        8.8360     8.0570     0.7930 H     1 <1>   0.0800 
 46 H        9.7080     5.4380    -0.4750 H     1 <1>   0.0800 
 47 H        9.8130     5.8190     1.2390 H     1 <1>   0.0800 
 48 H       10.7810     6.6950     0.0810 H     1 <1>   0.0800 
@<TRIPOS>BOND
  1   1   2  2   
  2   1   3  2   
  3   1   4  am  
  4   1   5  1   
  5   4   6  1   
  6   4   7  1   
  7   5   8  1   
  8   5  25  1   
  9   5  26  1   
 10   6  27  1   
 11   6  28  1   
 12   6  29  1   
 13   7  30  1   
 14   7  31  1   
 15   7  32  1   
 16   8   9  1   
 17   8  10  1   
 18   8  33  1   
 19   9  11  1   
 20   9  12  1   
 21   9  34  1   
 22  10  13  1   
 23  10  35  1   
 24  10  36  1   
 25  11  37  1   
 26  12  13  1   
 27  12  38  1   
 28  12  39  1   
 29  13  14  1   
 30  14  15  ar  
 31  14  16  ar  
 32  15  17  ar  
 33  16  18  ar  
 34  16  40  1   
 35  17  19  ar  
 36  17  41  1   
 37  18  19  ar  
 38  18  42  1   
 39  19  20  1   
 40  20  21  2   
 41  20  22  am  
 42  22  23  1   
 43  22  43  1   
 44  23  24  1   
 45  23  44  1   
 46  23  45  1   
 47  24  46  1   
 48  24  47  1   
 49  24  48  1   
@<TRIPOS>SUBSTRUCTURE
  1 ****  14 GROUP 4 **** **** 0

# MOE 2024.06 (io_trps.svl 2023.06)
