@<TRIPOS>MOLECULE
NONAME
53 56 1 0 0 
SMALL
USER_CHARGES


@<TRIPOS>ATOM
  1 F        1.7070    -0.0650    -1.0660 F     1 <1>  -0.1900 
  2 C        2.7270    -0.5220    -0.3810 C.ar  1 <1>   0.1900 
  3 C        2.5800    -1.6760     0.3720 C.ar  1 <1>   0.1900 
  4 C        3.9360     0.1570    -0.4230 C.ar  1 <1>  -0.1440 
  5 F        1.4320    -2.3040     0.4020 F     1 <1>  -0.1900 
  6 C        3.6340    -2.1870     1.1050 C.ar  1 <1>  -0.1500 
  7 C        4.9950    -0.3650     0.3140 C.ar  1 <1>  -0.1500 
  8 C        4.0980     1.4290    -1.2520 C.3   1 <1>   0.2540 
  9 C        4.8490    -1.5190     1.0710 C.ar  1 <1>  -0.1500 
 10 N        4.9730     2.4010    -0.5790 N.3   1 <1>  -0.8100 
 11 C        4.4720     2.9120     0.7280 C.3   1 <1>   0.1900 
 12 C        5.6180     3.3520    -1.4960 C.3   1 <1>   0.1100 
 13 C        3.5500     4.1420     0.5920 C.3   1 <1>   0.1200 
 14 C        5.6190     3.1380     1.7450 C.3   1 <1>   0.1400 
 15 C        6.1000     4.6790    -0.8740 C.3   1 <1>  -0.0800 
 16 O        4.2580     5.3470     0.5740 O.3   1 <1>  -0.5600 
 17 N        6.9720     3.3210     1.1160 N.am  1 <1>  -0.6600 
 18 C        4.9280     5.6390    -0.6070 C.3   1 <1>   0.1200 
 19 C        7.0830     4.5790     0.3170 C.3   1 <1>   0.1400 
 20 C        7.9250     2.3310     1.2460 C.2   1 <1>   0.5690 
 21 O        7.7160     1.3530     1.9300 O.2   1 <1>  -0.5700 
 22 C        9.3070     2.3650     0.5760 C.3   1 <1>  -0.0190 
 23 C       10.2460     3.4600     1.1190 C.3   1 <1>  -0.1600 
 24 C        9.2750     2.3470    -0.9660 C.3   1 <1>  -0.1600 
 25 C       11.5830     3.4510     0.3730 C.3   1 <1>   0.1200 
 26 C       10.6940     2.4150    -1.5360 C.3   1 <1>   0.1200 
 27 O       11.3480     3.5240    -1.0000 O.3   1 <1>  -0.5600 
 28 H        3.5070    -3.0820     1.6870 H     1 <1>   0.1500 
 29 H        5.9500     0.1400     0.3080 H     1 <1>   0.1500 
 30 H        3.1440     1.8870    -1.4450 H     1 <1>   0.0800 
 31 H        4.5340     1.1540    -2.1970 H     1 <1>   0.0800 
 32 H        5.6880    -1.8910     1.6350 H     1 <1>   0.1500 
 33 H        3.8550     2.1470     1.1630 H     1 <1>   0.0800 
 34 H        6.4610     2.8520    -1.9390 H     1 <1>   0.0800 
 35 H        4.9330     3.5870    -2.2940 H     1 <1>   0.0800 
 36 H        2.9110     4.1850     1.4550 H     1 <1>   0.0800 
 37 H        2.9290     4.0730    -0.2830 H     1 <1>   0.0800 
 38 H        5.6340     2.2900     2.4050 H     1 <1>   0.0800 
 39 H        5.4000     3.9900     2.3630 H     1 <1>   0.0800 
 40 H        6.6550     5.1630    -1.6570 H     1 <1>   0.0800 
 41 H        4.2190     5.6290    -1.4170 H     1 <1>   0.0800 
 42 H        5.3040     6.6420    -0.5050 H     1 <1>   0.0800 
 43 H        6.9240     5.4130     0.9800 H     1 <1>   0.0800 
 44 H        8.0750     4.6860    -0.0660 H     1 <1>   0.0800 
 45 H        9.7760     1.4350     0.8520 H     1 <1>   0.0800 
 46 H       10.4230     3.2880     2.1660 H     1 <1>   0.0800 
 47 H        9.8160     4.4370     1.0280 H     1 <1>   0.0800 
 48 H        8.7230     3.1730    -1.3620 H     1 <1>   0.0800 
 49 H        8.7940     1.4460    -1.3020 H     1 <1>   0.0800 
 50 H       12.1420     2.5540     0.5800 H     1 <1>   0.0800 
 51 H       12.1770     4.3040     0.6510 H     1 <1>   0.0800 
 52 H       10.6680     2.5320    -2.6050 H     1 <1>   0.0800 
 53 H       11.2590     1.5290    -1.2950 H     1 <1>   0.0800 
@<TRIPOS>BOND
  1   1   2  1   
  2   2   3  ar  
  3   2   4  ar  
  4   3   5  1   
  5   3   6  ar  
  6   4   7  ar  
  7   4   8  1   
  8   6   9  ar  
  9   6  28  1   
 10   7   9  ar  
 11   7  29  1   
 12   8  10  1   
 13   8  30  1   
 14   8  31  1   
 15   9  32  1   
 16  10  11  1   
 17  10  12  1   
 18  11  13  1   
 19  11  14  1   
 20  11  33  1   
 21  12  15  1   
 22  12  34  1   
 23  12  35  1   
 24  13  16  1   
 25  13  36  1   
 26  13  37  1   
 27  14  17  1   
 28  14  38  1   
 29  14  39  1   
 30  15  18  1   
 31  15  19  1   
 32  15  40  1   
 33  16  18  1   
 34  17  19  1   
 35  17  20  am  
 36  18  41  1   
 37  18  42  1   
 38  19  43  1   
 39  19  44  1   
 40  20  21  2   
 41  20  22  1   
 42  22  23  1   
 43  22  24  1   
 44  22  45  1   
 45  23  25  1   
 46  23  46  1   
 47  23  47  1   
 48  24  26  1   
 49  24  48  1   
 50  24  49  1   
 51  25  27  1   
 52  25  50  1   
 53  25  51  1   
 54  26  27  1   
 55  26  52  1   
 56  26  53  1   
@<TRIPOS>SUBSTRUCTURE
  1 ****  10 GROUP 4 **** **** 0

# MOE 2024.06 (io_trps.svl 2023.06)
