@<TRIPOS>MOLECULE
NONAME
50 52 1 0 0 
SMALL
USER_CHARGES


@<TRIPOS>ATOM
  1 O       -0.6500     0.2180     1.7630 O.2   1 <1>  -0.5700 
  2 C       -1.1770     0.6120     0.7500 C.2   1 <1>   0.5690 
  3 N       -1.8550    -0.2280    -0.0900 N.am  1 <1>  -0.6600 
  4 C       -1.0560     2.0850     0.4020 C.3   1 <1>  -0.0990 
  5 C       -1.9320    -1.6990     0.2160 C.3   1 <1>   0.3640 
  6 C       -2.5950     0.2400    -1.3050 C.3   1 <1>   0.1400 
  7 C       -0.3990     2.9030     1.5210 C.3   1 <1>   0.0960 
  8 C       -0.8180    -2.4940    -0.4870 C.ar  1 <1>  -0.1440 
  9 C       -3.3340    -2.3060    -0.1100 C.3   1 <1>   0.2000 
 10 C       -3.3260    -0.9030    -2.0240 C.3   1 <1>   0.1200 
 11 N       -0.2060     4.2990     1.0820 N.pl3 1 <1>   0.3140 
 12 C       -0.0590    -2.0020    -1.5440 C.ar  1 <1>  -0.1500 
 13 C       -0.5530    -3.7780    -0.0270 C.ar  1 <1>  -0.1500 
 14 O       -4.0750    -1.6180    -1.0950 O.3   1 <1>  -0.5600 
 15 C       -4.2190    -2.3610     1.1410 C.3   1 <1>   0.1200 
 16 N       -1.2590     5.0980     0.8300 N.2   1 <1>  -0.7070 
 17 C        0.9630     4.9410     0.8490 C.2   1 <1>  -0.3320 
 18 C        0.9220    -2.7790    -2.1350 C.ar  1 <1>  -0.1500 
 19 C        0.4270    -4.5580    -0.6160 C.ar  1 <1>  -0.1500 
 20 O       -3.7490    -3.3340     2.0190 O.3   1 <1>  -0.6800 
 21 C       -0.7430     6.2240     0.4520 C.2   1 <1>   0.1080 
 22 C        0.6450     6.1880     0.4430 C.2   1 <1>  -0.1500 
 23 C        2.3470     4.3390     1.0220 C.3   1 <1>  -0.0600 
 24 C        1.1650    -4.0600    -1.6730 C.ar  1 <1>  -0.1500 
 25 C       -1.5900     7.4150     0.0750 C.3   1 <1>  -0.0590 
 26 H       -0.4680     2.1740    -0.4920 H     1 <1>   0.0800 
 27 H       -2.0370     2.4850     0.2220 H     1 <1>   0.0800 
 28 H       -1.7630    -1.8370     1.2700 H     1 <1>   0.0800 
 29 H       -3.3260     0.9730    -1.0110 H     1 <1>   0.0800 
 30 H       -1.9100     0.7080    -1.9890 H     1 <1>   0.0800 
 31 H        0.5520     2.4810     1.7840 H     1 <1>   0.0800 
 32 H       -1.0260     2.9060     2.3940 H     1 <1>   0.0800 
 33 H       -3.2110    -3.3090    -0.4760 H     1 <1>   0.0800 
 34 H       -2.6380    -1.5720    -2.5110 H     1 <1>   0.0800 
 35 H       -4.0020    -0.5070    -2.7600 H     1 <1>   0.0800 
 36 H       -0.2120    -1.0080    -1.9180 H     1 <1>   0.1500 
 37 H       -1.1100    -4.1810     0.8020 H     1 <1>   0.1500 
 38 H       -5.2330    -2.6100     0.8800 H     1 <1>   0.0800 
 39 H       -4.1990    -1.4140     1.6510 H     1 <1>   0.0800 
 40 H        1.5000    -2.3860    -2.9530 H     1 <1>   0.1500 
 41 H        0.6180    -5.5510    -0.2480 H     1 <1>   0.1500 
 42 H       -4.0400    -4.2240     1.7380 H     1 <1>   0.4000 
 43 H        1.2970     6.9960     0.1660 H     1 <1>   0.1500 
 44 H        3.1000     5.0600     0.7580 H     1 <1>   0.0800 
 45 H        2.4610     3.4770     0.3880 H     1 <1>   0.0800 
 46 H        2.5000     4.0460     2.0460 H     1 <1>   0.0800 
 47 H        1.9280    -4.6640    -2.1320 H     1 <1>   0.1500 
 48 H       -0.9690     8.2410    -0.2160 H     1 <1>   0.0800 
 49 H       -2.1940     7.7040     0.9150 H     1 <1>   0.0800 
 50 H       -2.2340     7.1510    -0.7430 H     1 <1>   0.0800 
@<TRIPOS>BOND
  1   1   2  2   
  2   2   3  am  
  3   2   4  1   
  4   3   5  1   
  5   3   6  1   
  6   4   7  1   
  7   4  26  1   
  8   4  27  1   
  9   5   8  1   
 10   5   9  1   
 11   5  28  1   
 12   6  10  1   
 13   6  29  1   
 14   6  30  1   
 15   7  11  1   
 16   7  31  1   
 17   7  32  1   
 18   8  12  ar  
 19   8  13  ar  
 20   9  14  1   
 21   9  15  1   
 22   9  33  1   
 23  10  14  1   
 24  10  34  1   
 25  10  35  1   
 26  11  16  1   
 27  11  17  1   
 28  12  18  ar  
 29  12  36  1   
 30  13  19  ar  
 31  13  37  1   
 32  15  20  1   
 33  15  38  1   
 34  15  39  1   
 35  16  21  2   
 36  17  22  2   
 37  17  23  1   
 38  18  24  ar  
 39  18  40  1   
 40  19  24  ar  
 41  19  41  1   
 42  20  42  1   
 43  21  22  1   
 44  21  25  1   
 45  22  43  1   
 46  23  44  1   
 47  23  45  1   
 48  23  46  1   
 49  24  47  1   
 50  25  48  1   
 51  25  49  1   
 52  25  50  1   
@<TRIPOS>SUBSTRUCTURE
  1 ****   2 GROUP 4 **** **** 0

# MOE 2024.06 (io_trps.svl 2023.06)
