@<TRIPOS>MOLECULE
NONAME
43 45 1 0 0 
SMALL
USER_CHARGES


@<TRIPOS>ATOM
  1 O        0.1360     1.8150     0.2410 O.co2 1 <1>  -0.9000 
  2 C        1.1880     2.1410     0.8070 C.2   1 <1>   0.9470 
  3 O        1.2460     3.1680     1.4990 O.co2 1 <1>  -0.9000 
  4 C        2.4910     1.4090     0.4670 C.3   1 <1>  -0.2420 
  5 C        3.1980     0.2290     1.0900 C.3   1 <1>  -0.2420 
  6 C        3.5500     2.4030     0.0390 C.3   1 <1>   0.2350 
  7 C        2.4060     0.0490    -0.1780 C.3   1 <1>  -0.2000 
  8 C        2.8460    -0.6070     2.3210 C.2   1 <1>   0.9470 
  9 C        4.6940     0.4860     1.0230 C.3   1 <1>   0.2350 
 10 N        4.8530     1.6880     0.1560 N.am  1 <1>  -0.6600 
 11 O        2.3620    -1.7380     2.1680 O.co2 1 <1>  -0.9000 
 12 O        3.1930    -0.2050     3.4390 O.co2 1 <1>  -0.9000 
 13 C        6.0330     2.0130    -0.4530 C.2   1 <1>   0.5690 
 14 O        6.9750     1.2520    -0.4490 O.2   1 <1>  -0.5700 
 15 C        6.1870     3.3350    -1.2000 C.3   1 <1>   0.0440 
 16 C        7.3170     4.2270    -0.6590 C.ar  1 <1>  -0.1430 
 17 C        8.5650     4.2580    -1.2840 C.ar  1 <1>  -0.1430 
 18 C        7.1020     5.0240     0.4670 C.ar  1 <1>  -0.1430 
 19 C        9.5580     5.0970    -0.8030 C.ar  1 <1>  -0.1500 
 20 C        8.9000     3.3840    -2.4860 C.3   1 <1>  -0.0970 
 21 C        8.1120     5.8530     0.9300 C.ar  1 <1>  -0.1500 
 22 C        5.7870     5.0120     1.2390 C.3   1 <1>  -0.0970 
 23 C        9.3390     5.9010     0.2980 C.ar  1 <1>  -0.1430 
 24 C       10.4370     6.8140     0.8140 C.3   1 <1>  -0.0970 
 25 H        3.5480     3.2500     0.7030 H     1 <1>   0.0800 
 26 H        3.3630     2.7240    -0.9690 H     1 <1>   0.0800 
 27 H        2.9210    -0.1360    -1.1010 H     1 <1>   0.1000 
 28 H        1.4730    -0.4870    -0.1100 H     1 <1>   0.1000 
 29 H        5.2110    -0.3630     0.6110 H     1 <1>   0.0800 
 30 H        5.0800     0.7040     2.0040 H     1 <1>   0.0800 
 31 H        6.3470     3.0980    -2.2320 H     1 <1>   0.0800 
 32 H        5.2760     3.8940    -1.1800 H     1 <1>   0.0800 
 33 H       10.5180     5.1230    -1.2870 H     1 <1>   0.1500 
 34 H        9.9500     3.4230    -2.7130 H     1 <1>   0.0800 
 35 H        8.3540     3.7170    -3.3490 H     1 <1>   0.0800 
 36 H        8.6490     2.3590    -2.2780 H     1 <1>   0.0800 
 37 H        7.9440     6.4670     1.7960 H     1 <1>   0.1500 
 38 H        5.8190     5.6850     2.0750 H     1 <1>   0.0800 
 39 H        5.5960     4.0250     1.6230 H     1 <1>   0.0800 
 40 H        4.9710     5.3110     0.6070 H     1 <1>   0.0800 
 41 H       11.0590     7.1460     0.0030 H     1 <1>   0.0800 
 42 H       11.0440     6.2830     1.5250 H     1 <1>   0.0800 
 43 H       10.0130     7.6780     1.2930 H     1 <1>   0.0800 
@<TRIPOS>BOND
  1   1   2  ar  
  2   2   3  ar  
  3   2   4  1   
  4   4   5  1   
  5   4   6  1   
  6   4   7  1   
  7   5   7  1   
  8   5   8  1   
  9   5   9  1   
 10   6  10  1   
 11   6  25  1   
 12   6  26  1   
 13   7  27  1   
 14   7  28  1   
 15   8  11  ar  
 16   8  12  ar  
 17   9  10  1   
 18   9  29  1   
 19   9  30  1   
 20  10  13  am  
 21  13  14  2   
 22  13  15  1   
 23  15  16  1   
 24  15  31  1   
 25  15  32  1   
 26  16  17  ar  
 27  16  18  ar  
 28  17  19  ar  
 29  17  20  1   
 30  18  21  ar  
 31  18  22  1   
 32  19  23  ar  
 33  19  33  1   
 34  20  34  1   
 35  20  35  1   
 36  20  36  1   
 37  21  23  ar  
 38  21  37  1   
 39  22  38  1   
 40  22  39  1   
 41  22  40  1   
 42  23  24  1   
 43  24  41  1   
 44  24  42  1   
 45  24  43  1   
@<TRIPOS>SUBSTRUCTURE
  1 ****  10 GROUP 4 **** **** 0

# MOE 2024.06 (io_trps.svl 2023.06)
