@<TRIPOS>MOLECULE
NONAME
45 47 1 0 0 
SMALL
USER_CHARGES


@<TRIPOS>ATOM
  1 O       -0.8290     0.5300     0.3650 O.2   1 <1>  -0.5700 
  2 C       -0.5870     1.6820     0.6200 C.2   1 <1>   0.5690 
  3 N       -1.5820     2.5860     0.7430 N.am  1 <1>  -0.7300 
  4 C        0.8650     2.1470     0.7680 C.3   1 <1>   0.1810 
  5 C       -1.3600     4.0230     1.0350 C.3   1 <1>   0.3640 
  6 O        0.9840     3.3950     1.4150 O.3   1 <1>  -0.5600 
  7 C       -2.2280     4.8450     0.0840 C.ar  1 <1>  -0.1440 
  8 C        0.1360     4.4160     0.9050 C.3   1 <1>   0.2610 
  9 C       -2.2940     4.5520    -1.2730 C.ar  1 <1>  -0.1500 
 10 C       -2.9650     5.9140     0.5750 C.ar  1 <1>  -0.1500 
 11 C        0.4390     5.7660     1.5830 C.2   1 <1>   0.5690 
 12 C       -3.0840     5.3100    -2.1190 C.ar  1 <1>  -0.1500 
 13 C       -3.7550     6.6730    -0.2700 C.ar  1 <1>  -0.1500 
 14 O       -0.3510     6.1960     2.3980 O.2   1 <1>  -0.5700 
 15 N        1.5780     6.4760     1.2690 N.am  1 <1>  -0.6600 
 16 C       -3.8150     6.3720    -1.6180 C.ar  1 <1>  -0.1500 
 17 C        2.7280     5.9320     0.4930 C.3   1 <1>   0.1400 
 18 C        1.7890     7.8590     1.7810 C.3   1 <1>   0.1400 
 19 C        3.0320     6.8540    -0.6900 C.3   1 <1>  -0.1600 
 20 C        2.0940     8.8000     0.6120 C.3   1 <1>  -0.1600 
 21 C        3.2850     8.3010    -0.2270 C.3   1 <1>  -0.0190 
 22 C        3.5600     9.2340    -1.4040 C.2   1 <1>   0.5690 
 23 O        2.8410     9.2320    -2.3700 O.2   1 <1>  -0.5700 
 24 N        4.6150    10.0670    -1.3610 N.am  1 <1>  -0.8000 
 25 H       -2.5490     2.2790     0.6320 H     1 <1>   0.3700 
 26 H        1.3160     2.2240    -0.2040 H     1 <1>   0.0800 
 27 H        1.4100     1.4250     1.3470 H     1 <1>   0.0800 
 28 H       -1.6820     4.1980     2.0480 H     1 <1>   0.0800 
 29 H        0.3590     4.5270    -0.1400 H     1 <1>   0.0800 
 30 H       -1.7340     3.7290    -1.6810 H     1 <1>   0.1500 
 31 H       -2.9220     6.1680     1.6220 H     1 <1>   0.1500 
 32 H       -3.1300     5.0750    -3.1680 H     1 <1>   0.1500 
 33 H       -4.3200     7.5010     0.1230 H     1 <1>   0.1500 
 34 H       -4.4290     6.9620    -2.2760 H     1 <1>   0.1500 
 35 H        3.5860     5.8770     1.1420 H     1 <1>   0.0800 
 36 H        2.5310     4.9400     0.1330 H     1 <1>   0.0800 
 37 H        0.9150     8.2120     2.3020 H     1 <1>   0.0800 
 38 H        2.6100     7.8530     2.4780 H     1 <1>   0.0800 
 39 H        3.8960     6.4870    -1.2150 H     1 <1>   0.0800 
 40 H        2.2000     6.8290    -1.3730 H     1 <1>   0.0800 
 41 H        1.2180     8.8740    -0.0110 H     1 <1>   0.0800 
 42 H        2.3040     9.7830     0.9940 H     1 <1>   0.0800 
 43 H        4.1570     8.2980     0.4030 H     1 <1>   0.0800 
 44 H        4.7840    10.6870    -2.1540 H     1 <1>   0.3700 
 45 H        5.2650    10.1370    -0.5800 H     1 <1>   0.3700 
@<TRIPOS>BOND
  1   1   2  2   
  2   2   3  am  
  3   2   4  1   
  4   3   5  1   
  5   3  25  1   
  6   4   6  1   
  7   4  26  1   
  8   4  27  1   
  9   5   7  1   
 10   5   8  1   
 11   5  28  1   
 12   6   8  1   
 13   7   9  ar  
 14   7  10  ar  
 15   8  11  1   
 16   8  29  1   
 17   9  12  ar  
 18   9  30  1   
 19  10  13  ar  
 20  10  31  1   
 21  11  14  2   
 22  11  15  am  
 23  12  16  ar  
 24  12  32  1   
 25  13  16  ar  
 26  13  33  1   
 27  15  17  1   
 28  15  18  1   
 29  16  34  1   
 30  17  19  1   
 31  17  35  1   
 32  17  36  1   
 33  18  20  1   
 34  18  37  1   
 35  18  38  1   
 36  19  21  1   
 37  19  39  1   
 38  19  40  1   
 39  20  21  1   
 40  20  41  1   
 41  20  42  1   
 42  21  22  1   
 43  21  43  1   
 44  22  23  2   
 45  22  24  am  
 46  24  44  1   
 47  24  45  1   
@<TRIPOS>SUBSTRUCTURE
  1 ****  11 GROUP 4 **** **** 0

# MOE 2024.06 (io_trps.svl 2023.06)
