@<TRIPOS>MOLECULE
NONAME
54 58 1 0 0 
SMALL
USER_CHARGES


@<TRIPOS>ATOM
  1 S        2.7570     0.0940    -0.5730 S.3   1 <1>  -0.2420 
  2 C        2.2910     1.3740     0.5490 C.2   1 <1>   0.6510 
  3 C        2.4240    -1.1610     0.6350 C.2   1 <1>  -0.0490 
  4 N        2.3190     2.6310     0.2380 N.2   1 <1>  -0.6210 
  5 N        1.9220     0.8180     1.7430 N.am  1 <1>  -0.2290 
  6 C        2.0010    -0.5930     1.7720 C.2   1 <1>  -0.0410 
  7 C        1.9330     3.5010     1.2210 C.2   1 <1>   0.0330 
  8 C        1.5360     1.6710     2.7460 C.2   1 <1>   0.6160 
  9 C        1.5490     3.0570     2.4480 C.2   1 <1>  -0.1360 
 10 C        1.9600     4.9910     0.8740 C.3   1 <1>   0.4810 
 11 O        1.2040     1.2470     3.8410 O.2   1 <1>  -0.5700 
 12 N        3.3340     5.4000     0.4650 N.4   1 <1>  -0.9590 
 13 C        3.7730     6.7600     0.8990 C.3   1 <1>   0.4230 
 14 C        3.6390     5.1280    -0.9610 C.3   1 <1>   0.3430 
 15 C        5.2060     7.0870     0.3920 C.3   1 <1>  -0.0800 
 16 C        2.7300     7.8280     0.5090 C.3   1 <1>  -0.1600 
 17 C        5.1580     5.1050    -1.1720 C.3   1 <1>  -0.1600 
 18 C        5.9630     5.8130    -0.0600 C.3   1 <1>   0.4240 
 19 C        5.2130     8.1890    -0.6960 C.3   1 <1>  -0.1600 
 20 C        3.3030     9.2410     0.6780 C.3   1 <1>  -0.1600 
 21 O        5.9920     4.9400     1.0140 O.3   1 <1>  -0.6800 
 22 C        7.4450     6.0680    -0.3890 C.ar  1 <1>  -0.1430 
 23 C        4.5370     9.4810    -0.2090 C.3   1 <1>  -0.1600 
 24 C        8.2650     6.6340     0.5840 C.ar  1 <1>  -0.1500 
 25 C        8.0210     5.7480    -1.6170 C.ar  1 <1>  -0.1500 
 26 C        9.6030     6.8860     0.3390 C.ar  1 <1>  -0.1500 
 27 C        9.3600     5.9990    -1.8640 C.ar  1 <1>  -0.1500 
 28 C       10.1530     6.5700    -0.8880 C.ar  1 <1>  -0.1500 
 29 H        2.5880    -2.1850     0.3420 H     1 <1>   0.1500 
 30 H        1.7230    -1.1000     2.6830 H     1 <1>   0.1500 
 31 H        1.2410     3.7080     3.2450 H     1 <1>   0.1500 
 32 H        1.6560     5.5530     1.7410 H     1 <1>   0.0800 
 33 H        1.2630     5.1930     0.0770 H     1 <1>   0.0800 
 34 H        3.9820     4.7610     0.9640 H     1 <1>   0.4500 
 35 H        3.8310     6.7530     1.9750 H     1 <1>   0.0800 
 36 H        3.2260     4.1810    -1.2680 H     1 <1>   0.0800 
 37 H        3.2000     5.8980    -1.5740 H     1 <1>   0.0800 
 38 H        5.7320     7.5060     1.2300 H     1 <1>   0.0800 
 39 H        2.4240     7.7060    -0.5150 H     1 <1>   0.0800 
 40 H        1.8630     7.7410     1.1380 H     1 <1>   0.0800 
 41 H        5.3320     5.5910    -2.1130 H     1 <1>   0.0800 
 42 H        5.4950     4.0890    -1.2760 H     1 <1>   0.0800 
 43 H        6.2240     8.4220    -0.9890 H     1 <1>   0.0800 
 44 H        4.6990     7.8470    -1.5770 H     1 <1>   0.0800 
 45 H        2.5500     9.9750     0.4450 H     1 <1>   0.0800 
 46 H        3.5800     9.3870     1.7100 H     1 <1>   0.0800 
 47 H        6.8970     4.5590     1.0460 H     1 <1>   0.4000 
 48 H        5.2490    10.0710     0.3440 H     1 <1>   0.0800 
 49 H        4.2510    10.0630    -1.0700 H     1 <1>   0.0800 
 50 H        7.8750     6.8870     1.5540 H     1 <1>   0.1500 
 51 H        7.4600     5.2950    -2.4120 H     1 <1>   0.1500 
 52 H       10.2200     7.3280     1.1030 H     1 <1>   0.1500 
 53 H        9.7880     5.7470    -2.8190 H     1 <1>   0.1500 
 54 H       11.1930     6.7660    -1.0820 H     1 <1>   0.1500 
@<TRIPOS>BOND
  1   1   2  1   
  2   1   3  1   
  3   2   4  2   
  4   2   5  1   
  5   3   6  2   
  6   3  29  1   
  7   4   7  1   
  8   5   6  1   
  9   5   8  am  
 10   6  30  1   
 11   7   9  2   
 12   7  10  1   
 13   8   9  1   
 14   8  11  2   
 15   9  31  1   
 16  10  12  1   
 17  10  32  1   
 18  10  33  1   
 19  12  13  1   
 20  12  14  1   
 21  12  34  1   
 22  13  15  1   
 23  13  16  1   
 24  13  35  1   
 25  14  17  1   
 26  14  36  1   
 27  14  37  1   
 28  15  18  1   
 29  15  19  1   
 30  15  38  1   
 31  16  20  1   
 32  16  39  1   
 33  16  40  1   
 34  17  18  1   
 35  17  41  1   
 36  17  42  1   
 37  18  21  1   
 38  18  22  1   
 39  19  23  1   
 40  19  43  1   
 41  19  44  1   
 42  20  23  1   
 43  20  45  1   
 44  20  46  1   
 45  21  47  1   
 46  22  24  ar  
 47  22  25  ar  
 48  23  48  1   
 49  23  49  1   
 50  24  26  ar  
 51  24  50  1   
 52  25  27  ar  
 53  25  51  1   
 54  26  28  ar  
 55  26  52  1   
 56  27  28  ar  
 57  27  53  1   
 58  28  54  1   
@<TRIPOS>SUBSTRUCTURE
  1 ****  12 GROUP 4 **** **** 0

# MOE 2024.06 (io_trps.svl 2023.06)
