@<TRIPOS>MOLECULE
NONAME
46 48 1 0 0 
SMALL
USER_CHARGES


@<TRIPOS>ATOM
  1 F       -1.2500    -0.2930    -1.1740 F     1 <1>  -0.1900 
  2 C       -1.8200     0.4670    -0.2690 C.ar  1 <1>   0.1900 
  3 C       -1.6230     1.8440    -0.3340 C.ar  1 <1>   0.0820 
  4 C       -2.5870    -0.1330     0.7200 C.ar  1 <1>  -0.1440 
  5 O       -0.8560     2.3520    -1.3400 O.3   1 <1>  -0.3630 
  6 C       -2.2220     2.6380     0.6410 C.ar  1 <1>  -0.1500 
  7 C       -3.1680     0.6830     1.6810 C.ar  1 <1>  -0.1500 
  8 C       -2.7880    -1.6420     0.7610 C.3   1 <1>   0.2540 
  9 C       -0.6060     3.7340    -1.4550 C.3   1 <1>   0.0400 
 10 C       -2.9870     2.0570     1.6390 C.ar  1 <1>  -0.1500 
 11 N       -3.7920    -2.0780    -0.2310 N.3   1 <1>  -0.8100 
 12 C       -3.9190    -3.5580    -0.2910 C.3   1 <1>   0.3330 
 13 C       -5.1150    -1.4620     0.0000 C.3   1 <1>   0.1100 
 14 C       -2.5770    -4.2120    -0.6250 C.ar  1 <1>  -0.1430 
 15 C       -5.0060    -3.9740    -1.3210 C.3   1 <1>   0.2000 
 16 C       -6.1560    -1.9620    -1.0160 C.3   1 <1>   0.1200 
 17 C       -2.1100    -5.2750     0.1360 C.ar  1 <1>  -0.1500 
 18 C       -1.8190    -3.7670    -1.6980 C.ar  1 <1>  -0.1500 
 19 O       -6.2260    -3.3580    -0.9950 O.3   1 <1>  -0.5600 
 20 C       -5.2600    -5.4900    -1.3750 C.3   1 <1>   0.1200 
 21 C       -0.9100    -5.8900    -0.1790 C.ar  1 <1>  -0.1500 
 22 C       -0.6190    -4.3790    -2.0130 C.ar  1 <1>  -0.1500 
 23 O       -4.2360    -6.1510    -2.0500 O.3   1 <1>  -0.6800 
 24 C       -0.1650    -5.4430    -1.2550 C.ar  1 <1>  -0.1500 
 25 H       -2.1050     3.7050     0.6400 H     1 <1>   0.1500 
 26 H       -3.7660     0.2530     2.4660 H     1 <1>   0.1500 
 27 H       -3.0950    -1.9460     1.7460 H     1 <1>   0.0800 
 28 H       -1.8390    -2.1080     0.5570 H     1 <1>   0.0800 
 29 H        0.0210     3.8880    -2.3150 H     1 <1>   0.0800 
 30 H       -0.1000     4.0730    -0.5690 H     1 <1>   0.0800 
 31 H       -1.5410     4.2490    -1.5890 H     1 <1>   0.0800 
 32 H       -3.4440     2.6770     2.3900 H     1 <1>   0.1500 
 33 H       -4.2380    -3.9110     0.6750 H     1 <1>   0.0800 
 34 H       -5.4600    -1.6840     0.9950 H     1 <1>   0.0800 
 35 H       -5.0390    -0.3930    -0.0990 H     1 <1>   0.0800 
 36 H       -4.7260    -3.6390    -2.3040 H     1 <1>   0.0800 
 37 H       -5.8960    -1.6410    -2.0100 H     1 <1>   0.0800 
 38 H       -7.1300    -1.5780    -0.7720 H     1 <1>   0.0800 
 39 H       -2.6780    -5.6360     0.9770 H     1 <1>   0.1500 
 40 H       -2.1640    -2.9320    -2.2880 H     1 <1>   0.1500 
 41 H       -6.1720    -5.6890    -1.9110 H     1 <1>   0.0800 
 42 H       -5.3310    -5.9000    -0.3830 H     1 <1>   0.0800 
 43 H       -0.5560    -6.7160     0.4130 H     1 <1>   0.1500 
 44 H       -0.0400    -4.0220    -2.8470 H     1 <1>   0.1500 
 45 H       -3.3550    -5.8610    -1.7190 H     1 <1>   0.4000 
 46 H        0.7680    -5.9190    -1.5010 H     1 <1>   0.1500 
@<TRIPOS>BOND
  1   1   2  1   
  2   2   3  ar  
  3   2   4  ar  
  4   3   5  1   
  5   3   6  ar  
  6   4   7  ar  
  7   4   8  1   
  8   5   9  1   
  9   6  10  ar  
 10   6  25  1   
 11   7  10  ar  
 12   7  26  1   
 13   8  11  1   
 14   8  27  1   
 15   8  28  1   
 16   9  29  1   
 17   9  30  1   
 18   9  31  1   
 19  10  32  1   
 20  11  12  1   
 21  11  13  1   
 22  12  14  1   
 23  12  15  1   
 24  12  33  1   
 25  13  16  1   
 26  13  34  1   
 27  13  35  1   
 28  14  17  ar  
 29  14  18  ar  
 30  15  19  1   
 31  15  20  1   
 32  15  36  1   
 33  16  19  1   
 34  16  37  1   
 35  16  38  1   
 36  17  21  ar  
 37  17  39  1   
 38  18  22  ar  
 39  18  40  1   
 40  20  23  1   
 41  20  41  1   
 42  20  42  1   
 43  21  24  ar  
 44  21  43  1   
 45  22  24  ar  
 46  22  44  1   
 47  23  45  1   
 48  24  46  1   
@<TRIPOS>SUBSTRUCTURE
  1 ****  11 GROUP 4 **** **** 0

# MOE 2024.06 (io_trps.svl 2023.06)
