@<TRIPOS>MOLECULE
NONAME
48 51 1 0 0 
SMALL
USER_CHARGES


@<TRIPOS>ATOM
  1 O       -2.0830     1.1710    -0.2360 O.co2 1 <1>  -0.9000 
  2 C       -0.9620     1.4640     0.2070 C.2   1 <1>   0.9060 
  3 O       -0.0850     0.6370     0.4550 O.co2 1 <1>  -0.9000 
  4 C       -0.7020     2.9540     0.4720 C.3   1 <1>   0.3170 
  5 N       -2.0040     3.7240     0.7180 N.4   1 <1>  -0.9590 
  6 C        0.0710     3.4880    -0.7510 C.3   1 <1>   0.1100 
  7 C       -1.8450     5.2060     0.6100 C.3   1 <1>   0.3430 
  8 C       -2.6230     3.2770     1.9970 C.3   1 <1>   0.2630 
  9 N        0.2270     4.9620    -0.7470 N.3   1 <1>  -0.8100 
 10 C       -1.0950     5.6170    -0.6700 C.3   1 <1>   0.1100 
 11 C        1.0040     5.3970    -1.9200 C.3   1 <1>   0.2910 
 12 C        1.2830     6.8860    -1.8450 C.2   1 <1>  -0.1810 
 13 C        0.8390     7.8510    -2.7400 C.2   1 <1>   0.1390 
 14 C        1.9810     7.5800    -0.9220 C.2   1 <1>  -0.3020 
 15 N        1.2180     9.0420    -2.4020 N.2   1 <1>  -0.7070 
 16 N        1.9480     8.8920    -1.2640 N.pl3 1 <1>   0.5930 
 17 C        2.5480     9.9770    -0.5600 C.ar  1 <1>  -0.0230 
 18 C        3.7030     9.8200     0.1730 C.ar  1 <1>  -0.1500 
 19 C        1.9560    11.2540    -0.6030 C.ar  1 <1>  -0.1500 
 20 C        4.2930    10.8850     0.8800 C.ar  1 <1>   0.0000 
 21 C        2.5060    12.3070     0.0720 C.ar  1 <1>  -0.1500 
 22 C        3.6820    12.1550     0.8320 C.ar  1 <1>   0.0000 
 23 C        5.4730    10.7320     1.6370 C.ar  1 <1>  -0.1500 
 24 C        4.2710    13.2200     1.5410 C.ar  1 <1>  -0.1500 
 25 C        6.0240    11.7830     2.3160 C.ar  1 <1>  -0.1500 
 26 C        5.4160    13.0420     2.2680 C.ar  1 <1>  -0.1500 
 27 H       -0.0650     3.0240     1.3340 H     1 <1>   0.0800 
 28 H       -2.6050     3.3410    -0.0370 H     1 <1>   0.4500 
 29 H       -0.4420     3.1770    -1.6470 H     1 <1>   0.0800 
 30 H        1.0420     3.0220    -0.7580 H     1 <1>   0.0800 
 31 H       -1.2850     5.5670     1.4560 H     1 <1>   0.0800 
 32 H       -2.8130     5.6770     0.6230 H     1 <1>   0.0800 
 33 H       -1.9830     3.5220     2.8280 H     1 <1>   0.0800 
 34 H       -2.7710     2.2080     1.9760 H     1 <1>   0.0800 
 35 H       -3.5800     3.7510     2.1360 H     1 <1>   0.0800 
 36 H       -0.9710     6.6860    -0.6500 H     1 <1>   0.0800 
 37 H       -1.6860     5.3650    -1.5340 H     1 <1>   0.0800 
 38 H        0.4700     5.1650    -2.8270 H     1 <1>   0.0800 
 39 H        1.9450     4.8740    -1.9390 H     1 <1>   0.0800 
 40 H        0.2450     7.6480    -3.6150 H     1 <1>   0.1500 
 41 H        2.4860     7.2200    -0.0460 H     1 <1>   0.1500 
 42 H        4.1920     8.8640     0.2180 H     1 <1>   0.1500 
 43 H        1.0580    11.3870    -1.1830 H     1 <1>   0.1500 
 44 H        2.0440    13.2770     0.0310 H     1 <1>   0.1500 
 45 H        5.9380     9.7630     1.6710 H     1 <1>   0.1500 
 46 H        3.8000    14.1860     1.5000 H     1 <1>   0.1500 
 47 H        6.9250    11.6590     2.8920 H     1 <1>   0.1500 
 48 H        5.8620    13.8600     2.8080 H     1 <1>   0.1500 
@<TRIPOS>BOND
  1   1   2  ar  
  2   2   3  ar  
  3   2   4  1   
  4   4   5  1   
  5   4   6  1   
  6   4  27  1   
  7   5   7  1   
  8   5   8  1   
  9   5  28  1   
 10   6   9  1   
 11   6  29  1   
 12   6  30  1   
 13   7  10  1   
 14   7  31  1   
 15   7  32  1   
 16   8  33  1   
 17   8  34  1   
 18   8  35  1   
 19   9  10  1   
 20   9  11  1   
 21  10  36  1   
 22  10  37  1   
 23  11  12  1   
 24  11  38  1   
 25  11  39  1   
 26  12  13  1   
 27  12  14  2   
 28  13  15  2   
 29  13  40  1   
 30  14  16  1   
 31  14  41  1   
 32  15  16  1   
 33  16  17  1   
 34  17  18  ar  
 35  17  19  ar  
 36  18  20  ar  
 37  18  42  1   
 38  19  21  ar  
 39  19  43  1   
 40  20  22  ar  
 41  20  23  ar  
 42  21  22  ar  
 43  21  44  1   
 44  22  24  ar  
 45  23  25  ar  
 46  23  45  1   
 47  24  26  ar  
 48  24  46  1   
 49  25  26  ar  
 50  25  47  1   
 51  26  48  1   
@<TRIPOS>SUBSTRUCTURE
  1 ****  14 GROUP 4 **** **** 0

# MOE 2024.06 (io_trps.svl 2023.06)
