@<TRIPOS>MOLECULE
NONAME
41 42 1 0 0 
SMALL
USER_CHARGES


@<TRIPOS>ATOM
  1 S        0.0940     0.7960    -0.9560 S.o2  1 <1>   1.3330 
  2 O        0.1330    -0.6380    -1.1270 O.2   1 <1>  -0.6500 
  3 O        0.0160     1.6350    -2.1310 O.2   1 <1>  -0.6500 
  4 N        1.4950     1.2250    -0.1000 N.am  1 <1>  -0.8490 
  5 C       -1.2930     1.1890     0.1260 C.3   1 <1>  -0.0550 
  6 C        2.6470     1.3890    -0.9890 C.3   1 <1>   0.1160 
  7 C        1.8420     0.2780     0.9660 C.3   1 <1>   0.1160 
  8 C       -1.5210     2.6470     0.6000 C.3   1 <1>  -0.0800 
  9 C       -1.5480     3.6960    -0.5210 C.3   1 <1>   0.2000 
 10 C       -0.4700     3.1550     1.5970 C.3   1 <1>   0.1400 
 11 O       -2.4680     4.6660    -0.1570 O.3   1 <1>  -0.6800 
 12 C       -0.1600     4.3390    -0.5120 C.3   1 <1>   0.1400 
 13 N        0.3160     4.1860     0.8840 N.am  1 <1>  -0.6600 
 14 C        1.2550     4.9680     1.5120 C.2   1 <1>   0.5440 
 15 O        1.3440     4.9010     2.7240 O.2   1 <1>  -0.5700 
 16 C        2.1190     5.8700     0.7740 C.ar  1 <1>   0.0860 
 17 C        2.2670     7.2000     1.1780 C.ar  1 <1>  -0.1500 
 18 C        2.8330     5.4430    -0.3500 C.ar  1 <1>  -0.1500 
 19 C        3.0780     8.0800     0.4820 C.ar  1 <1>  -0.1500 
 20 C        3.6480     6.3080    -1.0600 C.ar  1 <1>  -0.1500 
 21 C        3.7540     7.6160    -0.6300 C.ar  1 <1>   0.1900 
 22 F        4.5180     8.4380    -1.2940 F     1 <1>  -0.1900 
 23 H       -2.1850     0.8890    -0.3900 H     1 <1>   0.0800 
 24 H       -1.2290     0.5660     0.9960 H     1 <1>   0.0800 
 25 H        3.5130     1.6930    -0.4240 H     1 <1>   0.0800 
 26 H        2.4420     2.1470    -1.7250 H     1 <1>   0.0800 
 27 H        2.8620     0.4640    -1.4980 H     1 <1>   0.0800 
 28 H        2.6830     0.6490     1.5280 H     1 <1>   0.0800 
 29 H        2.0950    -0.6840     0.5510 H     1 <1>   0.0800 
 30 H        1.0140     0.1540     1.6420 H     1 <1>   0.0800 
 31 H       -2.4750     2.6400     1.1000 H     1 <1>   0.0800 
 32 H       -1.8330     3.3090    -1.4850 H     1 <1>   0.0800 
 33 H        0.1790     2.3730     1.9490 H     1 <1>   0.0800 
 34 H       -0.9500     3.6110     2.4470 H     1 <1>   0.0800 
 35 H       -2.1400     5.1280     0.6420 H     1 <1>   0.4000 
 36 H       -0.2010     5.3730    -0.8110 H     1 <1>   0.0800 
 37 H        0.5040     3.8090    -1.1680 H     1 <1>   0.0800 
 38 H        1.7360     7.5370     2.0520 H     1 <1>   0.1500 
 39 H        2.7460     4.4170    -0.6610 H     1 <1>   0.1500 
 40 H        3.1890     9.1030     0.7930 H     1 <1>   0.1500 
 41 H        4.1940     5.9810    -1.9260 H     1 <1>   0.1500 
@<TRIPOS>BOND
  1   1   2  2   
  2   1   3  2   
  3   1   4  am  
  4   1   5  1   
  5   4   6  1   
  6   4   7  1   
  7   5   8  1   
  8   5  23  1   
  9   5  24  1   
 10   6  25  1   
 11   6  26  1   
 12   6  27  1   
 13   7  28  1   
 14   7  29  1   
 15   7  30  1   
 16   8   9  1   
 17   8  10  1   
 18   8  31  1   
 19   9  11  1   
 20   9  12  1   
 21   9  32  1   
 22  10  13  1   
 23  10  33  1   
 24  10  34  1   
 25  11  35  1   
 26  12  13  1   
 27  12  36  1   
 28  12  37  1   
 29  13  14  am  
 30  14  15  2   
 31  14  16  1   
 32  16  17  ar  
 33  16  18  ar  
 34  17  19  ar  
 35  17  38  1   
 36  18  20  ar  
 37  18  39  1   
 38  19  21  ar  
 39  19  40  1   
 40  20  21  ar  
 41  20  41  1   
 42  21  22  1   
@<TRIPOS>SUBSTRUCTURE
  1 ****  13 GROUP 4 **** **** 0

# MOE 2024.06 (io_trps.svl 2023.06)
