@<TRIPOS>MOLECULE
NONAME
46 48 1 0 0 
SMALL
USER_CHARGES


@<TRIPOS>ATOM
  1 F        0.1790    -0.4980    -0.1380 F     1 <1>  -0.1900 
  2 C       -0.5100    -1.6110    -0.1180 C.ar  1 <1>   0.1900 
  3 C        0.1020    -2.8610     0.0340 C.ar  1 <1>   0.0820 
  4 C       -1.8780    -1.4900    -0.2590 C.ar  1 <1>  -0.1500 
  5 O        1.4370    -3.1090     0.1820 O.3   1 <1>  -0.3630 
  6 C       -0.7150    -3.9790     0.0390 C.ar  1 <1>  -0.1500 
  7 C       -2.6620    -2.6280    -0.2520 C.ar  1 <1>  -0.1500 
  8 C        2.4040    -2.0860     0.2610 C.3   1 <1>   0.0400 
  9 C       -2.1040    -3.9010    -0.1020 C.ar  1 <1>   0.0530 
 10 C       -2.9160    -5.0980    -0.0950 C.2   1 <1>   0.0870 
 11 O       -2.3620    -6.2720    -0.2920 O.3   1 <1>  -0.0190 
 12 C       -4.2440    -5.3220     0.0790 C.2   1 <1>  -0.2330 
 13 N       -3.2240    -7.2540    -0.2640 N.2   1 <1>  -0.4100 
 14 C       -4.3700    -6.7060    -0.0420 C.2   1 <1>   0.3720 
 15 C       -5.2910    -4.3900     0.3410 C.2   1 <1>   1.0330 
 16 N       -5.5610    -7.4360     0.0590 N.pl3 1 <1>  -0.8210 
 17 O       -5.4420    -3.9040     1.4740 O.co2 1 <1>  -0.9000 
 18 O       -5.9880    -3.9510    -0.5930 O.co2 1 <1>  -0.9000 
 19 C       -5.4360    -8.8660     0.4260 C.3   1 <1>   0.2090 
 20 C       -6.5350    -7.1960    -1.0320 C.3   1 <1>   0.2090 
 21 C       -6.7980    -9.3870     0.8940 C.3   1 <1>  -0.1600 
 22 C       -7.9150    -7.6890    -0.5870 C.3   1 <1>  -0.1600 
 23 C       -7.9280    -9.1680    -0.1390 C.3   1 <1>   0.0000 
 24 C       -9.3000    -9.4500     0.5170 C.3   1 <1>   0.1200 
 25 C       -7.7300   -10.0890    -1.3650 C.3   1 <1>  -0.2400 
 26 O       -9.4020   -10.7740     0.9210 O.3   1 <1>  -0.6800 
 27 H       -2.3280    -0.5210    -0.3720 H     1 <1>   0.1500 
 28 H       -0.2550    -4.9430     0.1590 H     1 <1>   0.1500 
 29 H       -3.7280    -2.5190    -0.3660 H     1 <1>   0.1500 
 30 H        3.3650    -2.5450     0.4070 H     1 <1>   0.0800 
 31 H        2.1730    -1.4490     1.0960 H     1 <1>   0.0800 
 32 H        2.4020    -1.5310    -0.6610 H     1 <1>   0.0800 
 33 H       -4.7200    -8.9650     1.2250 H     1 <1>   0.0800 
 34 H       -5.0790    -9.4260    -0.4200 H     1 <1>   0.0800 
 35 H       -6.2100    -7.7060    -1.9210 H     1 <1>   0.0800 
 36 H       -6.5930    -6.1480    -1.2610 H     1 <1>   0.0800 
 37 H       -7.0440    -8.8690     1.8040 H     1 <1>   0.0800 
 38 H       -6.7110   -10.4300     1.1350 H     1 <1>   0.0800 
 39 H       -8.6140    -7.5340    -1.3890 H     1 <1>   0.0800 
 40 H       -8.2210    -7.0590     0.2300 H     1 <1>   0.0800 
 41 H      -10.0990    -9.2530    -0.1770 H     1 <1>   0.0800 
 42 H       -9.4390    -8.8300     1.3870 H     1 <1>   0.0800 
 43 H       -6.8180    -9.8590    -1.8840 H     1 <1>   0.0800 
 44 H       -8.5450    -9.9730    -2.0560 H     1 <1>   0.0800 
 45 H       -7.6780   -11.1200    -1.0660 H     1 <1>   0.0800 
 46 H       -9.1880   -11.3620     0.1730 H     1 <1>   0.4000 
@<TRIPOS>BOND
  1   1   2  1   
  2   2   3  ar  
  3   2   4  ar  
  4   3   5  1   
  5   3   6  ar  
  6   4   7  ar  
  7   4  27  1   
  8   5   8  1   
  9   6   9  ar  
 10   6  28  1   
 11   7   9  ar  
 12   7  29  1   
 13   8  30  1   
 14   8  31  1   
 15   8  32  1   
 16   9  10  1   
 17  10  11  1   
 18  10  12  2   
 19  11  13  1   
 20  12  14  1   
 21  12  15  1   
 22  13  14  2   
 23  14  16  1   
 24  15  17  ar  
 25  15  18  ar  
 26  16  19  1   
 27  16  20  1   
 28  19  21  1   
 29  19  33  1   
 30  19  34  1   
 31  20  22  1   
 32  20  35  1   
 33  20  36  1   
 34  21  23  1   
 35  21  37  1   
 36  21  38  1   
 37  22  23  1   
 38  22  39  1   
 39  22  40  1   
 40  23  24  1   
 41  23  25  1   
 42  24  26  1   
 43  24  41  1   
 44  24  42  1   
 45  25  43  1   
 46  25  44  1   
 47  25  45  1   
 48  26  46  1   
@<TRIPOS>SUBSTRUCTURE
  1 ****  12 GROUP 4 **** **** 0

# MOE 2024.06 (io_trps.svl 2023.06)
