@<TRIPOS>MOLECULE
NONAME
51 54 1 0 0 
SMALL
USER_CHARGES


@<TRIPOS>ATOM
  1 O       -1.4670     1.4000    -1.9740 O.2   1 <1>  -0.5700 
  2 C       -1.6530     1.1610    -0.7930 C.2   1 <1>   0.7160 
  3 N       -1.9200    -0.1320    -0.4020 N.am  1 <1>  -0.6600 
  4 C       -1.5600     2.2140     0.1620 C.2   1 <1>  -0.0860 
  5 C       -2.0550    -1.2470    -1.3630 C.3   1 <1>   0.2200 
  6 C       -2.5630    -0.4690     0.8880 C.3   1 <1>   0.1400 
  7 C       -2.6380     2.9490     0.6670 C.2   1 <1>   0.3720 
  8 C       -0.4780     2.7440     0.7920 C.2   1 <1>   0.0870 
  9 C       -2.8200    -2.3350    -0.6070 C.3   1 <1>  -0.1600 
 10 C       -0.6750    -1.7240    -1.8150 C.3   1 <1>  -0.2400 
 11 C       -3.5060    -1.6130     0.5480 C.3   1 <1>  -0.1600 
 12 N       -2.2320     3.8220     1.5220 N.2   1 <1>  -0.4100 
 13 N       -3.9810     2.7500     0.3020 N.pl3 1 <1>  -0.8210 
 14 O       -0.9330     3.6860     1.5790 O.3   1 <1>  -0.0190 
 15 C        0.9370     2.4590     0.7390 C.ar  1 <1>   0.0530 
 16 C       -5.0370     3.4710     1.0680 C.3   1 <1>   0.2090 
 17 C       -4.2640     2.8830    -1.1530 C.3   1 <1>   0.2090 
 18 C        1.8690     3.3900     1.2040 C.ar  1 <1>  -0.1500 
 19 C        1.4410     1.2570     0.2350 C.ar  1 <1>  -0.1500 
 20 C       -5.7880     4.3060     0.0420 C.3   1 <1>  -0.1600 
 21 C       -5.6420     3.5230    -1.2540 C.3   1 <1>  -0.1600 
 22 C        3.2270     3.1370     1.1640 C.ar  1 <1>  -0.1500 
 23 C        2.7980     0.9970     0.1890 C.ar  1 <1>  -0.1500 
 24 C        3.7060     1.9420     0.6570 C.ar  1 <1>   0.0830 
 25 O        5.0490     1.7690     0.6500 O.3   1 <1>  -0.3630 
 26 C        5.6400     0.5990     0.1310 C.3   1 <1>   0.0400 
 27 H       -2.6320    -0.9120    -2.2100 H     1 <1>   0.0800 
 28 H       -3.1040     0.3630     1.3040 H     1 <1>   0.0800 
 29 H       -1.8070    -0.7950     1.5830 H     1 <1>   0.0800 
 30 H       -2.1340    -3.0650    -0.2130 H     1 <1>   0.0800 
 31 H       -3.5240    -2.8360    -1.2470 H     1 <1>   0.0800 
 32 H       -0.0750    -2.0050    -0.9690 H     1 <1>   0.0800 
 33 H       -0.1760    -0.9420    -2.3590 H     1 <1>   0.0800 
 34 H       -0.7780    -2.5720    -2.4660 H     1 <1>   0.0800 
 35 H       -4.4450    -1.2020     0.2200 H     1 <1>   0.0800 
 36 H       -3.6790    -2.2560     1.3940 H     1 <1>   0.0800 
 37 H       -4.6420     4.0910     1.8550 H     1 <1>   0.0800 
 38 H       -5.6980     2.7420     1.5040 H     1 <1>   0.0800 
 39 H       -4.2490     1.9190    -1.6340 H     1 <1>   0.0800 
 40 H       -3.5260     3.5210    -1.6120 H     1 <1>   0.0800 
 41 H        1.5260     4.3290     1.6000 H     1 <1>   0.1500 
 42 H        0.7680     0.5050    -0.1290 H     1 <1>   0.1500 
 43 H       -5.3010     5.2610    -0.0490 H     1 <1>   0.0800 
 44 H       -6.8150     4.4570     0.3210 H     1 <1>   0.0800 
 45 H       -6.3850     2.7450    -1.3000 H     1 <1>   0.0800 
 46 H       -5.7290     4.1470    -2.1260 H     1 <1>   0.0800 
 47 H        3.9280     3.8670     1.5260 H     1 <1>   0.1500 
 48 H        3.1300     0.0590    -0.2110 H     1 <1>   0.1500 
 49 H        6.7060     0.6950     0.2230 H     1 <1>   0.0800 
 50 H        5.3690     0.5020    -0.9060 H     1 <1>   0.0800 
 51 H        5.2980    -0.2470     0.7000 H     1 <1>   0.0800 
@<TRIPOS>BOND
  1   1   2  2   
  2   2   3  am  
  3   2   4  1   
  4   3   5  1   
  5   3   6  1   
  6   4   7  1   
  7   4   8  2   
  8   5   9  1   
  9   5  10  1   
 10   5  27  1   
 11   6  11  1   
 12   6  28  1   
 13   6  29  1   
 14   7  12  2   
 15   7  13  1   
 16   8  14  1   
 17   8  15  1   
 18   9  11  1   
 19   9  30  1   
 20   9  31  1   
 21  10  32  1   
 22  10  33  1   
 23  10  34  1   
 24  11  35  1   
 25  11  36  1   
 26  12  14  1   
 27  13  16  1   
 28  13  17  1   
 29  15  18  ar  
 30  15  19  ar  
 31  16  20  1   
 32  16  37  1   
 33  16  38  1   
 34  17  21  1   
 35  17  39  1   
 36  17  40  1   
 37  18  22  ar  
 38  18  41  1   
 39  19  23  ar  
 40  19  42  1   
 41  20  21  1   
 42  20  43  1   
 43  20  44  1   
 44  21  45  1   
 45  21  46  1   
 46  22  24  ar  
 47  22  47  1   
 48  23  24  ar  
 49  23  48  1   
 50  24  25  1   
 51  25  26  1   
 52  26  49  1   
 53  26  50  1   
 54  26  51  1   
@<TRIPOS>SUBSTRUCTURE
  1 ****   4 GROUP 4 **** **** 0

# MOE 2024.06 (io_trps.svl 2023.06)
