@<TRIPOS>MOLECULE
NONAME
51 52 1 0 0 
SMALL
USER_CHARGES


@<TRIPOS>ATOM
  1 O       -1.3480    -1.5580     0.3180 O.2   1 <1>  -0.5700 
  2 C       -2.2610    -0.7830     0.5370 C.2   1 <1>   0.5440 
  3 N       -2.0610     0.2310     1.4570 N.am  1 <1>  -0.6600 
  4 C       -3.5120    -0.9720    -0.1620 C.ar  1 <1>   0.0860 
  5 C       -3.1560     0.8770     2.2320 C.3   1 <1>   0.0600 
  6 C       -0.6900     0.5880     1.9200 C.3   1 <1>   0.0600 
  7 C       -3.9810    -2.2580    -0.4180 C.ar  1 <1>   0.1600 
  8 C       -4.2970     0.0800    -0.6280 C.ar  1 <1>  -0.1500 
  9 N       -5.1090    -2.5740    -1.0380 N.ar  1 <1>  -0.6200 
 10 C       -5.4660    -0.2240    -1.2810 C.ar  1 <1>  -0.1500 
 11 C       -5.8360    -1.5520    -1.4740 C.ar  1 <1>   0.4100 
 12 N       -7.0020    -1.8470    -2.1340 N.pl3 1 <1>  -0.8690 
 13 C       -7.1240    -3.0160    -3.0360 C.3   1 <1>   0.2090 
 14 C       -8.0000    -4.0790    -2.3740 C.3   1 <1>  -0.1600 
 15 C       -7.4060    -4.4680    -1.0210 C.3   1 <1>   0.3430 
 16 N       -8.2640    -5.4540    -0.3030 N.4   1 <1>  -0.9590 
 17 C       -7.9010    -5.4400     1.1490 C.3   1 <1>   0.4230 
 18 C       -8.2250    -6.8040    -0.9520 C.3   1 <1>   0.2630 
 19 C       -6.5630    -6.1210     1.4510 C.3   1 <1>  -0.1600 
 20 C       -8.9170    -6.2220     1.9790 C.3   1 <1>  -0.1600 
 21 C       -6.8650    -7.5750     1.8320 C.3   1 <1>  -0.1600 
 22 C       -8.3540    -7.6340     2.1890 C.3   1 <1>  -0.1600 
 23 H       -4.0860     0.3540     2.0920 H     1 <1>   0.0800 
 24 H       -3.2710     1.8980     1.9150 H     1 <1>   0.0800 
 25 H       -2.9170     0.8610     3.2810 H     1 <1>   0.0800 
 26 H        0.0470     0.2490     1.2120 H     1 <1>   0.0800 
 27 H       -0.4960     0.1240     2.8700 H     1 <1>   0.0800 
 28 H       -0.6020     1.6560     2.0190 H     1 <1>   0.0800 
 29 H       -3.3680    -3.0770    -0.0800 H     1 <1>   0.1500 
 30 H       -3.9820     1.0990    -0.4840 H     1 <1>   0.1500 
 31 H       -6.0990     0.5590    -1.6550 H     1 <1>   0.1500 
 32 H       -7.5280    -1.0320    -2.4650 H     1 <1>   0.4000 
 33 H       -6.1460    -3.4180    -3.2520 H     1 <1>   0.0800 
 34 H       -7.5640    -2.7030    -3.9680 H     1 <1>   0.0800 
 35 H       -8.0440    -4.9300    -3.0270 H     1 <1>   0.0800 
 36 H       -8.9890    -3.6800    -2.2470 H     1 <1>   0.0800 
 37 H       -7.3160    -3.5730    -0.4250 H     1 <1>   0.0800 
 38 H       -6.4120    -4.8620    -1.1580 H     1 <1>   0.0800 
 39 H       -9.2260    -5.0990    -0.3550 H     1 <1>   0.4500 
 40 H       -7.8720    -4.4160     1.4890 H     1 <1>   0.0800 
 41 H       -7.2210    -7.1950    -0.9400 H     1 <1>   0.0800 
 42 H       -8.5590    -6.7420    -1.9740 H     1 <1>   0.0800 
 43 H       -8.8690    -7.4900    -0.4260 H     1 <1>   0.0800 
 44 H       -6.1400    -5.6350     2.3130 H     1 <1>   0.0800 
 45 H       -5.8490    -6.0450     0.6500 H     1 <1>   0.0800 
 46 H       -9.9000    -6.2320     1.5420 H     1 <1>   0.0800 
 47 H       -8.9870    -5.7470     2.9430 H     1 <1>   0.0800 
 48 H       -6.2560    -7.8830     2.6660 H     1 <1>   0.0800 
 49 H       -6.6580    -8.2340     1.0060 H     1 <1>   0.0800 
 50 H       -8.8590    -8.3440     1.5570 H     1 <1>   0.0800 
 51 H       -8.4890    -7.9440     3.2130 H     1 <1>   0.0800 
@<TRIPOS>BOND
  1   1   2  2   
  2   2   3  am  
  3   2   4  1   
  4   3   5  1   
  5   3   6  1   
  6   4   7  ar  
  7   4   8  ar  
  8   5  23  1   
  9   5  24  1   
 10   5  25  1   
 11   6  26  1   
 12   6  27  1   
 13   6  28  1   
 14   7   9  ar  
 15   7  29  1   
 16   8  10  ar  
 17   8  30  1   
 18   9  11  ar  
 19  10  11  ar  
 20  10  31  1   
 21  11  12  1   
 22  12  13  1   
 23  12  32  1   
 24  13  14  1   
 25  13  33  1   
 26  13  34  1   
 27  14  15  1   
 28  14  35  1   
 29  14  36  1   
 30  15  16  1   
 31  15  37  1   
 32  15  38  1   
 33  16  17  1   
 34  16  18  1   
 35  16  39  1   
 36  17  19  1   
 37  17  20  1   
 38  17  40  1   
 39  18  41  1   
 40  18  42  1   
 41  18  43  1   
 42  19  21  1   
 43  19  44  1   
 44  19  45  1   
 45  20  22  1   
 46  20  46  1   
 47  20  47  1   
 48  21  22  1   
 49  21  48  1   
 50  21  49  1   
 51  22  50  1   
 52  22  51  1   
@<TRIPOS>SUBSTRUCTURE
  1 ****   9 GROUP 4 **** **** 0

# MOE 2024.06 (io_trps.svl 2023.06)
