@<TRIPOS>MOLECULE
NONAME
37 38 1 0 0 
SMALL
USER_CHARGES


@<TRIPOS>ATOM
  1 N        0.0790     1.9460     1.8390 N.ar  1 <1>  -0.6200 
  2 C       -0.3830     2.4870     0.7280 C.ar  1 <1>   0.4100 
  3 C       -0.4580     0.7610     2.0800 C.ar  1 <1>   0.1600 
  4 N        0.1640     3.7050     0.4420 N.pl3 1 <1>  -0.8690 
  5 C       -1.3460     1.8630    -0.0840 C.ar  1 <1>   0.1600 
  6 C       -1.4000     0.1440     1.2650 C.ar  1 <1>   0.1600 
  7 C        0.9290     3.8720    -0.7920 C.3   1 <1>   0.4700 
  8 N       -1.8770     0.6770     0.1480 N.ar  1 <1>  -0.6200 
  9 C        2.3100     4.3960    -0.4260 C.2   1 <1>  -0.1810 
 10 C        0.1930     4.8500    -1.6990 C.3   1 <1>  -0.2400 
 11 C        3.5060     3.8600    -0.8960 C.2   1 <1>   0.1080 
 12 C        2.6900     5.4210     0.3780 C.2   1 <1>  -0.3320 
 13 N        4.5400     4.4860    -0.4370 N.2   1 <1>  -0.7070 
 14 C        3.6520     2.6810    -1.8330 C.3   1 <1>  -0.0590 
 15 N        4.0430     5.4510     0.3530 N.pl3 1 <1>   0.3140 
 16 C        1.8450     6.3980     1.1870 C.3   1 <1>  -0.0600 
 17 C        4.9460     6.3780     1.0690 C.3   1 <1>   0.0960 
 18 C        5.2270     7.6350     0.2360 C.3   1 <1>  -0.2400 
 19 H       -0.1350     0.2500     2.9690 H     1 <1>   0.1500 
 20 H        0.7880     3.9770     1.2070 H     1 <1>   0.4000 
 21 H       -1.6760     2.3920    -0.9580 H     1 <1>   0.1500 
 22 H       -1.7750    -0.8240     1.5450 H     1 <1>   0.1500 
 23 H        1.0220     2.9220    -1.2900 H     1 <1>   0.0800 
 24 H        0.0800     5.8000    -1.2120 H     1 <1>   0.0800 
 25 H       -0.7750     4.4640    -1.9570 H     1 <1>   0.0800 
 26 H        0.7590     4.9960    -2.6010 H     1 <1>   0.0800 
 27 H        3.1230     2.8700    -2.7480 H     1 <1>   0.0800 
 28 H        3.2640     1.7960    -1.3650 H     1 <1>   0.0800 
 29 H        4.6910     2.5240    -2.0590 H     1 <1>   0.0800 
 30 H        0.7960     6.2330     1.0250 H     1 <1>   0.0800 
 31 H        2.0700     7.4090     0.8990 H     1 <1>   0.0800 
 32 H        2.0450     6.2790     2.2370 H     1 <1>   0.0800 
 33 H        5.8670     5.8570     1.2630 H     1 <1>   0.0800 
 34 H        4.5000     6.6400     2.0090 H     1 <1>   0.0800 
 35 H        5.6860     7.3580    -0.6980 H     1 <1>   0.0800 
 36 H        5.8970     8.2850     0.7680 H     1 <1>   0.0800 
 37 H        4.3140     8.1670     0.0370 H     1 <1>   0.0800 
@<TRIPOS>BOND
  1   1   2  ar  
  2   1   3  ar  
  3   2   4  1   
  4   2   5  ar  
  5   3   6  ar  
  6   3  19  1   
  7   4   7  1   
  8   4  20  1   
  9   5   8  ar  
 10   5  21  1   
 11   6   8  ar  
 12   6  22  1   
 13   7   9  1   
 14   7  10  1   
 15   7  23  1   
 16   9  11  1   
 17   9  12  2   
 18  10  24  1   
 19  10  25  1   
 20  10  26  1   
 21  11  13  2   
 22  11  14  1   
 23  12  15  1   
 24  12  16  1   
 25  13  15  1   
 26  14  27  1   
 27  14  28  1   
 28  14  29  1   
 29  15  17  1   
 30  16  30  1   
 31  16  31  1   
 32  16  32  1   
 33  17  18  1   
 34  17  33  1   
 35  17  34  1   
 36  18  35  1   
 37  18  36  1   
 38  18  37  1   
@<TRIPOS>SUBSTRUCTURE
  1 ****   9 GROUP 4 **** **** 0

# MOE 2024.06 (io_trps.svl 2023.06)
