@<TRIPOS>MOLECULE
NONAME
51 54 1 0 0 
SMALL
USER_CHARGES


@<TRIPOS>ATOM
  1 O        0.4700     0.0120    -2.0780 O.2   1 <1>  -0.5700 
  2 C       -0.4040     0.7820    -1.7500 C.2   1 <1>   0.5690 
  3 N       -1.7250     0.4520    -1.8990 N.am  1 <1>  -0.6600 
  4 C        0.0100     2.0950    -1.1020 C.3   1 <1>   0.0820 
  5 C       -2.9030     1.3320    -1.6980 C.3   1 <1>   0.1400 
  6 C       -2.1560    -0.9640    -1.8390 C.3   1 <1>   0.1400 
  7 C       -0.5090     2.1730     0.3310 C.2   1 <1>  -0.1810 
  8 C       -3.8610     0.4980    -0.8550 C.3   1 <1>   0.2000 
  9 C       -3.5960    -0.9520    -1.2980 C.3   1 <1>  -0.0800 
 10 C       -0.3170     1.2080     1.3200 C.2   1 <1>   0.1080 
 11 C       -1.2640     3.1270     0.9230 C.2   1 <1>  -0.3320 
 12 O       -3.5560     0.6830     0.4880 O.3   1 <1>  -0.6800 
 13 C       -3.8480    -2.0130    -0.2040 C.3   1 <1>  -0.0170 
 14 N       -0.9250     1.5110     2.4200 N.2   1 <1>  -0.7070 
 15 C        0.4850    -0.0700     1.1970 C.3   1 <1>  -0.0590 
 16 N       -1.5020     2.7000     2.1810 N.pl3 1 <1>   0.3000 
 17 C       -1.8090     4.4440     0.3950 C.3   1 <1>  -0.0600 
 18 C       -3.7410    -3.4830    -0.6280 C.ar  1 <1>  -0.1440 
 19 C       -3.7550    -4.5000     0.3600 C.ar  1 <1>   0.0000 
 20 C       -3.6390    -3.8900    -1.9300 C.ar  1 <1>  -0.1500 
 21 C       -3.6410    -5.8460    -0.0670 C.ar  1 <1>   0.3100 
 22 C       -3.8840    -4.2610     1.7490 C.ar  1 <1>  -0.1500 
 23 C       -3.5350    -5.2500    -2.2450 C.ar  1 <1>   0.1600 
 24 N       -3.5300    -6.2030    -1.3700 N.ar  1 <1>  -0.6200 
 25 C       -3.6470    -6.8700     0.8930 C.ar  1 <1>  -0.1500 
 26 C       -3.8880    -5.2830     2.6600 C.ar  1 <1>  -0.1500 
 27 C       -3.7670    -6.6060     2.2300 C.ar  1 <1>  -0.1500 
 28 H        1.0830     2.1590    -1.0900 H     1 <1>   0.0800 
 29 H       -0.3620     2.9080    -1.6930 H     1 <1>   0.0800 
 30 H       -2.6660     2.2650    -1.2250 H     1 <1>   0.0800 
 31 H       -3.3480     1.5280    -2.6580 H     1 <1>   0.0800 
 32 H       -2.1090    -1.3990    -2.8220 H     1 <1>   0.0800 
 33 H       -1.5000    -1.5130    -1.1840 H     1 <1>   0.0800 
 34 H       -4.8880     0.7860    -0.9980 H     1 <1>   0.0800 
 35 H       -4.2570    -1.1440    -2.1230 H     1 <1>   0.0800 
 36 H       -2.5810     0.7270     0.6280 H     1 <1>   0.4000 
 37 H       -4.8310    -1.8530     0.2050 H     1 <1>   0.0800 
 38 H       -3.1380    -1.8420     0.5860 H     1 <1>   0.0800 
 39 H        1.3480     0.0850     0.5780 H     1 <1>   0.0800 
 40 H       -0.1250    -0.8440     0.7680 H     1 <1>   0.0800 
 41 H        0.8130    -0.3870     2.1700 H     1 <1>   0.0800 
 42 H       -2.0560     3.1890     2.8940 H     1 <1>   0.2700 
 43 H       -1.4850     4.6190    -0.6140 H     1 <1>   0.0800 
 44 H       -1.4600     5.2580     1.0060 H     1 <1>   0.0800 
 45 H       -2.8850     4.4330     0.4120 H     1 <1>   0.0800 
 46 H       -3.6350    -3.2060    -2.7560 H     1 <1>   0.1500 
 47 H       -3.9830    -3.2540     2.1090 H     1 <1>   0.1500 
 48 H       -3.4520    -5.5200    -3.2840 H     1 <1>   0.1500 
 49 H       -3.5550    -7.8800     0.5370 H     1 <1>   0.1500 
 50 H       -3.9840    -5.0820     3.7130 H     1 <1>   0.1500 
 51 H       -3.7710    -7.4010     2.9550 H     1 <1>   0.1500 
@<TRIPOS>BOND
  1   1   2  2   
  2   2   3  am  
  3   2   4  1   
  4   3   5  1   
  5   3   6  1   
  6   4   7  1   
  7   4  28  1   
  8   4  29  1   
  9   5   8  1   
 10   5  30  1   
 11   5  31  1   
 12   6   9  1   
 13   6  32  1   
 14   6  33  1   
 15   7  10  1   
 16   7  11  2   
 17   8   9  1   
 18   8  12  1   
 19   8  34  1   
 20   9  13  1   
 21   9  35  1   
 22  10  14  2   
 23  10  15  1   
 24  11  16  1   
 25  11  17  1   
 26  12  36  1   
 27  13  18  1   
 28  13  37  1   
 29  13  38  1   
 30  14  16  1   
 31  15  39  1   
 32  15  40  1   
 33  15  41  1   
 34  16  42  1   
 35  17  43  1   
 36  17  44  1   
 37  17  45  1   
 38  18  19  ar  
 39  18  20  ar  
 40  19  21  ar  
 41  19  22  ar  
 42  20  23  ar  
 43  20  46  1   
 44  21  24  ar  
 45  21  25  ar  
 46  22  26  ar  
 47  22  47  1   
 48  23  24  ar  
 49  23  48  1   
 50  25  27  ar  
 51  25  49  1   
 52  26  27  ar  
 53  26  50  1   
 54  27  51  1   
@<TRIPOS>SUBSTRUCTURE
  1 ****  13 GROUP 4 **** **** 0

# MOE 2024.06 (io_trps.svl 2023.06)
