@<TRIPOS>MOLECULE
NONAME
46 47 1 0 0 
SMALL
USER_CHARGES


@<TRIPOS>ATOM
  1 O        1.9040    -0.5410     1.9850 O.2   1 <1>  -0.5700 
  2 C        1.7110    -0.8790     0.8410 C.2   1 <1>   0.5690 
  3 N        1.6920     0.0320    -0.1730 N.am  1 <1>  -0.7300 
  4 C        1.5450    -2.3730     0.5170 C.3   1 <1>   0.1710 
  5 C        1.8220     1.4970     0.0130 C.3   1 <1>   0.1400 
  6 N        0.1440    -2.8680     0.3480 N.3   1 <1>  -0.8100 
  7 C        3.2750     1.9250    -0.1910 C.3   1 <1>  -0.0170 
  8 C        0.1110    -4.3390     0.2660 C.3   1 <1>   0.1100 
  9 C       -0.5470    -2.2340    -0.7860 C.3   1 <1>   0.0300 
 10 C        3.4020     3.4330    -0.0570 C.ar  1 <1>  -0.1440 
 11 C       -1.2340    -4.8740     0.7630 C.3   1 <1>   0.0960 
 12 C        3.5050     4.0120     1.1980 C.ar  1 <1>  -0.1500 
 13 C        3.4110     4.2430    -1.1820 C.ar  1 <1>  -0.1500 
 14 N       -1.2490    -6.3450     0.6610 N.pl3 1 <1>   0.0480 
 15 C        3.6160     5.3850     1.3290 C.ar  1 <1>  -0.1500 
 16 C        3.5220     5.6170    -1.0530 C.ar  1 <1>  -0.1500 
 17 C       -1.6490    -7.1240    -0.3750 C.2   1 <1>   0.0070 
 18 C       -0.8240    -7.2140     1.5960 C.2   1 <1>  -0.3020 
 19 C        3.6240     6.1890     0.2030 C.ar  1 <1>  -0.1500 
 20 N       -1.5060    -8.3900    -0.1590 N.2   1 <1>  -0.5650 
 21 C       -2.2120    -6.5760    -1.6710 C.3   1 <1>  -0.0600 
 22 C       -0.9890    -8.4500     1.0800 C.2   1 <1>   0.0770 
 23 H        1.5390    -0.2860    -1.1300 H     1 <1>   0.3700 
 24 H        2.0000    -2.9080     1.3320 H     1 <1>   0.0800 
 25 H        2.1120    -2.5950    -0.3680 H     1 <1>   0.0800 
 26 H        1.5070     1.7660     1.0090 H     1 <1>   0.0800 
 27 H        1.1850     2.0080    -0.6880 H     1 <1>   0.0800 
 28 H        3.6130     1.6170    -1.1640 H     1 <1>   0.0800 
 29 H        3.8940     1.4470     0.5490 H     1 <1>   0.0800 
 30 H        0.8790    -4.7530     0.8980 H     1 <1>   0.0800 
 31 H        0.2940    -4.6580    -0.7460 H     1 <1>   0.0800 
 32 H       -0.6320    -1.1740    -0.6180 H     1 <1>   0.0800 
 33 H       -1.5440    -2.6250    -0.8850 H     1 <1>   0.0800 
 34 H       -0.0110    -2.4100    -1.7020 H     1 <1>   0.0800 
 35 H       -2.0430    -4.4780     0.1810 H     1 <1>   0.0800 
 36 H       -1.3760    -4.5960     1.7920 H     1 <1>   0.0800 
 37 H        3.4990     3.3940     2.0800 H     1 <1>   0.1500 
 38 H        3.3320     3.8110    -2.1640 H     1 <1>   0.1500 
 39 H        3.6960     5.8270     2.3060 H     1 <1>   0.1500 
 40 H        3.5290     6.2420    -1.9300 H     1 <1>   0.1500 
 41 H       -0.4370    -6.9160     2.5530 H     1 <1>   0.1500 
 42 H        3.7100     7.2570     0.3040 H     1 <1>   0.1500 
 43 H       -1.4950    -5.9310    -2.1450 H     1 <1>   0.0800 
 44 H       -3.1170    -6.0300    -1.4790 H     1 <1>   0.0800 
 45 H       -2.4380    -7.3880    -2.3390 H     1 <1>   0.0800 
 46 H       -0.7590    -9.3960     1.5420 H     1 <1>   0.1500 
@<TRIPOS>BOND
  1   1   2  2   
  2   2   3  am  
  3   2   4  1   
  4   3   5  1   
  5   3  23  1   
  6   4   6  1   
  7   4  24  1   
  8   4  25  1   
  9   5   7  1   
 10   5  26  1   
 11   5  27  1   
 12   6   8  1   
 13   6   9  1   
 14   7  10  1   
 15   7  28  1   
 16   7  29  1   
 17   8  11  1   
 18   8  30  1   
 19   8  31  1   
 20   9  32  1   
 21   9  33  1   
 22   9  34  1   
 23  10  12  ar  
 24  10  13  ar  
 25  11  14  1   
 26  11  35  1   
 27  11  36  1   
 28  12  15  ar  
 29  12  37  1   
 30  13  16  ar  
 31  13  38  1   
 32  14  17  1   
 33  14  18  1   
 34  15  19  ar  
 35  15  39  1   
 36  16  19  ar  
 37  16  40  1   
 38  17  20  2   
 39  17  21  1   
 40  18  22  2   
 41  18  41  1   
 42  19  42  1   
 43  20  22  1   
 44  21  43  1   
 45  21  44  1   
 46  21  45  1   
 47  22  46  1   
@<TRIPOS>SUBSTRUCTURE
  1 ****   2 GROUP 4 **** **** 0

# MOE 2024.06 (io_trps.svl 2023.06)
