@<TRIPOS>MOLECULE
NONAME
51 53 1 0 0 
SMALL
USER_CHARGES


@<TRIPOS>ATOM
  1 O       -1.6960     0.4070    -2.0810 O.2   1 <1>  -0.5700 
  2 C       -1.7720     0.7720    -0.9350 C.2   1 <1>   0.5690 
  3 N       -1.8910    -0.1050     0.0900 N.am  1 <1>  -0.7300 
  4 C       -1.7340     2.2500    -0.6230 C.3   1 <1>  -0.0990 
  5 C       -1.9010    -1.5790    -0.0520 C.3   1 <1>   0.2200 
  6 C       -0.2930     2.7420    -0.4650 C.3   1 <1>  -0.0160 
  7 C       -3.3000    -2.1450     0.1510 C.3   1 <1>  -0.0800 
  8 C       -1.1800    -2.1870     1.1430 C.3   1 <1>   0.1200 
  9 C       -0.2780     4.2140    -0.0910 C.ar  1 <1>  -0.1440 
 10 C       -3.4050    -2.2740     1.6760 C.3   1 <1>   0.1200 
 11 C       -4.4480    -1.3510    -0.4990 C.3   1 <1>  -0.0160 
 12 O       -2.1080    -2.1380     2.1830 O.3   1 <1>  -0.5600 
 13 C       -0.2180     4.6020     1.2380 C.ar  1 <1>  -0.1500 
 14 C       -0.3290     5.1850    -1.0780 C.ar  1 <1>  -0.1500 
 15 C       -5.7770    -2.0640    -0.3080 C.ar  1 <1>  -0.1440 
 16 C       -0.2100     5.9440     1.5750 C.ar  1 <1>  -0.1500 
 17 C       -0.3210     6.5270    -0.7400 C.ar  1 <1>  -0.1500 
 18 C       -6.1610    -3.1120    -1.1200 C.ar  1 <1>  -0.1500 
 19 C       -6.6670    -1.7050     0.6840 C.ar  1 <1>  -0.1500 
 20 C       -0.2630     6.9160     0.5890 C.ar  1 <1>  -0.1440 
 21 C       -7.3780    -3.7360    -0.9040 C.ar  1 <1>   0.1600 
 22 C       -7.8610    -2.3960     0.8160 C.ar  1 <1>   0.1600 
 23 C       -0.2540     8.3900     0.9590 C.3   1 <1>  -0.0170 
 24 N       -8.2360    -3.4050     0.0470 N.ar  1 <1>  -0.6200 
 25 C        1.1800     8.9190     1.0240 C.3   1 <1>  -0.2400 
 26 H       -1.9740     0.2180     1.0560 H     1 <1>   0.3700 
 27 H       -2.2100     2.7840    -1.4250 H     1 <1>   0.0800 
 28 H       -2.2870     2.4420     0.2780 H     1 <1>   0.0800 
 29 H       -1.4630    -1.8760    -0.9900 H     1 <1>   0.0800 
 30 H        0.2420     2.5950    -1.3880 H     1 <1>   0.0800 
 31 H        0.2080     2.1690     0.2960 H     1 <1>   0.0800 
 32 H       -3.3120    -3.1410    -0.2550 H     1 <1>   0.0800 
 33 H       -0.2930    -1.6450     1.4180 H     1 <1>   0.0800 
 34 H       -0.9390    -3.2200     0.9610 H     1 <1>   0.0800 
 35 H       -3.7970    -3.2330     1.9680 H     1 <1>   0.0800 
 36 H       -4.0050    -1.4900     2.1040 H     1 <1>   0.0800 
 37 H       -4.2520    -1.2380    -1.5520 H     1 <1>   0.0800 
 38 H       -4.5110    -0.3630    -0.0770 H     1 <1>   0.0800 
 39 H       -0.1760     3.8630     2.0180 H     1 <1>   0.1500 
 40 H       -0.3750     4.9000    -2.1140 H     1 <1>   0.1500 
 41 H       -0.1610     6.2310     2.6110 H     1 <1>   0.1500 
 42 H       -0.3590     7.2690    -1.5180 H     1 <1>   0.1500 
 43 H       -5.5250    -3.4480    -1.9190 H     1 <1>   0.1500 
 44 H       -6.4470    -0.8960     1.3560 H     1 <1>   0.1500 
 45 H       -7.6600    -4.5520    -1.5470 H     1 <1>   0.1500 
 46 H       -8.5430    -2.1030     1.5960 H     1 <1>   0.1500 
 47 H       -0.8130     8.9500     0.2300 H     1 <1>   0.0800 
 48 H       -0.7340     8.5270     1.9120 H     1 <1>   0.0800 
 49 H        1.6620     8.8000     0.0700 H     1 <1>   0.0800 
 50 H        1.7420     8.3760     1.7630 H     1 <1>   0.0800 
 51 H        1.1800     9.9610     1.2850 H     1 <1>   0.0800 
@<TRIPOS>BOND
  1   1   2  2   
  2   2   3  am  
  3   2   4  1   
  4   3   5  1   
  5   3  26  1   
  6   4   6  1   
  7   4  27  1   
  8   4  28  1   
  9   5   7  1   
 10   5   8  1   
 11   5  29  1   
 12   6   9  1   
 13   6  30  1   
 14   6  31  1   
 15   7  10  1   
 16   7  11  1   
 17   7  32  1   
 18   8  12  1   
 19   8  33  1   
 20   8  34  1   
 21   9  13  ar  
 22   9  14  ar  
 23  10  12  1   
 24  10  35  1   
 25  10  36  1   
 26  11  15  1   
 27  11  37  1   
 28  11  38  1   
 29  13  16  ar  
 30  13  39  1   
 31  14  17  ar  
 32  14  40  1   
 33  15  18  ar  
 34  15  19  ar  
 35  16  20  ar  
 36  16  41  1   
 37  17  20  ar  
 38  17  42  1   
 39  18  21  ar  
 40  18  43  1   
 41  19  22  ar  
 42  19  44  1   
 43  20  23  1   
 44  21  24  ar  
 45  21  45  1   
 46  22  24  ar  
 47  22  46  1   
 48  23  25  1   
 49  23  47  1   
 50  23  48  1   
 51  25  49  1   
 52  25  50  1   
 53  25  51  1   
@<TRIPOS>SUBSTRUCTURE
  1 ****   2 GROUP 4 **** **** 0

# MOE 2024.06 (io_trps.svl 2023.06)
