@<TRIPOS>MOLECULE
NONAME
60 63 1 0 0 
SMALL
USER_CHARGES


@<TRIPOS>ATOM
  1 O       -0.8720     0.5380     1.3340 O.2   1 <1>  -0.5700 
  2 C       -1.2010     1.4320     0.5850 C.2   1 <1>   0.5690 
  3 N       -1.8430     1.1630    -0.6040 N.am  1 <1>  -0.6600 
  4 C       -0.8870     2.8660     1.0140 C.3   1 <1>  -0.0190 
  5 C       -2.3380     2.1790    -1.5790 C.3   1 <1>   0.1400 
  6 C       -2.1300    -0.2410    -1.0180 C.3   1 <1>   0.1400 
  7 C        0.3140     2.9050     1.9700 C.3   1 <1>   0.2090 
  8 C       -2.1110     3.5410     1.6660 C.3   1 <1>  -0.1600 
  9 C       -3.8500     2.0180    -1.7720 C.3   1 <1>  -0.1600 
 10 C       -3.6390    -0.4290    -1.2020 C.3   1 <1>  -0.1600 
 11 N        0.6110     4.3130     2.3600 N.pl3 1 <1>  -0.8380 
 12 C       -1.7690     4.9750     2.0950 C.3   1 <1>  -0.1600 
 13 C       -4.2190     0.5890    -2.1940 C.3   1 <1>  -0.1600 
 14 C        1.5510     5.0240     1.6340 C.ar  1 <1>   0.4100 
 15 C       -0.5290     5.0300     2.9960 C.3   1 <1>   0.2090 
 16 N        1.1710     6.1080     1.0210 N.ar  1 <1>  -0.6200 
 17 C        2.8720     4.5480     1.5820 C.ar  1 <1>  -0.1500 
 18 C        2.0890     6.8000     0.2950 C.ar  1 <1>   0.3100 
 19 C        3.8260     5.2010     0.8670 C.ar  1 <1>  -0.1440 
 20 C        1.6950     7.9880    -0.3840 C.ar  1 <1>   0.0820 
 21 C        3.4380     6.3790     0.1860 C.ar  1 <1>   0.0000 
 22 C        5.2530     4.6760     0.8170 C.3   1 <1>  -0.0970 
 23 O        0.3910     8.3780    -0.2660 O.3   1 <1>  -0.3620 
 24 C        2.6000     8.7110    -1.1300 C.ar  1 <1>  -0.1500 
 25 C        4.3290     7.1490    -0.5860 C.ar  1 <1>  -0.1500 
 26 C       -0.0920     9.6000    -0.7770 C.3   1 <1>   0.0400 
 27 C        3.9320     8.2870    -1.2330 C.ar  1 <1>   0.0820 
 28 O        4.8740     8.9510    -1.9510 O.3   1 <1>  -0.3620 
 29 C        4.5690    10.1240    -2.6720 C.3   1 <1>   0.0400 
 30 H       -0.5870     3.4230     0.1470 H     1 <1>   0.0800 
 31 H       -1.8340     2.0300    -2.5190 H     1 <1>   0.0800 
 32 H       -2.1340     3.1810    -1.2520 H     1 <1>   0.0800 
 33 H       -1.7700    -0.9420    -0.2840 H     1 <1>   0.0800 
 34 H       -1.6200    -0.4430    -1.9440 H     1 <1>   0.0800 
 35 H        1.1670     2.4630     1.4860 H     1 <1>   0.0800 
 36 H        0.1000     2.3340     2.8570 H     1 <1>   0.0800 
 37 H       -2.4110     2.9700     2.5290 H     1 <1>   0.0800 
 38 H       -2.9370     3.5580     0.9780 H     1 <1>   0.0800 
 39 H       -4.1880     2.7130    -2.5190 H     1 <1>   0.0800 
 40 H       -4.3450     2.2620    -0.8480 H     1 <1>   0.0800 
 41 H       -4.1180    -0.3190    -0.2440 H     1 <1>   0.0800 
 42 H       -3.8330    -1.4270    -1.5530 H     1 <1>   0.0800 
 43 H       -2.6030     5.4100     2.6160 H     1 <1>   0.0800 
 44 H       -1.5790     5.5790     1.2240 H     1 <1>   0.0800 
 45 H       -3.8240     0.3940    -3.1770 H     1 <1>   0.0800 
 46 H       -5.2890     0.4860    -2.2380 H     1 <1>   0.0800 
 47 H       -0.2580     6.0560     3.1840 H     1 <1>   0.0800 
 48 H       -0.7440     4.5650     3.9430 H     1 <1>   0.0800 
 49 H        3.0930     3.6570     2.1350 H     1 <1>   0.1500 
 50 H        5.3510     3.7760     1.3980 H     1 <1>   0.0800 
 51 H        5.9300     5.4100     1.2170 H     1 <1>   0.0800 
 52 H        5.5300     4.4550    -0.1980 H     1 <1>   0.0800 
 53 H        2.2990     9.6010    -1.6400 H     1 <1>   0.1500 
 54 H        5.3540     6.8450    -0.6790 H     1 <1>   0.1500 
 55 H       -1.1270     9.6880    -0.5000 H     1 <1>   0.0800 
 56 H       -0.0010     9.5920    -1.8480 H     1 <1>   0.0800 
 57 H        0.4720    10.4070    -0.3430 H     1 <1>   0.0800 
 58 H        5.4670    10.4580    -3.1610 H     1 <1>   0.0800 
 59 H        4.2270    10.8770    -1.9840 H     1 <1>   0.0800 
 60 H        3.8170     9.8980    -3.4060 H     1 <1>   0.0800 
@<TRIPOS>BOND
  1   1   2  2   
  2   2   3  am  
  3   2   4  1   
  4   3   5  1   
  5   3   6  1   
  6   4   7  1   
  7   4   8  1   
  8   4  30  1   
  9   5   9  1   
 10   5  31  1   
 11   5  32  1   
 12   6  10  1   
 13   6  33  1   
 14   6  34  1   
 15   7  11  1   
 16   7  35  1   
 17   7  36  1   
 18   8  12  1   
 19   8  37  1   
 20   8  38  1   
 21   9  13  1   
 22   9  39  1   
 23   9  40  1   
 24  10  13  1   
 25  10  41  1   
 26  10  42  1   
 27  11  14  1   
 28  11  15  1   
 29  12  15  1   
 30  12  43  1   
 31  12  44  1   
 32  13  45  1   
 33  13  46  1   
 34  14  16  ar  
 35  14  17  ar  
 36  15  47  1   
 37  15  48  1   
 38  16  18  ar  
 39  17  19  ar  
 40  17  49  1   
 41  18  20  ar  
 42  18  21  ar  
 43  19  21  ar  
 44  19  22  1   
 45  20  23  1   
 46  20  24  ar  
 47  21  25  ar  
 48  22  50  1   
 49  22  51  1   
 50  22  52  1   
 51  23  26  1   
 52  24  27  ar  
 53  24  53  1   
 54  25  27  ar  
 55  25  54  1   
 56  26  55  1   
 57  26  56  1   
 58  26  57  1   
 59  27  28  1   
 60  28  29  1   
 61  29  58  1   
 62  29  59  1   
 63  29  60  1   
@<TRIPOS>SUBSTRUCTURE
  1 ****  16 GROUP 4 **** **** 0

# MOE 2024.06 (io_trps.svl 2023.06)
