@<TRIPOS>MOLECULE
NONAME
55 57 1 0 0 
SMALL
USER_CHARGES


@<TRIPOS>ATOM
  1 O        0.3540     0.0700    -0.5410 O.2   1 <1>  -0.5700 
  2 C       -0.2680     0.8100     0.1960 C.2   1 <1>   0.5690 
  3 N       -1.6300     0.5930     0.3600 N.am  1 <1>  -0.6600 
  4 C        0.5800     1.9380     0.9040 C.3   1 <1>   0.4300 
  5 C       -2.3360    -0.3880    -0.5340 C.3   1 <1>   0.1400 
  6 C       -2.4770     1.1210     1.4670 C.3   1 <1>   0.1400 
  7 N        1.8820     2.1260     0.1830 N.pl3 1 <1>  -0.8690 
  8 C       -0.1130     3.3120     1.0110 C.3   1 <1>  -0.2400 
  9 C        1.0050     1.4830     2.3050 C.3   1 <1>  -0.2400 
 10 C       -3.5920     0.1950    -1.2000 C.3   1 <1>   0.1400 
 11 C       -3.4030     2.2260     0.9420 C.3   1 <1>  -0.1600 
 12 C        2.0190     3.0900    -0.8080 C.ar  1 <1>   0.1000 
 13 N       -4.6990     0.3840    -0.2120 N.am  1 <1>  -0.6600 
 14 C       -4.7660     1.7220     0.4450 C.3   1 <1>   0.1400 
 15 C        1.5490     2.8560    -2.0940 C.ar  1 <1>  -0.1500 
 16 C        2.6420     4.3000    -0.5320 C.ar  1 <1>  -0.1500 
 17 C       -5.6700    -0.5680     0.0330 C.2   1 <1>   0.5690 
 18 C        1.6830     3.8180    -3.0790 C.ar  1 <1>  -0.1500 
 19 C        2.7780     5.2650    -1.5130 C.ar  1 <1>  -0.1500 
 20 O       -6.5930    -0.3230     0.7810 O.2   1 <1>  -0.5700 
 21 C       -5.5920    -1.9770    -0.6130 C.3   1 <1>   0.2610 
 22 C        2.2970     5.0250    -2.7890 C.ar  1 <1>  -0.1500 
 23 O       -5.8470    -1.9230    -1.9910 O.3   1 <1>  -0.5600 
 24 C       -6.6200    -2.9950    -0.1140 C.3   1 <1>  -0.1600 
 25 C       -7.2190    -1.9910    -2.2160 C.3   1 <1>   0.1200 
 26 C       -7.7960    -2.8060    -1.0610 C.3   1 <1>  -0.1600 
 27 H       -2.5980    -1.2620     0.0350 H     1 <1>   0.0800 
 28 H       -1.6810    -0.7100    -1.3240 H     1 <1>   0.0800 
 29 H       -1.8630     1.5040     2.2570 H     1 <1>   0.0800 
 30 H       -3.0590     0.3210     1.8940 H     1 <1>   0.0800 
 31 H        2.0660     1.1950    -0.2200 H     1 <1>   0.4000 
 32 H       -0.5100     3.6010     0.0550 H     1 <1>   0.0800 
 33 H        0.5890     4.0560     1.3400 H     1 <1>   0.0800 
 34 H       -0.9100     3.3070     1.7240 H     1 <1>   0.0800 
 35 H        1.5310     0.5470     2.2390 H     1 <1>   0.0800 
 36 H        0.1590     1.3460     2.9470 H     1 <1>   0.0800 
 37 H        1.6550     2.2150     2.7500 H     1 <1>   0.0800 
 38 H       -3.9090    -0.4680    -1.9830 H     1 <1>   0.0800 
 39 H       -3.3490     1.1320    -1.6690 H     1 <1>   0.0800 
 40 H       -2.9140     2.7760     0.1580 H     1 <1>   0.0800 
 41 H       -3.5940     2.9220     1.7380 H     1 <1>   0.0800 
 42 H       -5.1850     2.4320    -0.2460 H     1 <1>   0.0800 
 43 H       -5.4290     1.6700     1.2920 H     1 <1>   0.0800 
 44 H        1.0770     1.9170    -2.3200 H     1 <1>   0.1500 
 45 H        3.0170     4.4710     0.4600 H     1 <1>   0.1500 
 46 H        1.3140     3.6270    -4.0710 H     1 <1>   0.1500 
 47 H        3.2610     6.1990    -1.2850 H     1 <1>   0.1500 
 48 H       -4.6010    -2.3650    -0.4750 H     1 <1>   0.0800 
 49 H        2.4030     5.7740    -3.5550 H     1 <1>   0.1500 
 50 H       -6.8870    -2.8460     0.9170 H     1 <1>   0.0800 
 51 H       -6.2130    -3.9840    -0.2280 H     1 <1>   0.0800 
 52 H       -7.3920    -2.4540    -3.1720 H     1 <1>   0.0800 
 53 H       -7.6090    -0.9860    -2.2140 H     1 <1>   0.0800 
 54 H       -8.5880    -2.2510    -0.5880 H     1 <1>   0.0800 
 55 H       -8.1830    -3.7490    -1.4050 H     1 <1>   0.0800 
@<TRIPOS>BOND
  1   1   2  2   
  2   2   3  am  
  3   2   4  1   
  4   3   5  1   
  5   3   6  1   
  6   4   7  1   
  7   4   8  1   
  8   4   9  1   
  9   5  10  1   
 10   5  27  1   
 11   5  28  1   
 12   6  11  1   
 13   6  29  1   
 14   6  30  1   
 15   7  12  1   
 16   7  31  1   
 17   8  32  1   
 18   8  33  1   
 19   8  34  1   
 20   9  35  1   
 21   9  36  1   
 22   9  37  1   
 23  10  13  1   
 24  10  38  1   
 25  10  39  1   
 26  11  14  1   
 27  11  40  1   
 28  11  41  1   
 29  12  15  ar  
 30  12  16  ar  
 31  13  14  1   
 32  13  17  am  
 33  14  42  1   
 34  14  43  1   
 35  15  18  ar  
 36  15  44  1   
 37  16  19  ar  
 38  16  45  1   
 39  17  20  2   
 40  17  21  1   
 41  18  22  ar  
 42  18  46  1   
 43  19  22  ar  
 44  19  47  1   
 45  21  23  1   
 46  21  24  1   
 47  21  48  1   
 48  22  49  1   
 49  23  25  1   
 50  24  26  1   
 51  24  50  1   
 52  24  51  1   
 53  25  26  1   
 54  25  52  1   
 55  25  53  1   
 56  26  54  1   
 57  26  55  1   
@<TRIPOS>SUBSTRUCTURE
  1 ****   3 GROUP 4 **** **** 0

# MOE 2024.06 (io_trps.svl 2023.06)
