@<TRIPOS>MOLECULE
NONAME
46 47 1 0 0 
SMALL
USER_CHARGES


@<TRIPOS>ATOM
  1 O        1.0880     0.5440    -1.4880 O.2   1 <1>  -0.5700 
  2 C        1.3970     0.6120    -0.3110 C.2   1 <1>   0.5440 
  3 N        1.0900     1.7600     0.3710 N.am  1 <1>  -0.7300 
  4 C        2.0580    -0.4870     0.3600 C.ar  1 <1>   0.0860 
  5 C        0.4380     2.9650    -0.2080 C.3   1 <1>   0.0600 
  6 C        1.8000    -1.8330     0.0180 C.ar  1 <1>   0.4100 
  7 C        2.9760    -0.2520     1.3760 C.ar  1 <1>  -0.1500 
  8 N        2.3490    -2.8800     0.6350 N.ar  1 <1>  -0.6200 
  9 N        0.9290    -2.1490    -1.0020 N.pl3 1 <1>  -0.8690 
 10 C        3.5600    -1.3320     1.9970 C.ar  1 <1>  -0.1500 
 11 C        3.2140    -2.6080     1.5940 C.ar  1 <1>   0.1600 
 12 C        1.0980    -3.3560    -1.8620 C.3   1 <1>   0.2090 
 13 C        0.0270    -4.4040    -1.5260 C.3   1 <1>   0.2000 
 14 O       -1.2320    -3.8100    -1.6400 O.3   1 <1>  -0.6800 
 15 C        0.1840    -4.9350    -0.0890 C.3   1 <1>   0.3430 
 16 N       -1.0760    -5.6020     0.3650 N.4   1 <1>  -0.9590 
 17 C       -1.2320    -5.5210     1.8410 C.3   1 <1>   0.3430 
 18 C       -1.2240    -6.9840    -0.1660 C.3   1 <1>   0.3430 
 19 C       -2.6120    -6.0460     2.2420 C.3   1 <1>  -0.1600 
 20 C       -2.6050    -7.5300     0.2040 C.3   1 <1>  -0.1600 
 21 C       -2.8560    -7.4680     1.7160 C.3   1 <1>  -0.1600 
 22 H        1.2530     1.7950     1.3790 H     1 <1>   0.3700 
 23 H        0.3340     2.8640    -1.2760 H     1 <1>   0.0800 
 24 H        1.0330     3.8360    -0.0010 H     1 <1>   0.0800 
 25 H       -0.5400     3.0920     0.2230 H     1 <1>   0.0800 
 26 H        3.2380     0.7500     1.6680 H     1 <1>   0.1500 
 27 H        0.6980    -1.3020    -1.5610 H     1 <1>   0.4000 
 28 H        4.2790    -1.1910     2.7850 H     1 <1>   0.1500 
 29 H        3.6790    -3.4440     2.0910 H     1 <1>   0.1500 
 30 H        2.0820    -3.7760    -1.7310 H     1 <1>   0.0800 
 31 H        1.0070    -3.0700    -2.8970 H     1 <1>   0.0800 
 32 H        0.0770    -5.2170    -2.2280 H     1 <1>   0.0800 
 33 H       -1.1250    -2.8560    -1.4110 H     1 <1>   0.4000 
 34 H        0.3780    -4.0910     0.5500 H     1 <1>   0.0800 
 35 H        1.0280    -5.6010    -0.0180 H     1 <1>   0.0800 
 36 H       -1.8190    -5.0290    -0.0750 H     1 <1>   0.4500 
 37 H       -1.1270    -4.4980     2.1670 H     1 <1>   0.0800 
 38 H       -0.4680    -6.1110     2.3210 H     1 <1>   0.0800 
 39 H       -0.4610    -7.6200     0.2540 H     1 <1>   0.0800 
 40 H       -1.1170    -6.9810    -1.2390 H     1 <1>   0.0800 
 41 H       -3.3680    -5.3810     1.8620 H     1 <1>   0.0800 
 42 H       -2.6920    -6.0440     3.3150 H     1 <1>   0.0800 
 43 H       -2.6810    -8.5500    -0.1290 H     1 <1>   0.0800 
 44 H       -3.3590    -6.9650    -0.3170 H     1 <1>   0.0800 
 45 H       -3.8690    -7.7680     1.9310 H     1 <1>   0.0800 
 46 H       -2.1970    -8.1550     2.2200 H     1 <1>   0.0800 
@<TRIPOS>BOND
  1   1   2  2   
  2   2   3  am  
  3   2   4  1   
  4   3   5  1   
  5   3  22  1   
  6   4   6  ar  
  7   4   7  ar  
  8   5  23  1   
  9   5  24  1   
 10   5  25  1   
 11   6   8  ar  
 12   6   9  1   
 13   7  10  ar  
 14   7  26  1   
 15   8  11  ar  
 16   9  12  1   
 17   9  27  1   
 18  10  11  ar  
 19  10  28  1   
 20  11  29  1   
 21  12  13  1   
 22  12  30  1   
 23  12  31  1   
 24  13  14  1   
 25  13  15  1   
 26  13  32  1   
 27  14  33  1   
 28  15  16  1   
 29  15  34  1   
 30  15  35  1   
 31  16  17  1   
 32  16  18  1   
 33  16  36  1   
 34  17  19  1   
 35  17  37  1   
 36  17  38  1   
 37  18  20  1   
 38  18  39  1   
 39  18  40  1   
 40  19  21  1   
 41  19  41  1   
 42  19  42  1   
 43  20  21  1   
 44  20  43  1   
 45  20  44  1   
 46  21  45  1   
 47  21  46  1   
@<TRIPOS>SUBSTRUCTURE
  1 ****   9 GROUP 4 **** **** 0

# MOE 2024.06 (io_trps.svl 2023.06)
