@<TRIPOS>MOLECULE
NONAME
33 34 1 0 0 
SMALL
USER_CHARGES


@<TRIPOS>ATOM
  1 CL      -2.2100    -1.9240    -1.9790 Cl    1 <1>  -0.1770 
  2 C       -2.5970    -0.3480    -1.3210 C.ar  1 <1>   0.1770 
  3 C       -3.0430    -0.2170    -0.0180 C.ar  1 <1>  -0.1440 
  4 C       -2.4460     0.7650    -2.1340 C.ar  1 <1>   0.1600 
  5 C       -3.3060     1.0830     0.3740 C.ar  1 <1>   0.1770 
  6 C       -3.2280    -1.4180     0.8950 C.3   1 <1>   0.2540 
  7 N       -2.7010     2.0130    -1.7590 N.ar  1 <1>  -0.6200 
  8 CL      -3.8690     1.4340     1.9920 Cl    1 <1>  -0.1770 
  9 C       -3.1290     2.1400    -0.5080 C.ar  1 <1>   0.1600 
 10 N       -4.3700    -2.2290     0.4450 N.3   1 <1>  -0.8100 
 11 C       -4.3480    -3.5700     1.0690 C.3   1 <1>   0.2900 
 12 C       -5.6760    -1.5620     0.6710 C.3   1 <1>   0.1100 
 13 C       -5.2390    -4.5210     0.2890 C.2   1 <1>   0.0060 
 14 C       -6.2050    -0.9590    -0.6330 C.3   1 <1>   0.1200 
 15 N       -6.0960    -5.3410     0.8090 N.2   1 <1>  -0.5650 
 16 N       -5.1950    -4.5680    -1.0580 N.pl3 1 <1>   0.0330 
 17 O       -7.4700    -0.4340    -0.4130 O.3   1 <1>  -0.6800 
 18 C       -6.6380    -5.9580    -0.2600 C.2   1 <1>   0.0770 
 19 C       -6.1000    -5.4970    -1.4100 C.2   1 <1>  -0.3020 
 20 H       -2.0980     0.6160    -3.1420 H     1 <1>   0.1500 
 21 H       -3.3680    -1.1220     1.9210 H     1 <1>   0.0800 
 22 H       -2.3280    -2.0090     0.8510 H     1 <1>   0.0800 
 23 H       -3.3500     3.1350    -0.1620 H     1 <1>   0.1500 
 24 H       -4.6760    -3.5170     2.0940 H     1 <1>   0.0800 
 25 H       -3.3490    -3.9690     1.0530 H     1 <1>   0.0800 
 26 H       -5.5860    -0.7910     1.4180 H     1 <1>   0.0800 
 27 H       -6.4020    -2.2780     1.0210 H     1 <1>   0.0800 
 28 H       -6.2830    -1.7120    -1.3970 H     1 <1>   0.0800 
 29 H       -5.5750    -0.1580    -0.9740 H     1 <1>   0.0800 
 30 H       -4.5980    -3.9790    -1.6490 H     1 <1>   0.2700 
 31 H       -8.1020    -1.1470    -0.1950 H     1 <1>   0.4000 
 32 H       -7.3980    -6.7120    -0.1420 H     1 <1>   0.1500 
 33 H       -6.3060    -5.7710    -2.4290 H     1 <1>   0.1500 
@<TRIPOS>BOND
  1   1   2  1   
  2   2   3  ar  
  3   2   4  ar  
  4   3   5  ar  
  5   3   6  1   
  6   4   7  ar  
  7   4  20  1   
  8   5   8  1   
  9   5   9  ar  
 10   6  10  1   
 11   6  21  1   
 12   6  22  1   
 13   7   9  ar  
 14   9  23  1   
 15  10  11  1   
 16  10  12  1   
 17  11  13  1   
 18  11  24  1   
 19  11  25  1   
 20  12  14  1   
 21  12  26  1   
 22  12  27  1   
 23  13  15  2   
 24  13  16  1   
 25  14  17  1   
 26  14  28  1   
 27  14  29  1   
 28  15  18  1   
 29  16  19  1   
 30  16  30  1   
 31  17  31  1   
 32  18  19  2   
 33  18  32  1   
 34  19  33  1   
@<TRIPOS>SUBSTRUCTURE
  1 ****  10 GROUP 4 **** **** 0

# MOE 2024.06 (io_trps.svl 2023.06)
