@<TRIPOS>MOLECULE
NONAME
31 33 1 0 0 
SMALL
USER_CHARGES


@<TRIPOS>ATOM
  1 CL      -0.1650     0.0180    -0.3150 Cl    1 <1>  -0.1770 
  2 C       -0.1040     1.7420    -0.1070 C.ar  1 <1>   0.1770 
  3 C       -1.2040     2.5020    -0.3890 C.ar  1 <1>  -0.1500 
  4 C        1.0630     2.3260     0.3690 C.ar  1 <1>  -0.1500 
  5 C       -1.1540     3.8920    -0.2170 C.ar  1 <1>   0.3610 
  6 C        1.1250     3.6880     0.5130 C.ar  1 <1>  -0.1500 
  7 N       -2.3030     4.6350    -0.3540 N.ar  1 <1>  -0.1790 
  8 C        0.0510     4.5360     0.1540 C.ar  1 <1>   0.0000 
  9 C       -2.3170     5.9600    -0.1360 C.ar  1 <1>   0.2110 
 10 C        0.0860     5.9760     0.1910 C.ar  1 <1>   0.1000 
 11 C       -1.1540     6.6240     0.1410 C.ar  1 <1>  -0.1500 
 12 N        1.2270     6.7290     0.2190 N.pl3 1 <1>  -0.8380 
 13 C        2.6140     6.2840    -0.1420 C.3   1 <1>   0.2090 
 14 C        1.2810     8.2190     0.4350 C.3   1 <1>   0.2090 
 15 C        3.3570     7.5280    -0.6140 C.3   1 <1>   0.2600 
 16 C        2.7120     8.6860     0.1430 C.3   1 <1>   0.2000 
 17 F        4.6390     7.4250    -0.2770 F     1 <1>  -0.3400 
 18 O        2.7130     9.8680    -0.6020 O.3   1 <1>  -0.6800 
 19 H       -2.0990     2.0130    -0.7280 H     1 <1>   0.1500 
 20 H        1.8970     1.6930     0.6260 H     1 <1>   0.1500 
 21 H        2.0200     4.1030     0.9300 H     1 <1>   0.1500 
 22 H       -3.1690     4.1400    -0.5870 H     1 <1>   0.4570 
 23 H       -3.2550     6.4910    -0.1940 H     1 <1>   0.1500 
 24 H       -1.2130     7.6850     0.2960 H     1 <1>   0.1500 
 25 H        3.1040     5.9060     0.7390 H     1 <1>   0.0800 
 26 H        2.5930     5.5400    -0.9190 H     1 <1>   0.0800 
 27 H        0.6020     8.7130    -0.2380 H     1 <1>   0.0800 
 28 H        1.0190     8.4520     1.4530 H     1 <1>   0.0800 
 29 H        3.3080     7.6400    -1.6810 H     1 <1>   0.0800 
 30 H        3.2260     8.8690     1.0710 H     1 <1>   0.0800 
 31 H        2.4210     9.7190    -1.5210 H     1 <1>   0.4000 
@<TRIPOS>BOND
  1   1   2  1   
  2   2   3  ar  
  3   2   4  ar  
  4   3   5  ar  
  5   3  19  1   
  6   4   6  ar  
  7   4  20  1   
  8   5   7  ar  
  9   5   8  ar  
 10   6   8  ar  
 11   6  21  1   
 12   7   9  ar  
 13   7  22  1   
 14   8  10  ar  
 15   9  11  ar  
 16   9  23  1   
 17  10  11  ar  
 18  10  12  1   
 19  11  24  1   
 20  12  13  1   
 21  12  14  1   
 22  13  15  1   
 23  13  25  1   
 24  13  26  1   
 25  14  16  1   
 26  14  27  1   
 27  14  28  1   
 28  15  16  1   
 29  15  17  1   
 30  15  29  1   
 31  16  18  1   
 32  16  30  1   
 33  18  31  1   
@<TRIPOS>SUBSTRUCTURE
  1 ****  10 GROUP 4 **** **** 0

# MOE 2024.06 (io_trps.svl 2023.06)
