@<TRIPOS>MOLECULE
NONAME
53 56 1 0 0 
SMALL
USER_CHARGES


@<TRIPOS>ATOM
  1 O       -1.3260    -1.1040     0.5620 O.3   1 <1>  -0.5600 
  2 C       -2.5310    -0.8460     1.1890 C.3   1 <1>   0.1200 
  3 C       -0.2420    -1.2260     1.4270 C.3   1 <1>   0.0400 
  4 C       -3.5780    -0.7450     0.0830 C.3   1 <1>  -0.1600 
  5 C       -4.9610    -0.4680     0.6650 C.3   1 <1>   0.3430 
  6 N       -5.9490    -0.2630    -0.4320 N.4   1 <1>  -0.9590 
  7 C       -7.2040     0.3670     0.1110 C.3   1 <1>   0.3430 
  8 C       -6.2650    -1.5360    -1.1520 C.3   1 <1>   0.3430 
  9 C       -8.2200     0.6950    -0.9990 C.3   1 <1>   0.1430 
 10 C       -7.2250    -1.2570    -2.3120 C.3   1 <1>  -0.1600 
 11 C       -9.4900     1.2000    -0.3560 C.ar  1 <1>   0.1670 
 12 C       -8.5160    -0.5640    -1.8410 C.3   1 <1>  -0.1600 
 13 C       -7.7920     1.8990    -1.8820 C.3   1 <1>  -0.1600 
 14 N      -10.0840     0.6300     0.6620 N.ar  1 <1>  -0.6200 
 15 C       -9.9440     2.3350    -0.9510 C.ar  1 <1>  -0.1440 
 16 C       -9.0510     2.7650    -2.0870 C.3   1 <1>  -0.0170 
 17 C      -11.2020     1.2360     1.0910 C.ar  1 <1>   0.6200 
 18 C      -11.0910     2.8970    -0.4520 C.ar  1 <1>   0.1600 
 19 N      -11.7200     2.3560     0.5670 N.ar  1 <1>  -0.6200 
 20 C      -11.9010     0.6350     2.2170 C.ar  1 <1>   0.0000 
 21 C      -12.5630     1.4170     3.1670 C.ar  1 <1>  -0.1500 
 22 C      -11.9410    -0.7500     2.3990 C.ar  1 <1>  -0.1500 
 23 C      -13.2240     0.8510     4.2420 C.ar  1 <1>  -0.1500 
 24 C      -12.6000    -1.3230     3.4720 C.ar  1 <1>  -0.1500 
 25 C      -13.2430    -0.5220     4.3980 C.ar  1 <1>  -0.1500 
 26 H       -2.4430     0.0800     1.7340 H     1 <1>   0.0800 
 27 H       -2.7480    -1.6580     1.8640 H     1 <1>   0.0800 
 28 H        0.6360    -1.4250     0.8370 H     1 <1>   0.0800 
 29 H       -0.4140    -2.0460     2.1040 H     1 <1>   0.0800 
 30 H       -0.1110    -0.3060     1.9690 H     1 <1>   0.0800 
 31 H       -3.5770    -1.6740    -0.4570 H     1 <1>   0.0800 
 32 H       -3.2930     0.0550    -0.5770 H     1 <1>   0.0800 
 33 H       -4.9090     0.4220     1.2720 H     1 <1>   0.0800 
 34 H       -5.2690    -1.2880     1.2950 H     1 <1>   0.0800 
 35 H       -5.5360     0.3870    -1.1130 H     1 <1>   0.4500 
 36 H       -6.9670     1.2730     0.6430 H     1 <1>   0.0800 
 37 H       -7.6730    -0.3090     0.8070 H     1 <1>   0.0800 
 38 H       -6.7210    -2.2360    -0.4700 H     1 <1>   0.0800 
 39 H       -5.3620    -1.9800    -1.5390 H     1 <1>   0.0800 
 40 H       -7.4820    -2.1920    -2.7800 H     1 <1>   0.0800 
 41 H       -6.7250    -0.6610    -3.0540 H     1 <1>   0.0800 
 42 H       -9.1310    -0.3080    -2.6880 H     1 <1>   0.0800 
 43 H       -9.0800    -1.2580    -1.2400 H     1 <1>   0.0800 
 44 H       -7.3710     1.6040    -2.8270 H     1 <1>   0.0800 
 45 H       -7.0660     2.4950    -1.3560 H     1 <1>   0.0800 
 46 H       -9.5270     2.5350    -3.0260 H     1 <1>   0.0800 
 47 H       -8.8260     3.8170    -2.0420 H     1 <1>   0.0800 
 48 H      -11.4970     3.7950    -0.8860 H     1 <1>   0.1500 
 49 H      -12.5600     2.4890     3.0600 H     1 <1>   0.1500 
 50 H      -11.4510    -1.3880     1.6860 H     1 <1>   0.1500 
 51 H      -13.7250     1.4800     4.9580 H     1 <1>   0.1500 
 52 H      -12.6150    -2.3930     3.5870 H     1 <1>   0.1500 
 53 H      -13.7560    -0.9660     5.2330 H     1 <1>   0.1500 
@<TRIPOS>BOND
  1   1   2  1   
  2   1   3  1   
  3   2   4  1   
  4   2  26  1   
  5   2  27  1   
  6   3  28  1   
  7   3  29  1   
  8   3  30  1   
  9   4   5  1   
 10   4  31  1   
 11   4  32  1   
 12   5   6  1   
 13   5  33  1   
 14   5  34  1   
 15   6   7  1   
 16   6   8  1   
 17   6  35  1   
 18   7   9  1   
 19   7  36  1   
 20   7  37  1   
 21   8  10  1   
 22   8  38  1   
 23   8  39  1   
 24   9  11  1   
 25   9  12  1   
 26   9  13  1   
 27  10  12  1   
 28  10  40  1   
 29  10  41  1   
 30  11  14  ar  
 31  11  15  ar  
 32  12  42  1   
 33  12  43  1   
 34  13  16  1   
 35  13  44  1   
 36  13  45  1   
 37  14  17  ar  
 38  15  16  1   
 39  15  18  ar  
 40  16  46  1   
 41  16  47  1   
 42  17  19  ar  
 43  17  20  1   
 44  18  19  ar  
 45  18  48  1   
 46  20  21  ar  
 47  20  22  ar  
 48  21  23  ar  
 49  21  49  1   
 50  22  24  ar  
 51  22  50  1   
 52  23  25  ar  
 53  23  51  1   
 54  24  25  ar  
 55  24  52  1   
 56  25  53  1   
@<TRIPOS>SUBSTRUCTURE
  1 ****   7 GROUP 4 **** **** 0

# MOE 2024.06 (io_trps.svl 2023.06)
