@<TRIPOS>MOLECULE
NONAME
53 56 1 0 0 
SMALL
USER_CHARGES


@<TRIPOS>ATOM
  1 CL       0.6930    -0.1650    -2.5040 Cl    1 <1>  -0.1230 
  2 C        1.2780    -1.6660    -1.8120 C.2   1 <1>   0.1230 
  3 C        2.4060    -2.3320    -2.1570 C.2   1 <1>  -0.3020 
  4 C        0.6410    -2.3700    -0.8010 C.2   1 <1>  -0.1500 
  5 N        2.4980    -3.4440    -1.3850 N.pl3 1 <1>   0.0480 
  6 C        1.4040    -3.4850    -0.5450 C.2   1 <1>  -0.2370 
  7 C        3.5950    -4.4300    -1.4520 C.3   1 <1>   0.0160 
  8 C        1.1710    -4.5320     0.4170 C.2   1 <1>   0.7150 
  9 O        2.1050    -4.9800     1.0580 O.2   1 <1>  -0.5700 
 10 N       -0.0880    -5.0550     0.6220 N.am  1 <1>  -0.6600 
 11 C       -0.4090    -5.8870     1.8140 C.3   1 <1>   0.1400 
 12 C       -1.1720    -5.0200    -0.3970 C.3   1 <1>   0.1400 
 13 C       -0.6980    -7.3210     1.3680 C.3   1 <1>  -0.1600 
 14 C       -1.4680    -6.4470    -0.8630 C.3   1 <1>  -0.1600 
 15 C       -1.8120    -7.3790     0.3120 C.3   1 <1>   0.4240 
 16 O       -2.9580    -6.8690     0.9520 O.3   1 <1>  -0.5600 
 17 C       -2.0230    -8.8300    -0.1710 C.ar  1 <1>  -0.1430 
 18 C       -4.2000    -7.2080     0.4190 C.3   1 <1>   0.1200 
 19 C       -3.2530    -9.4620    -0.0440 C.ar  1 <1>  -0.1430 
 20 C       -0.9790    -9.5360    -0.7540 C.ar  1 <1>  -0.1500 
 21 C       -4.4120    -8.7110     0.5800 C.3   1 <1>  -0.0170 
 22 C       -3.4270   -10.7640    -0.4850 C.ar  1 <1>  -0.1500 
 23 C       -1.1320   -10.8390    -1.1950 C.ar  1 <1>   0.0830 
 24 C       -2.3800   -11.4690    -1.0720 C.ar  1 <1>   0.0830 
 25 O       -0.0090   -11.3970    -1.7310 O.3   1 <1>  -0.3630 
 26 O       -2.5530   -12.7410    -1.5410 O.3   1 <1>  -0.3630 
 27 C        0.2600   -12.7730    -1.5840 C.3   1 <1>   0.0400 
 28 C       -3.8210   -13.3550    -1.5970 C.3   1 <1>   0.0400 
 29 H        3.1330    -2.0640    -2.9010 H     1 <1>   0.1500 
 30 H       -0.2750    -2.0720    -0.3230 H     1 <1>   0.1500 
 31 H        4.2240    -4.2180    -2.2960 H     1 <1>   0.0800 
 32 H        3.1820    -5.4170    -1.5500 H     1 <1>   0.0800 
 33 H        4.1730    -4.3750    -0.5480 H     1 <1>   0.0800 
 34 H       -1.2710    -5.4740     2.3090 H     1 <1>   0.0800 
 35 H        0.4080    -5.8810     2.5150 H     1 <1>   0.0800 
 36 H       -0.8860    -4.4280    -1.2480 H     1 <1>   0.0800 
 37 H       -2.0530    -4.5820     0.0400 H     1 <1>   0.0800 
 38 H       -0.9860    -7.9160     2.2150 H     1 <1>   0.0800 
 39 H        0.2110    -7.7370     0.9760 H     1 <1>   0.0800 
 40 H       -0.5980    -6.8190    -1.3710 H     1 <1>   0.0800 
 41 H       -2.2690    -6.4430    -1.5770 H     1 <1>   0.0800 
 42 H       -4.2330    -6.9210    -0.6170 H     1 <1>   0.0800 
 43 H       -4.9520    -6.6620     0.9610 H     1 <1>   0.0800 
 44 H       -0.0130    -9.0820    -0.8760 H     1 <1>   0.1500 
 45 H       -5.3360    -8.9890     0.1070 H     1 <1>   0.0800 
 46 H       -4.4800    -8.9520     1.6260 H     1 <1>   0.0800 
 47 H       -4.3930   -11.2130    -0.3630 H     1 <1>   0.1500 
 48 H        1.3130   -12.9260    -1.7290 H     1 <1>   0.0800 
 49 H       -0.2920   -13.3160    -2.3290 H     1 <1>   0.0800 
 50 H       -0.0260   -13.0840    -0.5950 H     1 <1>   0.0800 
 51 H       -3.7050   -14.3160    -2.0660 H     1 <1>   0.0800 
 52 H       -4.4810   -12.7410    -2.1830 H     1 <1>   0.0800 
 53 H       -4.1930   -13.4810    -0.5960 H     1 <1>   0.0800 
@<TRIPOS>BOND
  1   1   2  1   
  2   2   3  2   
  3   2   4  1   
  4   3   5  1   
  5   3  29  1   
  6   4   6  2   
  7   4  30  1   
  8   5   6  1   
  9   5   7  1   
 10   6   8  1   
 11   7  31  1   
 12   7  32  1   
 13   7  33  1   
 14   8   9  2   
 15   8  10  am  
 16  10  11  1   
 17  10  12  1   
 18  11  13  1   
 19  11  34  1   
 20  11  35  1   
 21  12  14  1   
 22  12  36  1   
 23  12  37  1   
 24  13  15  1   
 25  13  38  1   
 26  13  39  1   
 27  14  15  1   
 28  14  40  1   
 29  14  41  1   
 30  15  16  1   
 31  15  17  1   
 32  16  18  1   
 33  17  19  ar  
 34  17  20  ar  
 35  18  21  1   
 36  18  42  1   
 37  18  43  1   
 38  19  21  1   
 39  19  22  ar  
 40  20  23  ar  
 41  20  44  1   
 42  21  45  1   
 43  21  46  1   
 44  22  24  ar  
 45  22  47  1   
 46  23  24  ar  
 47  23  25  1   
 48  24  26  1   
 49  25  27  1   
 50  26  28  1   
 51  27  48  1   
 52  27  49  1   
 53  27  50  1   
 54  28  51  1   
 55  28  52  1   
 56  28  53  1   
@<TRIPOS>SUBSTRUCTURE
  1 ****  14 GROUP 4 **** **** 0

# MOE 2024.06 (io_trps.svl 2023.06)
