@<TRIPOS>MOLECULE
NONAME
43 44 1 0 0 
SMALL
USER_CHARGES


@<TRIPOS>ATOM
  1 S        0.9460     0.3240     1.2440 S.o2  1 <1>   1.3330 
  2 O        1.8350     1.1600     2.0200 O.2   1 <1>  -0.6500 
  3 O       -0.1190    -0.4030     1.8870 O.2   1 <1>  -0.6500 
  4 N        1.9380    -0.8080     0.3920 N.am  1 <1>  -0.6930 
  5 C        0.2820     1.3080    -0.0840 C.3   1 <1>  -0.1350 
  6 C        1.3690    -1.6790    -0.5370 C.ar  1 <1>   0.1990 
  7 C        3.4240    -0.6390     0.5160 C.3   1 <1>   0.3370 
  8 C        0.5210    -2.6970    -0.1160 C.ar  1 <1>  -0.1500 
  9 C        1.6180    -1.5440    -1.9000 C.ar  1 <1>  -0.1500 
 10 C        3.9590     0.5560    -0.3080 C.2   1 <1>   0.5690 
 11 C        4.1530    -1.9620     0.2260 C.3   1 <1>  -0.2400 
 12 C       -0.0610    -3.5590    -1.0270 C.ar  1 <1>  -0.1500 
 13 C        1.0400    -2.4050    -2.8140 C.ar  1 <1>  -0.1500 
 14 O        4.4270     0.3690    -1.4090 O.2   1 <1>  -0.5700 
 15 N        3.8560     1.8020     0.2380 N.am  1 <1>  -0.4930 
 16 C        0.1980    -3.4140    -2.3790 C.ar  1 <1>  -0.1500 
 17 C        4.1760     3.0630    -0.3200 C.2   1 <1>   0.0630 
 18 C        3.9250     4.2660     0.2410 C.2   1 <1>  -0.3320 
 19 C        4.7940     3.3590    -1.5350 C.2   1 <1>   0.1390 
 20 N        4.3880     5.2000    -0.6290 N.pl3 1 <1>   0.3140 
 21 C        3.2650     4.5960     1.5730 C.3   1 <1>  -0.0600 
 22 N        4.9200     4.6380    -1.7250 N.2   1 <1>  -0.7070 
 23 C        4.3540     6.6590    -0.4680 C.3   1 <1>   0.0160 
 24 H       -0.3460     2.0820     0.3100 H     1 <1>   0.0800 
 25 H       -0.3040     0.6940    -0.7410 H     1 <1>   0.0800 
 26 H        1.0730     1.7600    -0.6490 H     1 <1>   0.0800 
 27 H        3.6350    -0.4200     1.5480 H     1 <1>   0.0800 
 28 H        0.3180    -2.8100     0.9340 H     1 <1>   0.1500 
 29 H        2.2690    -0.7640    -2.2500 H     1 <1>   0.1500 
 30 H        4.0640    -2.2350    -0.8100 H     1 <1>   0.0800 
 31 H        3.7540    -2.7500     0.8400 H     1 <1>   0.0800 
 32 H        5.1980    -1.8520     0.4480 H     1 <1>   0.0800 
 33 H       -0.7160    -4.3420    -0.6840 H     1 <1>   0.1500 
 34 H        1.2440    -2.2910    -3.8650 H     1 <1>   0.1500 
 35 H        3.3770     1.8550     1.1470 H     1 <1>   0.3700 
 36 H       -0.2530    -4.0860    -3.0900 H     1 <1>   0.1500 
 37 H        5.1300     2.6170    -2.2390 H     1 <1>   0.1500 
 38 H        2.9830     3.6990     2.0940 H     1 <1>   0.0800 
 39 H        2.3800     5.1860     1.4120 H     1 <1>   0.0800 
 40 H        3.9450     5.1480     2.1960 H     1 <1>   0.0800 
 41 H        4.9070     6.9290     0.4110 H     1 <1>   0.0800 
 42 H        3.3350     6.9810    -0.3790 H     1 <1>   0.0800 
 43 H        4.8030     7.1180    -1.3300 H     1 <1>   0.0800 
@<TRIPOS>BOND
  1   1   2  2   
  2   1   3  2   
  3   1   4  am  
  4   1   5  1   
  5   4   6  1   
  6   4   7  1   
  7   5  24  1   
  8   5  25  1   
  9   5  26  1   
 10   6   8  ar  
 11   6   9  ar  
 12   7  10  1   
 13   7  11  1   
 14   7  27  1   
 15   8  12  ar  
 16   8  28  1   
 17   9  13  ar  
 18   9  29  1   
 19  10  14  2   
 20  10  15  am  
 21  11  30  1   
 22  11  31  1   
 23  11  32  1   
 24  12  16  ar  
 25  12  33  1   
 26  13  16  ar  
 27  13  34  1   
 28  15  17  1   
 29  15  35  1   
 30  16  36  1   
 31  17  18  2   
 32  17  19  1   
 33  18  20  1   
 34  18  21  1   
 35  19  22  2   
 36  19  37  1   
 37  20  22  1   
 38  20  23  1   
 39  21  38  1   
 40  21  39  1   
 41  21  40  1   
 42  23  41  1   
 43  23  42  1   
 44  23  43  1   
@<TRIPOS>SUBSTRUCTURE
  1 ****  10 GROUP 4 **** **** 0

# MOE 2024.06 (io_trps.svl 2023.06)
