@<TRIPOS>MOLECULE
NONAME
46 49 1 0 0 
SMALL
USER_CHARGES


@<TRIPOS>ATOM
  1 S       -1.6410     0.0950     2.9310 S.3   1 <1>  -0.0800 
  2 C       -2.4310     0.5890     1.4300 C.2   1 <1>  -0.0450 
  3 C       -1.4190     1.7530     3.4480 C.2   1 <1>  -0.1100 
  4 C       -2.8680    -0.4440     0.5230 C.2   1 <1>   0.7150 
  5 C       -2.4760     1.9470     1.3930 C.2   1 <1>  -0.1500 
  6 C       -1.9130     2.6010     2.5280 C.2   1 <1>  -0.1500 
  7 O       -2.0850    -1.3190     0.1990 O.2   1 <1>  -0.5700 
  8 N       -4.1430    -0.4670    -0.0130 N.am  1 <1>  -0.6600 
  9 C       -5.2630     0.4040     0.4870 C.3   1 <1>   0.1400 
 10 C       -4.5030    -1.4750    -1.0620 C.3   1 <1>   0.1400 
 11 C       -6.2690     0.7350    -0.6320 C.3   1 <1>   0.1430 
 12 C       -5.9990    -1.8080    -1.0300 C.3   1 <1>  -0.1600 
 13 C       -7.3040     1.6950    -0.0700 C.ar  1 <1>   0.1670 
 14 C       -6.9070    -0.5710    -1.1790 C.3   1 <1>  -0.1600 
 15 C       -5.6040     1.5860    -1.7560 C.3   1 <1>  -0.1600 
 16 N       -8.2360     1.3810     0.7960 N.ar  1 <1>  -0.6200 
 17 C       -7.1400     2.9580    -0.5520 C.ar  1 <1>  -0.1430 
 18 C       -5.9760     3.0570    -1.5020 C.3   1 <1>  -0.0170 
 19 C       -9.0400     2.3820     1.1620 C.ar  1 <1>   0.7200 
 20 C       -8.0100     3.9250    -0.1170 C.ar  1 <1>   0.1600 
 21 N       -8.9650     3.6480     0.7380 N.ar  1 <1>  -0.6200 
 22 N      -10.0400     2.0820     2.0660 N.pl3 1 <1>  -0.8380 
 23 C      -11.1740     3.0110     2.3270 C.3   1 <1>   0.1290 
 24 C      -10.0590     0.8050     2.8330 C.3   1 <1>   0.1290 
 25 H       -0.9370     1.9180     4.3950 H     1 <1>   0.1500 
 26 H       -2.8890     2.5200     0.5820 H     1 <1>   0.1500 
 27 H       -1.9020     3.6740     2.6040 H     1 <1>   0.1500 
 28 H       -4.8880     1.3200     0.8980 H     1 <1>   0.0800 
 29 H       -5.7800    -0.1160     1.2760 H     1 <1>   0.0800 
 30 H       -3.9420    -2.3820    -0.9100 H     1 <1>   0.0800 
 31 H       -4.2390    -1.0800    -2.0280 H     1 <1>   0.0800 
 32 H       -6.2090    -2.2910    -0.0910 H     1 <1>   0.0800 
 33 H       -6.2260    -2.5170    -1.8080 H     1 <1>   0.0800 
 34 H       -7.1890    -0.4470    -2.2080 H     1 <1>   0.0800 
 35 H       -7.8170    -0.7770    -0.6420 H     1 <1>   0.0800 
 36 H       -6.0030     1.3110    -2.7160 H     1 <1>   0.0800 
 37 H       -4.5370     1.4610    -1.7960 H     1 <1>   0.0800 
 38 H       -6.2500     3.5590    -2.4130 H     1 <1>   0.0800 
 39 H       -5.1640     3.5800    -1.0260 H     1 <1>   0.0800 
 40 H       -7.9220     4.9370    -0.4720 H     1 <1>   0.1500 
 41 H      -11.3850     3.6030     1.4530 H     1 <1>   0.0800 
 42 H      -10.9200     3.6670     3.1410 H     1 <1>   0.0800 
 43 H      -12.0590     2.4540     2.5780 H     1 <1>   0.0800 
 44 H       -9.0570     0.4470     2.9940 H     1 <1>   0.0800 
 45 H      -10.6110     0.0640     2.2810 H     1 <1>   0.0800 
 46 H      -10.5220     0.9550     3.7920 H     1 <1>   0.0800 
@<TRIPOS>BOND
  1   1   2  1   
  2   1   3  1   
  3   2   4  1   
  4   2   5  2   
  5   3   6  2   
  6   3  25  1   
  7   4   7  2   
  8   4   8  am  
  9   5   6  1   
 10   5  26  1   
 11   6  27  1   
 12   8   9  1   
 13   8  10  1   
 14   9  11  1   
 15   9  28  1   
 16   9  29  1   
 17  10  12  1   
 18  10  30  1   
 19  10  31  1   
 20  11  13  1   
 21  11  14  1   
 22  11  15  1   
 23  12  14  1   
 24  12  32  1   
 25  12  33  1   
 26  13  16  ar  
 27  13  17  ar  
 28  14  34  1   
 29  14  35  1   
 30  15  18  1   
 31  15  36  1   
 32  15  37  1   
 33  16  19  ar  
 34  17  18  1   
 35  17  20  ar  
 36  18  38  1   
 37  18  39  1   
 38  19  21  ar  
 39  19  22  1   
 40  20  21  ar  
 41  20  40  1   
 42  22  23  1   
 43  22  24  1   
 44  23  41  1   
 45  23  42  1   
 46  23  43  1   
 47  24  44  1   
 48  24  45  1   
 49  24  46  1   
@<TRIPOS>SUBSTRUCTURE
  1 ****   9 GROUP 4 **** **** 0

# MOE 2024.06 (io_trps.svl 2023.06)
