@<TRIPOS>MOLECULE
NONAME
54 55 1 0 0 
SMALL
USER_CHARGES


@<TRIPOS>ATOM
  1 CL       0.1730    -1.7520    -3.1320 Cl    1 <1>  -0.1770 
  2 C       -0.5100    -3.0070    -2.1310 C.ar  1 <1>   0.1770 
  3 C       -0.2060    -4.3290    -2.4010 C.ar  1 <1>  -0.1500 
  4 C       -1.3460    -2.6590    -1.0870 C.ar  1 <1>  -0.1500 
  5 C       -0.7430    -5.3400    -1.6170 C.ar  1 <1>  -0.1440 
  6 C       -1.8840    -3.6590    -0.2970 C.ar  1 <1>  -0.1500 
  7 C       -1.5800    -4.9890    -0.5540 C.ar  1 <1>   0.0830 
  8 C       -0.3880    -6.7810    -1.9640 C.3   1 <1>  -0.0960 
  9 O       -2.1500    -5.9180     0.2430 O.3   1 <1>  -0.3630 
 10 C       -1.3160    -6.6400     1.1400 C.3   1 <1>   0.2610 
 11 C       -1.7790    -8.1080     1.2340 C.2   1 <1>   0.5690 
 12 C       -1.2790    -5.9090     2.4890 C.3   1 <1>  -0.2400 
 13 O       -0.9400    -8.9470     1.0010 O.2   1 <1>  -0.5700 
 14 N       -3.0720    -8.4860     1.5340 N.am  1 <1>  -0.6600 
 15 C       -3.3320    -9.8970     1.9800 C.3   1 <1>   0.3210 
 16 C       -4.2710    -7.5820     1.5760 C.3   1 <1>   0.1400 
 17 C       -3.9860   -10.7530     0.8970 C.2   1 <1>   0.0460 
 18 C       -5.1020    -7.5390     0.2710 C.3   1 <1>   0.3430 
 19 N       -5.3020   -10.6390     0.6090 N.2   1 <1>  -0.5650 
 20 C       -3.4140   -11.7160     0.1350 C.2   1 <1>  -0.3320 
 21 N       -4.2830    -7.3340    -0.9720 N.4   1 <1>  -0.9590 
 22 C       -5.5060   -11.5510    -0.2860 C.2   1 <1>   0.0360 
 23 N       -4.3960   -12.2390    -0.6210 N.pl3 1 <1>   0.0330 
 24 C       -1.9790   -12.2160     0.0720 C.3   1 <1>  -0.0600 
 25 C       -5.0370    -6.5730    -2.0070 C.3   1 <1>   0.2630 
 26 C       -3.8110    -8.6450    -1.5120 C.3   1 <1>   0.2630 
 27 H        0.4500    -4.5520    -3.2240 H     1 <1>   0.1500 
 28 H       -1.5650    -1.6220    -0.9010 H     1 <1>   0.1500 
 29 H       -2.5340    -3.4070     0.5210 H     1 <1>   0.1500 
 30 H       -0.2320    -6.8850    -3.0230 H     1 <1>   0.0800 
 31 H       -1.1680    -7.4580    -1.6740 H     1 <1>   0.0800 
 32 H        0.5190    -7.0660    -1.4600 H     1 <1>   0.0800 
 33 H       -0.3170    -6.6430     0.7390 H     1 <1>   0.0800 
 34 H       -2.2510    -5.8570     2.9410 H     1 <1>   0.0800 
 35 H       -0.8910    -4.9150     2.3590 H     1 <1>   0.0800 
 36 H       -0.6250    -6.4360     3.1610 H     1 <1>   0.0800 
 37 H       -3.9710    -9.8910     2.8450 H     1 <1>   0.0800 
 38 H       -2.4110   -10.3630     2.2820 H     1 <1>   0.0800 
 39 H       -3.9700    -6.5800     1.8130 H     1 <1>   0.0800 
 40 H       -4.9200    -7.8980     2.3750 H     1 <1>   0.0800 
 41 H       -5.8060    -6.7290     0.3670 H     1 <1>   0.0800 
 42 H       -5.6800    -8.4410     0.1800 H     1 <1>   0.0800 
 43 H       -3.4500    -6.7790    -0.6970 H     1 <1>   0.4500 
 44 H       -6.4630   -11.7650    -0.7310 H     1 <1>   0.1500 
 45 H       -4.3260   -13.0160    -1.2860 H     1 <1>   0.2700 
 46 H       -1.3420   -11.6450     0.7240 H     1 <1>   0.0800 
 47 H       -1.5960   -12.1280    -0.9290 H     1 <1>   0.0800 
 48 H       -1.9320   -13.2480     0.3730 H     1 <1>   0.0800 
 49 H       -5.9150    -7.1210    -2.3090 H     1 <1>   0.0800 
 50 H       -4.4150    -6.4090    -2.8730 H     1 <1>   0.0800 
 51 H       -5.3410    -5.6150    -1.6190 H     1 <1>   0.0800 
 52 H       -4.6480    -9.2990    -1.6920 H     1 <1>   0.0800 
 53 H       -3.1530    -9.1280    -0.8090 H     1 <1>   0.0800 
 54 H       -3.2730    -8.5000    -2.4350 H     1 <1>   0.0800 
@<TRIPOS>BOND
  1   1   2  1   
  2   2   3  ar  
  3   2   4  ar  
  4   3   5  ar  
  5   3  27  1   
  6   4   6  ar  
  7   4  28  1   
  8   5   7  ar  
  9   5   8  1   
 10   6   7  ar  
 11   6  29  1   
 12   7   9  1   
 13   8  30  1   
 14   8  31  1   
 15   8  32  1   
 16   9  10  1   
 17  10  11  1   
 18  10  12  1   
 19  10  33  1   
 20  11  13  2   
 21  11  14  am  
 22  12  34  1   
 23  12  35  1   
 24  12  36  1   
 25  14  15  1   
 26  14  16  1   
 27  15  17  1   
 28  15  37  1   
 29  15  38  1   
 30  16  18  1   
 31  16  39  1   
 32  16  40  1   
 33  17  19  1   
 34  17  20  2   
 35  18  21  1   
 36  18  41  1   
 37  18  42  1   
 38  19  22  2   
 39  20  23  1   
 40  20  24  1   
 41  21  25  1   
 42  21  26  1   
 43  21  43  1   
 44  22  23  1   
 45  22  44  1   
 46  23  45  1   
 47  24  46  1   
 48  24  47  1   
 49  24  48  1   
 50  25  49  1   
 51  25  50  1   
 52  25  51  1   
 53  26  52  1   
 54  26  53  1   
 55  26  54  1   
@<TRIPOS>SUBSTRUCTURE
  1 ****   9 GROUP 4 **** **** 0

# MOE 2024.06 (io_trps.svl 2023.06)
