@<TRIPOS>MOLECULE
NONAME
40 42 1 0 0 
SMALL
USER_CHARGES


@<TRIPOS>ATOM
  1 F       -1.8110    -0.0290     1.0640 F     1 <1>  -0.1900 
  2 C       -2.2820     1.0540     0.5110 C.ar  1 <1>   0.1900 
  3 C       -3.3580     0.9480    -0.3450 C.ar  1 <1>  -0.1500 
  4 C       -1.6790     2.2630     0.8070 C.ar  1 <1>  -0.1500 
  5 C       -3.8190     2.1230    -0.9020 C.ar  1 <1>   0.1900 
  6 C       -2.1480     3.4460     0.2270 C.ar  1 <1>   0.0860 
  7 F       -4.8370     2.0720    -1.7170 F     1 <1>  -0.1900 
  8 C       -3.2450     3.3510    -0.6330 C.ar  1 <1>  -0.1500 
  9 C       -1.5300     4.7310     0.5080 C.2   1 <1>   0.5440 
 10 O       -2.2080     5.7390     0.5500 O.2   1 <1>  -0.5700 
 11 N       -0.1730     4.8740     0.6950 N.am  1 <1>  -0.6600 
 12 C        0.3560     5.9320     1.6200 C.3   1 <1>   0.1400 
 13 C        0.8310     4.1430    -0.1320 C.3   1 <1>   0.1400 
 14 C        1.1660     7.0890     0.9670 C.3   1 <1>   0.4230 
 15 C        1.5240     5.0880    -1.1390 C.3   1 <1>  -0.0800 
 16 N        0.7860     7.4640    -0.4530 N.4   1 <1>  -0.9590 
 17 C        2.6900     6.8610     1.0890 C.3   1 <1>   0.1200 
 18 C        2.9820     5.4010    -0.7670 C.3   1 <1>   0.1200 
 19 C        0.6800     6.3380    -1.4450 C.3   1 <1>   0.3430 
 20 C       -0.4990     8.2320    -0.4540 C.3   1 <1>   0.2630 
 21 O        3.1040     5.6250     0.5990 O.3   1 <1>  -0.5600 
 22 H       -3.8150     0.0010    -0.5640 H     1 <1>   0.1500 
 23 H       -0.8510     2.2840     1.4920 H     1 <1>   0.1500 
 24 H       -3.6540     4.2370    -1.0880 H     1 <1>   0.1500 
 25 H       -0.4700     6.3710     2.1530 H     1 <1>   0.0800 
 26 H        0.9670     5.4540     2.3670 H     1 <1>   0.0800 
 27 H        1.5520     3.6660     0.5110 H     1 <1>   0.0800 
 28 H        0.3360     3.3630    -0.6850 H     1 <1>   0.0800 
 29 H        0.9760     7.9550     1.5780 H     1 <1>   0.0800 
 30 H        1.5770     4.5420    -2.0640 H     1 <1>   0.0800 
 31 H        1.5240     8.0900    -0.7940 H     1 <1>   0.4500 
 32 H        2.9610     6.8790     2.1300 H     1 <1>   0.0800 
 33 H        3.2450     7.6380     0.5930 H     1 <1>   0.0800 
 34 H        3.3760     6.2440    -1.3100 H     1 <1>   0.0800 
 35 H        3.5970     4.5440    -0.9890 H     1 <1>   0.0800 
 36 H       -0.3510     6.0270    -1.5110 H     1 <1>   0.0800 
 37 H        0.9570     6.7110    -2.4170 H     1 <1>   0.0800 
 38 H       -1.3040     7.6220    -0.0820 H     1 <1>   0.0800 
 39 H       -0.7480     8.5500    -1.4530 H     1 <1>   0.0800 
 40 H       -0.4180     9.1050     0.1730 H     1 <1>   0.0800 
@<TRIPOS>BOND
  1   1   2  1   
  2   2   3  ar  
  3   2   4  ar  
  4   3   5  ar  
  5   3  22  1   
  6   4   6  ar  
  7   4  23  1   
  8   5   7  1   
  9   5   8  ar  
 10   6   8  ar  
 11   6   9  1   
 12   8  24  1   
 13   9  10  2   
 14   9  11  am  
 15  11  12  1   
 16  11  13  1   
 17  12  14  1   
 18  12  25  1   
 19  12  26  1   
 20  13  15  1   
 21  13  27  1   
 22  13  28  1   
 23  14  16  1   
 24  14  17  1   
 25  14  29  1   
 26  15  18  1   
 27  15  19  1   
 28  15  30  1   
 29  16  19  1   
 30  16  20  1   
 31  16  31  1   
 32  17  21  1   
 33  17  32  1   
 34  17  33  1   
 35  18  21  1   
 36  18  34  1   
 37  18  35  1   
 38  19  36  1   
 39  19  37  1   
 40  20  38  1   
 41  20  39  1   
 42  20  40  1   
@<TRIPOS>SUBSTRUCTURE
  1 ****  11 GROUP 4 **** **** 0

# MOE 2024.06 (io_trps.svl 2023.06)
