@<TRIPOS>MOLECULE
NONAME
44 45 1 0 0 
SMALL
USER_CHARGES


@<TRIPOS>ATOM
  1 S        0.4760    -0.0680    -1.4330 S.o2  1 <1>   1.3330 
  2 O        0.8690    -1.3330    -2.0120 O.2   1 <1>  -0.6500 
  3 O       -0.5090     0.7530    -2.1010 O.2   1 <1>  -0.6500 
  4 N       -0.1020    -0.3710     0.1360 N.am  1 <1>  -0.8490 
  5 C        1.9620     0.9000    -1.1600 C.3   1 <1>  -0.0550 
  6 C       -0.8780    -1.6130     0.2090 C.3   1 <1>   0.1160 
  7 C       -0.8900     0.7370     0.6890 C.3   1 <1>   0.1160 
  8 C        3.1170     0.1160    -0.5000 C.3   1 <1>  -0.0800 
  9 C        4.4420     0.8630    -0.4380 C.3   1 <1>   0.2200 
 10 C        2.8860    -0.2870     0.9620 C.3   1 <1>   0.1200 
 11 N        4.2350     2.2730    -0.0310 N.am  1 <1>  -0.7300 
 12 C        5.1230     0.1220     0.7030 C.3   1 <1>   0.1200 
 13 O        4.1060    -0.1160     1.6260 O.3   1 <1>  -0.5600 
 14 C        4.2610     3.3340    -0.8700 C.2   1 <1>   0.5690 
 15 O        4.4020     3.2010    -2.0590 O.2   1 <1>  -0.5700 
 16 C        4.1020     4.7220    -0.2970 C.3   1 <1>  -0.0990 
 17 C        5.4670     5.3940    -0.1180 C.3   1 <1>   0.0210 
 18 C        5.3100     6.7590     0.5250 C.2   1 <1>  -0.1810 
 19 C        5.6930     7.0840     1.7750 C.2   1 <1>  -0.1100 
 20 C        4.7160     7.8520    -0.1880 C.2   1 <1>  -0.1500 
 21 S        5.3250     8.7640     2.1260 S.3   1 <1>  -0.0800 
 22 C        4.6480     8.9920     0.5240 C.2   1 <1>  -0.1100 
 23 H        2.3070     1.2580    -2.1110 H     1 <1>   0.0800 
 24 H        1.7190     1.7600    -0.5680 H     1 <1>   0.0800 
 25 H       -1.2210    -1.7820     1.2150 H     1 <1>   0.0800 
 26 H       -0.2640    -2.4490    -0.0810 H     1 <1>   0.0800 
 27 H       -1.7270    -1.5620    -0.4530 H     1 <1>   0.0800 
 28 H       -1.1510     0.5300     1.7120 H     1 <1>   0.0800 
 29 H       -1.7940     0.8780     0.1180 H     1 <1>   0.0800 
 30 H       -0.3200     1.6490     0.6610 H     1 <1>   0.0800 
 31 H        3.2780    -0.7870    -1.0630 H     1 <1>   0.0800 
 32 H        4.9990     0.8070    -1.3590 H     1 <1>   0.0800 
 33 H        2.5790    -1.3160     1.0490 H     1 <1>   0.0800 
 34 H        2.1640     0.3480     1.4450 H     1 <1>   0.0800 
 35 H        4.0880     2.3930     0.9750 H     1 <1>   0.3700 
 36 H        5.9100     0.6920     1.1640 H     1 <1>   0.0800 
 37 H        5.5010    -0.8300     0.3720 H     1 <1>   0.0800 
 38 H        3.4970     5.3030    -0.9680 H     1 <1>   0.0800 
 39 H        3.5960     4.6700     0.6490 H     1 <1>   0.0800 
 40 H        5.9520     5.4980    -1.0740 H     1 <1>   0.0800 
 41 H        6.0910     4.7760     0.5030 H     1 <1>   0.0800 
 42 H        6.1630     6.5130     2.5550 H     1 <1>   0.1500 
 43 H        4.3700     7.7340    -1.2000 H     1 <1>   0.1500 
 44 H        4.2670     9.9680     0.2820 H     1 <1>   0.1500 
@<TRIPOS>BOND
  1   1   2  2   
  2   1   3  2   
  3   1   4  am  
  4   1   5  1   
  5   4   6  1   
  6   4   7  1   
  7   5   8  1   
  8   5  23  1   
  9   5  24  1   
 10   6  25  1   
 11   6  26  1   
 12   6  27  1   
 13   7  28  1   
 14   7  29  1   
 15   7  30  1   
 16   8   9  1   
 17   8  10  1   
 18   8  31  1   
 19   9  11  1   
 20   9  12  1   
 21   9  32  1   
 22  10  13  1   
 23  10  33  1   
 24  10  34  1   
 25  11  14  am  
 26  11  35  1   
 27  12  13  1   
 28  12  36  1   
 29  12  37  1   
 30  14  15  2   
 31  14  16  1   
 32  16  17  1   
 33  16  38  1   
 34  16  39  1   
 35  17  18  1   
 36  17  40  1   
 37  17  41  1   
 38  18  19  2   
 39  18  20  1   
 40  19  21  1   
 41  19  42  1   
 42  20  22  2   
 43  20  43  1   
 44  21  22  1   
 45  22  44  1   
@<TRIPOS>SUBSTRUCTURE
  1 ****  11 GROUP 4 **** **** 0

# MOE 2024.06 (io_trps.svl 2023.06)
