@<TRIPOS>MOLECULE
NONAME
53 58 1 0 0 
SMALL
USER_CHARGES


@<TRIPOS>ATOM
  1 O       -1.0060     0.6700     1.6060 O.2   1 <1>  -0.5700 
  2 C       -1.9910     1.2120     1.1240 C.2   1 <1>   0.7160 
  3 N       -3.2060     0.5570     1.2650 N.am  1 <1>  -0.6600 
  4 C       -1.8260     2.4850     0.4170 C.2   1 <1>   0.2030 
  5 C       -4.3910     0.8020     0.3980 C.3   1 <1>   0.1400 
  6 C       -3.4160    -0.5120     2.2790 C.3   1 <1>   0.1400 
  7 N       -2.7300     3.4450     0.2570 N.2   1 <1>  -0.7070 
  8 C       -0.6270     2.8760    -0.1970 C.2   1 <1>  -0.1810 
  9 C       -4.7530    -0.4940    -0.3290 C.3   1 <1>  -0.1600 
 10 C       -3.7570    -1.8210     1.5670 C.3   1 <1>  -0.1600 
 11 N       -2.1160     4.4170    -0.4370 N.pl3 1 <1>   0.3000 
 12 C       -0.8440     4.0910    -0.7160 C.2   1 <1>  -0.3320 
 13 C        0.7120     2.1620    -0.3130 C.3   1 <1>   0.3010 
 14 C       -4.9700    -1.6580     0.6470 C.3   1 <1>   0.4600 
 15 C        0.2260     4.8560    -1.4680 C.3   1 <1>   0.0200 
 16 O        1.4930     2.7890    -1.3040 O.3   1 <1>  -0.5600 
 17 O       -6.0670    -1.3630     1.4850 O.3   1 <1>  -0.5600 
 18 C       -5.2440    -2.9580    -0.1010 C.2   1 <1>  -0.3320 
 19 C        1.5910     4.1870    -1.1980 C.3   1 <1>   0.1200 
 20 C       -7.3640    -1.5960     0.9890 C.3   1 <1>   0.1200 
 21 N       -4.3620    -3.6420    -0.8910 N.pl3 1 <1>   0.0330 
 22 C       -6.4200    -3.6150    -0.0750 C.2   1 <1>  -0.1810 
 23 C       -7.5940    -3.0910     0.7140 C.3   1 <1>   0.0210 
 24 C       -5.0010    -4.7610    -1.3700 C.ar  1 <1>  -0.1520 
 25 C       -6.3010    -4.7730    -0.8710 C.ar  1 <1>   0.0000 
 26 C       -4.5470    -5.7810    -2.2090 C.ar  1 <1>  -0.1500 
 27 C       -7.1640    -5.8200    -1.2110 C.ar  1 <1>  -0.1500 
 28 C       -5.4070    -6.8040    -2.5380 C.ar  1 <1>  -0.1500 
 29 C       -6.7150    -6.8240    -2.0380 C.ar  1 <1>  -0.1500 
 30 H       -4.1910     1.5620    -0.3340 H     1 <1>   0.0800 
 31 H       -5.2140     1.1300     1.0100 H     1 <1>   0.0800 
 32 H       -4.2280    -0.2260     2.9270 H     1 <1>   0.0800 
 33 H       -2.5390    -0.6450     2.8880 H     1 <1>   0.0800 
 34 H       -3.9500    -0.7400    -0.9980 H     1 <1>   0.0800 
 35 H       -5.6290    -0.3470    -0.9310 H     1 <1>   0.0800 
 36 H       -3.9630    -2.5890     2.2890 H     1 <1>   0.0800 
 37 H       -2.9010    -2.1280     0.9960 H     1 <1>   0.0800 
 38 H       -2.5880     5.2900    -0.7030 H     1 <1>   0.2700 
 39 H        0.5730     1.1350    -0.6020 H     1 <1>   0.0800 
 40 H        1.2440     2.1980     0.6220 H     1 <1>   0.0800 
 41 H        0.2600     5.8810    -1.1450 H     1 <1>   0.0800 
 42 H        0.0190     4.8340    -2.5230 H     1 <1>   0.0800 
 43 H        1.9370     4.4230    -0.2070 H     1 <1>   0.0800 
 44 H        2.3210     4.5230    -1.9130 H     1 <1>   0.0800 
 45 H       -7.4930    -1.0250     0.0870 H     1 <1>   0.0800 
 46 H       -8.0640    -1.2420     1.7250 H     1 <1>   0.0800 
 47 H       -3.3910    -3.3860    -1.0910 H     1 <1>   0.2700 
 48 H       -8.5040    -3.2210     0.1570 H     1 <1>   0.0800 
 49 H       -7.6760    -3.6270     1.6420 H     1 <1>   0.0800 
 50 H       -3.5410    -5.7600    -2.5880 H     1 <1>   0.1500 
 51 H       -8.1640    -5.8220    -0.8200 H     1 <1>   0.1500 
 52 H       -5.0810    -7.6010    -3.1820 H     1 <1>   0.1500 
 53 H       -7.3670    -7.6360    -2.3100 H     1 <1>   0.1500 
@<TRIPOS>BOND
  1   1   2  2   
  2   2   3  am  
  3   2   4  1   
  4   3   5  1   
  5   3   6  1   
  6   4   7  2   
  7   4   8  1   
  8   5   9  1   
  9   5  30  1   
 10   5  31  1   
 11   6  10  1   
 12   6  32  1   
 13   6  33  1   
 14   7  11  1   
 15   8  12  2   
 16   8  13  1   
 17   9  14  1   
 18   9  34  1   
 19   9  35  1   
 20  10  14  1   
 21  10  36  1   
 22  10  37  1   
 23  11  12  1   
 24  11  38  1   
 25  12  15  1   
 26  13  16  1   
 27  13  39  1   
 28  13  40  1   
 29  14  17  1   
 30  14  18  1   
 31  15  19  1   
 32  15  41  1   
 33  15  42  1   
 34  16  19  1   
 35  17  20  1   
 36  18  21  1   
 37  18  22  2   
 38  19  43  1   
 39  19  44  1   
 40  20  23  1   
 41  20  45  1   
 42  20  46  1   
 43  21  24  1   
 44  21  47  1   
 45  22  23  1   
 46  22  25  1   
 47  23  48  1   
 48  23  49  1   
 49  24  25  ar  
 50  24  26  ar  
 51  25  27  ar  
 52  26  28  ar  
 53  26  50  1   
 54  27  29  ar  
 55  27  51  1   
 56  28  29  ar  
 57  28  52  1   
 58  29  53  1   
@<TRIPOS>SUBSTRUCTURE
  1 ****   9 GROUP 4 **** **** 0

# MOE 2024.06 (io_trps.svl 2023.06)
