@<TRIPOS>MOLECULE
NONAME
54 56 1 0 0 
SMALL
USER_CHARGES


@<TRIPOS>ATOM
  1 O       -2.5670     0.6620    -2.2040 O.2   1 <1>  -0.5700 
  2 C       -2.9750     1.6170    -1.5610 C.2   1 <1>   0.7160 
  3 N       -4.3190     1.6220    -1.2190 N.am  1 <1>  -0.6600 
  4 C       -2.0430     2.6630    -1.1490 C.2   1 <1>   0.1410 
  5 C       -5.2670     0.7130    -1.9160 C.3   1 <1>   0.3200 
  6 C       -4.9240     2.5760    -0.2260 C.3   1 <1>   0.1400 
  7 N       -1.9550     3.1300     0.1300 N.2   1 <1>  -0.5650 
  8 C       -1.1240     3.3240    -1.9150 C.2   1 <1>  -0.3320 
  9 C       -5.3430    -0.5410    -1.0830 C.2   1 <1>  -0.3320 
 10 C       -4.6230     2.2390     1.2560 C.3   1 <1>   0.3430 
 11 C       -1.0300     4.0470     0.1130 C.2   1 <1>   0.1330 
 12 N       -0.4910     4.1930    -1.1200 N.pl3 1 <1>   0.0330 
 13 C       -0.7960     3.1780    -3.3930 C.3   1 <1>  -0.0600 
 14 N       -4.3240    -1.4180    -1.0210 N.pl3 1 <1>   0.0330 
 15 C       -6.3120    -1.0160    -0.2710 C.2   1 <1>   0.0770 
 16 N       -4.3820     0.7790     1.4930 N.4   1 <1>  -0.9590 
 17 C       -0.6040     4.8270     1.2490 C.ar  1 <1>   0.0530 
 18 C       -4.7210    -2.3530    -0.1320 C.2   1 <1>   0.0060 
 19 N       -5.8990    -2.1320     0.3540 N.2   1 <1>  -0.5650 
 20 C       -5.2360     0.2060     2.5730 C.3   1 <1>   0.2630 
 21 C       -2.9380     0.5050     1.7440 C.3   1 <1>   0.2630 
 22 C       -0.2900     4.2110     2.4580 C.ar  1 <1>  -0.1500 
 23 C       -0.4950     6.2150     1.1780 C.ar  1 <1>  -0.1500 
 24 C       -3.8640    -3.5440     0.2400 C.3   1 <1>  -0.0600 
 25 C        0.1190     4.9480     3.5540 C.ar  1 <1>  -0.1500 
 26 C       -0.0860     6.9570     2.2710 C.ar  1 <1>  -0.1500 
 27 C        0.2220     6.3240     3.4620 C.ar  1 <1>  -0.1500 
 28 H       -4.9180     0.4820    -2.9100 H     1 <1>   0.0800 
 29 H       -6.2370     1.1720    -2.0040 H     1 <1>   0.0800 
 30 H       -5.9920     2.5950    -0.3550 H     1 <1>   0.0800 
 31 H       -4.5750     3.5750    -0.4310 H     1 <1>   0.0800 
 32 H       -5.4500     2.5790     1.8570 H     1 <1>   0.0800 
 33 H       -3.7610     2.8010     1.5750 H     1 <1>   0.0800 
 34 H        0.2660     4.8380    -1.3630 H     1 <1>   0.2700 
 35 H       -1.4310     2.4430    -3.8570 H     1 <1>   0.0800 
 36 H        0.2260     2.8640    -3.5170 H     1 <1>   0.0800 
 37 H       -0.9350     4.1150    -3.9020 H     1 <1>   0.0800 
 38 H       -3.4380    -1.3620    -1.5430 H     1 <1>   0.2700 
 39 H       -7.2910    -0.6040    -0.0840 H     1 <1>   0.1500 
 40 H       -4.6350     0.2910     0.6090 H     1 <1>   0.4500 
 41 H       -4.9890     0.6460     3.5250 H     1 <1>   0.0800 
 42 H       -5.0880    -0.8610     2.6310 H     1 <1>   0.0800 
 43 H       -6.2770     0.3870     2.3610 H     1 <1>   0.0800 
 44 H       -2.6060     1.0220     2.6290 H     1 <1>   0.0800 
 45 H       -2.3430     0.8380     0.9100 H     1 <1>   0.0800 
 46 H       -2.7790    -0.5530     1.8760 H     1 <1>   0.0800 
 47 H       -0.3650     3.1420     2.5330 H     1 <1>   0.1500 
 48 H       -0.7410     6.7220     0.2620 H     1 <1>   0.1500 
 49 H       -2.9240    -3.2190     0.6450 H     1 <1>   0.0800 
 50 H       -3.6840    -4.1510    -0.6290 H     1 <1>   0.0800 
 51 H       -4.3700    -4.1440     0.9750 H     1 <1>   0.0800 
 52 H        0.3610     4.4540     4.4800 H     1 <1>   0.1500 
 53 H       -0.0090     8.0280     2.1990 H     1 <1>   0.1500 
 54 H        0.5410     6.9010     4.3130 H     1 <1>   0.1500 
@<TRIPOS>BOND
  1   1   2  2   
  2   2   3  am  
  3   2   4  1   
  4   3   5  1   
  5   3   6  1   
  6   4   7  1   
  7   4   8  2   
  8   5   9  1   
  9   5  28  1   
 10   5  29  1   
 11   6  10  1   
 12   6  30  1   
 13   6  31  1   
 14   7  11  2   
 15   8  12  1   
 16   8  13  1   
 17   9  14  1   
 18   9  15  2   
 19  10  16  1   
 20  10  32  1   
 21  10  33  1   
 22  11  12  1   
 23  11  17  1   
 24  12  34  1   
 25  13  35  1   
 26  13  36  1   
 27  13  37  1   
 28  14  18  1   
 29  14  38  1   
 30  15  19  1   
 31  15  39  1   
 32  16  20  1   
 33  16  21  1   
 34  16  40  1   
 35  17  22  ar  
 36  17  23  ar  
 37  18  19  2   
 38  18  24  1   
 39  20  41  1   
 40  20  42  1   
 41  20  43  1   
 42  21  44  1   
 43  21  45  1   
 44  21  46  1   
 45  22  25  ar  
 46  22  47  1   
 47  23  26  ar  
 48  23  48  1   
 49  24  49  1   
 50  24  50  1   
 51  24  51  1   
 52  25  27  ar  
 53  25  52  1   
 54  26  27  ar  
 55  26  53  1   
 56  27  54  1   
@<TRIPOS>SUBSTRUCTURE
  1 ****   7 GROUP 4 **** **** 0

# MOE 2024.06 (io_trps.svl 2023.06)
