@<TRIPOS>MOLECULE
NONAME
43 45 1 0 0 
SMALL
USER_CHARGES


@<TRIPOS>ATOM
  1 O        0.6030    -1.4010     1.4960 O.2   1 <1>  -0.5700 
  2 C        1.3950    -1.5850     0.5950 C.2   1 <1>   0.6900 
  3 N        1.1220    -2.4270    -0.4630 N.am  1 <1>  -0.4200 
  4 N        2.6030    -0.9470     0.6400 N.am  1 <1>  -0.5390 
  5 C        2.0920    -2.6720    -1.4210 C.2   1 <1>   0.6160 
  6 C       -0.2100    -3.0810    -0.5570 C.3   1 <1>   0.1400 
  7 C        3.5830    -1.1270    -0.3120 C.2   1 <1>  -0.0290 
  8 O        1.8870    -3.4780    -2.3100 O.2   1 <1>  -0.5700 
  9 C        3.3340    -1.9780    -1.3300 C.2   1 <1>  -0.1360 
 10 C       -0.1840    -4.4200     0.1900 C.3   1 <1>   0.1100 
 11 C        4.8710    -0.3490    -0.1340 C.3   1 <1>  -0.1020 
 12 N       -1.4820    -5.1250     0.0950 N.3   1 <1>  -0.8100 
 13 C       -1.3310    -6.5600     0.4110 C.3   1 <1>   0.2780 
 14 C       -2.4910    -4.4930     0.9700 C.3   1 <1>   0.0300 
 15 C       -2.4030    -7.3770    -0.3020 C.2   1 <1>   0.1820 
 16 N       -2.6990    -8.7020    -0.0210 N.pl3 1 <1>  -0.6290 
 17 C       -3.2120    -6.9730    -1.3020 C.2   1 <1>   0.2000 
 18 C       -3.6930    -9.0700    -0.8670 C.cat 1 <1>   0.7910 
 19 C       -2.1890    -9.6080     0.8850 C.2   1 <1>   0.2290 
 20 N       -4.0150    -8.0270    -1.6490 N.pl3 1 <1>  -0.7000 
 21 C       -4.2200   -10.3720    -0.8320 C.2   1 <1>  -0.1410 
 22 C       -2.6880   -10.8780     0.9340 C.2   1 <1>  -0.1500 
 23 C       -3.7230   -11.2790     0.0650 C.2   1 <1>  -0.1500 
 24 H        2.7280    -0.3280     1.4420 H     1 <1>   0.3700 
 25 H       -0.4600    -3.2500    -1.5900 H     1 <1>   0.0800 
 26 H       -0.9530    -2.4290    -0.1340 H     1 <1>   0.0800 
 27 H        4.0440    -2.1780    -2.1100 H     1 <1>   0.1500 
 28 H        0.0730    -4.2560     1.2240 H     1 <1>   0.0800 
 29 H        0.5850    -5.0220    -0.2650 H     1 <1>   0.0800 
 30 H        5.3350    -0.6120     0.7990 H     1 <1>   0.0800 
 31 H        4.6670     0.7070    -0.1390 H     1 <1>   0.0800 
 32 H        5.5580    -0.5680    -0.9320 H     1 <1>   0.0800 
 33 H       -1.3890    -6.7110     1.4750 H     1 <1>   0.0800 
 34 H       -0.3730    -6.9160     0.0730 H     1 <1>   0.0800 
 35 H       -2.6840    -3.4820     0.6530 H     1 <1>   0.0800 
 36 H       -2.1480    -4.4710     1.9920 H     1 <1>   0.0800 
 37 H       -3.4210    -5.0330     0.9280 H     1 <1>   0.0800 
 38 H       -3.2510    -6.0030    -1.7750 H     1 <1>   0.1500 
 39 H       -1.3970    -9.2870     1.5430 H     1 <1>   0.1500 
 40 H       -4.7290    -8.0320    -2.3800 H     1 <1>   0.4500 
 41 H       -5.0070   -10.6290    -1.5150 H     1 <1>   0.1500 
 42 H       -2.3000   -11.5960     1.6380 H     1 <1>   0.1500 
 43 H       -4.1010   -12.2880     0.1220 H     1 <1>   0.1500 
@<TRIPOS>BOND
  1   1   2  2   
  2   2   3  am  
  3   2   4  am  
  4   3   5  am  
  5   3   6  1   
  6   4   7  1   
  7   4  24  1   
  8   5   8  2   
  9   5   9  1   
 10   6  10  1   
 11   6  25  1   
 12   6  26  1   
 13   7   9  2   
 14   7  11  1   
 15   9  27  1   
 16  10  12  1   
 17  10  28  1   
 18  10  29  1   
 19  11  30  1   
 20  11  31  1   
 21  11  32  1   
 22  12  13  1   
 23  12  14  1   
 24  13  15  1   
 25  13  33  1   
 26  13  34  1   
 27  14  35  1   
 28  14  36  1   
 29  14  37  1   
 30  15  16  1   
 31  15  17  2   
 32  16  18  ar  
 33  16  19  1   
 34  17  20  1   
 35  17  38  1   
 36  18  20  ar  
 37  18  21  1   
 38  19  22  2   
 39  19  39  1   
 40  20  40  1   
 41  21  23  2   
 42  21  41  1   
 43  22  23  1   
 44  22  42  1   
 45  23  43  1   
@<TRIPOS>SUBSTRUCTURE
  1 ****  12 GROUP 4 **** **** 0

# MOE 2024.06 (io_trps.svl 2023.06)
