@<TRIPOS>MOLECULE
NONAME
48 51 1 0 0 
SMALL
USER_CHARGES


@<TRIPOS>ATOM
  1 CL       0.6000    -3.2670    -3.4740 Cl    1 <1>  -0.1770 
  2 C       -0.4160    -3.8540    -2.1790 C.ar  1 <1>   0.1770 
  3 C       -0.2890    -5.1530    -1.7520 C.ar  1 <1>  -0.1500 
  4 C       -1.3400    -2.9730    -1.6090 C.ar  1 <1>  -0.1500 
  5 C       -1.1130    -5.6010    -0.7140 C.ar  1 <1>   0.0000 
  6 C       -2.1550    -3.4050    -0.5880 C.ar  1 <1>  -0.1500 
  7 C       -2.0350    -4.7270    -0.1460 C.ar  1 <1>  -0.1520 
  8 C       -1.2570    -6.8330    -0.0400 C.2   1 <1>  -0.1810 
  9 N       -2.7140    -5.3970     0.8350 N.pl3 1 <1>   0.0330 
 10 C       -2.2410    -6.6840     0.8830 C.2   1 <1>  -0.3320 
 11 C       -0.4040    -8.0440    -0.3710 C.3   1 <1>  -0.0590 
 12 C       -2.8030    -7.6970     1.8530 C.3   1 <1>   0.5230 
 13 N       -3.5410    -8.7040     1.0630 N.4   1 <1>  -0.9590 
 14 C       -4.6030    -8.1160     0.1850 C.3   1 <1>   0.3430 
 15 C       -4.1840    -9.7600     1.8930 C.3   1 <1>   0.3430 
 16 C       -5.8790    -8.9320     0.4260 C.3   1 <1>   0.2000 
 17 C       -5.4250   -10.2180     1.1220 C.3   1 <1>  -0.0800 
 18 O       -6.6530    -8.2220     1.3340 O.3   1 <1>  -0.6800 
 19 C       -5.1520   -11.4020     0.1620 C.3   1 <1>   0.0200 
 20 C       -3.7980   -11.3500    -0.5210 C.2   1 <1>  -0.0400 
 21 O       -3.5240   -10.3920    -1.3630 O.3   1 <1>  -0.0190 
 22 C       -2.7160   -12.1370    -0.4270 C.2   1 <1>  -0.1500 
 23 N       -2.3040   -10.4660    -1.7990 N.2   1 <1>  -0.4100 
 24 C       -1.7960   -11.5210    -1.2710 C.2   1 <1>   0.1080 
 25 C       -0.3910   -12.0160    -1.5380 C.3   1 <1>  -0.0590 
 26 H        0.4260    -5.8150    -2.2020 H     1 <1>   0.1500 
 27 H       -1.3970    -1.9670    -1.9830 H     1 <1>   0.1500 
 28 H       -2.8720    -2.7420    -0.1360 H     1 <1>   0.1500 
 29 H       -3.4320    -4.9630     1.4260 H     1 <1>   0.2700 
 30 H       -0.5460    -8.3170    -1.4020 H     1 <1>   0.0800 
 31 H       -0.6560    -8.8840     0.2490 H     1 <1>   0.0800 
 32 H        0.6340    -7.8070    -0.2220 H     1 <1>   0.0800 
 33 H       -3.4630    -7.2160     2.5570 H     1 <1>   0.0800 
 34 H       -1.9980    -8.1670     2.3930 H     1 <1>   0.0800 
 35 H       -2.8630    -9.1340     0.4120 H     1 <1>   0.4500 
 36 H       -4.7830    -7.0800     0.4140 H     1 <1>   0.0800 
 37 H       -4.2990    -8.1960    -0.8460 H     1 <1>   0.0800 
 38 H       -3.5090   -10.5780     2.0890 H     1 <1>   0.0800 
 39 H       -4.5040    -9.3320     2.8300 H     1 <1>   0.0800 
 40 H       -6.4500    -9.0820    -0.4750 H     1 <1>   0.0800 
 41 H       -6.1810   -10.5460     1.8140 H     1 <1>   0.0800 
 42 H       -7.5780    -8.5510     1.3490 H     1 <1>   0.4000 
 43 H       -5.9260   -11.4630    -0.5850 H     1 <1>   0.0800 
 44 H       -5.1930   -12.3160     0.7290 H     1 <1>   0.0800 
 45 H       -2.5510   -13.0310     0.1480 H     1 <1>   0.1500 
 46 H        0.1400   -12.1450    -0.6120 H     1 <1>   0.0800 
 47 H        0.1400   -11.3090    -2.1490 H     1 <1>   0.0800 
 48 H       -0.4300   -12.9570    -2.0550 H     1 <1>   0.0800 
@<TRIPOS>BOND
  1   1   2  1   
  2   2   3  ar  
  3   2   4  ar  
  4   3   5  ar  
  5   3  26  1   
  6   4   6  ar  
  7   4  27  1   
  8   5   7  ar  
  9   5   8  1   
 10   6   7  ar  
 11   6  28  1   
 12   7   9  1   
 13   8  10  2   
 14   8  11  1   
 15   9  10  1   
 16   9  29  1   
 17  10  12  1   
 18  11  30  1   
 19  11  31  1   
 20  11  32  1   
 21  12  13  1   
 22  12  33  1   
 23  12  34  1   
 24  13  14  1   
 25  13  15  1   
 26  13  35  1   
 27  14  16  1   
 28  14  36  1   
 29  14  37  1   
 30  15  17  1   
 31  15  38  1   
 32  15  39  1   
 33  16  17  1   
 34  16  18  1   
 35  16  40  1   
 36  17  19  1   
 37  17  41  1   
 38  18  42  1   
 39  19  20  1   
 40  19  43  1   
 41  19  44  1   
 42  20  21  1   
 43  20  22  2   
 44  21  23  1   
 45  22  24  1   
 46  22  45  1   
 47  23  24  2   
 48  24  25  1   
 49  25  46  1   
 50  25  47  1   
 51  25  48  1   
@<TRIPOS>SUBSTRUCTURE
  1 ****  10 GROUP 4 **** **** 0

# MOE 2024.06 (io_trps.svl 2023.06)
