@<TRIPOS>MOLECULE
NONAME
60 63 1 0 0 
SMALL
USER_CHARGES


@<TRIPOS>ATOM
  1 O       -0.8130     1.0160    -0.9510 O.2   1 <1>  -0.5700 
  2 C       -0.7370     2.0970    -0.3980 C.2   1 <1>   0.5440 
  3 N        0.4880     2.5090     0.0920 N.am  1 <1>  -0.6600 
  4 C       -1.9420     2.8930    -0.2550 C.ar  1 <1>   0.0860 
  5 C        1.7480     1.7780    -0.2140 C.3   1 <1>   0.1400 
  6 C        0.6680     3.6180     1.0610 C.3   1 <1>   0.1400 
  7 C       -2.0240     4.2110    -0.7030 C.ar  1 <1>  -0.1500 
  8 C       -3.0800     2.3500     0.3340 C.ar  1 <1>  -0.1500 
  9 C        2.7770     2.7560    -0.7910 C.3   1 <1>  -0.1600 
 10 C        1.6670     4.6260     0.4900 C.3   1 <1>  -0.1600 
 11 C       -3.1730     4.9720    -0.5600 C.ar  1 <1>   0.0830 
 12 C       -4.2410     3.0840     0.4800 C.ar  1 <1>  -0.1500 
 13 C        3.0180     3.9780     0.1180 C.3   1 <1>  -0.0800 
 14 O       -3.0760     6.2470    -1.0370 O.3   1 <1>  -0.3630 
 15 C       -4.3130     4.4020     0.0350 C.ar  1 <1>   0.0830 
 16 C        3.9810     4.9550    -0.5880 C.3   1 <1>   0.1400 
 17 C       -3.8800     7.3010    -0.5440 C.3   1 <1>   0.1200 
 18 O       -5.4620     5.1230     0.1500 O.3   1 <1>  -0.3630 
 19 N        4.0830     6.2550     0.1210 N.am  1 <1>  -0.7300 
 20 C       -3.2630     8.6470    -0.9280 C.3   1 <1>   0.0960 
 21 C       -6.6620     4.5700     0.6460 C.3   1 <1>   0.0400 
 22 C        4.1090     7.4600    -0.5090 C.2   1 <1>   0.5690 
 23 N       -1.9730     8.8540    -0.2470 N.pl3 1 <1>   0.3140 
 24 O        4.2230     7.5550    -1.7050 O.2   1 <1>  -0.5700 
 25 C        3.9300     8.7280     0.3090 C.3   1 <1>  -0.0990 
 26 N       -1.8050     9.7390     0.7430 N.2   1 <1>  -0.4180 
 27 C       -0.8300     8.2060    -0.4570 C.2   1 <1>  -0.3020 
 28 C        2.4970     9.2930     0.2070 C.3   1 <1>  -0.1600 
 29 N       -0.5890     9.6570     1.1630 N.2   1 <1>  -0.2270 
 30 C        0.0230     8.7120     0.4420 C.2   1 <1>   0.0460 
 31 C        1.4500     8.2740     0.6750 C.3   1 <1>   0.0210 
 32 H        1.5680     0.9890    -0.9250 H     1 <1>   0.0800 
 33 H        2.1240     1.3320     0.6900 H     1 <1>   0.0800 
 34 H        1.0470     3.2130     1.9840 H     1 <1>   0.0800 
 35 H       -0.2660     4.1060     1.2760 H     1 <1>   0.0800 
 36 H       -1.1660     4.6500    -1.1770 H     1 <1>   0.1500 
 37 H       -3.0430     1.3290     0.6750 H     1 <1>   0.1500 
 38 H        2.4180     3.0820    -1.7530 H     1 <1>   0.0800 
 39 H        3.7020     2.2320    -0.9510 H     1 <1>   0.0800 
 40 H        1.8200     5.3860     1.2330 H     1 <1>   0.0800 
 41 H        1.2330     5.0860    -0.3800 H     1 <1>   0.0800 
 42 H       -5.0820     2.6020     0.9420 H     1 <1>   0.1500 
 43 H        3.4900     3.6330     1.0220 H     1 <1>   0.0800 
 44 H        3.6330     5.1330    -1.5920 H     1 <1>   0.0800 
 45 H        4.9610     4.5150    -0.6550 H     1 <1>   0.0800 
 46 H       -3.9550     7.2130     0.5270 H     1 <1>   0.0800 
 47 H       -4.8550     7.2080    -0.9870 H     1 <1>   0.0800 
 48 H        4.0690     6.2110     1.1390 H     1 <1>   0.3700 
 49 H       -3.9250     9.4410    -0.6370 H     1 <1>   0.0800 
 50 H       -3.1130     8.6970    -1.9900 H     1 <1>   0.0800 
 51 H       -7.4240     5.3270     0.5980 H     1 <1>   0.0800 
 52 H       -6.5130     4.2680     1.6670 H     1 <1>   0.0800 
 53 H       -6.9420     3.7320     0.0310 H     1 <1>   0.0800 
 54 H        4.6240     9.4630    -0.0580 H     1 <1>   0.0800 
 55 H        4.1750     8.5330     1.3370 H     1 <1>   0.0800 
 56 H       -0.7050     7.4390    -1.1980 H     1 <1>   0.1500 
 57 H        2.2960     9.5540    -0.8180 H     1 <1>   0.0800 
 58 H        2.4120    10.1890     0.7980 H     1 <1>   0.0800 
 59 H        1.5840     8.0540     1.7180 H     1 <1>   0.0800 
 60 H        1.5770     7.3690     0.1160 H     1 <1>   0.0800 
@<TRIPOS>BOND
  1   1   2  2   
  2   2   3  am  
  3   2   4  1   
  4   3   5  1   
  5   3   6  1   
  6   4   7  ar  
  7   4   8  ar  
  8   5   9  1   
  9   5  32  1   
 10   5  33  1   
 11   6  10  1   
 12   6  34  1   
 13   6  35  1   
 14   7  11  ar  
 15   7  36  1   
 16   8  12  ar  
 17   8  37  1   
 18   9  13  1   
 19   9  38  1   
 20   9  39  1   
 21  10  13  1   
 22  10  40  1   
 23  10  41  1   
 24  11  14  1   
 25  11  15  ar  
 26  12  15  ar  
 27  12  42  1   
 28  13  16  1   
 29  13  43  1   
 30  14  17  1   
 31  15  18  1   
 32  16  19  1   
 33  16  44  1   
 34  16  45  1   
 35  17  20  1   
 36  17  46  1   
 37  17  47  1   
 38  18  21  1   
 39  19  22  am  
 40  19  48  1   
 41  20  23  1   
 42  20  49  1   
 43  20  50  1   
 44  21  51  1   
 45  21  52  1   
 46  21  53  1   
 47  22  24  2   
 48  22  25  1   
 49  23  26  1   
 50  23  27  1   
 51  25  28  1   
 52  25  54  1   
 53  25  55  1   
 54  26  29  2   
 55  27  30  2   
 56  27  56  1   
 57  28  31  1   
 58  28  57  1   
 59  28  58  1   
 60  29  30  1   
 61  30  31  1   
 62  31  59  1   
 63  31  60  1   
@<TRIPOS>SUBSTRUCTURE
  1 ****   7 GROUP 4 **** **** 0

# MOE 2024.06 (io_trps.svl 2023.06)
