@<TRIPOS>MOLECULE
NONAME
52 55 1 0 0 
SMALL
USER_CHARGES


@<TRIPOS>ATOM
  1 O       -2.2210     0.0570    -1.4670 O.co2 1 <1>  -0.9000 
  2 C       -2.9860     0.0570    -0.4990 C.2   1 <1>   0.9060 
  3 O       -2.7750     0.6870     0.5400 O.co2 1 <1>  -0.9000 
  4 C       -4.1420    -0.9440    -0.4980 C.3   1 <1>   0.2370 
  5 N       -3.7560    -2.3620    -0.0980 N.4   1 <1>  -0.9590 
  6 C       -3.2010    -2.3990     1.3050 C.3   1 <1>   0.4230 
  7 C       -2.8890    -2.9790    -1.1510 C.3   1 <1>   0.3430 
  8 C       -1.6760    -2.1480     1.4450 C.3   1 <1>   0.1200 
  9 C       -3.6040    -3.7550     1.9410 C.3   1 <1>   0.1400 
 10 C       -2.0290    -4.1810    -0.7040 C.3   1 <1>  -0.0800 
 11 O       -0.9290    -3.3190     1.2620 O.3   1 <1>  -0.5600 
 12 N       -3.8950    -4.8280     0.9160 N.am  1 <1>  -0.6600 
 13 C       -0.7250    -3.6910    -0.0570 C.3   1 <1>   0.1200 
 14 C       -2.7230    -5.3010     0.1180 C.3   1 <1>   0.1400 
 15 C       -5.1810    -5.0510     0.5150 C.2   1 <1>   0.5690 
 16 O       -5.9880    -4.1530     0.5730 O.2   1 <1>  -0.5700 
 17 C       -5.5900    -6.3890    -0.0780 C.3   1 <1>  -0.0990 
 18 C       -7.0440    -6.7580     0.2450 C.3   1 <1>   0.0210 
 19 C       -7.4360    -8.1180    -0.3110 C.2   1 <1>  -0.1810 
 20 C       -8.7270    -8.6700    -0.1430 C.ar  1 <1>   0.0000 
 21 C       -6.7030    -9.0110    -1.0220 C.2   1 <1>  -0.3020 
 22 C       -8.7150    -9.9080    -0.7770 C.ar  1 <1>  -0.1520 
 23 C       -9.8970    -8.2330     0.4870 C.ar  1 <1>  -0.1500 
 24 N       -7.4690   -10.1040    -1.3120 N.pl3 1 <1>   0.0330 
 25 C       -9.8520   -10.7200    -0.7950 C.ar  1 <1>  -0.1500 
 26 C      -11.0170    -9.0320     0.4700 C.ar  1 <1>  -0.1500 
 27 C      -10.9950   -10.2770    -0.1710 C.ar  1 <1>  -0.1500 
 28 H       -4.5630    -0.9460    -1.4860 H     1 <1>   0.0800 
 29 H       -4.8820    -0.5660     0.1830 H     1 <1>   0.0800 
 30 H       -4.6180    -2.9370    -0.0290 H     1 <1>   0.4500 
 31 H       -3.6830    -1.6170     1.8690 H     1 <1>   0.0800 
 32 H       -3.5200    -3.2890    -1.9660 H     1 <1>   0.0800 
 33 H       -2.2220    -2.2250    -1.5400 H     1 <1>   0.0800 
 34 H       -1.4810    -1.8200     2.4500 H     1 <1>   0.0800 
 35 H       -1.3140    -1.3810     0.7840 H     1 <1>   0.0800 
 36 H       -4.4880    -3.5920     2.5330 H     1 <1>   0.0800 
 37 H       -2.8430    -4.0980     2.6200 H     1 <1>   0.0800 
 38 H       -1.7040    -4.6440    -1.6170 H     1 <1>   0.0800 
 39 H       -0.2980    -2.8590    -0.5940 H     1 <1>   0.0800 
 40 H       -0.0010    -4.4880    -0.0450 H     1 <1>   0.0800 
 41 H       -2.0110    -5.7590     0.7850 H     1 <1>   0.0800 
 42 H       -3.0450    -6.0660    -0.5660 H     1 <1>   0.0800 
 43 H       -5.4660    -6.3460    -1.1440 H     1 <1>   0.0800 
 44 H       -4.9490    -7.1550     0.3150 H     1 <1>   0.0800 
 45 H       -7.7060    -6.0160    -0.1670 H     1 <1>   0.0800 
 46 H       -7.1810    -6.7680     1.3120 H     1 <1>   0.0800 
 47 H       -5.6800    -8.9470    -1.3450 H     1 <1>   0.1500 
 48 H       -9.9050    -7.2770     0.9760 H     1 <1>   0.1500 
 49 H       -7.1780   -10.9360    -1.8350 H     1 <1>   0.2700 
 50 H       -9.8250   -11.6740    -1.2900 H     1 <1>   0.1500 
 51 H      -11.9230    -8.7070     0.9510 H     1 <1>   0.1500 
 52 H      -11.8840   -10.8830    -0.1700 H     1 <1>   0.1500 
@<TRIPOS>BOND
  1   1   2  ar  
  2   2   3  ar  
  3   2   4  1   
  4   4   5  1   
  5   4  28  1   
  6   4  29  1   
  7   5   6  1   
  8   5   7  1   
  9   5  30  1   
 10   6   8  1   
 11   6   9  1   
 12   6  31  1   
 13   7  10  1   
 14   7  32  1   
 15   7  33  1   
 16   8  11  1   
 17   8  34  1   
 18   8  35  1   
 19   9  12  1   
 20   9  36  1   
 21   9  37  1   
 22  10  13  1   
 23  10  14  1   
 24  10  38  1   
 25  11  13  1   
 26  12  14  1   
 27  12  15  am  
 28  13  39  1   
 29  13  40  1   
 30  14  41  1   
 31  14  42  1   
 32  15  16  2   
 33  15  17  1   
 34  17  18  1   
 35  17  43  1   
 36  17  44  1   
 37  18  19  1   
 38  18  45  1   
 39  18  46  1   
 40  19  20  1   
 41  19  21  2   
 42  20  22  ar  
 43  20  23  ar  
 44  21  24  1   
 45  21  47  1   
 46  22  24  1   
 47  22  25  ar  
 48  23  26  ar  
 49  23  48  1   
 50  24  49  1   
 51  25  27  ar  
 52  25  50  1   
 53  26  27  ar  
 54  26  51  1   
 55  27  52  1   
@<TRIPOS>SUBSTRUCTURE
  1 ****  15 GROUP 4 **** **** 0

# MOE 2024.06 (io_trps.svl 2023.06)
