@<TRIPOS>MOLECULE
NONAME
41 42 1 0 0 
SMALL
USER_CHARGES


@<TRIPOS>ATOM
  1 CL       1.9530     0.6790    -1.7970 Cl    1 <1>  -0.1770 
  2 C        0.9140     1.8260    -0.9790 C.ar  1 <1>   0.1770 
  3 C        1.2930     2.4330     0.2160 C.ar  1 <1>  -0.1440 
  4 C       -0.3020     2.1030    -1.5770 C.ar  1 <1>  -0.1500 
  5 C        0.4110     3.3390     0.7930 C.ar  1 <1>  -0.1500 
  6 C        2.6210     2.1510     0.9180 C.3   1 <1>   0.3640 
  7 C       -1.1680     3.0050    -0.9870 C.ar  1 <1>  -0.1500 
  8 C       -0.8080     3.6220     0.1980 C.ar  1 <1>  -0.1500 
  9 N        2.6620     0.7160     1.2900 N.am  1 <1>  -0.7300 
 10 C        3.8600     2.6110     0.0960 C.3   1 <1>   0.2610 
 11 C        3.7000    -0.1000     1.0090 C.2   1 <1>   0.5690 
 12 O        5.0280     1.8620     0.4240 O.3   1 <1>  -0.5600 
 13 C        4.1070     4.1050     0.3340 C.2   1 <1>   0.5690 
 14 O        3.6830    -1.2580     1.3420 O.2   1 <1>  -0.5700 
 15 C        4.8970     0.4680     0.2460 C.3   1 <1>   0.1810 
 16 O        3.2260     4.9020     0.1150 O.2   1 <1>  -0.5700 
 17 N        5.3210     4.5140     0.7900 N.am  1 <1>  -0.7300 
 18 C        5.6940     5.9120     1.1120 C.3   1 <1>   0.1400 
 19 C        5.9980     6.6920    -0.1700 C.3   1 <1>   0.1400 
 20 N        6.4320     8.0730     0.1630 N.am  1 <1>  -0.7300 
 21 C        7.6610     8.6280     0.0780 C.2   1 <1>   0.5690 
 22 O        7.8220     9.7810     0.3810 O.2   1 <1>  -0.5700 
 23 C        8.8470     7.8190    -0.3860 C.3   1 <1>  -0.1790 
 24 H       -0.5650     1.6160    -2.4990 H     1 <1>   0.1500 
 25 H        0.6660     3.8410     1.7110 H     1 <1>   0.1500 
 26 H        2.6350     2.7070     1.8400 H     1 <1>   0.0800 
 27 H       -2.1150     3.2270    -1.4460 H     1 <1>   0.1500 
 28 H       -1.4770     4.3290     0.6580 H     1 <1>   0.1500 
 29 H        1.8410     0.3200     1.7500 H     1 <1>   0.3700 
 30 H        3.6780     2.4800    -0.9530 H     1 <1>   0.0800 
 31 H        4.7870     0.2620    -0.8030 H     1 <1>   0.0800 
 32 H        5.7980     0.0030     0.6010 H     1 <1>   0.0800 
 33 H        6.0260     3.7840     0.9500 H     1 <1>   0.3700 
 34 H        4.8760     6.3840     1.6310 H     1 <1>   0.0800 
 35 H        6.5580     5.9100     1.7540 H     1 <1>   0.0800 
 36 H        5.1110     6.7420    -0.7780 H     1 <1>   0.0800 
 37 H        6.7670     6.1860    -0.7260 H     1 <1>   0.0800 
 38 H        5.6930     8.7100     0.4710 H     1 <1>   0.3700 
 39 H        8.9590     6.9470     0.2280 H     1 <1>   0.0800 
 40 H        9.7390     8.4130    -0.3120 H     1 <1>   0.0800 
 41 H        8.7080     7.5290    -1.4100 H     1 <1>   0.0800 
@<TRIPOS>BOND
  1   1   2  1   
  2   2   3  ar  
  3   2   4  ar  
  4   3   5  ar  
  5   3   6  1   
  6   4   7  ar  
  7   4  24  1   
  8   5   8  ar  
  9   5  25  1   
 10   6   9  1   
 11   6  10  1   
 12   6  26  1   
 13   7   8  ar  
 14   7  27  1   
 15   8  28  1   
 16   9  11  am  
 17   9  29  1   
 18  10  12  1   
 19  10  13  1   
 20  10  30  1   
 21  11  14  2   
 22  11  15  1   
 23  12  15  1   
 24  13  16  2   
 25  13  17  am  
 26  15  31  1   
 27  15  32  1   
 28  17  18  1   
 29  17  33  1   
 30  18  19  1   
 31  18  34  1   
 32  18  35  1   
 33  19  20  1   
 34  19  36  1   
 35  19  37  1   
 36  20  21  am  
 37  20  38  1   
 38  21  22  2   
 39  21  23  1   
 40  23  39  1   
 41  23  40  1   
 42  23  41  1   
@<TRIPOS>SUBSTRUCTURE
  1 ****  13 GROUP 4 **** **** 0

# MOE 2024.06 (io_trps.svl 2023.06)
