@<TRIPOS>MOLECULE
NONAME
39 39 1 0 0 
SMALL
USER_CHARGES


@<TRIPOS>ATOM
  1 F       -2.1370    -0.0590     1.2120 F     1 <1>  -0.3400 
  2 C       -1.7380     1.1190     0.7460 C.3   1 <1>   1.0200 
  3 F       -1.0640     0.8580    -0.3700 F     1 <1>  -0.3400 
  4 F       -0.8500     1.5730     1.6220 F     1 <1>  -0.3400 
  5 C       -2.9260     2.1130     0.4960 C.3   1 <1>   0.2000 
  6 O       -4.0170     1.4890    -0.1480 O.3   1 <1>  -0.6800 
  7 C       -2.5850     3.4010    -0.3120 C.3   1 <1>  -0.0800 
  8 C       -1.4190     4.2100     0.3010 C.3   1 <1>  -0.1600 
  9 C       -3.8210     4.3240    -0.4420 C.3   1 <1>  -0.1600 
 10 C       -1.1360     5.5090    -0.4610 C.3   1 <1>   0.1400 
 11 C       -3.5180     5.6190    -1.2000 C.3   1 <1>   0.1400 
 12 N       -2.3770     6.3140    -0.5540 N.am  1 <1>  -0.6600 
 13 C       -2.4320     7.6120    -0.1100 C.2   1 <1>   0.7800 
 14 O       -1.4760     8.1560     0.4080 O.2   1 <1>  -0.5700 
 15 O       -3.5840     8.2680    -0.2740 O.3   1 <1>  -0.4300 
 16 C       -3.8710     9.6040     0.0820 C.3   1 <1>   0.2800 
 17 C       -3.7520     9.7880     1.5990 C.3   1 <1>  -0.2400 
 18 C       -5.3240     9.8250    -0.3390 C.3   1 <1>  -0.2400 
 19 C       -2.9680    10.5670    -0.6990 C.3   1 <1>  -0.2400 
 20 H       -3.2860     2.4090     1.4650 H     1 <1>   0.0800 
 21 H       -3.7450     1.0920    -1.0000 H     1 <1>   0.4000 
 22 H       -2.2810     3.1040    -1.3030 H     1 <1>   0.0800 
 23 H       -0.5110     3.6350     0.2870 H     1 <1>   0.0800 
 24 H       -1.6380     4.4590     1.3260 H     1 <1>   0.0800 
 25 H       -4.1890     4.5810     0.5360 H     1 <1>   0.0800 
 26 H       -4.6150     3.8170    -0.9600 H     1 <1>   0.0800 
 27 H       -0.7910     5.2850    -1.4560 H     1 <1>   0.0800 
 28 H       -0.3610     6.0600     0.0430 H     1 <1>   0.0800 
 29 H       -4.3960     6.2410    -1.2090 H     1 <1>   0.0800 
 30 H       -3.2580     5.3960    -2.2200 H     1 <1>   0.0800 
 31 H       -4.1030    10.7650     1.8780 H     1 <1>   0.0800 
 32 H       -2.7300     9.7070     1.9210 H     1 <1>   0.0800 
 33 H       -4.3440     9.0530     2.1130 H     1 <1>   0.0800 
 34 H       -5.6330    10.8280    -0.1070 H     1 <1>   0.0800 
 35 H       -5.9710     9.1430     0.1810 H     1 <1>   0.0800 
 36 H       -5.4330     9.6730    -1.3980 H     1 <1>   0.0800 
 37 H       -3.2830    11.5810    -0.5330 H     1 <1>   0.0800 
 38 H       -3.0230    10.3600    -1.7520 H     1 <1>   0.0800 
 39 H       -1.9470    10.4880    -0.3760 H     1 <1>   0.0800 
@<TRIPOS>BOND
  1   1   2  1   
  2   2   3  1   
  3   2   4  1   
  4   2   5  1   
  5   5   6  1   
  6   5   7  1   
  7   5  20  1   
  8   6  21  1   
  9   7   8  1   
 10   7   9  1   
 11   7  22  1   
 12   8  10  1   
 13   8  23  1   
 14   8  24  1   
 15   9  11  1   
 16   9  25  1   
 17   9  26  1   
 18  10  12  1   
 19  10  27  1   
 20  10  28  1   
 21  11  12  1   
 22  11  29  1   
 23  11  30  1   
 24  12  13  am  
 25  13  14  2   
 26  13  15  1   
 27  15  16  1   
 28  16  17  1   
 29  16  18  1   
 30  16  19  1   
 31  17  31  1   
 32  17  32  1   
 33  17  33  1   
 34  18  34  1   
 35  18  35  1   
 36  18  36  1   
 37  19  37  1   
 38  19  38  1   
 39  19  39  1   
@<TRIPOS>SUBSTRUCTURE
  1 ****  12 GROUP 4 **** **** 0

# MOE 2024.06 (io_trps.svl 2023.06)
