@<TRIPOS>MOLECULE
NONAME
50 52 1 0 0 
SMALL
USER_CHARGES


@<TRIPOS>ATOM
  1 O       -0.7390     0.6470     1.7500 O.2   1 <1>  -0.5700 
  2 C       -1.5720     1.2790     1.1290 C.2   1 <1>   0.5440 
  3 N       -2.6040     0.6000     0.5150 N.am  1 <1>  -0.6600 
  4 C       -1.4420     2.7220     1.0420 C.ar  1 <1>   0.0860 
  5 C       -2.8690    -0.8480     0.7750 C.3   1 <1>   0.1400 
  6 C       -3.3950     1.1410    -0.6320 C.3   1 <1>   0.1400 
  7 C       -0.2290     3.3140     0.6990 C.ar  1 <1>  -0.1500 
  8 C       -2.5140     3.5760     1.3010 C.ar  1 <1>  -0.1500 
  9 C       -2.7840    -1.6570    -0.5290 C.3   1 <1>   0.1200 
 10 C       -3.2840     0.2130    -1.8530 C.3   1 <1>   0.1200 
 11 C       -0.0950     4.6860     0.5990 C.ar  1 <1>  -0.1500 
 12 C       -2.3810     4.9480     1.2000 C.ar  1 <1>  -0.1500 
 13 O       -3.6160    -1.1010    -1.5090 O.3   1 <1>  -0.5600 
 14 C       -1.1690     5.5430     0.8490 C.ar  1 <1>   0.0860 
 15 C       -1.0500     6.9870     0.7510 C.2   1 <1>   0.5440 
 16 O       -2.0120     7.6720     0.4680 O.2   1 <1>  -0.5700 
 17 N        0.1440     7.6150     0.9840 N.am  1 <1>  -0.7300 
 18 C        0.3200     9.0900     1.0310 C.3   1 <1>   0.1400 
 19 C        0.2110     9.6950    -0.3710 C.3   1 <1>   0.0960 
 20 N        0.5840    11.1230    -0.3250 N.pl3 1 <1>   0.0480 
 21 C        1.7080    11.7420    -0.7700 C.2   1 <1>   0.0070 
 22 C       -0.1560    12.1070     0.2170 C.2   1 <1>  -0.3020 
 23 N        1.7210    13.0150    -0.5420 N.2   1 <1>  -0.5650 
 24 C        2.8540    11.0360    -1.4790 C.3   1 <1>   0.0200 
 25 C        0.5510    13.2480     0.0770 C.2   1 <1>   0.0770 
 26 C        3.7270    10.2400    -0.5030 C.3   1 <1>  -0.2400 
 27 H       -3.8540    -0.9570     1.1940 H     1 <1>   0.0800 
 28 H       -2.1650    -1.2460     1.4860 H     1 <1>   0.0800 
 29 H       -3.0460     2.1190    -0.9120 H     1 <1>   0.0800 
 30 H       -4.4280     1.2230    -0.3440 H     1 <1>   0.0800 
 31 H        0.6170     2.6740     0.5080 H     1 <1>   0.1500 
 32 H       -3.4610     3.1510     1.5860 H     1 <1>   0.1500 
 33 H       -3.1060    -2.6690    -0.3590 H     1 <1>   0.0800 
 34 H       -1.7730    -1.6720    -0.8980 H     1 <1>   0.0800 
 35 H       -2.2820     0.2230    -2.2460 H     1 <1>   0.0800 
 36 H       -3.9610     0.5310    -2.6260 H     1 <1>   0.0800 
 37 H        0.8580     5.0960     0.3160 H     1 <1>   0.1500 
 38 H       -3.2300     5.5810     1.4000 H     1 <1>   0.1500 
 39 H        0.9090     7.0680     1.3840 H     1 <1>   0.3700 
 40 H        1.2840     9.3150     1.4530 H     1 <1>   0.0800 
 41 H       -0.4420     9.5140     1.6650 H     1 <1>   0.0800 
 42 H       -0.8000     9.6170    -0.7290 H     1 <1>   0.0800 
 43 H        0.8630     9.1780    -1.0480 H     1 <1>   0.0800 
 44 H       -1.1220    11.9490     0.6610 H     1 <1>   0.1500 
 45 H        3.4640    11.7820    -1.9590 H     1 <1>   0.0800 
 46 H        2.4680    10.3930    -2.2490 H     1 <1>   0.0800 
 47 H        0.2750    14.2400     0.3930 H     1 <1>   0.1500 
 48 H        4.0900    10.8920     0.2720 H     1 <1>   0.0800 
 49 H        4.5690     9.8200    -1.0230 H     1 <1>   0.0800 
 50 H        3.1680     9.4420    -0.0520 H     1 <1>   0.0800 
@<TRIPOS>BOND
  1   1   2  2   
  2   2   3  am  
  3   2   4  1   
  4   3   5  1   
  5   3   6  1   
  6   4   7  ar  
  7   4   8  ar  
  8   5   9  1   
  9   5  27  1   
 10   5  28  1   
 11   6  10  1   
 12   6  29  1   
 13   6  30  1   
 14   7  11  ar  
 15   7  31  1   
 16   8  12  ar  
 17   8  32  1   
 18   9  13  1   
 19   9  33  1   
 20   9  34  1   
 21  10  13  1   
 22  10  35  1   
 23  10  36  1   
 24  11  14  ar  
 25  11  37  1   
 26  12  14  ar  
 27  12  38  1   
 28  14  15  1   
 29  15  16  2   
 30  15  17  am  
 31  17  18  1   
 32  17  39  1   
 33  18  19  1   
 34  18  40  1   
 35  18  41  1   
 36  19  20  1   
 37  19  42  1   
 38  19  43  1   
 39  20  21  1   
 40  20  22  1   
 41  21  23  2   
 42  21  24  1   
 43  22  25  2   
 44  22  44  1   
 45  23  25  1   
 46  24  26  1   
 47  24  45  1   
 48  24  46  1   
 49  25  47  1   
 50  26  48  1   
 51  26  49  1   
 52  26  50  1   
@<TRIPOS>SUBSTRUCTURE
  1 ****  14 GROUP 4 **** **** 0

# MOE 2024.06 (io_trps.svl 2023.06)
