@<TRIPOS>MOLECULE
NONAME
57 61 1 0 0 
SMALL
USER_CHARGES


@<TRIPOS>ATOM
  1 O       -0.0580    -0.8290    -2.3280 O.2   1 <1>  -0.5700 
  2 C        0.3570    -1.6100    -1.5060 C.2   1 <1>   0.5690 
  3 N        1.6050    -1.4550    -0.9570 N.am  1 <1>  -0.6600 
  4 C       -0.6110    -2.7210    -1.1270 C.3   1 <1>  -0.0990 
  5 C        2.1950    -2.3650     0.0710 C.3   1 <1>   0.1400 
  6 C        2.4670    -0.3010    -1.3520 C.3   1 <1>   0.2840 
  7 C       -0.0790    -3.9240    -0.3460 C.3   1 <1>   0.1200 
  8 C        2.3170    -3.8490    -0.3840 C.3   1 <1>   0.2800 
  9 C        2.7770     0.5790    -0.1490 C.ar  1 <1>  -0.1440 
 10 O        1.1180    -4.3510    -0.9120 O.3   1 <1>  -0.5600 
 11 C        2.7070    -4.7510     0.8130 C.3   1 <1>  -0.1600 
 12 C        3.3220    -3.9740    -1.5450 C.3   1 <1>  -0.1600 
 13 C        1.7430     1.1090     0.6080 C.ar  1 <1>  -0.1500 
 14 C        4.0890     0.8700     0.1960 C.ar  1 <1>  -0.1500 
 15 C        3.9560    -5.5890     0.5500 C.3   1 <1>   0.2090 
 16 C        4.7700    -3.8290    -1.0760 C.3   1 <1>   0.2090 
 17 C        2.0140     1.9140     1.7010 C.ar  1 <1>  -0.1500 
 18 C        4.3610     1.6820     1.2850 C.ar  1 <1>  -0.1500 
 19 N        5.0500    -4.6730     0.1250 N.pl3 1 <1>  -0.8220 
 20 C        3.3240     2.2010     2.0390 C.ar  1 <1>  -0.1500 
 21 C        6.3690    -5.1390     0.2700 C.2   1 <1>   0.2700 
 22 N        6.6990    -6.3820     0.2850 N.2   1 <1>  -0.3380 
 23 N        7.4780    -4.3830     0.3940 N.pl3 1 <1>   0.5930 
 24 N        8.0250    -6.4070     0.3960 N.2   1 <1>   0.0000 
 25 N        8.5080    -5.2240     0.4570 N.2   1 <1>  -0.4180 
 26 C        7.5930    -2.9680     0.5110 C.ar  1 <1>  -0.0230 
 27 C        8.5370    -2.2650    -0.2320 C.ar  1 <1>  -0.1500 
 28 C        6.7630    -2.2590     1.3760 C.ar  1 <1>  -0.1500 
 29 C        8.6420    -0.8900    -0.1190 C.ar  1 <1>  -0.1500 
 30 C        6.8710    -0.8860     1.4930 C.ar  1 <1>  -0.1500 
 31 C        7.8090    -0.1990     0.7430 C.ar  1 <1>  -0.1500 
 32 H       -1.0340    -3.0940    -2.0410 H     1 <1>   0.0800 
 33 H       -1.4170    -2.2810    -0.5720 H     1 <1>   0.0800 
 34 H        1.6080    -2.2940     0.9690 H     1 <1>   0.0800 
 35 H        3.1770    -2.0150     0.3380 H     1 <1>   0.0800 
 36 H        1.9860     0.3010    -2.1030 H     1 <1>   0.0800 
 37 H        3.3790    -0.6790    -1.7800 H     1 <1>   0.0800 
 38 H       -0.7790    -4.7370    -0.4280 H     1 <1>   0.0800 
 39 H        0.0540    -3.7070     0.6990 H     1 <1>   0.0800 
 40 H        1.8990    -5.4130     1.0660 H     1 <1>   0.0800 
 41 H        2.9110    -4.1500     1.6800 H     1 <1>   0.0800 
 42 H        3.1150    -3.2360    -2.2970 H     1 <1>   0.0800 
 43 H        3.2130    -4.9370    -2.0120 H     1 <1>   0.0800 
 44 H        0.7210     0.8950     0.3420 H     1 <1>   0.1500 
 45 H        4.9060     0.4730    -0.3810 H     1 <1>   0.1500 
 46 H        3.7710    -6.3210    -0.2190 H     1 <1>   0.0800 
 47 H        4.2440    -6.1100     1.4480 H     1 <1>   0.0800 
 48 H        4.9670    -2.8000    -0.8290 H     1 <1>   0.0800 
 49 H        5.4320    -4.1100    -1.8790 H     1 <1>   0.0800 
 50 H        1.2050     2.3190     2.2830 H     1 <1>   0.1500 
 51 H        5.3780     1.9150     1.5440 H     1 <1>   0.1500 
 52 H        3.5340     2.8320     2.8860 H     1 <1>   0.1500 
 53 H        9.1960    -2.7960    -0.8990 H     1 <1>   0.1500 
 54 H        6.0280    -2.7840     1.9640 H     1 <1>   0.1500 
 55 H        9.3770    -0.3570    -0.6990 H     1 <1>   0.1500 
 56 H        6.2250    -0.3550     2.1710 H     1 <1>   0.1500 
 57 H        7.8960     0.8700     0.8330 H     1 <1>   0.1500 
@<TRIPOS>BOND
  1   1   2  2   
  2   2   3  am  
  3   2   4  1   
  4   3   5  1   
  5   3   6  1   
  6   4   7  1   
  7   4  32  1   
  8   4  33  1   
  9   5   8  1   
 10   5  34  1   
 11   5  35  1   
 12   6   9  1   
 13   6  36  1   
 14   6  37  1   
 15   7  10  1   
 16   7  38  1   
 17   7  39  1   
 18   8  10  1   
 19   8  11  1   
 20   8  12  1   
 21   9  13  ar  
 22   9  14  ar  
 23  11  15  1   
 24  11  40  1   
 25  11  41  1   
 26  12  16  1   
 27  12  42  1   
 28  12  43  1   
 29  13  17  ar  
 30  13  44  1   
 31  14  18  ar  
 32  14  45  1   
 33  15  19  1   
 34  15  46  1   
 35  15  47  1   
 36  16  19  1   
 37  16  48  1   
 38  16  49  1   
 39  17  20  ar  
 40  17  50  1   
 41  18  20  ar  
 42  18  51  1   
 43  19  21  1   
 44  20  52  1   
 45  21  22  2   
 46  21  23  1   
 47  22  24  1   
 48  23  25  1   
 49  23  26  1   
 50  24  25  2   
 51  26  27  ar  
 52  26  28  ar  
 53  27  29  ar  
 54  27  53  1   
 55  28  30  ar  
 56  28  54  1   
 57  29  31  ar  
 58  29  55  1   
 59  30  31  ar  
 60  30  56  1   
 61  31  57  1   
@<TRIPOS>SUBSTRUCTURE
  1 ****  16 GROUP 4 **** **** 0

# MOE 2024.06 (io_trps.svl 2023.06)
