@<TRIPOS>MOLECULE
NONAME
54 56 1 0 0 
SMALL
USER_CHARGES


@<TRIPOS>ATOM
  1 S        0.1210     0.0030    -0.7370 S.o2  1 <1>   1.3330 
  2 O       -0.3350     0.0020    -2.1080 O.2   1 <1>  -0.6500 
  3 O        1.5380    -0.0180    -0.4520 O.2   1 <1>  -0.6500 
  4 N       -0.5890    -1.3160     0.0610 N.am  1 <1>  -0.8490 
  5 C       -0.6220     1.4130     0.0780 C.3   1 <1>  -0.0550 
  6 C        0.0580    -1.6420     1.3370 C.3   1 <1>   0.1160 
  7 C       -0.6440    -2.5100    -0.7870 C.3   1 <1>   0.1160 
  8 C       -0.2220     2.7620    -0.5530 C.3   1 <1>  -0.0800 
  9 C       -0.9650     3.9690     0.0260 C.3   1 <1>   0.2000 
 10 C        1.2650     3.1170    -0.3970 C.3   1 <1>   0.1400 
 11 O       -0.9820     3.8710     1.4090 O.3   1 <1>  -0.6800 
 12 C       -0.0770     5.1510    -0.3500 C.3   1 <1>   0.1400 
 13 N        1.3000     4.6000    -0.2860 N.am  1 <1>  -0.6600 
 14 C        2.4590     5.3300    -0.4230 C.2   1 <1>   0.5440 
 15 O        3.5010     4.7340    -0.6140 O.2   1 <1>  -0.5700 
 16 C        2.4580     6.7770    -0.3580 C.ar  1 <1>   0.0860 
 17 C        2.9470     7.5410    -1.4160 C.ar  1 <1>  -0.1500 
 18 C        1.9790     7.4630     0.7580 C.ar  1 <1>  -0.1500 
 19 C        2.9390     8.9220    -1.3710 C.ar  1 <1>  -0.1500 
 20 C        1.9690     8.8440     0.8040 C.ar  1 <1>  -0.1500 
 21 C        2.4480     9.5990    -0.2600 C.ar  1 <1>   0.0000 
 22 C        2.4420    11.0420    -0.2100 C.ar  1 <1>   0.0000 
 23 C        3.5140    11.7710     0.3100 C.ar  1 <1>  -0.1440 
 24 C        1.3380    11.7400    -0.6910 C.ar  1 <1>  -0.1500 
 25 C        3.4650    13.1560     0.3410 C.ar  1 <1>  -0.1500 
 26 C        4.7460    11.0540     0.8470 C.3   1 <1>  -0.0970 
 27 C        1.2910    13.1200    -0.6600 C.ar  1 <1>  -0.1500 
 28 C        2.3580    13.8310    -0.1420 C.ar  1 <1>  -0.1500 
 29 H       -1.6890     1.3150     0.0210 H     1 <1>   0.0800 
 30 H       -0.3520     1.4060     1.1150 H     1 <1>   0.0800 
 31 H       -0.4840    -2.4270     1.8360 H     1 <1>   0.0800 
 32 H        0.0700    -0.7780     1.9790 H     1 <1>   0.0800 
 33 H        1.0730    -1.9660     1.1740 H     1 <1>   0.0800 
 34 H       -1.1140    -3.3230    -0.2600 H     1 <1>   0.0800 
 35 H        0.3500    -2.8060    -1.0830 H     1 <1>   0.0800 
 36 H       -1.2220    -2.3070    -1.6730 H     1 <1>   0.0800 
 37 H       -0.4340     2.7210    -1.6070 H     1 <1>   0.0800 
 38 H       -1.9780     4.0640    -0.3280 H     1 <1>   0.0800 
 39 H        1.8420     2.7820    -1.2430 H     1 <1>   0.0800 
 40 H        1.6790     2.6900     0.5010 H     1 <1>   0.0800 
 41 H       -0.0630     3.9620     1.7350 H     1 <1>   0.4000 
 42 H       -0.2220     5.9800     0.3200 H     1 <1>   0.0800 
 43 H       -0.2830     5.4620    -1.3590 H     1 <1>   0.0800 
 44 H        3.3400     7.0340    -2.2810 H     1 <1>   0.1500 
 45 H        1.6150     6.8990     1.5990 H     1 <1>   0.1500 
 46 H        3.3200     9.4920    -2.2000 H     1 <1>   0.1500 
 47 H        1.5930     9.3540     1.6740 H     1 <1>   0.1500 
 48 H        0.5070    11.1880    -1.0940 H     1 <1>   0.1500 
 49 H        4.2880    13.7200     0.7410 H     1 <1>   0.1500 
 50 H        5.4730    11.7540     1.2140 H     1 <1>   0.0800 
 51 H        5.1990    10.4700     0.0660 H     1 <1>   0.0800 
 52 H        4.4680    10.3990     1.6520 H     1 <1>   0.0800 
 53 H        0.4290    13.6420    -1.0360 H     1 <1>   0.1500 
 54 H        2.3280    14.9060    -0.1140 H     1 <1>   0.1500 
@<TRIPOS>BOND
  1   1   2  2   
  2   1   3  2   
  3   1   4  am  
  4   1   5  1   
  5   4   6  1   
  6   4   7  1   
  7   5   8  1   
  8   5  29  1   
  9   5  30  1   
 10   6  31  1   
 11   6  32  1   
 12   6  33  1   
 13   7  34  1   
 14   7  35  1   
 15   7  36  1   
 16   8   9  1   
 17   8  10  1   
 18   8  37  1   
 19   9  11  1   
 20   9  12  1   
 21   9  38  1   
 22  10  13  1   
 23  10  39  1   
 24  10  40  1   
 25  11  41  1   
 26  12  13  1   
 27  12  42  1   
 28  12  43  1   
 29  13  14  am  
 30  14  15  2   
 31  14  16  1   
 32  16  17  ar  
 33  16  18  ar  
 34  17  19  ar  
 35  17  44  1   
 36  18  20  ar  
 37  18  45  1   
 38  19  21  ar  
 39  19  46  1   
 40  20  21  ar  
 41  20  47  1   
 42  21  22  1   
 43  22  23  ar  
 44  22  24  ar  
 45  23  25  ar  
 46  23  26  1   
 47  24  27  ar  
 48  24  48  1   
 49  25  28  ar  
 50  25  49  1   
 51  26  50  1   
 52  26  51  1   
 53  26  52  1   
 54  27  28  ar  
 55  27  53  1   
 56  28  54  1   
@<TRIPOS>SUBSTRUCTURE
  1 ****  14 GROUP 4 **** **** 0

# MOE 2024.06 (io_trps.svl 2023.06)
