@<TRIPOS>MOLECULE
NONAME
55 58 1 0 0 
SMALL
USER_CHARGES


@<TRIPOS>ATOM
  1 O        0.1600    -0.7190    -2.3440 O.2   1 <1>  -0.5700 
  2 C        0.9330    -1.4790    -1.7920 C.2   1 <1>   0.5440 
  3 N        1.9090    -0.9130    -0.9840 N.am  1 <1>  -0.6600 
  4 C        0.7720    -2.9190    -1.9780 C.ar  1 <1>   0.3960 
  5 C        1.6870     0.4070    -0.3230 C.3   1 <1>   0.1400 
  6 C        3.0680    -1.6620    -0.4140 C.3   1 <1>   0.1400 
  7 N        0.9660    -3.7510    -0.9380 N.ar  1 <1>  -0.6200 
  8 C        0.3970    -3.3910    -3.2400 C.ar  1 <1>   0.1600 
  9 C        1.4650     0.1940     1.1890 C.3   1 <1>   0.3430 
 10 C        2.8320    -1.9040     1.0880 C.3   1 <1>   0.3430 
 11 C        0.7820    -5.0180    -1.2450 C.ar  1 <1>   0.4100 
 12 N        0.2230    -4.6650    -3.5610 N.ar  1 <1>  -0.6200 
 13 N        2.5700    -0.6140     1.8330 N.4   1 <1>  -0.9590 
 14 N        0.9470    -5.8580    -0.1770 N.pl3 1 <1>  -0.8690 
 15 C        0.4340    -5.4590    -2.5320 C.ar  1 <1>   0.1600 
 16 C        2.2570    -0.8910     3.2680 C.3   1 <1>   0.2630 
 17 C       -0.0380    -6.9140     0.1590 C.3   1 <1>   0.2890 
 18 C       -1.3990    -6.2900     0.4530 C.3   1 <1>  -0.0800 
 19 C        0.3220    -7.4820     1.5270 C.3   1 <1>   0.1200 
 20 C       -1.2920    -5.9110     1.9380 C.3   1 <1>   0.1200 
 21 C       -2.5500    -7.2780     0.1880 C.3   1 <1>  -0.0160 
 22 O       -0.1530    -6.5440     2.4440 O.3   1 <1>  -0.5600 
 23 C       -3.9000    -6.6240     0.4380 C.ar  1 <1>  -0.1430 
 24 C       -4.4190    -5.6830    -0.4270 C.ar  1 <1>  -0.1500 
 25 C       -4.6750    -6.9330     1.5390 C.ar  1 <1>  -0.1500 
 26 C       -5.6490    -5.1070    -0.1550 C.ar  1 <1>   0.1600 
 27 C       -5.8930    -6.2980     1.7180 C.ar  1 <1>   0.1600 
 28 N       -6.3970    -5.3900     0.8980 N.ar  1 <1>  -0.6200 
 29 H        2.5400     1.0410    -0.4890 H     1 <1>   0.0800 
 30 H        0.8280     0.9040    -0.7390 H     1 <1>   0.0800 
 31 H        3.2090    -2.5990    -0.9220 H     1 <1>   0.0800 
 32 H        3.9670    -1.0880    -0.5550 H     1 <1>   0.0800 
 33 H        0.2370    -2.6670    -4.0220 H     1 <1>   0.1500 
 34 H        0.5250    -0.3180     1.3160 H     1 <1>   0.0800 
 35 H        1.3830     1.1540     1.6710 H     1 <1>   0.0800 
 36 H        3.6910    -2.4020     1.5060 H     1 <1>   0.0800 
 37 H        1.9850    -2.5640     1.1920 H     1 <1>   0.0800 
 38 H        3.4310    -0.0510     1.7860 H     1 <1>   0.4500 
 39 H        1.1760    -5.3430     0.6780 H     1 <1>   0.4000 
 40 H        0.3320    -6.5160    -2.6910 H     1 <1>   0.1500 
 41 H        1.3590    -1.4830     3.3480 H     1 <1>   0.0800 
 42 H        2.1110     0.0320     3.8060 H     1 <1>   0.0800 
 43 H        3.0670    -1.4330     3.7310 H     1 <1>   0.0800 
 44 H       -0.0590    -7.6720    -0.6060 H     1 <1>   0.0800 
 45 H       -1.5730    -5.4110    -0.1410 H     1 <1>   0.0800 
 46 H        1.3820    -7.6140     1.6570 H     1 <1>   0.0800 
 47 H       -0.1880    -8.4120     1.7080 H     1 <1>   0.0800 
 48 H       -2.1450    -6.2300     2.5120 H     1 <1>   0.0800 
 49 H       -1.1590    -4.8500     2.0570 H     1 <1>   0.0800 
 50 H       -2.4480    -8.1500     0.8110 H     1 <1>   0.0800 
 51 H       -2.5160    -7.6050    -0.8370 H     1 <1>   0.0800 
 52 H       -3.8820    -5.3890    -1.3110 H     1 <1>   0.1500 
 53 H       -4.3470    -7.6590     2.2600 H     1 <1>   0.1500 
 54 H       -6.0380    -4.3730    -0.8410 H     1 <1>   0.1500 
 55 H       -6.4830    -6.5500     2.5820 H     1 <1>   0.1500 
@<TRIPOS>BOND
  1   1   2  2   
  2   2   3  am  
  3   2   4  1   
  4   3   5  1   
  5   3   6  1   
  6   4   7  ar  
  7   4   8  ar  
  8   5   9  1   
  9   5  29  1   
 10   5  30  1   
 11   6  10  1   
 12   6  31  1   
 13   6  32  1   
 14   7  11  ar  
 15   8  12  ar  
 16   8  33  1   
 17   9  13  1   
 18   9  34  1   
 19   9  35  1   
 20  10  13  1   
 21  10  36  1   
 22  10  37  1   
 23  11  14  1   
 24  11  15  ar  
 25  12  15  ar  
 26  13  16  1   
 27  13  38  1   
 28  14  17  1   
 29  14  39  1   
 30  15  40  1   
 31  16  41  1   
 32  16  42  1   
 33  16  43  1   
 34  17  18  1   
 35  17  19  1   
 36  17  44  1   
 37  18  20  1   
 38  18  21  1   
 39  18  45  1   
 40  19  22  1   
 41  19  46  1   
 42  19  47  1   
 43  20  22  1   
 44  20  48  1   
 45  20  49  1   
 46  21  23  1   
 47  21  50  1   
 48  21  51  1   
 49  23  24  ar  
 50  23  25  ar  
 51  24  26  ar  
 52  24  52  1   
 53  25  27  ar  
 54  25  53  1   
 55  26  28  ar  
 56  26  54  1   
 57  27  28  ar  
 58  27  55  1   
@<TRIPOS>SUBSTRUCTURE
  1 ****   7 GROUP 4 **** **** 0

# MOE 2024.06 (io_trps.svl 2023.06)
