@<TRIPOS>MOLECULE
NONAME
52 54 1 0 0 
SMALL
USER_CHARGES


@<TRIPOS>ATOM
  1 O       -0.4780     0.6960     2.2180 O.2   1 <1>  -0.5700 
  2 C       -0.2760     1.6040     1.4550 C.2   1 <1>   0.5690 
  3 N       -1.0820     2.6960     1.4550 N.am  1 <1>  -0.7300 
  4 C        0.9030     1.5290     0.4590 C.3   1 <1>   0.1810 
  5 C       -0.7340     3.8800     0.6580 C.3   1 <1>   0.3640 
  6 O        1.1770     2.7520    -0.2170 O.3   1 <1>  -0.5600 
  7 C       -1.9140     4.8170     0.4300 C.ar  1 <1>  -0.1440 
  8 C        0.0010     3.4290    -0.6180 C.3   1 <1>   0.2610 
  9 C       -2.0240     5.9450     1.2270 C.ar  1 <1>  -0.1500 
 10 C       -2.8400     4.6220    -0.5830 C.ar  1 <1>  -0.1500 
 11 C        0.2230     4.5910    -1.5970 C.2   1 <1>   0.5690 
 12 C       -2.9820     6.9110     0.9790 C.ar  1 <1>   0.0830 
 13 C       -3.8190     5.5700    -0.8310 C.ar  1 <1>  -0.1500 
 14 O       -0.2980     4.4750    -2.6820 O.2   1 <1>  -0.5700 
 15 N        0.8670     5.7670    -1.2720 N.am  1 <1>  -0.6600 
 16 O       -2.9360     8.0010     1.7910 O.3   1 <1>  -0.3620 
 17 C       -3.8890     6.7360    -0.0740 C.ar  1 <1>   0.0830 
 18 C        0.5560     7.0160    -2.0310 C.3   1 <1>   0.1400 
 19 C        1.8030     5.9900    -0.1310 C.3   1 <1>   0.1400 
 20 C       -4.1420     8.4800     2.3530 C.3   1 <1>   0.0400 
 21 O       -4.7910     7.7210    -0.3460 O.3   1 <1>  -0.3630 
 22 C       -0.0750     8.0470    -1.0800 C.3   1 <1>   0.3430 
 23 C        1.2710     7.0940     0.8140 C.3   1 <1>   0.3430 
 24 C       -5.8290     7.5410    -1.2860 C.3   1 <1>   0.0400 
 25 N        0.8200     8.3460     0.0980 N.4   1 <1>  -0.9590 
 26 C        0.1110     9.2660     1.0420 C.3   1 <1>   0.2630 
 27 H       -1.8680     2.7460     2.1070 H     1 <1>   0.3700 
 28 H        0.6850     0.7820    -0.2820 H     1 <1>   0.0800 
 29 H        1.7950     1.2370     0.9840 H     1 <1>   0.0800 
 30 H       -0.0180     4.4300     1.2400 H     1 <1>   0.0800 
 31 H       -0.6180     2.7170    -1.1370 H     1 <1>   0.0800 
 32 H       -1.3630     6.0970     2.0600 H     1 <1>   0.1500 
 33 H       -2.8020     3.7410    -1.2030 H     1 <1>   0.1500 
 34 H       -4.5060     5.3820    -1.6350 H     1 <1>   0.1500 
 35 H        1.4570     7.4090    -2.4690 H     1 <1>   0.0800 
 36 H       -0.1350     6.8190    -2.8330 H     1 <1>   0.0800 
 37 H        1.9600     5.0790     0.4190 H     1 <1>   0.0800 
 38 H        2.7600     6.2890    -0.5230 H     1 <1>   0.0800 
 39 H       -3.9070     9.0160     3.2550 H     1 <1>   0.0800 
 40 H       -4.7850     7.6470     2.5790 H     1 <1>   0.0800 
 41 H       -4.6180     9.1430     1.6530 H     1 <1>   0.0800 
 42 H       -1.0180     7.6540    -0.7330 H     1 <1>   0.0800 
 43 H       -0.2780     8.9530    -1.6260 H     1 <1>   0.0800 
 44 H        2.0370     7.3420     1.5300 H     1 <1>   0.0800 
 45 H        0.4400     6.6880     1.3620 H     1 <1>   0.0800 
 46 H       -6.4490     8.4200    -1.2730 H     1 <1>   0.0800 
 47 H       -6.4120     6.6820    -1.0060 H     1 <1>   0.0800 
 48 H       -5.4000     7.4150    -2.2650 H     1 <1>   0.0800 
 49 H        1.6580     8.8230    -0.2650 H     1 <1>   0.4500 
 50 H       -0.7760     8.7920     1.4310 H     1 <1>   0.0800 
 51 H       -0.1830    10.1710     0.5350 H     1 <1>   0.0800 
 52 H        0.7520     9.5280     1.8670 H     1 <1>   0.0800 
@<TRIPOS>BOND
  1   1   2  2   
  2   2   3  am  
  3   2   4  1   
  4   3   5  1   
  5   3  27  1   
  6   4   6  1   
  7   4  28  1   
  8   4  29  1   
  9   5   7  1   
 10   5   8  1   
 11   5  30  1   
 12   6   8  1   
 13   7   9  ar  
 14   7  10  ar  
 15   8  11  1   
 16   8  31  1   
 17   9  12  ar  
 18   9  32  1   
 19  10  13  ar  
 20  10  33  1   
 21  11  14  2   
 22  11  15  am  
 23  12  16  1   
 24  12  17  ar  
 25  13  17  ar  
 26  13  34  1   
 27  15  18  1   
 28  15  19  1   
 29  16  20  1   
 30  17  21  1   
 31  18  22  1   
 32  18  35  1   
 33  18  36  1   
 34  19  23  1   
 35  19  37  1   
 36  19  38  1   
 37  20  39  1   
 38  20  40  1   
 39  20  41  1   
 40  21  24  1   
 41  22  25  1   
 42  22  42  1   
 43  22  43  1   
 44  23  25  1   
 45  23  44  1   
 46  23  45  1   
 47  24  46  1   
 48  24  47  1   
 49  24  48  1   
 50  25  26  1   
 51  25  49  1   
 52  26  50  1   
 53  26  51  1   
 54  26  52  1   
@<TRIPOS>SUBSTRUCTURE
  1 ****   7 GROUP 4 **** **** 0

# MOE 2024.06 (io_trps.svl 2023.06)
