@<TRIPOS>MOLECULE
NONAME
62 64 1 0 0 
SMALL
USER_CHARGES


@<TRIPOS>ATOM
  1 O       -0.6080    -0.5050    -0.3290 O.3   1 <1>  -0.3630 
  2 C       -1.8290    -1.0140    -0.0310 C.ar  1 <1>   0.0830 
  3 C        0.2680    -0.2190     0.7410 C.3   1 <1>   0.2000 
  4 C       -2.7990    -0.3050     0.6860 C.ar  1 <1>   0.0830 
  5 C       -2.1060    -2.2980    -0.4670 C.ar  1 <1>  -0.1500 
  6 C        1.3150     0.7640     0.2220 C.3   1 <1>  -0.2400 
  7 C        0.9130    -1.5250     1.2090 C.3   1 <1>  -0.2400 
  8 O       -2.6250     0.9690     1.1120 O.3   1 <1>  -0.3630 
  9 C       -4.0040    -0.9130     0.9940 C.ar  1 <1>  -0.1500 
 10 C       -3.3200    -2.8930    -0.1710 C.ar  1 <1>  -0.1500 
 11 C       -2.4600     1.9630     0.1260 C.3   1 <1>   0.1200 
 12 C       -4.2760    -2.2040     0.5630 C.ar  1 <1>  -0.1430 
 13 C       -2.2650     3.3000     0.8320 C.3   1 <1>  -0.2400 
 14 C       -5.6110    -2.8480     0.8820 C.3   1 <1>   0.4860 
 15 N       -6.6630    -2.1930     0.0640 N.4   1 <1>  -0.9590 
 16 C       -8.0360    -2.6300     0.4780 C.3   1 <1>   0.3430 
 17 C       -6.4460    -2.3400    -1.4000 C.3   1 <1>   0.3430 
 18 C       -9.1510    -2.1000    -0.4650 C.3   1 <1>   0.0000 
 19 C       -7.3750    -1.3830    -2.1590 C.3   1 <1>  -0.1600 
 20 C      -10.3630    -1.6490     0.3630 C.3   1 <1>   0.2000 
 21 C       -8.6340    -0.9650    -1.3750 C.3   1 <1>  -0.1600 
 22 C       -9.7330    -3.2700    -1.2750 C.3   1 <1>  -0.1600 
 23 O       -9.9360    -0.9770     1.5080 O.3   1 <1>  -0.5600 
 24 C      -11.1250    -2.9300     0.7150 C.3   1 <1>  -0.1600 
 25 C      -10.7050    -3.9770    -0.3260 C.3   1 <1>  -0.1600 
 26 C      -10.9320    -0.2500     2.1630 C.3   1 <1>   0.0400 
 27 H       -0.2880     0.2320     1.5440 H     1 <1>   0.0800 
 28 H       -1.3580    -2.8270    -1.0310 H     1 <1>   0.1500 
 29 H        1.8590     0.3330    -0.5990 H     1 <1>   0.0800 
 30 H        2.0090     1.0080     1.0060 H     1 <1>   0.0800 
 31 H        0.8380     1.6710    -0.1020 H     1 <1>   0.0800 
 32 H        1.4310    -1.9990     0.3950 H     1 <1>   0.0800 
 33 H        0.1650    -2.1920     1.5960 H     1 <1>   0.0800 
 34 H        1.6180    -1.3220     1.9940 H     1 <1>   0.0800 
 35 H       -4.7160    -0.3520     1.5740 H     1 <1>   0.1500 
 36 H       -3.5020    -3.8970    -0.5170 H     1 <1>   0.1500 
 37 H       -1.6030     1.7280    -0.4790 H     1 <1>   0.0800 
 38 H       -3.3420     1.9780    -0.4900 H     1 <1>   0.0800 
 39 H       -1.3850     3.2650     1.4500 H     1 <1>   0.0800 
 40 H       -3.1220     3.5280     1.4400 H     1 <1>   0.0800 
 41 H       -2.1410     4.0810     0.1040 H     1 <1>   0.0800 
 42 H       -5.8240    -2.7210     1.9310 H     1 <1>   0.0800 
 43 H       -5.5730    -3.9030     0.6650 H     1 <1>   0.0800 
 44 H       -6.6040    -1.1850     0.2590 H     1 <1>   0.4500 
 45 H       -8.0860    -3.7060     0.4960 H     1 <1>   0.0800 
 46 H       -8.2170    -2.2890     1.4830 H     1 <1>   0.0800 
 47 H       -5.4220    -2.1210    -1.6590 H     1 <1>   0.0800 
 48 H       -6.6590    -3.3560    -1.6920 H     1 <1>   0.0800 
 49 H       -6.8230    -0.5010    -2.4350 H     1 <1>   0.0800 
 50 H       -7.6660    -1.8640    -3.0770 H     1 <1>   0.0800 
 51 H      -10.9850    -0.9940    -0.2270 H     1 <1>   0.0800 
 52 H       -9.4010    -0.6460    -2.0610 H     1 <1>   0.0800 
 53 H       -8.3960    -0.1150    -0.7560 H     1 <1>   0.0800 
 54 H      -10.2940    -2.8870    -2.1120 H     1 <1>   0.0800 
 55 H       -8.9820    -3.9430    -1.6510 H     1 <1>   0.0800 
 56 H      -10.8630    -3.2710     1.7020 H     1 <1>   0.0800 
 57 H      -12.1860    -2.7560     0.6700 H     1 <1>   0.0800 
 58 H      -10.2180    -4.8030     0.1650 H     1 <1>   0.0800 
 59 H      -11.5580    -4.3570    -0.8640 H     1 <1>   0.0800 
 60 H      -10.4900     0.2300     3.0180 H     1 <1>   0.0800 
 61 H      -11.7120    -0.9170     2.4890 H     1 <1>   0.0800 
 62 H      -11.3280     0.4960     1.4950 H     1 <1>   0.0800 
@<TRIPOS>BOND
  1   1   2  1   
  2   1   3  1   
  3   2   4  ar  
  4   2   5  ar  
  5   3   6  1   
  6   3   7  1   
  7   3  27  1   
  8   4   8  1   
  9   4   9  ar  
 10   5  10  ar  
 11   5  28  1   
 12   6  29  1   
 13   6  30  1   
 14   6  31  1   
 15   7  32  1   
 16   7  33  1   
 17   7  34  1   
 18   8  11  1   
 19   9  12  ar  
 20   9  35  1   
 21  10  12  ar  
 22  10  36  1   
 23  11  13  1   
 24  11  37  1   
 25  11  38  1   
 26  12  14  1   
 27  13  39  1   
 28  13  40  1   
 29  13  41  1   
 30  14  15  1   
 31  14  42  1   
 32  14  43  1   
 33  15  16  1   
 34  15  17  1   
 35  15  44  1   
 36  16  18  1   
 37  16  45  1   
 38  16  46  1   
 39  17  19  1   
 40  17  47  1   
 41  17  48  1   
 42  18  20  1   
 43  18  21  1   
 44  18  22  1   
 45  19  21  1   
 46  19  49  1   
 47  19  50  1   
 48  20  23  1   
 49  20  24  1   
 50  20  51  1   
 51  21  52  1   
 52  21  53  1   
 53  22  25  1   
 54  22  54  1   
 55  22  55  1   
 56  23  26  1   
 57  24  25  1   
 58  24  56  1   
 59  24  57  1   
 60  25  58  1   
 61  25  59  1   
 62  26  60  1   
 63  26  61  1   
 64  26  62  1   
@<TRIPOS>SUBSTRUCTURE
  1 ****  12 GROUP 4 **** **** 0

# MOE 2024.06 (io_trps.svl 2023.06)
