@<TRIPOS>MOLECULE
NONAME
48 50 1 0 0 
SMALL
USER_CHARGES


@<TRIPOS>ATOM
  1 F        0.5730     1.5740     3.1570 F     1 <1>  -0.3400 
  2 C        0.2130     2.5440     2.3210 C.3   1 <1>   1.1640 
  3 F       -0.6690     1.9840     1.5000 F     1 <1>  -0.3400 
  4 F       -0.4510     3.4180     3.0720 F     1 <1>  -0.3400 
  5 C        1.4200     3.1600     1.6020 C.ar  1 <1>  -0.1440 
  6 C        1.1980     4.2050     0.6790 C.ar  1 <1>   0.3100 
  7 C        2.7000     2.7100     1.8450 C.ar  1 <1>  -0.1500 
  8 N       -0.0680     4.6380     0.4510 N.ar  1 <1>  -0.6200 
  9 C        2.3090     4.7810     0.0140 C.ar  1 <1>   0.0000 
 10 C        3.7930     3.2730     1.1870 C.ar  1 <1>  -0.1500 
 11 C       -0.2480     5.5860    -0.4190 C.ar  1 <1>   0.1600 
 12 C        2.0790     5.8400    -0.9000 C.ar  1 <1>   0.1000 
 13 C        3.5980     4.2860     0.2920 C.ar  1 <1>  -0.1500 
 14 C        0.7800     6.2140    -1.1110 C.ar  1 <1>  -0.1500 
 15 N        3.1190     6.4960    -1.5440 N.pl3 1 <1>  -0.8380 
 16 C        3.4140     7.9250    -1.2500 C.3   1 <1>   0.2090 
 17 C        3.6470     5.9210    -2.8110 C.3   1 <1>   0.2090 
 18 C        3.2990     8.1850     0.2650 C.3   1 <1>   0.3430 
 19 C        2.9770     6.5840    -4.0110 C.3   1 <1>  -0.2400 
 20 N        3.6230     9.5940     0.6690 N.4   1 <1>  -0.9590 
 21 C        5.0630     9.9820     0.4620 C.3   1 <1>   0.3430 
 22 C        3.2170     9.8680     2.0880 C.3   1 <1>   0.3430 
 23 C        5.3480    11.4080     0.9900 C.3   1 <1>   0.1200 
 24 C        3.5370    11.3270     2.4930 C.3   1 <1>   0.1200 
 25 O        4.1730    12.0180     1.4510 O.3   1 <1>  -0.5600 
 26 H        2.8980     1.9120     2.5430 H     1 <1>   0.1500 
 27 H        4.7810     2.8970     1.3920 H     1 <1>   0.1500 
 28 H       -1.2600     5.9040    -0.6100 H     1 <1>   0.1500 
 29 H        4.4410     4.7150    -0.2200 H     1 <1>   0.1500 
 30 H        0.5420     6.9880    -1.8150 H     1 <1>   0.1500 
 31 H        2.7140     8.5440    -1.7840 H     1 <1>   0.0800 
 32 H        4.4120     8.1460    -1.5840 H     1 <1>   0.0800 
 33 H        3.4440     4.8620    -2.8310 H     1 <1>   0.0800 
 34 H        4.7140     6.0550    -2.8570 H     1 <1>   0.0800 
 35 H        3.9560     7.5020     0.7780 H     1 <1>   0.0800 
 36 H        2.2890     7.9560     0.5610 H     1 <1>   0.0800 
 37 H        1.9110     6.4510    -3.9610 H     1 <1>   0.0800 
 38 H        3.3300     6.1240    -4.9150 H     1 <1>   0.0800 
 39 H        3.2100     7.6320    -4.0550 H     1 <1>   0.0800 
 40 H        3.0740    10.2650     0.1080 H     1 <1>   0.4500 
 41 H        5.3090     9.9440    -0.5860 H     1 <1>   0.0800 
 42 H        5.7100     9.2870     0.9720 H     1 <1>   0.0800 
 43 H        3.7360     9.2000     2.7550 H     1 <1>   0.0800 
 44 H        2.1610     9.6930     2.2130 H     1 <1>   0.0800 
 45 H        5.7510    12.0220     0.2030 H     1 <1>   0.0800 
 46 H        6.0620    11.3820     1.7950 H     1 <1>   0.0800 
 47 H        4.1720    11.3510     3.3620 H     1 <1>   0.0800 
 48 H        2.6280    11.8540     2.7280 H     1 <1>   0.0800 
@<TRIPOS>BOND
  1   1   2  1   
  2   2   3  1   
  3   2   4  1   
  4   2   5  1   
  5   5   6  ar  
  6   5   7  ar  
  7   6   8  ar  
  8   6   9  ar  
  9   7  10  ar  
 10   7  26  1   
 11   8  11  ar  
 12   9  12  ar  
 13   9  13  ar  
 14  10  13  ar  
 15  10  27  1   
 16  11  14  ar  
 17  11  28  1   
 18  12  14  ar  
 19  12  15  1   
 20  13  29  1   
 21  14  30  1   
 22  15  16  1   
 23  15  17  1   
 24  16  18  1   
 25  16  31  1   
 26  16  32  1   
 27  17  19  1   
 28  17  33  1   
 29  17  34  1   
 30  18  20  1   
 31  18  35  1   
 32  18  36  1   
 33  19  37  1   
 34  19  38  1   
 35  19  39  1   
 36  20  21  1   
 37  20  22  1   
 38  20  40  1   
 39  21  23  1   
 40  21  41  1   
 41  21  42  1   
 42  22  24  1   
 43  22  43  1   
 44  22  44  1   
 45  23  25  1   
 46  23  45  1   
 47  23  46  1   
 48  24  25  1   
 49  24  47  1   
 50  24  48  1   
@<TRIPOS>SUBSTRUCTURE
  1 ****   9 GROUP 4 **** **** 0

# MOE 2024.06 (io_trps.svl 2023.06)
