@<TRIPOS>MOLECULE
NONAME
60 63 1 0 0 
SMALL
USER_CHARGES


@<TRIPOS>ATOM
  1 O       -0.1360     0.2490    -0.8210 O.2   1 <1>  -0.5700 
  2 C        0.7910    -0.5380    -0.8620 C.2   1 <1>   0.5440 
  3 N        0.5190    -1.8790    -1.0530 N.am  1 <1>  -0.6600 
  4 C        2.1460    -0.0350    -0.7290 C.ar  1 <1>   0.0860 
  5 C        1.5120    -2.8550    -1.5810 C.3   1 <1>   0.1400 
  6 C       -0.8590    -2.4180    -0.8880 C.3   1 <1>   0.1400 
  7 C        3.0490    -0.5900     0.1750 C.ar  1 <1>  -0.1500 
  8 C        2.5880     1.0350    -1.5060 C.ar  1 <1>  -0.1500 
  9 C        1.5600    -4.0850    -0.6720 C.3   1 <1>  -0.1600 
 10 C       -0.8260    -3.6550     0.0150 C.3   1 <1>  -0.1600 
 11 C        4.3450    -0.1180     0.2910 C.ar  1 <1>   0.0820 
 12 C        3.8790     1.5190    -1.4000 C.ar  1 <1>  -0.1500 
 13 C        0.1620    -4.7150    -0.5060 C.3   1 <1>  -0.0190 
 14 O        5.1410    -0.7380     1.1970 O.3   1 <1>  -0.3630 
 15 C        4.7630     0.9440    -0.5040 C.ar  1 <1>  -0.1500 
 16 C        0.1830    -5.9450     0.4080 C.2   1 <1>   0.5690 
 17 C        6.4600    -0.3010     1.4380 C.3   1 <1>   0.0400 
 18 O        0.8930    -5.9320     1.3860 O.2   1 <1>  -0.5700 
 19 N       -0.6010    -7.0320     0.1270 N.am  1 <1>  -0.6600 
 20 C       -1.6880    -7.1280    -0.8770 C.3   1 <1>   0.1400 
 21 C       -0.5680    -8.2630     0.9590 C.3   1 <1>   0.1400 
 22 C       -2.6320    -8.1840    -0.3050 C.3   1 <1>   0.2000 
 23 C       -1.7120    -9.1530     0.4420 C.3   1 <1>  -0.0800 
 24 O       -3.4540    -7.5710     0.6250 O.3   1 <1>  -0.6800 
 25 C       -1.2080   -10.2640    -0.5010 C.3   1 <1>  -0.0170 
 26 C       -0.3640   -11.2950     0.2290 C.ar  1 <1>   0.1670 
 27 N        0.9490   -11.1540     0.1360 N.ar  1 <1>  -0.6200 
 28 C       -0.9860   -12.3100     0.9400 C.ar  1 <1>  -0.1500 
 29 C        1.6710   -12.0570     0.7800 C.ar  1 <1>   0.1600 
 30 C       -0.2220   -13.2450     1.6060 C.ar  1 <1>  -0.1500 
 31 C        1.1450   -13.1050     1.5170 C.ar  1 <1>  -0.1500 
 32 H        1.2130    -3.1490    -2.5720 H     1 <1>   0.0800 
 33 H        2.4910    -2.4160    -1.6520 H     1 <1>   0.0800 
 34 H       -1.5050    -1.6770    -0.4490 H     1 <1>   0.0800 
 35 H       -1.2530    -2.6730    -1.8560 H     1 <1>   0.0800 
 36 H        2.7340    -1.4040     0.8030 H     1 <1>   0.1500 
 37 H        1.8980     1.4890    -2.1980 H     1 <1>   0.1500 
 38 H        2.2350    -4.8110    -1.0880 H     1 <1>   0.0800 
 39 H        1.9490    -3.7940     0.2890 H     1 <1>   0.0800 
 40 H       -0.5380    -3.3520     1.0070 H     1 <1>   0.0800 
 41 H       -1.8140    -4.0720     0.0770 H     1 <1>   0.0800 
 42 H        4.1940     2.3460    -2.0130 H     1 <1>   0.1500 
 43 H       -0.1570    -5.0280    -1.4820 H     1 <1>   0.0800 
 44 H        5.7600     1.3340    -0.4400 H     1 <1>   0.1500 
 45 H        6.8830    -0.9250     2.2050 H     1 <1>   0.0800 
 46 H        6.4330     0.7210     1.7720 H     1 <1>   0.0800 
 47 H        7.0320    -0.3980     0.5320 H     1 <1>   0.0800 
 48 H       -2.1950    -6.1910    -1.0260 H     1 <1>   0.0800 
 49 H       -1.2740    -7.4710    -1.8090 H     1 <1>   0.0800 
 50 H        0.3960    -8.7360     0.8810 H     1 <1>   0.0800 
 51 H       -0.7370    -7.9960     1.9890 H     1 <1>   0.0800 
 52 H       -3.2530    -8.6510    -1.0500 H     1 <1>   0.0800 
 53 H       -2.2310    -9.6170     1.2630 H     1 <1>   0.0800 
 54 H       -2.8940    -7.0860     1.2660 H     1 <1>   0.4000 
 55 H       -0.6280    -9.8390    -1.3020 H     1 <1>   0.0800 
 56 H       -2.0490   -10.7670    -0.9430 H     1 <1>   0.0800 
 57 H       -2.0590   -12.3700     0.9760 H     1 <1>   0.1500 
 58 H        2.7410   -11.9570     0.7170 H     1 <1>   0.1500 
 59 H       -0.6720   -14.0460     2.1680 H     1 <1>   0.1500 
 60 H        1.8010   -13.7980     2.0120 H     1 <1>   0.1500 
@<TRIPOS>BOND
  1   1   2  2   
  2   2   3  am  
  3   2   4  1   
  4   3   5  1   
  5   3   6  1   
  6   4   7  ar  
  7   4   8  ar  
  8   5   9  1   
  9   5  32  1   
 10   5  33  1   
 11   6  10  1   
 12   6  34  1   
 13   6  35  1   
 14   7  11  ar  
 15   7  36  1   
 16   8  12  ar  
 17   8  37  1   
 18   9  13  1   
 19   9  38  1   
 20   9  39  1   
 21  10  13  1   
 22  10  40  1   
 23  10  41  1   
 24  11  14  1   
 25  11  15  ar  
 26  12  15  ar  
 27  12  42  1   
 28  13  16  1   
 29  13  43  1   
 30  14  17  1   
 31  15  44  1   
 32  16  18  2   
 33  16  19  am  
 34  17  45  1   
 35  17  46  1   
 36  17  47  1   
 37  19  20  1   
 38  19  21  1   
 39  20  22  1   
 40  20  48  1   
 41  20  49  1   
 42  21  23  1   
 43  21  50  1   
 44  21  51  1   
 45  22  23  1   
 46  22  24  1   
 47  22  52  1   
 48  23  25  1   
 49  23  53  1   
 50  24  54  1   
 51  25  26  1   
 52  25  55  1   
 53  25  56  1   
 54  26  27  ar  
 55  26  28  ar  
 56  27  29  ar  
 57  28  30  ar  
 58  28  57  1   
 59  29  31  ar  
 60  29  58  1   
 61  30  31  ar  
 62  30  59  1   
 63  31  60  1   
@<TRIPOS>SUBSTRUCTURE
  1 ****  13 GROUP 4 **** **** 0

# MOE 2024.06 (io_trps.svl 2023.06)
