@<TRIPOS>MOLECULE
NONAME
55 58 1 0 0 
SMALL
USER_CHARGES


@<TRIPOS>ATOM
  1 O        0.7620    -0.6680    -0.9040 O.3   1 <1>  -0.3630 
  2 C        0.4400    -1.9310    -0.5320 C.ar  1 <1>   0.0820 
  3 C        0.3280     0.4780    -0.1970 C.3   1 <1>   0.2000 
  4 C       -0.4050    -2.2450     0.5280 C.ar  1 <1>  -0.1500 
  5 C        1.0060    -2.9550    -1.2730 C.ar  1 <1>  -0.1500 
  6 C        0.6460     1.6980    -1.0530 C.3   1 <1>  -0.1600 
  7 C        1.2030     0.6760     1.0400 C.3   1 <1>  -0.1600 
  8 C       -0.6790    -3.5670     0.8290 C.ar  1 <1>  -0.1500 
  9 C        0.7340    -4.2770    -0.9730 C.ar  1 <1>  -0.1500 
 10 C        2.1270     2.0010    -0.8060 C.3   1 <1>  -0.1600 
 11 C        2.4880     1.3350     0.5280 C.3   1 <1>  -0.1600 
 12 C       -0.1180    -4.5900     0.0770 C.ar  1 <1>  -0.1430 
 13 C       -0.4390    -6.0360     0.4000 C.3   1 <1>   0.4860 
 14 N       -1.3440    -6.5680    -0.6570 N.4   1 <1>  -0.9590 
 15 C       -2.6850    -5.9000    -0.5860 C.3   1 <1>   0.3430 
 16 C       -1.5810    -8.0330    -0.4670 C.3   1 <1>   0.3430 
 17 C       -3.5800    -6.8550     0.2080 C.3   1 <1>   0.2000 
 18 C       -3.0900    -8.2210    -0.2720 C.3   1 <1>  -0.0800 
 19 O       -3.2940    -6.6990     1.5620 O.3   1 <1>  -0.6800 
 20 C       -3.4360    -9.4280     0.6210 C.3   1 <1>  -0.0170 
 21 C       -2.7640   -10.6820     0.0860 C.ar  1 <1>  -0.1430 
 22 C       -3.2010   -11.3070    -1.0660 C.ar  1 <1>  -0.1500 
 23 C       -1.6790   -11.2560     0.7190 C.ar  1 <1>  -0.1500 
 24 C       -2.5360   -12.4310    -1.5280 C.ar  1 <1>   0.1600 
 25 C       -1.0870   -12.3830     0.1730 C.ar  1 <1>   0.1600 
 26 N       -1.4840   -12.9740    -0.9410 N.ar  1 <1>  -0.6200 
 27 H       -0.7250     0.3970     0.0110 H     1 <1>   0.0800 
 28 H       -0.8510    -1.4740     1.1280 H     1 <1>   0.1500 
 29 H        1.6660    -2.7000    -2.0850 H     1 <1>   0.1500 
 30 H        0.4270     1.5270    -2.0930 H     1 <1>   0.0800 
 31 H        0.0560     2.5270    -0.7040 H     1 <1>   0.0800 
 32 H        0.7040     1.3560     1.7070 H     1 <1>   0.0800 
 33 H        1.3980    -0.2430     1.5630 H     1 <1>   0.0800 
 34 H       -1.3340    -3.7870     1.6560 H     1 <1>   0.1500 
 35 H        1.2000    -5.0470    -1.5640 H     1 <1>   0.1500 
 36 H        2.7220     1.5680    -1.5930 H     1 <1>   0.0800 
 37 H        2.3050     3.0630    -0.7790 H     1 <1>   0.0800 
 38 H        2.8680     2.0490     1.2390 H     1 <1>   0.0800 
 39 H        3.2360     0.5800     0.3580 H     1 <1>   0.0800 
 40 H       -0.9150    -6.1020     1.3660 H     1 <1>   0.0800 
 41 H        0.4760    -6.6050     0.4280 H     1 <1>   0.0800 
 42 H       -0.9080    -6.3640    -1.5640 H     1 <1>   0.4500 
 43 H       -2.6420    -4.9280    -0.1230 H     1 <1>   0.0800 
 44 H       -3.0840    -5.7940    -1.5820 H     1 <1>   0.0800 
 45 H       -1.2340    -8.6030    -1.3150 H     1 <1>   0.0800 
 46 H       -1.0650    -8.3780     0.4150 H     1 <1>   0.0800 
 47 H       -4.6290    -6.6770     0.0420 H     1 <1>   0.0800 
 48 H       -3.5130    -8.3990    -1.2460 H     1 <1>   0.0800 
 49 H       -4.0090    -7.0750     2.1200 H     1 <1>   0.4000 
 50 H       -4.5020    -9.5760     0.6440 H     1 <1>   0.0800 
 51 H       -3.1090    -9.2620     1.6330 H     1 <1>   0.0800 
 52 H       -4.0510   -10.9400    -1.6110 H     1 <1>   0.1500 
 53 H       -1.2860   -10.8500     1.6330 H     1 <1>   0.1500 
 54 H       -2.8880   -12.9090    -2.4270 H     1 <1>   0.1500 
 55 H       -0.2430   -12.8230     0.6780 H     1 <1>   0.1500 
@<TRIPOS>BOND
  1   1   2  1   
  2   1   3  1   
  3   2   4  ar  
  4   2   5  ar  
  5   3   6  1   
  6   3   7  1   
  7   3  27  1   
  8   4   8  ar  
  9   4  28  1   
 10   5   9  ar  
 11   5  29  1   
 12   6  10  1   
 13   6  30  1   
 14   6  31  1   
 15   7  11  1   
 16   7  32  1   
 17   7  33  1   
 18   8  12  ar  
 19   8  34  1   
 20   9  12  ar  
 21   9  35  1   
 22  10  11  1   
 23  10  36  1   
 24  10  37  1   
 25  11  38  1   
 26  11  39  1   
 27  12  13  1   
 28  13  14  1   
 29  13  40  1   
 30  13  41  1   
 31  14  15  1   
 32  14  16  1   
 33  14  42  1   
 34  15  17  1   
 35  15  43  1   
 36  15  44  1   
 37  16  18  1   
 38  16  45  1   
 39  16  46  1   
 40  17  18  1   
 41  17  19  1   
 42  17  47  1   
 43  18  20  1   
 44  18  48  1   
 45  19  49  1   
 46  20  21  1   
 47  20  50  1   
 48  20  51  1   
 49  21  22  ar  
 50  21  23  ar  
 51  22  24  ar  
 52  22  52  1   
 53  23  25  ar  
 54  23  53  1   
 55  24  26  ar  
 56  24  54  1   
 57  25  26  ar  
 58  25  55  1   
@<TRIPOS>SUBSTRUCTURE
  1 ****  13 GROUP 4 **** **** 0

# MOE 2024.06 (io_trps.svl 2023.06)
