@<TRIPOS>MOLECULE
NONAME
48 50 1 0 0 
SMALL
USER_CHARGES


@<TRIPOS>ATOM
  1 S        0.6770     0.2930    -1.2480 S.o2  1 <1>   1.3330 
  2 O        0.6540     1.1810    -2.3840 O.2   1 <1>  -0.6500 
  3 O        1.3420    -0.9870    -1.3080 O.2   1 <1>  -0.6500 
  4 N        1.3450     1.1470     0.1100 N.am  1 <1>  -0.6930 
  5 C       -0.9990     0.0130    -0.7190 C.3   1 <1>  -0.1350 
  6 C        1.5060     2.5300     0.1230 C.ar  1 <1>   0.1990 
  7 C        1.9890     0.3080     1.1530 C.3   1 <1>   0.1160 
  8 C        2.7240     3.1070     0.4780 C.ar  1 <1>  -0.1500 
  9 C        0.4640     3.3890    -0.2150 C.ar  1 <1>  -0.1500 
 10 C        2.8830     4.4790     0.5150 C.ar  1 <1>  -0.1500 
 11 C        0.6250     4.7600    -0.1770 C.ar  1 <1>  -0.1500 
 12 C        1.8330     5.3440     0.2020 C.ar  1 <1>   0.0860 
 13 C        1.9840     6.7840     0.2470 C.2   1 <1>   0.5440 
 14 O        1.6050     7.4480    -0.7000 O.2   1 <1>  -0.5700 
 15 N        2.5520     7.4360     1.3270 N.am  1 <1>  -0.6600 
 16 C        2.9080     8.8910     1.2610 C.3   1 <1>   0.1400 
 17 C        2.6990     6.8200     2.6770 C.3   1 <1>   0.0600 
 18 C        4.3830     9.0780     0.8870 C.3   1 <1>   0.2000 
 19 O        4.7610    10.4290     1.1290 O.3   1 <1>  -0.3630 
 20 C        4.7150     8.7930    -0.5940 C.3   1 <1>  -0.0170 
 21 C        5.4690    10.8900     0.0860 C.ar  1 <1>   0.0830 
 22 C        5.5140    10.0070    -0.9610 C.ar  1 <1>  -0.1430 
 23 C        6.1080    12.1140     0.0270 C.ar  1 <1>  -0.1500 
 24 C        6.2090    10.3170    -2.1140 C.ar  1 <1>  -0.1500 
 25 C        6.8100    12.4360    -1.1260 C.ar  1 <1>  -0.1500 
 26 C        6.8600    11.5410    -2.1890 C.ar  1 <1>  -0.1500 
 27 H       -1.5290    -0.5400    -1.4690 H     1 <1>   0.0800 
 28 H       -1.5040     0.9440    -0.5590 H     1 <1>   0.0800 
 29 H       -1.0100    -0.5490     0.1940 H     1 <1>   0.0800 
 30 H        1.3400    -0.5090     1.4190 H     1 <1>   0.0800 
 31 H        2.1890     0.8910     2.0350 H     1 <1>   0.0800 
 32 H        2.9120    -0.0940     0.7720 H     1 <1>   0.0800 
 33 H        3.5570     2.4720     0.7140 H     1 <1>   0.1500 
 34 H       -0.4820     2.9830    -0.5170 H     1 <1>   0.1500 
 35 H        3.8380     4.8960     0.7810 H     1 <1>   0.1500 
 36 H       -0.1940     5.4040    -0.4510 H     1 <1>   0.1500 
 37 H        2.7280     9.3440     2.2190 H     1 <1>   0.0800 
 38 H        2.2890     9.3950     0.5380 H     1 <1>   0.0800 
 39 H        2.1580     5.8920     2.7380 H     1 <1>   0.0800 
 40 H        2.3030     7.4830     3.4270 H     1 <1>   0.0800 
 41 H        3.7380     6.6370     2.8840 H     1 <1>   0.0800 
 42 H        5.0030     8.4750     1.5250 H     1 <1>   0.0800 
 43 H        3.8270     8.7380    -1.1970 H     1 <1>   0.0800 
 44 H        5.2810     7.8860    -0.6980 H     1 <1>   0.0800 
 45 H        6.0550    12.7890     0.8610 H     1 <1>   0.1500 
 46 H        6.2430     9.6250    -2.9370 H     1 <1>   0.1500 
 47 H        7.3170    13.3820    -1.1960 H     1 <1>   0.1500 
 48 H        7.4070    11.8000    -3.0790 H     1 <1>   0.1500 
@<TRIPOS>BOND
  1   1   2  2   
  2   1   3  2   
  3   1   4  am  
  4   1   5  1   
  5   4   6  1   
  6   4   7  1   
  7   5  27  1   
  8   5  28  1   
  9   5  29  1   
 10   6   8  ar  
 11   6   9  ar  
 12   7  30  1   
 13   7  31  1   
 14   7  32  1   
 15   8  10  ar  
 16   8  33  1   
 17   9  11  ar  
 18   9  34  1   
 19  10  12  ar  
 20  10  35  1   
 21  11  12  ar  
 22  11  36  1   
 23  12  13  1   
 24  13  14  2   
 25  13  15  am  
 26  15  16  1   
 27  15  17  1   
 28  16  18  1   
 29  16  37  1   
 30  16  38  1   
 31  17  39  1   
 32  17  40  1   
 33  17  41  1   
 34  18  19  1   
 35  18  20  1   
 36  18  42  1   
 37  19  21  1   
 38  20  22  1   
 39  20  43  1   
 40  20  44  1   
 41  21  22  ar  
 42  21  23  ar  
 43  22  24  ar  
 44  23  25  ar  
 45  23  45  1   
 46  24  26  ar  
 47  24  46  1   
 48  25  26  ar  
 49  25  47  1   
 50  26  48  1   
@<TRIPOS>SUBSTRUCTURE
  1 ****  13 GROUP 4 **** **** 0

# MOE 2024.06 (io_trps.svl 2023.06)
