@<TRIPOS>MOLECULE
NONAME
39 40 1 0 0 
SMALL
USER_CHARGES


@<TRIPOS>ATOM
  1 O       -0.3510     0.5550     0.2920 O.3   1 <1>  -0.3630 
  2 C       -1.2960    -0.3660    -0.0210 C.ar  1 <1>   0.0830 
  3 C       -0.5270     1.9150    -0.0120 C.3   1 <1>   0.1200 
  4 C       -1.0370    -1.6750     0.3550 C.ar  1 <1>  -0.1500 
  5 C       -2.4850    -0.0670    -0.6840 C.ar  1 <1>  -0.1500 
  6 C        0.7190     2.6500     0.4930 C.3   1 <1>   0.3430 
  7 C       -1.9470    -2.6780     0.0770 C.ar  1 <1>  -0.1500 
  8 C       -3.3940    -1.0730    -0.9600 C.ar  1 <1>  -0.1500 
  9 N        0.7030     4.1240     0.1920 N.4   1 <1>  -0.9590 
 10 C       -3.1270    -2.3770    -0.5810 C.ar  1 <1>  -0.1500 
 11 C        2.0530     4.7040     0.4580 C.3   1 <1>   0.3430 
 12 C       -0.3770     4.8300     0.9640 C.3   1 <1>   0.2630 
 13 C        2.1700     6.0950    -0.1690 C.3   1 <1>  -0.1600 
 14 C        3.6110     6.6370    -0.0910 C.3   1 <1>   0.0960 
 15 N        3.7150     7.9470    -0.7700 N.pl3 1 <1>   0.3140 
 16 N        3.3470     8.1350    -2.0170 N.2   1 <1>  -0.4180 
 17 C        4.1480     9.1030    -0.3050 C.2   1 <1>   0.0360 
 18 N        3.5590     9.3760    -2.2730 N.2   1 <1>   0.0000 
 19 N        4.0600     9.9970    -1.2110 N.2   1 <1>  -0.3380 
 20 H       -1.4150     2.2530     0.4900 H     1 <1>   0.0800 
 21 H       -0.6240     2.0070    -1.0800 H     1 <1>   0.0800 
 22 H       -0.1200    -1.9070     0.8660 H     1 <1>   0.1500 
 23 H       -2.7260     0.9310    -0.9940 H     1 <1>   0.1500 
 24 H        1.5780     2.2000     0.0210 H     1 <1>   0.0800 
 25 H        0.8020     2.4980     1.5570 H     1 <1>   0.0800 
 26 H       -1.7390    -3.6920     0.3720 H     1 <1>   0.1500 
 27 H       -4.3130    -0.8460    -1.4730 H     1 <1>   0.1500 
 28 H        0.5120     4.2380    -0.8160 H     1 <1>   0.4500 
 29 H       -3.8360    -3.1580    -0.7970 H     1 <1>   0.1500 
 30 H        2.8050     4.0640     0.0220 H     1 <1>   0.0800 
 31 H        2.2330     4.7570     1.5200 H     1 <1>   0.0800 
 32 H       -0.2030     4.7370     2.0240 H     1 <1>   0.0800 
 33 H       -1.3420     4.4070     0.7370 H     1 <1>   0.0800 
 34 H       -0.4010     5.8770     0.7100 H     1 <1>   0.0800 
 35 H        1.5180     6.7860     0.3350 H     1 <1>   0.0800 
 36 H        1.8830     6.0320    -1.2050 H     1 <1>   0.0800 
 37 H        4.2920     5.9630    -0.5800 H     1 <1>   0.0800 
 38 H        3.9170     6.7560     0.9330 H     1 <1>   0.0800 
 39 H        4.5180     9.2590     0.6910 H     1 <1>   0.1500 
@<TRIPOS>BOND
  1   1   2  1   
  2   1   3  1   
  3   2   4  ar  
  4   2   5  ar  
  5   3   6  1   
  6   3  20  1   
  7   3  21  1   
  8   4   7  ar  
  9   4  22  1   
 10   5   8  ar  
 11   5  23  1   
 12   6   9  1   
 13   6  24  1   
 14   6  25  1   
 15   7  10  ar  
 16   7  26  1   
 17   8  10  ar  
 18   8  27  1   
 19   9  11  1   
 20   9  12  1   
 21   9  28  1   
 22  10  29  1   
 23  11  13  1   
 24  11  30  1   
 25  11  31  1   
 26  12  32  1   
 27  12  33  1   
 28  12  34  1   
 29  13  14  1   
 30  13  35  1   
 31  13  36  1   
 32  14  15  1   
 33  14  37  1   
 34  14  38  1   
 35  15  16  1   
 36  15  17  1   
 37  16  18  2   
 38  17  19  2   
 39  17  39  1   
 40  18  19  1   
@<TRIPOS>SUBSTRUCTURE
  1 ****   9 GROUP 4 **** **** 0

# MOE 2024.06 (io_trps.svl 2023.06)
