@<TRIPOS>MOLECULE
NONAME
44 46 1 0 0 
SMALL
USER_CHARGES


@<TRIPOS>ATOM
  1 CL      -4.6810    -1.0790     3.0100 Cl    1 <1>  -0.1770 
  2 C       -4.0190    -0.0080     1.7930 C.ar  1 <1>   0.1770 
  3 C       -3.4810    -0.5290     0.6200 C.ar  1 <1>   0.0830 
  4 C       -4.0570     1.3540     2.0260 C.ar  1 <1>  -0.1500 
  5 O       -3.4790    -1.8770     0.4540 O.3   1 <1>  -0.3630 
  6 C       -2.9710     0.3540    -0.3300 C.ar  1 <1>  -0.1500 
  7 C       -3.5500     2.2220     1.0740 C.ar  1 <1>  -0.1500 
  8 C       -3.3210    -2.4590    -0.8320 C.3   1 <1>   0.1810 
  9 C       -3.0090     1.7200    -0.0990 C.ar  1 <1>  -0.1500 
 10 C       -3.5580    -3.9690    -0.8120 C.2   1 <1>   0.5690 
 11 O       -2.7300    -4.6670    -1.3500 O.2   1 <1>  -0.5700 
 12 N       -4.6840    -4.5130    -0.2500 N.am  1 <1>  -0.6600 
 13 C       -5.7620    -3.7780     0.4600 C.3   1 <1>   0.1400 
 14 C       -4.9210    -5.9760    -0.1910 C.3   1 <1>   0.1400 
 15 C       -6.8280    -4.8340     0.7440 C.3   1 <1>   0.2000 
 16 C       -6.0700    -6.1590     0.8030 C.3   1 <1>  -0.0800 
 17 O       -7.4800    -4.5960     1.9420 O.3   1 <1>  -0.6800 
 18 C       -6.9570    -7.3770     0.5030 C.3   1 <1>   0.0210 
 19 C       -6.1350    -8.6490     0.4390 C.2   1 <1>   0.1080 
 20 N       -5.4710    -9.1100     1.4520 N.2   1 <1>  -0.7070 
 21 C       -5.9870    -9.4450    -0.6920 C.2   1 <1>  -0.1500 
 22 N       -4.8750   -10.2250     0.9900 N.pl3 1 <1>   0.3000 
 23 C       -5.1720   -10.4490    -0.3070 C.2   1 <1>  -0.3320 
 24 C       -4.6490   -11.6250    -1.1110 C.3   1 <1>  -0.0600 
 25 H       -4.4800     1.7270     2.9420 H     1 <1>   0.1500 
 26 H       -2.5360     0.0010    -1.2460 H     1 <1>   0.1500 
 27 H       -3.5740     3.2840     1.2460 H     1 <1>   0.1500 
 28 H       -4.0230    -2.0010    -1.5030 H     1 <1>   0.0800 
 29 H       -2.3180    -2.2670    -1.1650 H     1 <1>   0.0800 
 30 H       -2.6120     2.3990    -0.8360 H     1 <1>   0.1500 
 31 H       -5.3700    -3.3820     1.3810 H     1 <1>   0.0800 
 32 H       -6.1540    -2.9860    -0.1520 H     1 <1>   0.0800 
 33 H       -5.1960    -6.3240    -1.1710 H     1 <1>   0.0800 
 34 H       -4.0360    -6.4980     0.1350 H     1 <1>   0.0800 
 35 H       -7.5580    -4.8340    -0.0470 H     1 <1>   0.0800 
 36 H       -5.6270    -6.2790     1.7760 H     1 <1>   0.0800 
 37 H       -6.8480    -4.6480     2.6860 H     1 <1>   0.4000 
 38 H       -7.4720    -7.2390    -0.4300 H     1 <1>   0.0800 
 39 H       -7.6940    -7.4820     1.2800 H     1 <1>   0.0800 
 40 H       -6.4360    -9.2730    -1.6540 H     1 <1>   0.1500 
 41 H       -4.2730   -10.8080     1.5840 H     1 <1>   0.2700 
 42 H       -5.0270   -11.5810    -2.1170 H     1 <1>   0.0800 
 43 H       -4.9670   -12.5510    -0.6650 H     1 <1>   0.0800 
 44 H       -3.5740   -11.6020    -1.1470 H     1 <1>   0.0800 
@<TRIPOS>BOND
  1   1   2  1   
  2   2   3  ar  
  3   2   4  ar  
  4   3   5  1   
  5   3   6  ar  
  6   4   7  ar  
  7   4  25  1   
  8   5   8  1   
  9   6   9  ar  
 10   6  26  1   
 11   7   9  ar  
 12   7  27  1   
 13   8  10  1   
 14   8  28  1   
 15   8  29  1   
 16   9  30  1   
 17  10  11  2   
 18  10  12  am  
 19  12  13  1   
 20  12  14  1   
 21  13  15  1   
 22  13  31  1   
 23  13  32  1   
 24  14  16  1   
 25  14  33  1   
 26  14  34  1   
 27  15  16  1   
 28  15  17  1   
 29  15  35  1   
 30  16  18  1   
 31  16  36  1   
 32  17  37  1   
 33  18  19  1   
 34  18  38  1   
 35  18  39  1   
 36  19  20  2   
 37  19  21  1   
 38  20  22  1   
 39  21  23  2   
 40  21  40  1   
 41  22  23  1   
 42  22  41  1   
 43  23  24  1   
 44  24  42  1   
 45  24  43  1   
 46  24  44  1   
@<TRIPOS>SUBSTRUCTURE
  1 ****  12 GROUP 4 **** **** 0

# MOE 2024.06 (io_trps.svl 2023.06)
