@<TRIPOS>MOLECULE
NONAME
50 52 1 0 0 
SMALL
USER_CHARGES


@<TRIPOS>ATOM
  1 O       -0.1250     0.2210    -2.2720 O.2   1 <1>  -0.5700 
  2 C        0.5180     0.3770    -1.2580 C.2   1 <1>   0.7800 
  3 O        1.6650    -0.2910    -1.1400 O.3   1 <1>  -0.4300 
  4 N        0.1060     1.2150    -0.2780 N.am  1 <1>  -0.7300 
  5 C        2.6460    -0.2450    -0.1270 C.3   1 <1>   0.2800 
  6 C       -1.0310     2.1730    -0.3610 C.3   1 <1>   0.1400 
  7 C        3.7330    -1.2170    -0.5870 C.3   1 <1>  -0.2400 
  8 C        3.2440     1.1640    -0.0250 C.3   1 <1>  -0.2400 
  9 C        2.0650    -0.7390     1.2040 C.3   1 <1>  -0.2400 
 10 C       -0.5520     3.6270    -0.2220 C.3   1 <1>   0.3810 
 11 O        0.3980     3.7020     0.8330 O.3   1 <1>  -0.5600 
 12 C       -1.7290     4.5700     0.0350 C.2   1 <1>   0.1080 
 13 C        0.7530     5.0030     1.2220 C.3   1 <1>   0.1200 
 14 N       -2.8600     4.5990    -0.6060 N.2   1 <1>  -0.7070 
 15 C       -1.6650     5.5410     1.0210 C.2   1 <1>  -0.1810 
 16 C       -0.4420     5.6970     1.8970 C.3   1 <1>   0.0210 
 17 N       -3.5560     5.6080    -0.0370 N.pl3 1 <1>   0.3140 
 18 C       -2.8440     6.1890     0.9540 C.2   1 <1>  -0.3020 
 19 C       -4.9260     5.9480    -0.4790 C.3   1 <1>   0.2390 
 20 C       -5.1780     7.4520    -0.4450 C.ar  1 <1>  -0.1440 
 21 C       -4.5480     8.2820    -1.3610 C.ar  1 <1>  -0.1500 
 22 C       -6.0340     8.0030     0.4960 C.ar  1 <1>  -0.1500 
 23 C       -4.7710     9.6470    -1.3360 C.ar  1 <1>  -0.1500 
 24 C       -6.2580     9.3690     0.5210 C.ar  1 <1>  -0.1500 
 25 C       -5.6270    10.1910    -0.3950 C.ar  1 <1>  -0.1500 
 26 H        0.7510     1.4130     0.4860 H     1 <1>   0.3700 
 27 H       -1.7290     1.9610     0.4280 H     1 <1>   0.0800 
 28 H       -1.5520     2.0610    -1.2970 H     1 <1>   0.0800 
 29 H        4.1350    -0.9040    -1.5340 H     1 <1>   0.0800 
 30 H        3.3270    -2.2070    -0.6920 H     1 <1>   0.0800 
 31 H        4.5350    -1.2530     0.1270 H     1 <1>   0.0800 
 32 H        3.5630     1.5010    -0.9950 H     1 <1>   0.0800 
 33 H        4.1010     1.1490     0.6240 H     1 <1>   0.0800 
 34 H        2.5490     1.8720     0.3820 H     1 <1>   0.0800 
 35 H        1.5850    -1.6920     1.0670 H     1 <1>   0.0800 
 36 H        1.3580    -0.0460     1.6180 H     1 <1>   0.0800 
 37 H        2.8540    -0.8590     1.9240 H     1 <1>   0.0800 
 38 H       -0.0600     3.9240    -1.1300 H     1 <1>   0.0800 
 39 H        1.0670     5.5470     0.3470 H     1 <1>   0.0800 
 40 H        1.5790     4.9310     1.9070 H     1 <1>   0.0800 
 41 H       -0.2260     6.7380     2.0510 H     1 <1>   0.0800 
 42 H       -0.6250     5.2410     2.8530 H     1 <1>   0.0800 
 43 H       -3.2140     7.0140     1.5360 H     1 <1>   0.1500 
 44 H       -5.6190     5.4340     0.1590 H     1 <1>   0.0800 
 45 H       -5.0550     5.5830    -1.4810 H     1 <1>   0.0800 
 46 H       -3.8760     7.8680    -2.0950 H     1 <1>   0.1500 
 47 H       -6.5320     7.3760     1.2160 H     1 <1>   0.1500 
 48 H       -4.2780    10.2860    -2.0480 H     1 <1>   0.1500 
 49 H       -6.9230     9.7920     1.2540 H     1 <1>   0.1500 
 50 H       -5.8000    11.2530    -0.3750 H     1 <1>   0.1500 
@<TRIPOS>BOND
  1   1   2  2   
  2   2   3  1   
  3   2   4  am  
  4   3   5  1   
  5   4   6  1   
  6   4  26  1   
  7   5   7  1   
  8   5   8  1   
  9   5   9  1   
 10   6  10  1   
 11   6  27  1   
 12   6  28  1   
 13   7  29  1   
 14   7  30  1   
 15   7  31  1   
 16   8  32  1   
 17   8  33  1   
 18   8  34  1   
 19   9  35  1   
 20   9  36  1   
 21   9  37  1   
 22  10  11  1   
 23  10  12  1   
 24  10  38  1   
 25  11  13  1   
 26  12  14  2   
 27  12  15  1   
 28  13  16  1   
 29  13  39  1   
 30  13  40  1   
 31  14  17  1   
 32  15  16  1   
 33  15  18  2   
 34  16  41  1   
 35  16  42  1   
 36  17  18  1   
 37  17  19  1   
 38  18  43  1   
 39  19  20  1   
 40  19  44  1   
 41  19  45  1   
 42  20  21  ar  
 43  20  22  ar  
 44  21  23  ar  
 45  21  46  1   
 46  22  24  ar  
 47  22  47  1   
 48  23  25  ar  
 49  23  48  1   
 50  24  25  ar  
 51  24  49  1   
 52  25  50  1   
@<TRIPOS>SUBSTRUCTURE
  1 ****  12 GROUP 4 **** **** 0

# MOE 2024.06 (io_trps.svl 2023.06)
