@<TRIPOS>MOLECULE
NONAME
44 46 1 0 0 
SMALL
USER_CHARGES


@<TRIPOS>ATOM
  1 S       -0.7020     0.8870     0.8850 S.o2  1 <1>   1.4470 
  2 O       -1.1950     2.2380     1.0490 O.2   1 <1>  -0.6500 
  3 O       -0.8550    -0.0560     1.9750 O.2   1 <1>  -0.6500 
  4 N       -1.4680     0.2320    -0.4830 N.am  1 <1>  -0.8490 
  5 C        1.0390     0.9520     0.3750 C.ar  1 <1>  -0.0090 
  6 C       -2.9190     0.4120    -0.4730 C.3   1 <1>   0.1960 
  7 C       -1.2630    -1.2080    -0.6320 C.3   1 <1>   0.1960 
  8 C        1.4080     1.5440    -0.8280 C.ar  1 <1>  -0.1500 
  9 C        2.0460     0.4180     1.1710 C.ar  1 <1>  -0.1500 
 10 C       -3.4790    -0.7830     0.3010 C.3   1 <1>  -0.0800 
 11 C       -2.5020    -1.9150    -0.0610 C.3   1 <1>  -0.0800 
 12 C        2.7320     1.5980    -1.2270 C.ar  1 <1>  -0.1500 
 13 C        3.3730     0.4680     0.7810 C.ar  1 <1>  -0.1500 
 14 C       -4.9870    -1.1030     0.1030 C.3   1 <1>   0.2800 
 15 C       -3.0970    -2.9130    -1.0700 C.3   1 <1>  -0.1600 
 16 C        3.7170     1.0580    -0.4210 C.ar  1 <1>  -0.1500 
 17 O       -5.3610    -0.8320    -1.2000 O.3   1 <1>  -0.6800 
 18 C       -5.2280    -2.6050     0.3450 C.3   1 <1>  -0.1600 
 19 C       -5.9170    -0.2820     1.0250 C.3   1 <1>  -0.1600 
 20 C       -4.4070    -3.5400    -0.5670 C.3   1 <1>  -0.1600 
 21 C       -5.8520     1.2480     0.8750 C.3   1 <1>  -0.2400 
 22 H       -3.2050     1.3570    -0.0480 H     1 <1>   0.0800 
 23 H       -3.2630     0.3850    -1.4930 H     1 <1>   0.0800 
 24 H       -1.1680    -1.4250    -1.6820 H     1 <1>   0.0800 
 25 H       -0.3620    -1.5370    -0.1400 H     1 <1>   0.0800 
 26 H        0.6430     1.9670    -1.4580 H     1 <1>   0.1500 
 27 H        1.7880    -0.0420     2.1110 H     1 <1>   0.1500 
 28 H       -3.3390    -0.5790     1.3480 H     1 <1>   0.0800 
 29 H       -2.2260    -2.4480     0.8330 H     1 <1>   0.0800 
 30 H        2.9940     2.0610    -2.1630 H     1 <1>   0.1500 
 31 H        4.1380     0.0480     1.4120 H     1 <1>   0.1500 
 32 H       -3.3020    -2.3900    -1.9890 H     1 <1>   0.0800 
 33 H       -2.3860    -3.6900    -1.2910 H     1 <1>   0.0800 
 34 H        4.7480     1.0990    -0.7280 H     1 <1>   0.1500 
 35 H       -6.2920    -1.0870    -1.3260 H     1 <1>   0.4000 
 36 H       -4.9520    -2.8160     1.3640 H     1 <1>   0.0800 
 37 H       -6.2730    -2.8410     0.2540 H     1 <1>   0.0800 
 38 H       -6.9330    -0.5940     0.8550 H     1 <1>   0.0800 
 39 H       -5.6890    -0.5250     2.0480 H     1 <1>   0.0800 
 40 H       -4.1870    -4.4440    -0.0250 H     1 <1>   0.0800 
 41 H       -4.9990    -3.8150    -1.4230 H     1 <1>   0.0800 
 42 H       -5.9540     1.5390    -0.1560 H     1 <1>   0.0800 
 43 H       -4.9250     1.6290     1.2600 H     1 <1>   0.0800 
 44 H       -6.6500     1.7020     1.4350 H     1 <1>   0.0800 
@<TRIPOS>BOND
  1   1   2  2   
  2   1   3  2   
  3   1   4  am  
  4   1   5  1   
  5   4   6  1   
  6   4   7  1   
  7   5   8  ar  
  8   5   9  ar  
  9   6  10  1   
 10   6  22  1   
 11   6  23  1   
 12   7  11  1   
 13   7  24  1   
 14   7  25  1   
 15   8  12  ar  
 16   8  26  1   
 17   9  13  ar  
 18   9  27  1   
 19  10  11  1   
 20  10  14  1   
 21  10  28  1   
 22  11  15  1   
 23  11  29  1   
 24  12  16  ar  
 25  12  30  1   
 26  13  16  ar  
 27  13  31  1   
 28  14  17  1   
 29  14  18  1   
 30  14  19  1   
 31  15  20  1   
 32  15  32  1   
 33  15  33  1   
 34  16  34  1   
 35  17  35  1   
 36  18  20  1   
 37  18  36  1   
 38  18  37  1   
 39  19  21  1   
 40  19  38  1   
 41  19  39  1   
 42  20  40  1   
 43  20  41  1   
 44  21  42  1   
 45  21  43  1   
 46  21  44  1   
@<TRIPOS>SUBSTRUCTURE
  1 ****   4 GROUP 4 **** **** 0

# MOE 2024.06 (io_trps.svl 2023.06)
