@<TRIPOS>MOLECULE
NONAME
43 46 1 0 0 
SMALL
USER_CHARGES


@<TRIPOS>ATOM
  1 O        0.3650    -0.3620     0.5070 O.2   1 <1>  -0.5700 
  2 C        1.3200    -1.0620     0.2320 C.2   1 <1>   0.7060 
  3 O        2.5060    -0.4420     0.2240 O.3   1 <1>  -0.2320 
  4 C        1.2100    -2.4590    -0.0680 C.2   1 <1>   0.0290 
  5 C        3.6670    -1.0600    -0.0560 C.ar  1 <1>   0.0830 
  6 C        2.4360    -3.1470    -0.3590 C.2   1 <1>   0.4690 
  7 C       -0.0320    -3.0610    -0.0630 C.2   1 <1>  -0.0500 
  8 C        3.6810    -2.4200    -0.3550 C.ar  1 <1>   0.0860 
  9 C        4.8340    -0.3120    -0.0380 C.ar  1 <1>  -0.1500 
 10 O        2.4620    -4.3430    -0.6130 O.2   1 <1>  -0.5700 
 11 N       -0.2880    -4.3690    -0.3310 N.pl3 1 <1>  -0.8690 
 12 C        4.9170    -3.0070    -0.6370 C.ar  1 <1>  -0.1500 
 13 C        6.0440    -0.9140    -0.3200 C.ar  1 <1>  -0.1500 
 14 C       -1.5620    -5.1180    -0.3470 C.3   1 <1>   0.2890 
 15 C        6.0840    -2.2660    -0.6200 C.ar  1 <1>  -0.1500 
 16 C       -2.7800    -4.2070    -0.1530 C.3   1 <1>  -0.1600 
 17 C       -1.4940    -6.2090     0.7360 C.3   1 <1>  -0.1600 
 18 C       -4.1130    -4.9880    -0.2130 C.3   1 <1>  -0.1600 
 19 C       -2.8750    -6.6380     1.2860 C.3   1 <1>  -0.1600 
 20 C       -4.0150    -6.4530     0.2710 C.3   1 <1>   0.3610 
 21 N       -3.7790    -7.3460    -0.8870 N.am  1 <1>  -0.7300 
 22 C       -5.3650    -7.0130     0.7620 C.2   1 <1>   0.5690 
 23 C       -4.7620    -8.2630    -0.9720 C.2   1 <1>   0.6900 
 24 O       -6.0100    -6.6220     1.7030 O.2   1 <1>  -0.5700 
 25 N       -5.7110    -8.0440    -0.0390 N.am  1 <1>  -0.4900 
 26 O       -4.7710    -9.1910    -1.7430 O.2   1 <1>  -0.5700 
 27 H       -0.8850    -2.4440     0.1750 H     1 <1>   0.1500 
 28 H        4.7910     0.7380     0.1970 H     1 <1>   0.1500 
 29 H        0.5330    -4.9630    -0.5540 H     1 <1>   0.4000 
 30 H        4.9590    -4.0580    -0.8720 H     1 <1>   0.1500 
 31 H        6.9540    -0.3380    -0.3070 H     1 <1>   0.1500 
 32 H       -1.6550    -5.5870    -1.3130 H     1 <1>   0.0800 
 33 H        7.0270    -2.7390    -0.8410 H     1 <1>   0.1500 
 34 H       -2.7010    -3.7370     0.8120 H     1 <1>   0.0800 
 35 H       -2.7860    -3.4400    -0.9060 H     1 <1>   0.0800 
 36 H       -0.9950    -7.0650     0.3180 H     1 <1>   0.0800 
 37 H       -0.9010    -5.8580     1.5640 H     1 <1>   0.0800 
 38 H       -4.5030    -4.9710    -1.2160 H     1 <1>   0.0800 
 39 H       -4.8210    -4.4650     0.4070 H     1 <1>   0.0800 
 40 H       -3.1050    -6.0300     2.1450 H     1 <1>   0.0800 
 41 H       -2.8380    -7.6580     1.6260 H     1 <1>   0.0800 
 42 H       -2.8540    -7.5250    -1.2740 H     1 <1>   0.3700 
 43 H       -6.5290    -8.6320     0.0740 H     1 <1>   0.3700 
@<TRIPOS>BOND
  1   1   2  2   
  2   2   3  1   
  3   2   4  1   
  4   3   5  1   
  5   4   6  1   
  6   4   7  2   
  7   5   8  ar  
  8   5   9  ar  
  9   6   8  1   
 10   6  10  2   
 11   7  11  1   
 12   7  27  1   
 13   8  12  ar  
 14   9  13  ar  
 15   9  28  1   
 16  11  14  1   
 17  11  29  1   
 18  12  15  ar  
 19  12  30  1   
 20  13  15  ar  
 21  13  31  1   
 22  14  16  1   
 23  14  17  1   
 24  14  32  1   
 25  15  33  1   
 26  16  18  1   
 27  16  34  1   
 28  16  35  1   
 29  17  19  1   
 30  17  36  1   
 31  17  37  1   
 32  18  20  1   
 33  18  38  1   
 34  18  39  1   
 35  19  20  1   
 36  19  40  1   
 37  19  41  1   
 38  20  21  1   
 39  20  22  1   
 40  21  23  am  
 41  21  42  1   
 42  22  24  2   
 43  22  25  am  
 44  23  25  am  
 45  23  26  2   
 46  25  43  1   
@<TRIPOS>SUBSTRUCTURE
  1 ****  11 GROUP 4 **** **** 0

# MOE 2024.06 (io_trps.svl 2023.06)
