@<TRIPOS>MOLECULE
NONAME
55 57 1 0 0 
SMALL
USER_CHARGES


@<TRIPOS>ATOM
  1 O       -0.4310    -1.2150    -1.2740 O.3   1 <1>  -0.6800 
  2 C        0.5160    -2.1840    -1.0030 C.3   1 <1>   0.1200 
  3 C        1.1850    -1.9190     0.3830 C.3   1 <1>   0.0000 
  4 C        2.5880    -2.5810     0.4390 C.3   1 <1>   0.4230 
  5 C        1.3780    -0.4000     0.6480 C.3   1 <1>  -0.1600 
  6 C        0.2890    -2.4860     1.5190 C.3   1 <1>  -0.1600 
  7 N        2.5450    -4.1080     0.3170 N.4   1 <1>  -0.9590 
  8 C        3.5850    -1.8560    -0.5300 C.3   1 <1>   0.3430 
  9 C        2.2510     0.2710    -0.4080 C.3   1 <1>   0.3430 
 10 C        0.7140    -3.8840     2.0060 C.3   1 <1>  -0.1600 
 11 C        1.2970    -4.7360     0.8810 C.3   1 <1>   0.3430 
 12 C        2.7960    -4.6900    -1.0460 C.3   1 <1>   0.2630 
 13 N        3.6140    -0.3520    -0.3800 N.4   1 <1>  -0.9590 
 14 C        4.5080     0.3040    -1.3870 C.3   1 <1>   0.4860 
 15 C        4.7590     1.7260    -0.9410 C.ar  1 <1>  -0.1440 
 16 C        5.6990     1.9890     0.0410 C.ar  1 <1>   0.1600 
 17 C        4.0580     2.7860    -1.4900 C.ar  1 <1>  -0.1500 
 18 N        5.9600     3.1800     0.5370 N.ar  1 <1>  -0.6200 
 19 C        4.3360     4.0350    -0.9890 C.ar  1 <1>  -0.1500 
 20 C        5.2780     4.1970     0.0230 C.ar  1 <1>   0.4100 
 21 N        5.5350     5.4570     0.5300 N.pl3 1 <1>  -0.8380 
 22 C        6.8840     5.7640     1.0810 C.3   1 <1>   0.1290 
 23 C        4.4290     6.2440     1.1370 C.3   1 <1>   0.1290 
 24 H       -1.0630    -1.4940    -1.9730 H     1 <1>   0.4000 
 25 H        0.0170    -3.1380    -1.0160 H     1 <1>   0.0800 
 26 H        1.2240    -2.1560    -1.8110 H     1 <1>   0.0800 
 27 H        2.9530    -2.3760     1.4320 H     1 <1>   0.0800 
 28 H        1.8140    -0.2320     1.6170 H     1 <1>   0.0800 
 29 H        0.4220     0.0980     0.6620 H     1 <1>   0.0800 
 30 H        0.2920    -1.8340     2.3780 H     1 <1>   0.0800 
 31 H       -0.7350    -2.5210     1.1840 H     1 <1>   0.0800 
 32 H        3.2990    -4.4640     0.9280 H     1 <1>   0.4500 
 33 H        3.3030    -2.0890    -1.5420 H     1 <1>   0.0800 
 34 H        4.5760    -2.2450    -0.3590 H     1 <1>   0.0800 
 35 H        2.3190     1.3270    -0.1920 H     1 <1>   0.0800 
 36 H        1.7980     0.1570    -1.3800 H     1 <1>   0.0800 
 37 H       -0.1450    -4.3860     2.4190 H     1 <1>   0.0800 
 38 H        1.4370    -3.8010     2.8000 H     1 <1>   0.0800 
 39 H        0.5520    -4.8350     0.1080 H     1 <1>   0.0800 
 40 H        1.5170    -5.7250     1.2520 H     1 <1>   0.0800 
 41 H        2.0350    -4.3730    -1.7420 H     1 <1>   0.0800 
 42 H        2.7770    -5.7680    -0.9980 H     1 <1>   0.0800 
 43 H        3.7610    -4.3930    -1.4220 H     1 <1>   0.0800 
 44 H        4.0160    -0.0950     0.5350 H     1 <1>   0.4500 
 45 H        5.4520    -0.2140    -1.4490 H     1 <1>   0.0800 
 46 H        4.0500     0.3000    -2.3640 H     1 <1>   0.0800 
 47 H        6.2780     1.1820     0.4590 H     1 <1>   0.1500 
 48 H        3.3310     2.6650    -2.2750 H     1 <1>   0.1500 
 49 H        3.8420     4.9090    -1.3720 H     1 <1>   0.1500 
 50 H        7.0740     6.8210     1.0230 H     1 <1>   0.0800 
 51 H        7.6390     5.2470     0.5140 H     1 <1>   0.0800 
 52 H        6.9420     5.4440     2.1070 H     1 <1>   0.0800 
 53 H        4.4550     7.2510     0.7600 H     1 <1>   0.0800 
 54 H        4.5400     6.2650     2.2080 H     1 <1>   0.0800 
 55 H        3.4760     5.8060     0.9000 H     1 <1>   0.0800 
@<TRIPOS>BOND
  1   1   2  1   
  2   1  24  1   
  3   2   3  1   
  4   2  25  1   
  5   2  26  1   
  6   3   4  1   
  7   3   5  1   
  8   3   6  1   
  9   4   7  1   
 10   4   8  1   
 11   4  27  1   
 12   5   9  1   
 13   5  28  1   
 14   5  29  1   
 15   6  10  1   
 16   6  30  1   
 17   6  31  1   
 18   7  11  1   
 19   7  12  1   
 20   7  32  1   
 21   8  13  1   
 22   8  33  1   
 23   8  34  1   
 24   9  13  1   
 25   9  35  1   
 26   9  36  1   
 27  10  11  1   
 28  10  37  1   
 29  10  38  1   
 30  11  39  1   
 31  11  40  1   
 32  12  41  1   
 33  12  42  1   
 34  12  43  1   
 35  13  14  1   
 36  13  44  1   
 37  14  15  1   
 38  14  45  1   
 39  14  46  1   
 40  15  16  ar  
 41  15  17  ar  
 42  16  18  ar  
 43  16  47  1   
 44  17  19  ar  
 45  17  48  1   
 46  18  20  ar  
 47  19  20  ar  
 48  19  49  1   
 49  20  21  1   
 50  21  22  1   
 51  21  23  1   
 52  22  50  1   
 53  22  51  1   
 54  22  52  1   
 55  23  53  1   
 56  23  54  1   
 57  23  55  1   
@<TRIPOS>SUBSTRUCTURE
  1 ****  13 GROUP 4 **** **** 0

# MOE 2024.06 (io_trps.svl 2023.06)
