@<TRIPOS>MOLECULE
NONAME
46 48 1 0 0 
SMALL
USER_CHARGES


@<TRIPOS>ATOM
  1 F        1.8370    -2.5470     0.1870 F     1 <1>  -0.3400 
  2 C        1.0170    -3.2350    -0.6000 C.3   1 <1>   1.1640 
  3 F        1.7760    -3.7760    -1.5450 F     1 <1>  -0.3400 
  4 F        0.2510    -2.3360    -1.2080 F     1 <1>  -0.3400 
  5 C        0.2060    -4.2930     0.1620 C.ar  1 <1>  -0.1440 
  6 C       -1.0720    -4.6510    -0.2590 C.ar  1 <1>  -0.1500 
  7 C        0.7390    -4.9240     1.2820 C.ar  1 <1>  -0.1500 
  8 C       -1.8080    -5.6110     0.4190 C.ar  1 <1>  -0.1440 
  9 C        0.0120    -5.8830     1.9620 C.ar  1 <1>  -0.1500 
 10 C       -1.2560    -6.2250     1.5320 C.ar  1 <1>  -0.1500 
 11 C       -3.2060    -6.0000    -0.0490 C.3   1 <1>   0.3530 
 12 N       -3.2720    -7.4540    -0.3530 N.pl3 1 <1>  -0.8380 
 13 C       -4.3300    -8.2030     0.1260 C.ar  1 <1>   0.4100 
 14 C       -2.2050    -8.0100    -1.2280 C.3   1 <1>   0.1290 
 15 N       -5.5250    -7.6540    -0.0980 N.ar  1 <1>  -0.6200 
 16 C       -4.1570    -9.4330     0.7920 C.ar  1 <1>   0.0860 
 17 C       -6.5770    -8.3210     0.3300 C.ar  1 <1>   0.1600 
 18 C       -2.8570   -10.0000     1.0370 C.2   1 <1>   0.5440 
 19 C       -5.2900   -10.1050     1.2280 C.ar  1 <1>  -0.1500 
 20 C       -6.5190    -9.5360     0.9890 C.ar  1 <1>  -0.1500 
 21 O       -2.1710    -9.6040     1.9630 O.2   1 <1>  -0.5700 
 22 N       -2.3810   -11.0340     0.2620 N.am  1 <1>  -0.6600 
 23 C       -3.0950   -11.6620    -0.8690 C.3   1 <1>   0.1400 
 24 C       -1.0220   -11.5920     0.4180 C.3   1 <1>   0.1400 
 25 C       -2.0050   -12.3930    -1.6430 C.3   1 <1>  -0.1600 
 26 C       -0.9490   -12.7320    -0.5930 C.3   1 <1>  -0.1600 
 27 H       -1.5030    -4.1800    -1.1270 H     1 <1>   0.1500 
 28 H        1.7270    -4.6750     1.6330 H     1 <1>   0.1500 
 29 H        0.4290    -6.3720     2.8260 H     1 <1>   0.1500 
 30 H       -1.8150    -6.9810     2.0590 H     1 <1>   0.1500 
 31 H       -3.4790    -5.4480    -0.9310 H     1 <1>   0.0800 
 32 H       -3.9140    -5.7580     0.7260 H     1 <1>   0.0800 
 33 H       -1.9690    -7.3090    -2.0100 H     1 <1>   0.0800 
 34 H       -2.5340    -8.9280    -1.6790 H     1 <1>   0.0800 
 35 H       -1.3200    -8.2000    -0.6450 H     1 <1>   0.0800 
 36 H       -7.5410    -7.8780     0.1480 H     1 <1>   0.1500 
 37 H       -5.1970   -11.0440     1.7450 H     1 <1>   0.1500 
 38 H       -7.4240   -10.0200     1.3110 H     1 <1>   0.1500 
 39 H       -3.5960   -10.9300    -1.4790 H     1 <1>   0.0800 
 40 H       -3.8130   -12.3640    -0.4820 H     1 <1>   0.0800 
 41 H       -0.8670   -11.9390     1.4260 H     1 <1>   0.0800 
 42 H       -0.3010   -10.8270     0.1870 H     1 <1>   0.0800 
 43 H       -1.5900   -11.7240    -2.3770 H     1 <1>   0.0800 
 44 H       -2.3860   -13.2670    -2.1410 H     1 <1>   0.0800 
 45 H       -1.2080   -13.6520    -0.0980 H     1 <1>   0.0800 
 46 H        0.0350   -12.8270    -1.0150 H     1 <1>   0.0800 
@<TRIPOS>BOND
  1   1   2  1   
  2   2   3  1   
  3   2   4  1   
  4   2   5  1   
  5   5   6  ar  
  6   5   7  ar  
  7   6   8  ar  
  8   6  27  1   
  9   7   9  ar  
 10   7  28  1   
 11   8  10  ar  
 12   8  11  1   
 13   9  10  ar  
 14   9  29  1   
 15  10  30  1   
 16  11  12  1   
 17  11  31  1   
 18  11  32  1   
 19  12  13  1   
 20  12  14  1   
 21  13  15  ar  
 22  13  16  ar  
 23  14  33  1   
 24  14  34  1   
 25  14  35  1   
 26  15  17  ar  
 27  16  18  1   
 28  16  19  ar  
 29  17  20  ar  
 30  17  36  1   
 31  18  21  2   
 32  18  22  am  
 33  19  20  ar  
 34  19  37  1   
 35  20  38  1   
 36  22  23  1   
 37  22  24  1   
 38  23  25  1   
 39  23  39  1   
 40  23  40  1   
 41  24  26  1   
 42  24  41  1   
 43  24  42  1   
 44  25  26  1   
 45  25  43  1   
 46  25  44  1   
 47  26  45  1   
 48  26  46  1   
@<TRIPOS>SUBSTRUCTURE
  1 ****  12 GROUP 4 **** **** 0

# MOE 2024.06 (io_trps.svl 2023.06)
