@<TRIPOS>MOLECULE
NONAME
31 33 1 0 0 
SMALL
USER_CHARGES


@<TRIPOS>ATOM
  1 F       -1.9500    -0.5550     2.0300 F     1 <1>  -0.3400 
  2 C       -2.0210    -0.5270     0.7000 C.3   1 <1>   0.2600 
  3 C       -2.5090     0.8560     0.2910 C.3   1 <1>   0.2000 
  4 C       -3.1570    -1.4580     0.2630 C.3   1 <1>   0.1100 
  5 O       -2.2440     1.0650    -1.0620 O.3   1 <1>  -0.6800 
  6 C       -4.0250     0.7520     0.4890 C.3   1 <1>   0.1100 
  7 N       -4.4070    -0.6530     0.2260 N.3   1 <1>  -0.8100 
  8 C       -5.1820    -0.8220    -1.0220 C.3   1 <1>   0.2910 
  9 C       -5.5460    -2.2790    -1.2710 C.2   1 <1>   0.1080 
 10 N       -5.2880    -2.9150    -2.3600 N.2   1 <1>  -0.4100 
 11 C       -6.1910    -3.1080    -0.3570 C.2   1 <1>  -0.1500 
 12 O       -5.7440    -4.1230    -2.1870 O.3   1 <1>  -0.0190 
 13 C       -6.2860    -4.2760    -1.0080 C.2   1 <1>   0.0550 
 14 C       -6.8740    -5.6160    -0.6100 C.3   1 <1>  -0.0150 
 15 C       -6.9730    -6.0240     0.8250 C.3   1 <1>  -0.2000 
 16 C       -5.9880    -6.6990    -0.0870 C.3   1 <1>  -0.2000 
 17 H       -1.0470    -0.7900     0.3290 H     1 <1>   0.0800 
 18 H       -2.0510     1.6500     0.8550 H     1 <1>   0.0800 
 19 H       -3.2590    -2.2920     0.9370 H     1 <1>   0.0800 
 20 H       -2.9310    -1.8360    -0.7200 H     1 <1>   0.0800 
 21 H       -2.7330     0.4090    -1.5950 H     1 <1>   0.4000 
 22 H       -4.5600     1.4560    -0.1250 H     1 <1>   0.0800 
 23 H       -4.2470     0.9650     1.5220 H     1 <1>   0.0800 
 24 H       -6.0920    -0.2510    -0.9530 H     1 <1>   0.0800 
 25 H       -4.6180    -0.4530    -1.8610 H     1 <1>   0.0800 
 26 H       -6.5120    -2.8330     0.6300 H     1 <1>   0.1500 
 27 H       -7.6760    -5.9110    -1.2640 H     1 <1>   0.1000 
 28 H       -6.5940    -5.3630     1.5860 H     1 <1>   0.1000 
 29 H       -7.8430    -6.5690     1.1470 H     1 <1>   0.1000 
 30 H       -6.1750    -7.7110    -0.4010 H     1 <1>   0.1000 
 31 H       -4.9390    -6.4890     0.0320 H     1 <1>   0.1000 
@<TRIPOS>BOND
  1   1   2  1   
  2   2   3  1   
  3   2   4  1   
  4   2  17  1   
  5   3   5  1   
  6   3   6  1   
  7   3  18  1   
  8   4   7  1   
  9   4  19  1   
 10   4  20  1   
 11   5  21  1   
 12   6   7  1   
 13   6  22  1   
 14   6  23  1   
 15   7   8  1   
 16   8   9  1   
 17   8  24  1   
 18   8  25  1   
 19   9  10  2   
 20   9  11  1   
 21  10  12  1   
 22  11  13  2   
 23  11  26  1   
 24  12  13  1   
 25  13  14  1   
 26  14  15  1   
 27  14  16  1   
 28  14  27  1   
 29  15  16  1   
 30  15  28  1   
 31  15  29  1   
 32  16  30  1   
 33  16  31  1   
@<TRIPOS>SUBSTRUCTURE
  1 ****   9 GROUP 4 **** **** 0

# MOE 2024.06 (io_trps.svl 2023.06)
