@<TRIPOS>MOLECULE
NONAME
54 56 1 0 0 
SMALL
USER_CHARGES


@<TRIPOS>ATOM
  1 O        1.3370    -1.3880     1.0160 O.3   1 <1>  -0.6800 
  2 C        1.0660    -1.5920    -0.3240 C.3   1 <1>   0.2000 
  3 C        1.3740    -3.0470    -0.6650 C.3   1 <1>  -0.1600 
  4 C        2.0680    -0.7910    -1.1470 C.3   1 <1>  -0.1600 
  5 C        2.8840    -3.1050    -0.9450 C.3   1 <1>  -0.0800 
  6 C        3.3260    -1.6660    -1.2510 C.3   1 <1>  -0.0800 
  7 C        3.7180    -3.5420     0.2700 C.3   1 <1>  -0.1600 
  8 C        4.3910    -1.3180    -0.2000 C.3   1 <1>  -0.1600 
  9 C        4.9640    -2.6500     0.2770 C.3   1 <1>   0.4230 
 10 N        6.0460    -3.0710    -0.6780 N.4   1 <1>  -0.9590 
 11 C        7.3970    -2.7940    -0.1100 C.3   1 <1>   0.4860 
 12 C        5.9950    -4.4800    -1.1780 C.3   1 <1>   0.2630 
 13 C        7.6300    -1.3000    -0.0650 C.ar  1 <1>  -0.1430 
 14 C        7.5210    -0.6060     1.1290 C.ar  1 <1>  -0.1500 
 15 C        7.9410    -0.6050    -1.2220 C.ar  1 <1>  -0.1500 
 16 C        7.7010     0.7640     1.1550 C.ar  1 <1>  -0.1500 
 17 C        8.1200     0.7670    -1.1870 C.ar  1 <1>  -0.1500 
 18 C        7.9980     1.4810     0.0010 C.ar  1 <1>  -0.1430 
 19 C        8.1800     3.0130     0.0860 C.3   1 <1>   0.1430 
 20 C        8.5040     3.6630    -1.2700 C.3   1 <1>  -0.2400 
 21 C        6.8860     3.6550     0.6090 C.3   1 <1>  -0.2400 
 22 C        9.3360     3.3420     1.0430 C.3   1 <1>  -0.2400 
 23 H        0.6300    -1.7800     1.5630 H     1 <1>   0.4000 
 24 H        0.0440    -1.3090    -0.5190 H     1 <1>   0.0800 
 25 H        1.0510    -3.7310     0.1010 H     1 <1>   0.0800 
 26 H        0.8500    -3.2910    -1.5730 H     1 <1>   0.0800 
 27 H        1.6600    -0.6590    -2.1340 H     1 <1>   0.0800 
 28 H        2.2540     0.1830    -0.7280 H     1 <1>   0.0800 
 29 H        3.0820    -3.7460    -1.7880 H     1 <1>   0.0800 
 30 H        3.7460    -1.6010    -2.2410 H     1 <1>   0.0800 
 31 H        3.9110    -4.5980     0.2990 H     1 <1>   0.0800 
 32 H        3.1710    -3.3080     1.1660 H     1 <1>   0.0800 
 33 H        3.9190    -0.8500     0.6470 H     1 <1>   0.0800 
 34 H        5.1220    -0.6280    -0.5800 H     1 <1>   0.0800 
 35 H        5.3590    -2.5630     1.2770 H     1 <1>   0.0800 
 36 H        5.9420    -2.4340    -1.4780 H     1 <1>   0.4500 
 37 H        7.4800    -3.2130     0.8790 H     1 <1>   0.0800 
 38 H        8.1570    -3.2400    -0.7310 H     1 <1>   0.0800 
 39 H        6.0770    -5.1720    -0.3550 H     1 <1>   0.0800 
 40 H        6.8020    -4.6630    -1.8680 H     1 <1>   0.0800 
 41 H        5.0640    -4.6620    -1.6890 H     1 <1>   0.0800 
 42 H        7.2940    -1.1150     2.0500 H     1 <1>   0.1500 
 43 H        8.0500    -1.1140    -2.1640 H     1 <1>   0.1500 
 44 H        7.6050     1.2750     2.0970 H     1 <1>   0.1500 
 45 H        8.3570     1.2610    -2.1110 H     1 <1>   0.1500 
 46 H        8.6190     4.7260    -1.1620 H     1 <1>   0.0800 
 47 H        7.7090     3.4860    -1.9730 H     1 <1>   0.0800 
 48 H        9.4210     3.2690    -1.6690 H     1 <1>   0.0800 
 49 H        6.9800     4.7260     0.6410 H     1 <1>   0.0800 
 50 H        6.6540     3.3130     1.6010 H     1 <1>   0.0800 
 51 H        6.0640     3.4030    -0.0360 H     1 <1>   0.0800 
 52 H        9.5020     4.4040     1.0880 H     1 <1>   0.0800 
 53 H       10.2400     2.8690     0.7050 H     1 <1>   0.0800 
 54 H        9.1270     2.9970     2.0390 H     1 <1>   0.0800 
@<TRIPOS>BOND
  1   1   2  1   
  2   1  23  1   
  3   2   3  1   
  4   2   4  1   
  5   2  24  1   
  6   3   5  1   
  7   3  25  1   
  8   3  26  1   
  9   4   6  1   
 10   4  27  1   
 11   4  28  1   
 12   5   6  1   
 13   5   7  1   
 14   5  29  1   
 15   6   8  1   
 16   6  30  1   
 17   7   9  1   
 18   7  31  1   
 19   7  32  1   
 20   8   9  1   
 21   8  33  1   
 22   8  34  1   
 23   9  10  1   
 24   9  35  1   
 25  10  11  1   
 26  10  12  1   
 27  10  36  1   
 28  11  13  1   
 29  11  37  1   
 30  11  38  1   
 31  12  39  1   
 32  12  40  1   
 33  12  41  1   
 34  13  14  ar  
 35  13  15  ar  
 36  14  16  ar  
 37  14  42  1   
 38  15  17  ar  
 39  15  43  1   
 40  16  18  ar  
 41  16  44  1   
 42  17  18  ar  
 43  17  45  1   
 44  18  19  1   
 45  19  20  1   
 46  19  21  1   
 47  19  22  1   
 48  20  46  1   
 49  20  47  1   
 50  20  48  1   
 51  21  49  1   
 52  21  50  1   
 53  21  51  1   
 54  22  52  1   
 55  22  53  1   
 56  22  54  1   
@<TRIPOS>SUBSTRUCTURE
  1 ****   8 GROUP 4 **** **** 0

# MOE 2024.06 (io_trps.svl 2023.06)
