@<TRIPOS>MOLECULE
NONAME
51 53 1 0 0 
SMALL
USER_CHARGES


@<TRIPOS>ATOM
  1 O        0.8780    -1.3100    -1.2460 O.2   1 <1>  -0.5700 
  2 C        1.9990    -1.6310    -0.9270 C.2   1 <1>   0.5690 
  3 N        3.0840    -0.8560    -1.2490 N.am  1 <1>  -0.6600 
  4 C        2.1910    -2.9360    -0.1590 C.3   1 <1>  -0.0990 
  5 C        4.5110    -1.1510    -0.9230 C.3   1 <1>   0.1400 
  6 C        2.9230     0.4590    -1.9390 C.3   1 <1>   0.1400 
  7 C        0.8800    -3.6150     0.2830 C.3   1 <1>  -0.1600 
  8 C        5.1320     0.0070    -0.1220 C.3   1 <1>   0.1100 
  9 C        3.5850     1.5830    -1.1240 C.3   1 <1>   0.1100 
 10 C        1.1480    -4.9460     1.0060 C.3   1 <1>  -0.0990 
 11 N        5.0140     1.2960    -0.8390 N.3   1 <1>  -0.8100 
 12 C       -0.1340    -5.5810     1.5310 C.2   1 <1>   0.4230 
 13 C        5.6430     2.3750    -0.0590 C.3   1 <1>   0.1100 
 14 O       -0.3790    -5.3890     2.6950 O.2   1 <1>  -0.5700 
 15 C       -0.9880    -6.3780     0.6680 C.ar  1 <1>   0.0860 
 16 C        5.9410     3.5850    -0.9480 C.3   1 <1>   0.0960 
 17 C       -2.1030    -7.0300     1.2030 C.ar  1 <1>  -0.1500 
 18 C       -0.7660    -6.5440    -0.7050 C.ar  1 <1>  -0.1500 
 19 N        6.7200     4.5780    -0.1930 N.pl3 1 <1>   0.3140 
 20 C       -2.9450    -7.8030     0.4250 C.ar  1 <1>  -0.1500 
 21 C       -1.6040    -7.3160    -1.4890 C.ar  1 <1>  -0.1500 
 22 N        6.2200     5.2610     0.8280 N.2   1 <1>  -0.7070 
 23 C        7.9900     4.9510    -0.3740 C.2   1 <1>   0.0360 
 24 C       -2.6960    -7.9490    -0.9260 C.ar  1 <1>  -0.1500 
 25 C        7.2220     5.9950     1.1870 C.2   1 <1>   0.3660 
 26 N        8.3470     5.8430     0.4770 N.2   1 <1>  -0.5650 
 27 H        2.7730    -2.7270     0.7180 H     1 <1>   0.0800 
 28 H        2.7440    -3.6090    -0.7880 H     1 <1>   0.0800 
 29 H        5.0610    -1.2730    -1.8400 H     1 <1>   0.0800 
 30 H        4.6070    -2.0600    -0.3600 H     1 <1>   0.0800 
 31 H        1.8820     0.6910    -2.0780 H     1 <1>   0.0800 
 32 H        3.3820     0.4060    -2.9100 H     1 <1>   0.0800 
 33 H        0.2550    -3.7820    -0.5770 H     1 <1>   0.0800 
 34 H        0.3480    -2.9520     0.9460 H     1 <1>   0.0800 
 35 H        6.1730    -0.2120     0.0460 H     1 <1>   0.0800 
 36 H        4.6450     0.0740     0.8360 H     1 <1>   0.0800 
 37 H        3.0430     1.7060    -0.2010 H     1 <1>   0.0800 
 38 H        3.5000     2.4970    -1.6840 H     1 <1>   0.0800 
 39 H        1.7940    -4.7620     1.8470 H     1 <1>   0.0800 
 40 H        1.6590    -5.6340     0.3600 H     1 <1>   0.0800 
 41 H        6.5770     2.0200     0.3440 H     1 <1>   0.0800 
 42 H        5.0060     2.6640     0.7610 H     1 <1>   0.0800 
 43 H        5.0290     4.0510    -1.2670 H     1 <1>   0.0800 
 44 H        6.5070     3.2760    -1.8070 H     1 <1>   0.0800 
 45 H       -2.3120    -6.9250     2.2550 H     1 <1>   0.1500 
 46 H        0.0670    -6.0670    -1.1840 H     1 <1>   0.1500 
 47 H       -3.7940    -8.2910     0.8720 H     1 <1>   0.1500 
 48 H       -1.4090    -7.4250    -2.5430 H     1 <1>   0.1500 
 49 H        8.6200     4.5410    -1.1430 H     1 <1>   0.1500 
 50 H       -3.3500    -8.5500    -1.5350 H     1 <1>   0.1500 
 51 H        7.1790     6.6950     2.0070 H     1 <1>   0.1500 
@<TRIPOS>BOND
  1   1   2  2   
  2   2   3  am  
  3   2   4  1   
  4   3   5  1   
  5   3   6  1   
  6   4   7  1   
  7   4  27  1   
  8   4  28  1   
  9   5   8  1   
 10   5  29  1   
 11   5  30  1   
 12   6   9  1   
 13   6  31  1   
 14   6  32  1   
 15   7  10  1   
 16   7  33  1   
 17   7  34  1   
 18   8  11  1   
 19   8  35  1   
 20   8  36  1   
 21   9  11  1   
 22   9  37  1   
 23   9  38  1   
 24  10  12  1   
 25  10  39  1   
 26  10  40  1   
 27  11  13  1   
 28  12  14  2   
 29  12  15  1   
 30  13  16  1   
 31  13  41  1   
 32  13  42  1   
 33  15  17  ar  
 34  15  18  ar  
 35  16  19  1   
 36  16  43  1   
 37  16  44  1   
 38  17  20  ar  
 39  17  45  1   
 40  18  21  ar  
 41  18  46  1   
 42  19  22  1   
 43  19  23  1   
 44  20  24  ar  
 45  20  47  1   
 46  21  24  ar  
 47  21  48  1   
 48  22  25  2   
 49  23  26  2   
 50  23  49  1   
 51  24  50  1   
 52  25  26  1   
 53  25  51  1   
@<TRIPOS>SUBSTRUCTURE
  1 ****   2 GROUP 4 **** **** 0

# MOE 2024.06 (io_trps.svl 2023.06)
