@<TRIPOS>MOLECULE
NONAME
65 69 1 0 0 
SMALL
USER_CHARGES


@<TRIPOS>ATOM
  1 O       -2.2550     0.6940    -2.5890 O.2   1 <1>  -0.5700 
  2 C       -2.0820     0.1620    -1.5020 C.2   1 <1>   0.5440 
  3 N       -1.3040    -0.9760    -1.4760 N.am  1 <1>  -0.6600 
  4 C       -2.6450     0.7940    -0.3010 C.ar  1 <1>   0.3960 
  5 C       -0.8030    -1.6430    -2.7000 C.3   1 <1>   0.1400 
  6 C       -0.9320    -1.7500    -0.2670 C.3   1 <1>   0.1400 
  7 N       -3.1540     0.0420     0.6670 N.ar  1 <1>  -0.6200 
  8 C       -2.6570     2.1800    -0.1660 C.ar  1 <1>  -0.1440 
  9 C       -0.2570    -2.9840    -2.2240 C.3   1 <1>  -0.1600 
 10 C        0.0970    -2.7610    -0.7570 C.3   1 <1>  -0.1600 
 11 C       -3.6420     0.6640     1.7200 C.ar  1 <1>   0.7200 
 12 C       -3.2040     2.7170     0.9770 C.ar  1 <1>   0.1660 
 13 C       -2.0950     3.0670    -1.2650 C.3   1 <1>   0.4860 
 14 N       -3.6930     1.9670     1.9230 N.ar  1 <1>  -0.6200 
 15 N       -4.1570    -0.0760     2.7260 N.pl3 1 <1>  -0.8690 
 16 C       -3.2670     4.2140     1.2170 C.3   1 <1>  -0.0170 
 17 N       -1.8530     4.4580    -0.7940 N.4   1 <1>  -0.9590 
 18 C       -4.5300    -1.5120     2.6620 C.3   1 <1>   0.1290 
 19 C       -3.0390     5.0040    -0.0670 C.3   1 <1>   0.3430 
 20 C       -1.4230     5.3320    -1.9220 C.3   1 <1>   0.4860 
 21 C       -1.0780     6.6960    -1.3590 C.ar  1 <1>  -0.1440 
 22 C       -0.0450     6.8240    -0.4450 C.ar  1 <1>  -0.1500 
 23 C       -1.8080     7.8180    -1.7220 C.ar  1 <1>  -0.1500 
 24 C        0.2490     8.0480     0.1450 C.ar  1 <1>  -0.0230 
 25 C       -1.5190     9.0460    -1.1520 C.ar  1 <1>  -0.1500 
 26 N        1.2810     8.1200     1.1230 N.pl3 1 <1>   0.5930 
 27 C       -0.5050     9.1590    -0.2190 C.ar  1 <1>  -0.1500 
 28 N        1.3400     7.2210     2.1380 N.2   1 <1>  -0.7070 
 29 C        2.3530     8.9590     1.1810 C.2   1 <1>  -0.3320 
 30 C        2.4030     7.5230     2.8090 C.2   1 <1>   0.1080 
 31 C        3.0830     8.6010     2.2570 C.2   1 <1>  -0.1500 
 32 C        2.6560    10.0700     0.1870 C.3   1 <1>  -0.0600 
 33 C        2.8330     6.7680     4.0450 C.3   1 <1>  -0.0590 
 34 H       -0.0180    -1.0460    -3.1310 H     1 <1>   0.0800 
 35 H       -1.5950    -1.7710    -3.4200 H     1 <1>   0.0800 
 36 H       -1.8040    -2.2600     0.1060 H     1 <1>   0.0800 
 37 H       -0.5280    -1.1110     0.5000 H     1 <1>   0.0800 
 38 H        0.5890    -3.3010    -2.8080 H     1 <1>   0.0800 
 39 H       -1.0340    -3.7250    -2.3040 H     1 <1>   0.0800 
 40 H        0.0660    -3.6700    -0.1840 H     1 <1>   0.0800 
 41 H        1.0790    -2.3290    -0.6780 H     1 <1>   0.0800 
 42 H       -2.7960     3.0750    -2.0860 H     1 <1>   0.0800 
 43 H       -1.1730     2.6420    -1.6300 H     1 <1>   0.0800 
 44 H       -4.5930     0.4840     3.4580 H     1 <1>   0.4000 
 45 H       -2.5280     4.4860     1.9490 H     1 <1>   0.0800 
 46 H       -4.2310     4.4720     1.6190 H     1 <1>   0.0800 
 47 H       -1.0750     4.4400    -0.1210 H     1 <1>   0.4500 
 48 H       -3.9370    -2.0290     1.9270 H     1 <1>   0.0800 
 49 H       -5.5690    -1.6060     2.3990 H     1 <1>   0.0800 
 50 H       -4.3650    -1.9710     3.6210 H     1 <1>   0.0800 
 51 H       -2.8840     6.0430     0.1840 H     1 <1>   0.0800 
 52 H       -3.9140     4.9330    -0.6930 H     1 <1>   0.0800 
 53 H       -2.2140     5.4230    -2.6490 H     1 <1>   0.0800 
 54 H       -0.5550     4.9170    -2.4080 H     1 <1>   0.0800 
 55 H        0.5520     5.9740    -0.1560 H     1 <1>   0.1500 
 56 H       -2.6070     7.7550    -2.4420 H     1 <1>   0.1500 
 57 H       -2.0880     9.9180    -1.4310 H     1 <1>   0.1500 
 58 H       -0.3060    10.1140     0.2360 H     1 <1>   0.1500 
 59 H        3.9960     9.0300     2.6300 H     1 <1>   0.1500 
 60 H        2.6390     9.6880    -0.8190 H     1 <1>   0.0800 
 61 H        3.6330    10.4790     0.3780 H     1 <1>   0.0800 
 62 H        1.9360    10.8630     0.2750 H     1 <1>   0.0800 
 63 H        2.0410     6.7850     4.7700 H     1 <1>   0.0800 
 64 H        3.7100     7.2160     4.4730 H     1 <1>   0.0800 
 65 H        3.0490     5.7480     3.7870 H     1 <1>   0.0800 
@<TRIPOS>BOND
  1   1   2  2   
  2   2   3  am  
  3   2   4  1   
  4   3   5  1   
  5   3   6  1   
  6   4   7  ar  
  7   4   8  ar  
  8   5   9  1   
  9   5  34  1   
 10   5  35  1   
 11   6  10  1   
 12   6  36  1   
 13   6  37  1   
 14   7  11  ar  
 15   8  12  ar  
 16   8  13  1   
 17   9  10  1   
 18   9  38  1   
 19   9  39  1   
 20  10  40  1   
 21  10  41  1   
 22  11  14  ar  
 23  11  15  1   
 24  12  14  ar  
 25  12  16  1   
 26  13  17  1   
 27  13  42  1   
 28  13  43  1   
 29  15  18  1   
 30  15  44  1   
 31  16  19  1   
 32  16  45  1   
 33  16  46  1   
 34  17  19  1   
 35  17  20  1   
 36  17  47  1   
 37  18  48  1   
 38  18  49  1   
 39  18  50  1   
 40  19  51  1   
 41  19  52  1   
 42  20  21  1   
 43  20  53  1   
 44  20  54  1   
 45  21  22  ar  
 46  21  23  ar  
 47  22  24  ar  
 48  22  55  1   
 49  23  25  ar  
 50  23  56  1   
 51  24  26  1   
 52  24  27  ar  
 53  25  27  ar  
 54  25  57  1   
 55  26  28  1   
 56  26  29  1   
 57  27  58  1   
 58  28  30  2   
 59  29  31  2   
 60  29  32  1   
 61  30  31  1   
 62  30  33  1   
 63  31  59  1   
 64  32  60  1   
 65  32  61  1   
 66  32  62  1   
 67  33  63  1   
 68  33  64  1   
 69  33  65  1   
@<TRIPOS>SUBSTRUCTURE
  1 ****  17 GROUP 4 **** **** 0

# MOE 2024.06 (io_trps.svl 2023.06)
