@<TRIPOS>MOLECULE
NONAME
51 55 1 0 0 
SMALL
USER_CHARGES


@<TRIPOS>ATOM
  1 O        4.0020    -1.4990    -4.2830 O.2   1 <1>  -0.5200 
  2 N        3.5890    -1.1760    -3.1540 N.pl3 1 <1>   0.8360 
  3 O        2.5240    -0.5410    -3.0450 O.2   1 <1>  -0.5200 
  4 C        4.4180    -1.3440    -2.0390 C.2   1 <1>   0.2190 
  5 C        4.2090    -2.5090    -1.2520 C.2   1 <1>   0.6160 
  6 C        5.3890    -0.4420    -1.6980 C.2   1 <1>  -0.1500 
  7 O        3.3340    -3.3270    -1.5190 O.2   1 <1>  -0.5700 
  8 N        5.0160    -2.7130    -0.1350 N.am  1 <1>  -0.4690 
  9 C        6.1850    -0.6750    -0.5600 C.2   1 <1>  -0.1500 
 10 C        5.9990    -1.7910     0.2010 C.2   1 <1>  -0.0290 
 11 C        4.7170    -3.9220     0.7090 C.3   1 <1>   0.1400 
 12 C        6.8800    -2.0410     1.4250 C.3   1 <1>   0.0580 
 13 C        5.6590    -4.1340     1.9120 C.3   1 <1>  -0.0800 
 14 C        8.1250    -2.8490     1.0150 C.3   1 <1>   0.1400 
 15 C        6.0890    -2.7870     2.5050 C.3   1 <1>  -0.1600 
 16 C        6.8960    -4.9640     1.5220 C.3   1 <1>   0.1400 
 17 N        7.7550    -4.2240     0.5500 N.am  1 <1>  -0.6600 
 18 C        8.1140    -4.8040    -0.6490 C.2   1 <1>   0.5690 
 19 O        7.7530    -5.9260    -0.9210 O.2   1 <1>  -0.5700 
 20 C        8.9690    -4.0920    -1.7020 C.3   1 <1>   0.2010 
 21 N       10.3990    -4.5390    -1.6600 N.am  1 <1>  -0.4200 
 22 C       10.8000    -5.5710    -2.4800 C.2   1 <1>   0.6900 
 23 C       11.2710    -4.0040    -0.7280 C.2   1 <1>   0.5440 
 24 O       10.1210    -5.9760    -3.3990 O.2   1 <1>  -0.5700 
 25 N       12.0170    -6.1370    -2.2790 N.am  1 <1>  -0.5470 
 26 O       10.9370    -3.0150    -0.1010 O.2   1 <1>  -0.5700 
 27 C       12.5660    -4.6140    -0.5190 C.ar  1 <1>   0.0860 
 28 C       12.9230    -5.7050    -1.3190 C.ar  1 <1>   0.1170 
 29 C       13.4800    -4.1710     0.4390 C.ar  1 <1>  -0.1500 
 30 C       14.1540    -6.3290    -1.1520 C.ar  1 <1>  -0.1500 
 31 C       14.7030    -4.7930     0.6010 C.ar  1 <1>  -0.1500 
 32 C       15.0410    -5.8760    -0.1960 C.ar  1 <1>  -0.1500 
 33 H        5.5580     0.4460    -2.2830 H     1 <1>   0.1500 
 34 H        6.9430     0.0500    -0.3140 H     1 <1>   0.1500 
 35 H        3.7120    -3.8140     1.0810 H     1 <1>   0.0800 
 36 H        4.7330    -4.7990     0.0820 H     1 <1>   0.0800 
 37 H        7.2070    -1.0980     1.8250 H     1 <1>   0.0800 
 38 H        5.1220    -4.6930     2.6570 H     1 <1>   0.0800 
 39 H        8.7910    -2.9390     1.8550 H     1 <1>   0.0800 
 40 H        8.6410    -2.3000     0.2530 H     1 <1>   0.0800 
 41 H        6.7020    -2.9410     3.3760 H     1 <1>   0.0800 
 42 H        5.2250    -2.2130     2.7930 H     1 <1>   0.0800 
 43 H        6.5760    -5.9080     1.1140 H     1 <1>   0.0800 
 44 H        7.4800    -5.1760     2.4010 H     1 <1>   0.0800 
 45 H        8.9170    -3.0290    -1.5940 H     1 <1>   0.0800 
 46 H        8.5490    -4.3190    -2.6650 H     1 <1>   0.0800 
 47 H       12.2330    -6.9130    -2.9030 H     1 <1>   0.3700 
 48 H       13.2210    -3.3300     1.0600 H     1 <1>   0.1500 
 49 H       14.4160    -7.1680    -1.7710 H     1 <1>   0.1500 
 50 H       15.3960    -4.4390     1.3460 H     1 <1>   0.1500 
 51 H       15.9940    -6.3590    -0.0670 H     1 <1>   0.1500 
@<TRIPOS>BOND
  1   1   2  2   
  2   2   3  2   
  3   2   4  1   
  4   4   5  1   
  5   4   6  2   
  6   5   7  2   
  7   5   8  am  
  8   6   9  1   
  9   6  33  1   
 10   8  10  1   
 11   8  11  1   
 12   9  10  2   
 13   9  34  1   
 14  10  12  1   
 15  11  13  1   
 16  11  35  1   
 17  11  36  1   
 18  12  14  1   
 19  12  15  1   
 20  12  37  1   
 21  13  15  1   
 22  13  16  1   
 23  13  38  1   
 24  14  17  1   
 25  14  39  1   
 26  14  40  1   
 27  15  41  1   
 28  15  42  1   
 29  16  17  1   
 30  16  43  1   
 31  16  44  1   
 32  17  18  am  
 33  18  19  2   
 34  18  20  1   
 35  20  21  1   
 36  20  45  1   
 37  20  46  1   
 38  21  22  am  
 39  21  23  am  
 40  22  24  2   
 41  22  25  am  
 42  23  26  2   
 43  23  27  1   
 44  25  28  1   
 45  25  47  1   
 46  27  28  ar  
 47  27  29  ar  
 48  28  30  ar  
 49  29  31  ar  
 50  29  48  1   
 51  30  32  ar  
 52  30  49  1   
 53  31  32  ar  
 54  31  50  1   
 55  32  51  1   
@<TRIPOS>SUBSTRUCTURE
  1 ****  18 GROUP 4 **** **** 0

# MOE 2024.06 (io_trps.svl 2023.06)
