@<TRIPOS>MOLECULE
NONAME
58 62 1 0 0 
SMALL
USER_CHARGES


@<TRIPOS>ATOM
  1 CL      -2.2530    -0.1600     1.5310 Cl    1 <1>  -0.1770 
  2 C       -2.6660    -0.1240    -0.1650 C.ar  1 <1>   0.1770 
  3 C       -2.2400    -1.1430    -1.0140 C.ar  1 <1>   0.0860 
  4 C       -3.4180     0.9420    -0.6210 C.ar  1 <1>  -0.1500 
  5 C       -1.4690    -2.2670    -0.5390 C.2   1 <1>   0.5440 
  6 C       -2.5900    -1.0410    -2.3600 C.ar  1 <1>  -0.1500 
  7 C       -3.7620     1.0150    -1.9590 C.ar  1 <1>  -0.1500 
  8 O       -0.2830    -2.3350    -0.7890 O.2   1 <1>  -0.5700 
  9 N       -2.0640    -3.2950     0.1430 N.am  1 <1>  -0.6600 
 10 C       -3.3430     0.0220    -2.8290 C.ar  1 <1>  -0.1500 
 11 C       -1.4480    -4.4770     0.7440 C.3   1 <1>   0.2200 
 12 C       -3.4400    -3.5120     0.5350 C.3   1 <1>   0.2200 
 13 C       -2.2580    -5.6020     0.0340 C.3   1 <1>   0.0610 
 14 C       -1.8840    -4.2300     2.2040 C.3   1 <1>  -0.1600 
 15 C       -3.6660    -4.9230    -0.0260 C.3   1 <1>  -0.1600 
 16 C       -3.2830    -3.6090     2.0550 C.3   1 <1>  -0.1600 
 17 C       -2.2380    -6.9480     0.7970 C.2   1 <1>   0.5690 
 18 C       -1.7030    -5.8130    -1.4040 C.3   1 <1>  -0.0160 
 19 O       -1.3570    -7.1290     1.6070 O.2   1 <1>  -0.5700 
 20 N       -3.1620    -7.9520     0.5770 N.am  1 <1>  -0.6600 
 21 C       -0.2990    -6.4060    -1.4640 C.ar  1 <1>  -0.1440 
 22 C       -3.1740    -9.1740     1.4440 C.3   1 <1>   0.1400 
 23 C       -4.1580    -8.0660    -0.5330 C.3   1 <1>   0.1400 
 24 C        0.8050    -5.5770    -1.5990 C.ar  1 <1>  -0.1500 
 25 C       -0.1060    -7.7780    -1.4030 C.ar  1 <1>  -0.1500 
 26 C       -4.6060    -9.5100     1.8900 C.3   1 <1>   0.1200 
 27 C       -5.5420    -8.4430     0.0200 C.3   1 <1>   0.1200 
 28 C        2.0800    -6.1080    -1.6650 C.ar  1 <1>  -0.1500 
 29 C        1.1690    -8.3130    -1.4690 C.ar  1 <1>  -0.1500 
 30 O       -5.4620    -9.6090     0.7860 O.3   1 <1>  -0.5600 
 31 C        2.2640    -7.4780    -1.6000 C.ar  1 <1>  -0.1500 
 32 H       -3.7290     1.7090     0.0660 H     1 <1>   0.1500 
 33 H       -2.2590    -1.8070    -3.0410 H     1 <1>   0.1500 
 34 H       -4.3470     1.8420    -2.3250 H     1 <1>   0.1500 
 35 H       -3.6030     0.0800    -3.8730 H     1 <1>   0.1500 
 36 H       -0.3800    -4.5330     0.6140 H     1 <1>   0.0800 
 37 H       -4.1350    -2.7630     0.1950 H     1 <1>   0.0800 
 38 H       -1.8930    -5.1100     2.8170 H     1 <1>   0.0800 
 39 H       -1.2090    -3.5200     2.6500 H     1 <1>   0.0800 
 40 H       -4.3990    -5.4420     0.5640 H     1 <1>   0.0800 
 41 H       -4.0270    -4.8460    -1.0360 H     1 <1>   0.0800 
 42 H       -3.3120    -2.6300     2.4980 H     1 <1>   0.0800 
 43 H       -4.0490    -4.2180     2.5020 H     1 <1>   0.0800 
 44 H       -2.3530    -6.4630    -1.9560 H     1 <1>   0.0800 
 45 H       -1.6950    -4.8770    -1.9350 H     1 <1>   0.0800 
 46 H       -2.7680   -10.0040     0.8920 H     1 <1>   0.0800 
 47 H       -2.5640    -9.0310     2.3190 H     1 <1>   0.0800 
 48 H       -4.2420    -7.1570    -1.0920 H     1 <1>   0.0800 
 49 H       -3.8370    -8.8360    -1.2130 H     1 <1>   0.0800 
 50 H        0.6790    -4.5090    -1.6510 H     1 <1>   0.1500 
 51 H       -0.9460    -8.4400    -1.2960 H     1 <1>   0.1500 
 52 H       -4.9820    -8.7500     2.5520 H     1 <1>   0.0800 
 53 H       -4.6220   -10.4550     2.4040 H     1 <1>   0.0800 
 54 H       -6.2280    -8.6300    -0.7870 H     1 <1>   0.0800 
 55 H       -5.9370    -7.6530     0.6350 H     1 <1>   0.0800 
 56 H        2.9270    -5.4520    -1.7640 H     1 <1>   0.1500 
 57 H        1.3080    -9.3780    -1.4140 H     1 <1>   0.1500 
 58 H        3.2560    -7.8910    -1.6480 H     1 <1>   0.1500 
@<TRIPOS>BOND
  1   1   2  1   
  2   2   3  ar  
  3   2   4  ar  
  4   3   5  1   
  5   3   6  ar  
  6   4   7  ar  
  7   4  32  1   
  8   5   8  2   
  9   5   9  am  
 10   6  10  ar  
 11   6  33  1   
 12   7  10  ar  
 13   7  34  1   
 14   9  11  1   
 15   9  12  1   
 16  10  35  1   
 17  11  13  1   
 18  11  14  1   
 19  11  36  1   
 20  12  15  1   
 21  12  16  1   
 22  12  37  1   
 23  13  15  1   
 24  13  17  1   
 25  13  18  1   
 26  14  16  1   
 27  14  38  1   
 28  14  39  1   
 29  15  40  1   
 30  15  41  1   
 31  16  42  1   
 32  16  43  1   
 33  17  19  2   
 34  17  20  am  
 35  18  21  1   
 36  18  44  1   
 37  18  45  1   
 38  20  22  1   
 39  20  23  1   
 40  21  24  ar  
 41  21  25  ar  
 42  22  26  1   
 43  22  46  1   
 44  22  47  1   
 45  23  27  1   
 46  23  48  1   
 47  23  49  1   
 48  24  28  ar  
 49  24  50  1   
 50  25  29  ar  
 51  25  51  1   
 52  26  30  1   
 53  26  52  1   
 54  26  53  1   
 55  27  30  1   
 56  27  54  1   
 57  27  55  1   
 58  28  31  ar  
 59  28  56  1   
 60  29  31  ar  
 61  29  57  1   
 62  31  58  1   
@<TRIPOS>SUBSTRUCTURE
  1 ****  13 GROUP 4 **** **** 0

# MOE 2024.06 (io_trps.svl 2023.06)
