@<TRIPOS>MOLECULE
NONAME
37 38 1 0 0 
SMALL
USER_CHARGES


@<TRIPOS>ATOM
  1 S       -0.6580     0.3010    -1.7390 S.o2  1 <1>   1.4470 
  2 O       -1.1340     1.4350    -2.5050 O.2   1 <1>  -0.6500 
  3 O       -0.4710    -0.9550    -2.4330 O.2   1 <1>  -0.6500 
  4 N       -1.8050     0.0410    -0.5170 N.am  1 <1>  -0.8490 
  5 C        0.8620     0.7770    -0.8650 C.ar  1 <1>  -0.0090 
  6 C       -1.4150    -0.9960     0.4700 C.3   1 <1>   0.1960 
  7 C       -3.1450    -0.1390    -1.0960 C.3   1 <1>   0.1960 
  8 C        1.0700     2.0860    -0.4510 C.ar  1 <1>  -0.1500 
  9 C        1.8450    -0.1610    -0.5650 C.ar  1 <1>  -0.1500 
 10 C       -2.1200    -2.3260     0.2260 C.3   1 <1>  -0.1860 
 11 C       -4.1200    -0.7550    -0.0920 C.3   1 <1>  -0.1600 
 12 C        2.2160     2.4610     0.2300 C.ar  1 <1>   0.0820 
 13 C        2.9950     0.1950     0.1170 C.ar  1 <1>  -0.1500 
 14 C       -1.4970    -3.3950     1.1020 C.2   1 <1>   0.9060 
 15 C       -3.6420    -2.1400     0.3720 C.3   1 <1>   0.2000 
 16 O        2.3180     3.7660     0.5820 O.3   1 <1>  -0.3630 
 17 C        3.1860     1.5050     0.5150 C.ar  1 <1>  -0.1500 
 18 O       -0.2710    -3.5280     1.0690 O.co2 1 <1>  -0.9000 
 19 O       -2.2110    -4.0960     1.8320 O.co2 1 <1>  -0.9000 
 20 O       -4.0110    -2.2670     1.6930 O.3   1 <1>  -0.6800 
 21 C        3.4460     4.2550     1.2720 C.3   1 <1>   0.0400 
 22 H       -0.3510    -1.1450     0.4710 H     1 <1>   0.0800 
 23 H       -1.6820    -0.6500     1.4550 H     1 <1>   0.0800 
 24 H       -3.5150     0.8170    -1.4260 H     1 <1>   0.0800 
 25 H       -3.0850    -0.7860    -1.9570 H     1 <1>   0.0800 
 26 H        0.3240     2.8330    -0.6610 H     1 <1>   0.1500 
 27 H        1.7030    -1.1890    -0.8620 H     1 <1>   0.1500 
 28 H       -1.9050    -2.6280    -0.7800 H     1 <1>   0.0800 
 29 H       -5.0900    -0.8510    -0.5430 H     1 <1>   0.0800 
 30 H       -4.2030    -0.0840     0.7450 H     1 <1>   0.0800 
 31 H        3.7360    -0.5540     0.3400 H     1 <1>   0.1500 
 32 H       -4.1430    -2.9230    -0.1730 H     1 <1>   0.0800 
 33 H        4.0850     1.7580     1.0430 H     1 <1>   0.1500 
 34 H       -3.4870    -3.0530     2.0390 H     1 <1>   0.4000 
 35 H        3.3060     5.3090     1.4360 H     1 <1>   0.0800 
 36 H        4.3220     4.0930     0.6690 H     1 <1>   0.0800 
 37 H        3.5260     3.7460     2.2160 H     1 <1>   0.0800 
@<TRIPOS>BOND
  1   1   2  2   
  2   1   3  2   
  3   1   4  am  
  4   1   5  1   
  5   4   6  1   
  6   4   7  1   
  7   5   8  ar  
  8   5   9  ar  
  9   6  10  1   
 10   6  22  1   
 11   6  23  1   
 12   7  11  1   
 13   7  24  1   
 14   7  25  1   
 15   8  12  ar  
 16   8  26  1   
 17   9  13  ar  
 18   9  27  1   
 19  10  14  1   
 20  10  15  1   
 21  10  28  1   
 22  11  15  1   
 23  11  29  1   
 24  11  30  1   
 25  12  16  1   
 26  12  17  ar  
 27  13  17  ar  
 28  13  31  1   
 29  14  18  ar  
 30  14  19  ar  
 31  15  20  1   
 32  15  32  1   
 33  16  21  1   
 34  17  33  1   
 35  20  34  1   
 36  21  35  1   
 37  21  36  1   
 38  21  37  1   
@<TRIPOS>SUBSTRUCTURE
  1 ****   6 GROUP 4 **** **** 0

# MOE 2024.06 (io_trps.svl 2023.06)
