@<TRIPOS>MOLECULE
NONAME
39 41 1 0 0 
SMALL
USER_CHARGES


@<TRIPOS>ATOM
  1 F        0.1220    -2.0290     1.5410 F     1 <1>  -0.1900 
  2 C       -0.7800    -2.8370     1.0420 C.ar  1 <1>   0.1900 
  3 C       -2.1050    -2.4880     1.1250 C.ar  1 <1>  -0.1500 
  4 C       -0.3380    -4.0210     0.4460 C.ar  1 <1>  -0.1500 
  5 C       -3.0470    -3.3690     0.5840 C.ar  1 <1>   0.0000 
  6 C       -1.2640    -4.8890    -0.0880 C.ar  1 <1>  -0.1500 
  7 C       -2.6210    -4.5540    -0.0150 C.ar  1 <1>  -0.1520 
  8 C       -4.4550    -3.3560     0.4870 C.2   1 <1>  -0.1500 
  9 N       -3.7300    -5.2280    -0.4580 N.pl3 1 <1>   0.0330 
 10 C       -4.8370    -4.4910    -0.1480 C.2   1 <1>  -0.3320 
 11 C       -6.2300    -4.9710    -0.5020 C.3   1 <1>   0.2900 
 12 N       -6.4180    -6.3570    -0.0450 N.3   1 <1>  -0.8100 
 13 C       -7.7170    -6.8680    -0.5440 C.3   1 <1>   0.2900 
 14 C       -6.3800    -6.4180     1.4320 C.3   1 <1>   0.0300 
 15 C       -7.8410    -8.3670    -0.3500 C.2   1 <1>   0.0070 
 16 N       -8.9380    -9.0110    -0.1440 N.2   1 <1>  -0.3380 
 17 N       -6.7970    -9.1890    -0.3790 N.pl3 1 <1>   0.0330 
 18 N       -8.6160   -10.3030    -0.0330 N.2   1 <1>  -0.3380 
 19 C       -7.3370   -10.3880    -0.1740 C.2   1 <1>   0.0060 
 20 C       -6.5410   -11.6780    -0.1100 C.3   1 <1>   0.0200 
 21 C       -5.8940   -12.0080    -1.4590 C.3   1 <1>  -0.2400 
 22 H       -2.4180    -1.5720     1.5890 H     1 <1>   0.1500 
 23 H        0.7160    -4.2320     0.4150 H     1 <1>   0.1500 
 24 H       -0.9590    -5.8090    -0.5550 H     1 <1>   0.1500 
 25 H       -5.0730    -2.5620     0.8670 H     1 <1>   0.1500 
 26 H       -3.7440    -6.1540    -0.8970 H     1 <1>   0.2700 
 27 H       -6.3420    -4.9240    -1.5730 H     1 <1>   0.0800 
 28 H       -6.9670    -4.3240    -0.0560 H     1 <1>   0.0800 
 29 H       -7.8030    -6.6690    -1.5980 H     1 <1>   0.0800 
 30 H       -8.5320    -6.3730    -0.0430 H     1 <1>   0.0800 
 31 H       -5.4190    -6.0980     1.7970 H     1 <1>   0.0800 
 32 H       -6.5460    -7.4250     1.7760 H     1 <1>   0.0800 
 33 H       -7.1390    -5.7820     1.8570 H     1 <1>   0.0800 
 34 H       -5.8210    -8.9160    -0.5080 H     1 <1>   0.2700 
 35 H       -7.2030   -12.4800     0.1700 H     1 <1>   0.0800 
 36 H       -5.7860   -11.5950     0.6510 H     1 <1>   0.0800 
 37 H       -6.6530   -12.0850    -2.2180 H     1 <1>   0.0800 
 38 H       -5.3720   -12.9460    -1.3980 H     1 <1>   0.0800 
 39 H       -5.1950   -11.2420    -1.7440 H     1 <1>   0.0800 
@<TRIPOS>BOND
  1   1   2  1   
  2   2   3  ar  
  3   2   4  ar  
  4   3   5  ar  
  5   3  22  1   
  6   4   6  ar  
  7   4  23  1   
  8   5   7  ar  
  9   5   8  1   
 10   6   7  ar  
 11   6  24  1   
 12   7   9  1   
 13   8  10  2   
 14   8  25  1   
 15   9  10  1   
 16   9  26  1   
 17  10  11  1   
 18  11  12  1   
 19  11  27  1   
 20  11  28  1   
 21  12  13  1   
 22  12  14  1   
 23  13  15  1   
 24  13  29  1   
 25  13  30  1   
 26  14  31  1   
 27  14  32  1   
 28  14  33  1   
 29  15  16  2   
 30  15  17  1   
 31  16  18  1   
 32  17  19  1   
 33  17  34  1   
 34  18  19  2   
 35  19  20  1   
 36  20  21  1   
 37  20  35  1   
 38  20  36  1   
 39  21  37  1   
 40  21  38  1   
 41  21  39  1   
@<TRIPOS>SUBSTRUCTURE
  1 ****  12 GROUP 4 **** **** 0

# MOE 2024.06 (io_trps.svl 2023.06)
