@<TRIPOS>MOLECULE
NONAME
62 62 1 0 0 
SMALL
USER_CHARGES


@<TRIPOS>ATOM
  1 S        0.6700    -0.5420    -0.8920 S.o2  1 <1>   1.3330 
  2 O        1.2710    -1.8300    -1.1570 O.2   1 <1>  -0.6500 
  3 O        0.4550     0.3700    -1.9950 O.2   1 <1>  -0.6500 
  4 N        1.5860     0.2620     0.3010 N.am  1 <1>  -0.8490 
  5 C       -0.8990    -0.8810    -0.0810 C.3   1 <1>  -0.0550 
  6 C        1.4680     1.7340     0.2540 C.3   1 <1>   0.1960 
  7 C        3.0160    -0.0940     0.1710 C.3   1 <1>   0.1960 
  8 C       -1.8800    -1.6910    -0.9460 C.3   1 <1>  -0.1600 
  9 C        0.0520     2.3070     0.4130 C.3   1 <1>  -0.1600 
 10 C        3.8680     0.2860     1.4010 C.3   1 <1>  -0.1600 
 11 C       -3.1990    -1.9400    -0.2090 C.3   1 <1>  -0.2400 
 12 C        0.0650     3.8000     0.7820 C.3   1 <1>   0.1400 
 13 C        5.3690     0.0450     1.1490 C.3   1 <1>  -0.0990 
 14 N        1.1480     4.5260     0.0690 N.am  1 <1>  -0.7300 
 15 C        5.8960     0.8950     0.0070 C.2   1 <1>   0.5690 
 16 C        2.3590     4.8130     0.6340 C.2   1 <1>   0.5690 
 17 O        5.8960     0.4300    -1.1040 O.2   1 <1>  -0.5700 
 18 N        6.3140     2.1610     0.2570 N.am  1 <1>  -0.7300 
 19 O        2.5680     4.5660     1.8200 O.2   1 <1>  -0.5700 
 20 C        3.5200     5.3610    -0.2320 C.3   1 <1>   0.2810 
 21 C        6.6480     3.1160    -0.8130 C.3   1 <1>   0.2810 
 22 N        4.6530     4.4320    -0.1380 N.am  1 <1>  -0.7300 
 23 C        3.9340     6.7970     0.1930 C.3   1 <1>  -0.0800 
 24 C        5.5250     4.1510    -1.1090 C.2   1 <1>   0.5690 
 25 C        7.9440     3.8160    -0.3950 C.3   1 <1>  -0.2400 
 26 C        2.7290     7.7560     0.2570 C.3   1 <1>  -0.2400 
 27 C        4.9990     7.4320    -0.7200 C.3   1 <1>  -0.2400 
 28 O        5.4410     4.6870    -2.2090 O.2   1 <1>  -0.5700 
 29 H       -0.7060    -1.4260     0.8220 H     1 <1>   0.0800 
 30 H       -1.3740     0.0390     0.1870 H     1 <1>   0.0800 
 31 H        2.0350     2.1470     1.0640 H     1 <1>   0.0800 
 32 H        1.8960     2.0980    -0.6680 H     1 <1>   0.0800 
 33 H        3.1240    -1.1590     0.0540 H     1 <1>   0.0800 
 34 H        3.4060     0.3610    -0.7260 H     1 <1>   0.0800 
 35 H       -2.0740    -1.1560    -1.8610 H     1 <1>   0.0800 
 36 H       -1.4290    -2.6350    -1.2060 H     1 <1>   0.0800 
 37 H       -0.5000     2.1920    -0.5010 H     1 <1>   0.0800 
 38 H       -0.4600     1.7860     1.2010 H     1 <1>   0.0800 
 39 H        3.7580     1.3190     1.6650 H     1 <1>   0.0800 
 40 H        3.5470    -0.3100     2.2360 H     1 <1>   0.0800 
 41 H       -3.6770    -1.0090     0.0390 H     1 <1>   0.0800 
 42 H       -3.0260    -2.4950     0.6970 H     1 <1>   0.0800 
 43 H       -3.8650    -2.5100    -0.8330 H     1 <1>   0.0800 
 44 H        0.2160     3.8960     1.8450 H     1 <1>   0.0800 
 45 H       -0.8860     4.2480     0.5490 H     1 <1>   0.0800 
 46 H        5.5330    -0.9910     0.9090 H     1 <1>   0.0800 
 47 H        5.9270     0.2660     2.0400 H     1 <1>   0.0800 
 48 H        0.9980     4.6780    -0.9320 H     1 <1>   0.3700 
 49 H        6.4090     2.4700     1.2080 H     1 <1>   0.3700 
 50 H        3.1750     5.3990    -1.2660 H     1 <1>   0.0800 
 51 H        6.8400     2.5800    -1.7450 H     1 <1>   0.0800 
 52 H        4.7400     3.9390     0.7350 H     1 <1>   0.3700 
 53 H        4.3540     6.7340     1.1990 H     1 <1>   0.0800 
 54 H        7.7860     4.3840     0.5220 H     1 <1>   0.0800 
 55 H        8.2520     4.4990    -1.1880 H     1 <1>   0.0800 
 56 H        8.7290     3.0760    -0.2410 H     1 <1>   0.0800 
 57 H        2.2470     7.8230    -0.7190 H     1 <1>   0.0800 
 58 H        3.0620     8.7510     0.5550 H     1 <1>   0.0800 
 59 H        2.0040     7.4150     0.9970 H     1 <1>   0.0800 
 60 H        4.6520     7.4430    -1.7540 H     1 <1>   0.0800 
 61 H        5.9290     6.8660    -0.6660 H     1 <1>   0.0800 
 62 H        5.2110     8.4540    -0.4020 H     1 <1>   0.0800 
@<TRIPOS>BOND
  1   1   2  2   
  2   1   3  2   
  3   1   4  am  
  4   1   5  1   
  5   4   6  1   
  6   4   7  1   
  7   5   8  1   
  8   5  29  1   
  9   5  30  1   
 10   6   9  1   
 11   6  31  1   
 12   6  32  1   
 13   7  10  1   
 14   7  33  1   
 15   7  34  1   
 16   8  11  1   
 17   8  35  1   
 18   8  36  1   
 19   9  12  1   
 20   9  37  1   
 21   9  38  1   
 22  10  13  1   
 23  10  39  1   
 24  10  40  1   
 25  11  41  1   
 26  11  42  1   
 27  11  43  1   
 28  12  14  1   
 29  12  44  1   
 30  12  45  1   
 31  13  15  1   
 32  13  46  1   
 33  13  47  1   
 34  14  16  am  
 35  14  48  1   
 36  15  17  2   
 37  15  18  am  
 38  16  19  2   
 39  16  20  1   
 40  18  21  1   
 41  18  49  1   
 42  20  22  1   
 43  20  23  1   
 44  20  50  1   
 45  21  24  1   
 46  21  25  1   
 47  21  51  1   
 48  22  24  am  
 49  22  52  1   
 50  23  26  1   
 51  23  27  1   
 52  23  53  1   
 53  24  28  2   
 54  25  54  1   
 55  25  55  1   
 56  25  56  1   
 57  26  57  1   
 58  26  58  1   
 59  26  59  1   
 60  27  60  1   
 61  27  61  1   
 62  27  62  1   
@<TRIPOS>SUBSTRUCTURE
  1 ****   6 GROUP 4 **** **** 0

# MOE 2024.06 (io_trps.svl 2023.06)
