@<TRIPOS>MOLECULE
NONAME
61 64 1 0 0 
SMALL
USER_CHARGES


@<TRIPOS>ATOM
  1 O        0.4150     1.3460    -1.3190 O.2   1 <1>  -0.5700 
  2 C        0.0490     2.3960    -0.8400 C.2   1 <1>   0.5440 
  3 N        0.9980     3.1880    -0.2670 N.am  1 <1>  -0.7300 
  4 C       -1.3300     2.8270    -0.9200 C.ar  1 <1>   0.0860 
  5 C        0.7890     4.4960     0.3890 C.3   1 <1>   0.2200 
  6 C       -2.1380     2.8970     0.2110 C.ar  1 <1>  -0.1500 
  7 C       -1.8570     3.2640    -2.1320 C.ar  1 <1>  -0.1500 
  8 C        0.4780     5.5730    -0.6500 C.3   1 <1>  -0.1600 
  9 C        2.0330     4.8970     1.1800 C.3   1 <1>  -0.1600 
 10 C       -3.3950     3.4680     0.1560 C.ar  1 <1>   0.0830 
 11 C       -3.1060     3.8680    -2.2020 C.ar  1 <1>   0.0830 
 12 C        0.2020     6.8910     0.0620 C.3   1 <1>   0.1400 
 13 C        1.8290     6.2600     1.8550 C.3   1 <1>   0.1400 
 14 O       -4.1190     3.4780     1.3000 O.3   1 <1>  -0.3630 
 15 C       -3.8630     4.0220    -1.0400 C.ar  1 <1>   0.0830 
 16 O       -3.6110     4.3570    -3.3700 O.3   1 <1>  -0.3630 
 17 N        1.3900     7.2910     0.8660 N.am  1 <1>  -0.6600 
 18 C       -5.2750     2.6700     1.3030 C.3   1 <1>   0.0400 
 19 O       -5.0090     4.7570    -1.1070 O.3   1 <1>  -0.3630 
 20 C       -3.0980     3.9430    -4.6170 C.3   1 <1>   0.0400 
 21 C        1.8810     8.5750     0.9460 C.2   1 <1>   0.5690 
 22 C       -5.1820     5.8730    -0.2490 C.3   1 <1>   0.1200 
 23 O        2.7880     8.8600     1.6930 O.2   1 <1>  -0.5700 
 24 C        1.3430     9.7160     0.0930 C.3   1 <1>  -0.0990 
 25 C       -3.9380     6.7760    -0.2530 C.3   1 <1>  -0.1600 
 26 C        0.2160    10.5100     0.7760 C.3   1 <1>   0.0210 
 27 C       -4.1790     8.0650     0.5440 C.3   1 <1>   0.0960 
 28 C       -1.0320     9.6860     1.0380 C.2   1 <1>   0.0460 
 29 N       -2.8960     8.6760     0.9460 N.pl3 1 <1>   0.3140 
 30 N       -1.2070     9.0310     2.1910 N.2   1 <1>  -0.2270 
 31 C       -2.0930     9.4780     0.2420 C.2   1 <1>  -0.3020 
 32 N       -2.3340     8.4150     2.1280 N.2   1 <1>  -0.4180 
 33 H        1.9570     2.8390    -0.3040 H     1 <1>   0.3700 
 34 H       -0.0400     4.4130     1.0720 H     1 <1>   0.0800 
 35 H       -1.7740     2.5150     1.1470 H     1 <1>   0.1500 
 36 H       -1.2420     3.1520    -3.0060 H     1 <1>   0.1500 
 37 H       -0.3950     5.3190    -1.2160 H     1 <1>   0.0800 
 38 H        1.3030     5.6960    -1.3290 H     1 <1>   0.0800 
 39 H        2.8860     4.9610     0.5280 H     1 <1>   0.0800 
 40 H        2.2350     4.1610     1.9380 H     1 <1>   0.0800 
 41 H       -0.6380     6.7710     0.7250 H     1 <1>   0.0800 
 42 H       -0.0580     7.6320    -0.6670 H     1 <1>   0.0800 
 43 H        2.7480     6.5600     2.3300 H     1 <1>   0.0800 
 44 H        1.0750     6.1810     2.6200 H     1 <1>   0.0800 
 45 H       -5.7320     2.7380     2.2740 H     1 <1>   0.0800 
 46 H       -4.9870     1.6530     1.1010 H     1 <1>   0.0800 
 47 H       -5.9580     3.0200     0.5500 H     1 <1>   0.0800 
 48 H       -3.7420     4.3280    -5.3860 H     1 <1>   0.0800 
 49 H       -3.0890     2.8680    -4.6520 H     1 <1>   0.0800 
 50 H       -2.1070     4.3410    -4.7390 H     1 <1>   0.0800 
 51 H       -5.3960     5.5150     0.7420 H     1 <1>   0.0800 
 52 H       -6.0390     6.4120    -0.6120 H     1 <1>   0.0800 
 53 H        1.0310     9.3660    -0.8700 H     1 <1>   0.0800 
 54 H        2.1600    10.3920    -0.0840 H     1 <1>   0.0800 
 55 H       -3.6740     7.0230    -1.2670 H     1 <1>   0.0800 
 56 H       -3.1250     6.2420     0.2070 H     1 <1>   0.0800 
 57 H       -0.0500    11.3430     0.1510 H     1 <1>   0.0800 
 58 H        0.5750    10.9070     1.7110 H     1 <1>   0.0800 
 59 H       -4.7260     7.8440     1.4440 H     1 <1>   0.0800 
 60 H       -4.7430     8.7740    -0.0350 H     1 <1>   0.0800 
 61 H       -2.3150     9.8340    -0.7460 H     1 <1>   0.1500 
@<TRIPOS>BOND
  1   1   2  2   
  2   2   3  am  
  3   2   4  1   
  4   3   5  1   
  5   3  33  1   
  6   4   6  ar  
  7   4   7  ar  
  8   5   8  1   
  9   5   9  1   
 10   5  34  1   
 11   6  10  ar  
 12   6  35  1   
 13   7  11  ar  
 14   7  36  1   
 15   8  12  1   
 16   8  37  1   
 17   8  38  1   
 18   9  13  1   
 19   9  39  1   
 20   9  40  1   
 21  10  14  1   
 22  10  15  ar  
 23  11  15  ar  
 24  11  16  1   
 25  12  17  1   
 26  12  41  1   
 27  12  42  1   
 28  13  17  1   
 29  13  43  1   
 30  13  44  1   
 31  14  18  1   
 32  15  19  1   
 33  16  20  1   
 34  17  21  am  
 35  18  45  1   
 36  18  46  1   
 37  18  47  1   
 38  19  22  1   
 39  20  48  1   
 40  20  49  1   
 41  20  50  1   
 42  21  23  2   
 43  21  24  1   
 44  22  25  1   
 45  22  51  1   
 46  22  52  1   
 47  24  26  1   
 48  24  53  1   
 49  24  54  1   
 50  25  27  1   
 51  25  55  1   
 52  25  56  1   
 53  26  28  1   
 54  26  57  1   
 55  26  58  1   
 56  27  29  1   
 57  27  59  1   
 58  27  60  1   
 59  28  30  1   
 60  28  31  2   
 61  29  31  1   
 62  29  32  1   
 63  30  32  2   
 64  31  61  1   
@<TRIPOS>SUBSTRUCTURE
  1 ****  12 GROUP 4 **** **** 0

# MOE 2024.06 (io_trps.svl 2023.06)
