@<TRIPOS>MOLECULE
NONAME
55 57 1 0 0 
SMALL
USER_CHARGES


@<TRIPOS>ATOM
  1 CL      -1.1390     0.0930     0.5790 Cl    1 <1>  -0.1770 
  2 C       -2.5450    -0.9360     0.4850 C.ar  1 <1>   0.1770 
  3 C       -3.1190    -1.1900    -0.7460 C.ar  1 <1>  -0.1500 
  4 C       -3.0650    -1.4820     1.6440 C.ar  1 <1>  -0.1500 
  5 C       -4.2360    -2.0060    -0.8170 C.ar  1 <1>  -0.1500 
  6 C       -4.1810    -2.2980     1.5670 C.ar  1 <1>  -0.1500 
  7 C       -4.7710    -2.5630     0.3370 C.ar  1 <1>  -0.1430 
  8 C       -5.9970    -3.4530     0.2550 C.3   1 <1>   0.2840 
  9 N       -7.1870    -2.5880     0.3460 N.am  1 <1>  -0.7300 
 10 C       -8.4340    -2.9830     0.0100 C.2   1 <1>   0.5690 
 11 O       -8.6700    -4.1020    -0.3680 O.2   1 <1>  -0.5700 
 12 C       -9.5680    -1.9900     0.1110 C.3   1 <1>  -0.0990 
 13 C      -10.8980    -2.7250    -0.0620 C.3   1 <1>   0.3430 
 14 N      -12.0690    -1.8130     0.0990 N.4   1 <1>  -0.9590 
 15 C      -13.3260    -2.6200     0.2930 C.3   1 <1>   0.3430 
 16 C      -12.2220    -0.8530    -1.0300 C.3   1 <1>   0.3430 
 17 C      -14.6300    -1.7950     0.1630 C.3   1 <1>   0.0000 
 18 C      -13.2620     0.2090    -0.6570 C.3   1 <1>  -0.1600 
 19 C      -15.6530    -2.3450     1.1790 C.3   1 <1>   0.2000 
 20 C      -14.3390    -0.2840     0.3280 C.3   1 <1>  -0.1600 
 21 C      -15.3020    -2.1060    -1.1880 C.3   1 <1>  -0.1600 
 22 O      -16.6910    -1.4240     1.3140 O.3   1 <1>  -0.5600 
 23 C      -16.2030    -3.6180     0.5250 C.3   1 <1>  -0.1600 
 24 C      -16.0630    -3.4220    -0.9910 C.3   1 <1>  -0.1600 
 25 C      -17.4480    -1.5340     2.4810 C.3   1 <1>   0.0400 
 26 H       -2.6950    -0.7530    -1.6330 H     1 <1>   0.1500 
 27 H       -2.5980    -1.2690     2.5890 H     1 <1>   0.1500 
 28 H       -4.6860    -2.2060    -1.7750 H     1 <1>   0.1500 
 29 H       -4.5870    -2.7250     2.4690 H     1 <1>   0.1500 
 30 H       -6.0040    -4.1630     1.0650 H     1 <1>   0.0800 
 31 H       -6.0090    -3.9970    -0.6750 H     1 <1>   0.0800 
 32 H       -6.9700    -1.6320     0.6370 H     1 <1>   0.3700 
 33 H       -9.5270    -1.5200     1.0760 H     1 <1>   0.0800 
 34 H       -9.4340    -1.2550    -0.6590 H     1 <1>   0.0800 
 35 H      -10.9470    -3.5100     0.6770 H     1 <1>   0.0800 
 36 H      -10.9240    -3.1950    -1.0330 H     1 <1>   0.0800 
 37 H      -11.9450    -1.2490     0.9500 H     1 <1>   0.4500 
 38 H      -13.3570    -3.4210    -0.4280 H     1 <1>   0.0800 
 39 H      -13.2950    -3.0730     1.2710 H     1 <1>   0.0800 
 40 H      -11.2860    -0.3720    -1.2580 H     1 <1>   0.0800 
 41 H      -12.5500    -1.3860    -1.9080 H     1 <1>   0.0800 
 42 H      -12.7660     1.0680    -0.2400 H     1 <1>   0.0800 
 43 H      -13.7370     0.5390    -1.5660 H     1 <1>   0.0800 
 44 H      -15.2160    -2.5230     2.1480 H     1 <1>   0.0800 
 45 H      -15.2380     0.2950     0.1880 H     1 <1>   0.0800 
 46 H      -14.0100    -0.1040     1.3370 H     1 <1>   0.0800 
 47 H      -16.0230    -1.3350    -1.4080 H     1 <1>   0.0800 
 48 H      -14.6130    -2.1660    -2.0110 H     1 <1>   0.0800 
 49 H      -15.6090    -4.4620     0.8280 H     1 <1>   0.0800 
 50 H      -17.2250    -3.8090     0.8030 H     1 <1>   0.0800 
 51 H      -15.5270    -4.2470    -1.4260 H     1 <1>   0.0800 
 52 H      -17.0340    -3.3600    -1.4560 H     1 <1>   0.0800 
 53 H      -18.2210    -0.7860     2.4470 H     1 <1>   0.0800 
 54 H      -16.8160    -1.3590     3.3340 H     1 <1>   0.0800 
 55 H      -17.8960    -2.5100     2.5340 H     1 <1>   0.0800 
@<TRIPOS>BOND
  1   1   2  1   
  2   2   3  ar  
  3   2   4  ar  
  4   3   5  ar  
  5   3  26  1   
  6   4   6  ar  
  7   4  27  1   
  8   5   7  ar  
  9   5  28  1   
 10   6   7  ar  
 11   6  29  1   
 12   7   8  1   
 13   8   9  1   
 14   8  30  1   
 15   8  31  1   
 16   9  10  am  
 17   9  32  1   
 18  10  11  2   
 19  10  12  1   
 20  12  13  1   
 21  12  33  1   
 22  12  34  1   
 23  13  14  1   
 24  13  35  1   
 25  13  36  1   
 26  14  15  1   
 27  14  16  1   
 28  14  37  1   
 29  15  17  1   
 30  15  38  1   
 31  15  39  1   
 32  16  18  1   
 33  16  40  1   
 34  16  41  1   
 35  17  19  1   
 36  17  20  1   
 37  17  21  1   
 38  18  20  1   
 39  18  42  1   
 40  18  43  1   
 41  19  22  1   
 42  19  23  1   
 43  19  44  1   
 44  20  45  1   
 45  20  46  1   
 46  21  24  1   
 47  21  47  1   
 48  21  48  1   
 49  22  25  1   
 50  23  24  1   
 51  23  49  1   
 52  23  50  1   
 53  24  51  1   
 54  24  52  1   
 55  25  53  1   
 56  25  54  1   
 57  25  55  1   
@<TRIPOS>SUBSTRUCTURE
  1 ****  12 GROUP 4 **** **** 0

# MOE 2024.06 (io_trps.svl 2023.06)
