@<TRIPOS>MOLECULE
NONAME
47 49 1 0 0 
SMALL
USER_CHARGES


@<TRIPOS>ATOM
  1 O       -0.0640    -0.0110    -1.3630 O.2   1 <1>  -0.5700 
  2 C       -0.9800     0.7160    -1.0620 C.2   1 <1>   0.5690 
  3 N       -2.2270     0.2320    -0.7790 N.am  1 <1>  -0.6600 
  4 C       -0.7050     2.2010    -0.9760 C.3   1 <1>  -0.0990 
  5 C       -3.4040     1.0260    -0.3380 C.3   1 <1>   0.1400 
  6 C       -2.5330    -1.2160    -0.7370 C.3   1 <1>   0.1400 
  7 C       -0.2750     2.5800     0.4440 C.3   1 <1>   0.0210 
  8 C       -4.4680    -0.0090     0.0340 C.3   1 <1>   0.2000 
  9 C       -3.7240    -1.3310     0.2160 C.3   1 <1>  -0.0800 
 10 C       -0.3890     4.0760     0.6430 C.2   1 <1>   0.1080 
 11 O       -5.1220     0.3260     1.2090 O.3   1 <1>  -0.6800 
 12 C       -4.6220    -2.5530    -0.0360 C.3   1 <1>  -0.0160 
 13 N       -1.5210     4.6330     0.9400 N.2   1 <1>  -0.7070 
 14 C        0.6460     5.0040     0.5290 C.2   1 <1>  -0.1810 
 15 C       -3.8750    -3.8590     0.1820 C.ar  1 <1>   0.1670 
 16 N       -1.2370     5.9440     1.0310 N.pl3 1 <1>   0.3000 
 17 C        0.0660     6.1970     0.7870 C.2   1 <1>  -0.3320 
 18 C        2.0910     4.6890     0.1850 C.3   1 <1>  -0.0590 
 19 N       -3.1420    -4.2960    -0.8300 N.ar  1 <1>  -0.6200 
 20 C       -3.9810    -4.5280     1.4000 C.ar  1 <1>   0.1600 
 21 C        0.6490     7.6000     0.8250 C.3   1 <1>  -0.0600 
 22 C       -2.5260    -5.4300    -0.5440 C.ar  1 <1>   0.1600 
 23 N       -3.3650    -5.6620     1.6890 N.ar  1 <1>  -0.6200 
 24 C       -2.6330    -6.0910     0.6740 C.ar  1 <1>   0.1600 
 25 H        0.0750     2.4590    -1.6680 H     1 <1>   0.0800 
 26 H       -1.5810     2.7530    -1.2570 H     1 <1>   0.0800 
 27 H       -3.1390     1.6350     0.5100 H     1 <1>   0.0800 
 28 H       -3.7520     1.6490    -1.1440 H     1 <1>   0.0800 
 29 H       -2.7970    -1.5490    -1.7270 H     1 <1>   0.0800 
 30 H       -1.6880    -1.7850    -0.3870 H     1 <1>   0.0800 
 31 H        0.7300     2.2480     0.6250 H     1 <1>   0.0800 
 32 H       -0.9130     2.1000     1.1640 H     1 <1>   0.0800 
 33 H       -5.2000    -0.0770    -0.7530 H     1 <1>   0.0800 
 34 H       -3.3240    -1.3810     1.2140 H     1 <1>   0.0800 
 35 H       -4.4750     0.4900     1.9230 H     1 <1>   0.4000 
 36 H       -5.0000    -2.5310    -1.0440 H     1 <1>   0.0800 
 37 H       -5.4690    -2.5100     0.6260 H     1 <1>   0.0800 
 38 H       -1.9530     6.6420     1.2630 H     1 <1>   0.2700 
 39 H        2.1350     4.1380    -0.7360 H     1 <1>   0.0800 
 40 H        2.5310     4.0980     0.9680 H     1 <1>   0.0800 
 41 H        2.6650     5.5890     0.0710 H     1 <1>   0.0800 
 42 H       -4.6000    -4.1050     2.1710 H     1 <1>   0.1500 
 43 H        1.7030     7.5830     0.6230 H     1 <1>   0.0800 
 44 H        0.4980     8.0360     1.7970 H     1 <1>   0.0800 
 45 H        0.1710     8.2180     0.0860 H     1 <1>   0.0800 
 46 H       -1.9040    -5.8590    -1.3100 H     1 <1>   0.1500 
 47 H       -2.0920    -7.0100     0.8130 H     1 <1>   0.1500 
@<TRIPOS>BOND
  1   1   2  2   
  2   2   3  am  
  3   2   4  1   
  4   3   5  1   
  5   3   6  1   
  6   4   7  1   
  7   4  25  1   
  8   4  26  1   
  9   5   8  1   
 10   5  27  1   
 11   5  28  1   
 12   6   9  1   
 13   6  29  1   
 14   6  30  1   
 15   7  10  1   
 16   7  31  1   
 17   7  32  1   
 18   8   9  1   
 19   8  11  1   
 20   8  33  1   
 21   9  12  1   
 22   9  34  1   
 23  10  13  2   
 24  10  14  1   
 25  11  35  1   
 26  12  15  1   
 27  12  36  1   
 28  12  37  1   
 29  13  16  1   
 30  14  17  2   
 31  14  18  1   
 32  15  19  ar  
 33  15  20  ar  
 34  16  17  1   
 35  16  38  1   
 36  17  21  1   
 37  18  39  1   
 38  18  40  1   
 39  18  41  1   
 40  19  22  ar  
 41  20  23  ar  
 42  20  42  1   
 43  21  43  1   
 44  21  44  1   
 45  21  45  1   
 46  22  24  ar  
 47  22  46  1   
 48  23  24  ar  
 49  24  47  1   
@<TRIPOS>SUBSTRUCTURE
  1 ****   3 GROUP 4 **** **** 0

# MOE 2024.06 (io_trps.svl 2023.06)
