@<TRIPOS>MOLECULE
NONAME
50 54 1 0 0 
SMALL
USER_CHARGES


@<TRIPOS>ATOM
  1 O        1.2170    -0.7800    -1.5250 O.3   1 <1>  -0.0190 
  2 N        0.7660    -2.0020    -1.5300 N.2   1 <1>  -0.4100 
  3 C        1.8180    -0.4870    -0.4020 C.2   1 <1>   0.0550 
  4 C        1.0820    -2.5040    -0.3870 C.2   1 <1>   0.1080 
  5 C        1.7670    -1.5700     0.3890 C.2   1 <1>  -0.1500 
  6 C        2.4160     0.8920    -0.2020 C.3   1 <1>  -0.0150 
  7 C        0.7360    -3.9280     0.0300 C.3   1 <1>   0.5240 
  8 C        2.5880     1.4730     1.1660 C.3   1 <1>  -0.2000 
  9 C        1.5510     2.0300     0.2320 C.3   1 <1>  -0.2000 
 10 N       -0.4510    -4.4060    -0.7450 N.4   1 <1>  -0.9590 
 11 C       -1.7220    -3.7160    -0.3490 C.3   1 <1>   0.3430 
 12 C       -0.6710    -5.8770    -0.6600 C.3   1 <1>   0.3430 
 13 C       -2.7510    -4.8250    -0.1110 C.3   1 <1>   0.2000 
 14 C       -1.9310    -6.0750     0.1820 C.3   1 <1>  -0.0800 
 15 O       -3.5860    -4.5360     0.9570 O.3   1 <1>  -0.6800 
 16 C       -2.6770    -7.3830    -0.1380 C.3   1 <1>  -0.0170 
 17 C       -1.8030    -8.5960     0.1390 C.ar  1 <1>   0.1670 
 18 N       -0.7770    -8.7780    -0.6370 N.ar  1 <1>  -0.6200 
 19 C       -2.1290    -9.4450     1.2090 C.ar  1 <1>  -0.1500 
 20 C        0.0100    -9.8620    -0.4020 C.ar  1 <1>   0.3100 
 21 C       -1.3470   -10.5270     1.4780 C.ar  1 <1>  -0.1500 
 22 C       -0.2310   -10.7620     0.6590 C.ar  1 <1>   0.0000 
 23 C        1.1130   -10.0960    -1.2390 C.ar  1 <1>  -0.1500 
 24 C        0.6470   -11.8470     0.8500 C.ar  1 <1>  -0.1500 
 25 C        1.9530   -11.1590    -1.0380 C.ar  1 <1>  -0.1500 
 26 C        1.7180   -12.0420     0.0210 C.ar  1 <1>  -0.1500 
 27 H        2.1610    -1.6920     1.3810 H     1 <1>   0.1500 
 28 H        3.1790     1.1090    -0.9300 H     1 <1>   0.1000 
 29 H        0.5310    -3.9630     1.0860 H     1 <1>   0.0800 
 30 H        1.5840    -4.5590    -0.1780 H     1 <1>   0.0800 
 31 H        2.2520     0.9230     2.0270 H     1 <1>   0.1000 
 32 H        3.4670     2.0600     1.3690 H     1 <1>   0.1000 
 33 H        1.7140     2.9970    -0.2120 H     1 <1>   0.1000 
 34 H        0.5120     1.8400     0.4370 H     1 <1>   0.1000 
 35 H       -0.2450    -4.1350    -1.7220 H     1 <1>   0.4500 
 36 H       -1.5770    -3.1570     0.5600 H     1 <1>   0.0800 
 37 H       -2.0540    -3.0490    -1.1280 H     1 <1>   0.0800 
 38 H       -0.8410    -6.2770    -1.6480 H     1 <1>   0.0800 
 39 H        0.1710    -6.3940    -0.2270 H     1 <1>   0.0800 
 40 H       -3.3620    -4.9450    -0.9910 H     1 <1>   0.0800 
 41 H       -1.6300    -6.0840     1.2150 H     1 <1>   0.0800 
 42 H       -3.1530    -4.6560     1.8260 H     1 <1>   0.4000 
 43 H       -2.9690    -7.4030    -1.1740 H     1 <1>   0.0800 
 44 H       -3.5770    -7.4360     0.4500 H     1 <1>   0.0800 
 45 H       -2.9960    -9.2370     1.8110 H     1 <1>   0.1500 
 46 H       -1.5640   -11.1990     2.2890 H     1 <1>   0.1500 
 47 H        1.2790    -9.4150    -2.0510 H     1 <1>   0.1500 
 48 H        0.4590   -12.5260     1.6630 H     1 <1>   0.1500 
 49 H        2.7970   -11.3300    -1.6850 H     1 <1>   0.1500 
 50 H        2.3870   -12.8730     0.1680 H     1 <1>   0.1500 
@<TRIPOS>BOND
  1   1   2  1   
  2   1   3  1   
  3   2   4  2   
  4   3   5  2   
  5   3   6  1   
  6   4   5  1   
  7   4   7  1   
  8   5  27  1   
  9   6   8  1   
 10   6   9  1   
 11   6  28  1   
 12   7  10  1   
 13   7  29  1   
 14   7  30  1   
 15   8   9  1   
 16   8  31  1   
 17   8  32  1   
 18   9  33  1   
 19   9  34  1   
 20  10  11  1   
 21  10  12  1   
 22  10  35  1   
 23  11  13  1   
 24  11  36  1   
 25  11  37  1   
 26  12  14  1   
 27  12  38  1   
 28  12  39  1   
 29  13  14  1   
 30  13  15  1   
 31  13  40  1   
 32  14  16  1   
 33  14  41  1   
 34  15  42  1   
 35  16  17  1   
 36  16  43  1   
 37  16  44  1   
 38  17  18  ar  
 39  17  19  ar  
 40  18  20  ar  
 41  19  21  ar  
 42  19  45  1   
 43  20  22  ar  
 44  20  23  ar  
 45  21  22  ar  
 46  21  46  1   
 47  22  24  ar  
 48  23  25  ar  
 49  23  47  1   
 50  24  26  ar  
 51  24  48  1   
 52  25  26  ar  
 53  25  49  1   
 54  26  50  1   
@<TRIPOS>SUBSTRUCTURE
  1 ****  12 GROUP 4 **** **** 0

# MOE 2024.06 (io_trps.svl 2023.06)
