@<TRIPOS>MOLECULE
NONAME
46 48 1 0 0 
SMALL
USER_CHARGES


@<TRIPOS>ATOM
  1 F        0.4230     0.6930     0.8520 F     1 <1>  -0.1900 
  2 C        0.9460     1.8420     0.5050 C.ar  1 <1>   0.1900 
  3 C        2.2680     1.8810     0.1100 C.ar  1 <1>  -0.1500 
  4 C        0.1560     2.9730     0.5430 C.ar  1 <1>  -0.1500 
  5 C        2.8110     3.1010    -0.2530 C.ar  1 <1>  -0.1500 
  6 C        0.7160     4.1850     0.1780 C.ar  1 <1>  -0.1500 
  7 C        2.0540     4.2740    -0.2170 C.ar  1 <1>   0.1000 
  8 N        2.6510     5.4870    -0.5890 N.pl3 1 <1>  -0.8380 
  9 C        4.0190     5.8070    -0.1040 C.3   1 <1>   0.2090 
 10 C        1.8790     6.7410    -0.7560 C.3   1 <1>   0.2090 
 11 C        4.0570     7.3230     0.0780 C.3   1 <1>  -0.0800 
 12 C        2.9320     7.8370    -0.8210 C.3   1 <1>  -0.1600 
 13 C        5.4360     7.9050    -0.2470 C.3   1 <1>   0.2090 
 14 N        5.4240     9.3730    -0.0540 N.pl3 1 <1>  -0.8690 
 15 C        6.5600    10.1420     0.0360 C.ar  1 <1>   0.4100 
 16 N        7.7130     9.5060     0.0470 N.ar  1 <1>  -0.6200 
 17 C        6.4930    11.5290     0.1060 C.ar  1 <1>  -0.1430 
 18 C        8.7890    10.2590     0.1250 C.ar  1 <1>   0.4770 
 19 C        7.6940    12.1940     0.1810 C.ar  1 <1>   0.1600 
 20 C        5.1360    12.2400     0.1000 C.3   1 <1>  -0.0170 
 21 N        8.8560    11.5740     0.1900 N.ar  1 <1>  -0.6200 
 22 C       10.1050     9.5200     0.1370 C.3   1 <1>  -0.0970 
 23 C        5.1910    13.7630     0.2770 C.3   1 <1>  -0.2400 
 24 H        2.8510     0.9800     0.0840 H     1 <1>   0.1500 
 25 H       -0.8710     2.9030     0.8510 H     1 <1>   0.1500 
 26 H        3.8320     3.1460    -0.5790 H     1 <1>   0.1500 
 27 H        0.1000     5.0610     0.2050 H     1 <1>   0.1500 
 28 H        4.7280     5.4930    -0.8510 H     1 <1>   0.0800 
 29 H        4.2280     5.3010     0.8240 H     1 <1>   0.0800 
 30 H        1.2500     6.8990     0.1020 H     1 <1>   0.0800 
 31 H        1.2820     6.7060    -1.6520 H     1 <1>   0.0800 
 32 H        3.8220     7.5340     1.1060 H     1 <1>   0.0800 
 33 H        2.5390     8.7810    -0.4920 H     1 <1>   0.0800 
 34 H        3.2730     7.9260    -1.8380 H     1 <1>   0.0800 
 35 H        5.7070     7.6860    -1.2660 H     1 <1>   0.0800 
 36 H        6.1750     7.4660     0.4030 H     1 <1>   0.0800 
 37 H        4.5670     9.8380    -0.3490 H     1 <1>   0.4000 
 38 H        7.7300    13.2670     0.2360 H     1 <1>   0.1500 
 39 H        4.5350    11.8310     0.8940 H     1 <1>   0.0800 
 40 H        4.6400    12.0230    -0.8310 H     1 <1>   0.0800 
 41 H       10.1090     8.8120     0.9440 H     1 <1>   0.0800 
 42 H       10.9220    10.2050     0.2680 H     1 <1>   0.0800 
 43 H       10.2290     8.9980    -0.7930 H     1 <1>   0.0800 
 44 H        5.6630    14.0170     1.2100 H     1 <1>   0.0800 
 45 H        4.1930    14.1650     0.2830 H     1 <1>   0.0800 
 46 H        5.7330    14.2190    -0.5330 H     1 <1>   0.0800 
@<TRIPOS>BOND
  1   1   2  1   
  2   2   3  ar  
  3   2   4  ar  
  4   3   5  ar  
  5   3  24  1   
  6   4   6  ar  
  7   4  25  1   
  8   5   7  ar  
  9   5  26  1   
 10   6   7  ar  
 11   6  27  1   
 12   7   8  1   
 13   8   9  1   
 14   8  10  1   
 15   9  11  1   
 16   9  28  1   
 17   9  29  1   
 18  10  12  1   
 19  10  30  1   
 20  10  31  1   
 21  11  12  1   
 22  11  13  1   
 23  11  32  1   
 24  12  33  1   
 25  12  34  1   
 26  13  14  1   
 27  13  35  1   
 28  13  36  1   
 29  14  15  1   
 30  14  37  1   
 31  15  16  ar  
 32  15  17  ar  
 33  16  18  ar  
 34  17  19  ar  
 35  17  20  1   
 36  18  21  ar  
 37  18  22  1   
 38  19  21  ar  
 39  19  38  1   
 40  20  23  1   
 41  20  39  1   
 42  20  40  1   
 43  22  41  1   
 44  22  42  1   
 45  22  43  1   
 46  23  44  1   
 47  23  45  1   
 48  23  46  1   
@<TRIPOS>SUBSTRUCTURE
  1 ****  11 GROUP 4 **** **** 0

# MOE 2024.06 (io_trps.svl 2023.06)
