@<TRIPOS>MOLECULE
NONAME
52 54 1 0 0 
SMALL
USER_CHARGES


@<TRIPOS>ATOM
  1 O       -0.2610    -0.2000     0.1620 O.3   1 <1>  -0.5600 
  2 C        0.8510    -1.0340     0.0500 C.3   1 <1>   0.2640 
  3 C       -1.4770    -0.8530     0.2290 C.3   1 <1>   0.1200 
  4 C        2.0990    -0.1700     0.0070 C.ar  1 <1>  -0.1440 
  5 C       -2.5350     0.2380     0.3690 C.3   1 <1>  -0.1600 
  6 C        2.8970    -0.0260     1.1320 C.ar  1 <1>  -0.1500 
  7 C        2.4540     0.4830    -1.1640 C.ar  1 <1>  -0.1500 
  8 C       -3.9380    -0.3600     0.4390 C.3   1 <1>   0.3430 
  9 C        4.0380     0.7560     1.0860 C.ar  1 <1>  -0.1500 
 10 C        3.5960     1.2650    -1.2120 C.ar  1 <1>  -0.1500 
 11 N       -4.9460     0.7080     0.6890 N.4   1 <1>  -0.9590 
 12 C        4.3890     1.4010    -0.0870 C.ar  1 <1>  -0.1500 
 13 C       -6.2630     0.1160     1.1330 C.3   1 <1>   0.3430 
 14 C       -5.0570     1.6530    -0.4740 C.3   1 <1>   0.3430 
 15 C       -7.3160     0.0300     0.0140 C.3   1 <1>   0.0000 
 16 C       -6.3870     2.4030    -0.4400 C.3   1 <1>  -0.1600 
 17 C       -8.5710    -0.6660     0.5660 C.3   1 <1>   0.2000 
 18 C       -7.5940     1.4540    -0.5620 C.3   1 <1>  -0.1600 
 19 C       -6.9500    -0.9370    -1.1290 C.3   1 <1>  -0.1600 
 20 O       -9.3050     0.1590     1.3940 O.3   1 <1>  -0.6800 
 21 C       -9.3630    -1.0960    -0.6600 C.3   1 <1>  -0.1600 
 22 C       -8.2910    -1.4160    -1.7120 C.3   1 <1>  -0.1600 
 23 H        0.8780    -1.6950     0.8990 H     1 <1>   0.0800 
 24 H        0.7660    -1.6100    -0.8550 H     1 <1>   0.0800 
 25 H       -1.6130    -1.4210    -0.6760 H     1 <1>   0.0800 
 26 H       -1.4720    -1.5070     1.0860 H     1 <1>   0.0800 
 27 H       -2.3310     0.7920     1.2690 H     1 <1>   0.0800 
 28 H       -2.4500     0.8920    -0.4800 H     1 <1>   0.0800 
 29 H        2.6320    -0.5190     2.0510 H     1 <1>   0.1500 
 30 H        1.8390     0.3880    -2.0410 H     1 <1>   0.1500 
 31 H       -3.9680    -1.0770     1.2440 H     1 <1>   0.0800 
 32 H       -4.1650    -0.8740    -0.4800 H     1 <1>   0.0800 
 33 H        4.6530     0.8630     1.9630 H     1 <1>   0.1500 
 34 H        3.8650     1.7690    -2.1240 H     1 <1>   0.1500 
 35 H       -4.6050     1.2640     1.4840 H     1 <1>   0.4500 
 36 H        5.2760     2.0090    -0.1230 H     1 <1>   0.1500 
 37 H       -6.1060    -0.8610     1.5570 H     1 <1>   0.0800 
 38 H       -6.6800     0.7390     1.9090 H     1 <1>   0.0800 
 39 H       -4.2400     2.3560    -0.4530 H     1 <1>   0.0800 
 40 H       -4.9970     1.1020    -1.3980 H     1 <1>   0.0800 
 41 H       -6.4500     2.9600     0.4790 H     1 <1>   0.0800 
 42 H       -6.4160     3.1160    -1.2460 H     1 <1>   0.0800 
 43 H       -8.2960    -1.5410     1.1320 H     1 <1>   0.0800 
 44 H       -7.8860     1.3810    -1.5960 H     1 <1>   0.0800 
 45 H       -8.4180     1.9250    -0.0550 H     1 <1>   0.0800 
 46 H       -6.3380    -0.4850    -1.8910 H     1 <1>   0.0800 
 47 H       -6.4290    -1.7920    -0.7330 H     1 <1>   0.0800 
 48 H      -10.1850    -0.2320     1.5710 H     1 <1>   0.4000 
 49 H       -9.9770    -1.9550    -0.4520 H     1 <1>   0.0800 
 50 H       -9.9790    -0.2840    -1.0110 H     1 <1>   0.0800 
 51 H       -8.2560    -2.4730    -1.9200 H     1 <1>   0.0800 
 52 H       -8.5150    -0.8960    -2.6290 H     1 <1>   0.0800 
@<TRIPOS>BOND
  1   1   2  1   
  2   1   3  1   
  3   2   4  1   
  4   2  23  1   
  5   2  24  1   
  6   3   5  1   
  7   3  25  1   
  8   3  26  1   
  9   4   6  ar  
 10   4   7  ar  
 11   5   8  1   
 12   5  27  1   
 13   5  28  1   
 14   6   9  ar  
 15   6  29  1   
 16   7  10  ar  
 17   7  30  1   
 18   8  11  1   
 19   8  31  1   
 20   8  32  1   
 21   9  12  ar  
 22   9  33  1   
 23  10  12  ar  
 24  10  34  1   
 25  11  13  1   
 26  11  14  1   
 27  11  35  1   
 28  12  36  1   
 29  13  15  1   
 30  13  37  1   
 31  13  38  1   
 32  14  16  1   
 33  14  39  1   
 34  14  40  1   
 35  15  17  1   
 36  15  18  1   
 37  15  19  1   
 38  16  18  1   
 39  16  41  1   
 40  16  42  1   
 41  17  20  1   
 42  17  21  1   
 43  17  43  1   
 44  18  44  1   
 45  18  45  1   
 46  19  22  1   
 47  19  46  1   
 48  19  47  1   
 49  20  48  1   
 50  21  22  1   
 51  21  49  1   
 52  21  50  1   
 53  22  51  1   
 54  22  52  1   
@<TRIPOS>SUBSTRUCTURE
  1 ****   5 GROUP 4 **** **** 0

# MOE 2024.06 (io_trps.svl 2023.06)
