@<TRIPOS>MOLECULE
NONAME
54 57 1 0 0 
SMALL
USER_CHARGES


@<TRIPOS>ATOM
  1 S       -1.1630     0.4020    -2.2750 S.o2  1 <1>   1.4470 
  2 O       -1.1570    -0.3720    -3.4970 O.2   1 <1>  -0.6500 
  3 O       -1.8530     1.6760    -2.2520 O.2   1 <1>  -0.6500 
  4 N       -1.8450    -0.5550    -1.0530 N.am  1 <1>  -0.8490 
  5 C        0.5520     0.6800    -1.7460 C.ar  1 <1>  -0.0090 
  6 C       -1.2810    -1.9210    -0.9400 C.3   1 <1>   0.1960 
  7 C       -2.1080     0.1040     0.2140 C.3   1 <1>   0.1960 
  8 C        0.8910     1.7660    -0.9440 C.ar  1 <1>  -0.1500 
  9 C        1.5710    -0.1850    -2.1300 C.ar  1 <1>  -0.1500 
 10 C       -1.7120    -2.6940     0.3380 C.3   1 <1>  -0.1060 
 11 C       -3.1920    -0.6750     0.9670 C.3   1 <1>  -0.1600 
 12 C        2.1960     1.9900    -0.5410 C.ar  1 <1>  -0.1440 
 13 C        2.8780     0.0260    -1.7350 C.ar  1 <1>  -0.1500 
 14 C       -1.8040    -4.1850     0.0010 C.2   1 <1>   0.9060 
 15 C       -3.1230    -2.1920     0.7190 C.3   1 <1>   0.2000 
 16 C       -0.7310    -2.5330     1.5440 C.3   1 <1>  -0.0170 
 17 C        3.2010     1.1120    -0.9360 C.ar  1 <1>   0.1170 
 18 C        2.5540     3.2070     0.3080 C.3   1 <1>  -0.0160 
 19 O       -1.2100    -4.6410    -0.9820 O.co2 1 <1>  -0.9000 
 20 O       -2.4620    -4.9240     0.7490 O.co2 1 <1>  -0.9000 
 21 O       -3.5660    -2.8330     1.8600 O.3   1 <1>  -0.6800 
 22 C        0.7630    -2.4640     1.2330 C.ar  1 <1>  -0.1430 
 23 N        4.5090     1.3290    -0.5080 N.am  1 <1>  -0.5470 
 24 C        3.7590     2.9210     1.2190 C.3   1 <1>  -0.0990 
 25 C        1.4920    -1.3340     1.5750 C.ar  1 <1>  -0.1500 
 26 C        1.4190    -3.5330     0.6420 C.ar  1 <1>  -0.1500 
 27 C        4.8620     2.1900     0.4770 C.2   1 <1>   0.5690 
 28 C        2.8550    -1.2780     1.3380 C.ar  1 <1>  -0.1500 
 29 C        2.7790    -3.4750     0.3930 C.ar  1 <1>  -0.1500 
 30 O        6.0150     2.3580     0.7790 O.2   1 <1>  -0.5700 
 31 C        3.5000    -2.3480     0.7440 C.ar  1 <1>  -0.1500 
 32 H       -1.6240    -2.4590    -1.8100 H     1 <1>   0.0800 
 33 H       -0.2090    -1.8980    -1.0050 H     1 <1>   0.0800 
 34 H       -1.1990     0.1520     0.7880 H     1 <1>   0.0800 
 35 H       -2.4590     1.1100     0.0540 H     1 <1>   0.0800 
 36 H        0.1140     2.4500    -0.6460 H     1 <1>   0.1500 
 37 H        1.3340    -1.0380    -2.7460 H     1 <1>   0.1500 
 38 H       -4.1550    -0.3270     0.6420 H     1 <1>   0.0800 
 39 H       -3.1030    -0.4590     2.0160 H     1 <1>   0.0800 
 40 H        3.6440    -0.6640    -2.0400 H     1 <1>   0.1500 
 41 H       -3.8010    -2.4510    -0.0780 H     1 <1>   0.0800 
 42 H       -0.9900    -1.6630     2.1130 H     1 <1>   0.0800 
 43 H       -0.8830    -3.3600     2.2170 H     1 <1>   0.0800 
 44 H        2.8010     4.0180    -0.3550 H     1 <1>   0.0800 
 45 H        1.7130     3.5110     0.9070 H     1 <1>   0.0800 
 46 H       -3.3530    -3.8020     1.7100 H     1 <1>   0.4000 
 47 H        5.2780     0.8240    -0.9470 H     1 <1>   0.3700 
 48 H        3.4500     2.3010     2.0400 H     1 <1>   0.0800 
 49 H        4.1460     3.8410     1.6180 H     1 <1>   0.0800 
 50 H        1.0060    -0.4940     2.0350 H     1 <1>   0.1500 
 51 H        0.8750    -4.4230     0.3730 H     1 <1>   0.1500 
 52 H        3.4130    -0.4030     1.6140 H     1 <1>   0.1500 
 53 H        3.2680    -4.3130    -0.0710 H     1 <1>   0.1500 
 54 H        4.5580    -2.3050     0.5580 H     1 <1>   0.1500 
@<TRIPOS>BOND
  1   1   2  2   
  2   1   3  2   
  3   1   4  am  
  4   1   5  1   
  5   4   6  1   
  6   4   7  1   
  7   5   8  ar  
  8   5   9  ar  
  9   6  10  1   
 10   6  32  1   
 11   6  33  1   
 12   7  11  1   
 13   7  34  1   
 14   7  35  1   
 15   8  12  ar  
 16   8  36  1   
 17   9  13  ar  
 18   9  37  1   
 19  10  14  1   
 20  10  15  1   
 21  10  16  1   
 22  11  15  1   
 23  11  38  1   
 24  11  39  1   
 25  12  17  ar  
 26  12  18  1   
 27  13  17  ar  
 28  13  40  1   
 29  14  19  ar  
 30  14  20  ar  
 31  15  21  1   
 32  15  41  1   
 33  16  22  1   
 34  16  42  1   
 35  16  43  1   
 36  17  23  1   
 37  18  24  1   
 38  18  44  1   
 39  18  45  1   
 40  21  46  1   
 41  22  25  ar  
 42  22  26  ar  
 43  23  27  am  
 44  23  47  1   
 45  24  27  1   
 46  24  48  1   
 47  24  49  1   
 48  25  28  ar  
 49  25  50  1   
 50  26  29  ar  
 51  26  51  1   
 52  27  30  2   
 53  28  31  ar  
 54  28  52  1   
 55  29  31  ar  
 56  29  53  1   
 57  31  54  1   
@<TRIPOS>SUBSTRUCTURE
  1 ****  25 GROUP 4 **** **** 0

# MOE 2024.06 (io_trps.svl 2023.06)
