@<TRIPOS>MOLECULE
NONAME
46 48 1 0 0 
SMALL
USER_CHARGES


@<TRIPOS>ATOM
  1 O      -10.5130     0.0990     1.0000 O.2   1 <1>  -0.5700 
  2 C       -9.8190    -0.3410     0.1060 C.2   1 <1>   0.7800 
  3 O       -9.5900     0.3920    -0.9840 O.3   1 <1>  -0.4300 
  4 N       -9.1800    -1.5480     0.2000 N.am  1 <1>  -0.6600 
  5 C       -9.9500     1.7550    -1.0520 C.3   1 <1>   0.2640 
  6 C       -8.0350    -1.9060    -0.6800 C.3   1 <1>   0.1400 
  7 C       -9.3600    -2.3860     1.4250 C.3   1 <1>   0.1400 
  8 C       -8.7300     2.5660    -0.6400 C.ar  1 <1>  -0.1440 
  9 C       -6.7430    -2.0040     0.1740 C.3   1 <1>   0.0000 
 10 C       -8.3750    -3.5650     1.4640 C.3   1 <1>  -0.1600 
 11 C       -7.8520     3.0540    -1.5970 C.ar  1 <1>  -0.1500 
 12 C       -8.4830     2.8170     0.7020 C.ar  1 <1>  -0.1500 
 13 C       -5.5270    -2.2590    -0.7430 C.3   1 <1>  -0.1600 
 14 C       -6.4650    -0.6830     0.9370 C.3   1 <1>  -0.1600 
 15 C       -6.9060    -3.1650     1.1940 C.3   1 <1>  -0.1600 
 16 C       -6.7390     3.7850    -1.2160 C.ar  1 <1>  -0.1500 
 17 C       -7.3710     3.5480     1.0830 C.ar  1 <1>  -0.1500 
 18 C       -5.2270    -1.0750    -1.6730 C.3   1 <1>   0.3430 
 19 C       -6.2260     0.4870    -0.0130 C.3   1 <1>   0.3430 
 20 C       -6.4980     4.0310     0.1240 C.ar  1 <1>  -0.1500 
 21 N       -5.0600     0.1760    -0.8830 N.4   1 <1>  -0.9060 
 22 H      -10.7990     1.9570    -0.4210 H     1 <1>   0.0800 
 23 H      -10.2230     1.9700    -2.0700 H     1 <1>   0.0800 
 24 H       -7.9250    -1.1850    -1.4670 H     1 <1>   0.0800 
 25 H       -8.2410    -2.8540    -1.1490 H     1 <1>   0.0800 
 26 H      -10.3720    -2.7540     1.4540 H     1 <1>   0.0800 
 27 H       -9.2110    -1.7690     2.2950 H     1 <1>   0.0800 
 28 H       -8.6890    -4.2820     0.7240 H     1 <1>   0.0800 
 29 H       -8.4470    -4.0560     2.4190 H     1 <1>   0.0800 
 30 H       -8.0390     2.8770    -2.6430 H     1 <1>   0.1500 
 31 H       -9.1630     2.4490     1.4540 H     1 <1>   0.1500 
 32 H       -5.7070    -3.1330    -1.3450 H     1 <1>   0.0800 
 33 H       -4.6550    -2.4620    -0.1450 H     1 <1>   0.0800 
 34 H       -5.6030    -0.7930     1.5720 H     1 <1>   0.0800 
 35 H       -7.2870    -0.4320     1.5830 H     1 <1>   0.0800 
 36 H       -6.4440    -2.9010     2.1300 H     1 <1>   0.0800 
 37 H       -6.3960    -4.0460     0.8410 H     1 <1>   0.0800 
 38 H       -6.0710     4.1790    -1.9640 H     1 <1>   0.1500 
 39 H       -7.1940     3.7490     2.1270 H     1 <1>   0.1500 
 40 H       -6.0390    -0.9530    -2.3720 H     1 <1>   0.0800 
 41 H       -4.3300    -1.2770    -2.2360 H     1 <1>   0.0800 
 42 H       -6.0410     1.3860     0.5530 H     1 <1>   0.0800 
 43 H       -7.1060     0.6490    -0.6160 H     1 <1>   0.0800 
 44 H       -5.6410     4.6120     0.4220 H     1 <1>   0.1500 
 45 H       -4.9020     0.9740    -1.5110 H     1 <1>   0.4500 
 46 H       -4.2280     0.0920    -0.2880 H     1 <1>   0.4500 
@<TRIPOS>BOND
  1   1   2  2   
  2   2   3  1   
  3   2   4  am  
  4   3   5  1   
  5   4   6  1   
  6   4   7  1   
  7   5   8  1   
  8   5  22  1   
  9   5  23  1   
 10   6   9  1   
 11   6  24  1   
 12   6  25  1   
 13   7  10  1   
 14   7  26  1   
 15   7  27  1   
 16   8  11  ar  
 17   8  12  ar  
 18   9  13  1   
 19   9  14  1   
 20   9  15  1   
 21  10  15  1   
 22  10  28  1   
 23  10  29  1   
 24  11  16  ar  
 25  11  30  1   
 26  12  17  ar  
 27  12  31  1   
 28  13  18  1   
 29  13  32  1   
 30  13  33  1   
 31  14  19  1   
 32  14  34  1   
 33  14  35  1   
 34  15  36  1   
 35  15  37  1   
 36  16  20  ar  
 37  16  38  1   
 38  17  20  ar  
 39  17  39  1   
 40  18  21  1   
 41  18  40  1   
 42  18  41  1   
 43  19  21  1   
 44  19  42  1   
 45  19  43  1   
 46  20  44  1   
 47  21  45  1   
 48  21  46  1   
@<TRIPOS>SUBSTRUCTURE
  1 ****  19 GROUP 4 **** **** 0

# MOE 2024.06 (io_trps.svl 2023.06)
