@<TRIPOS>MOLECULE
NONAME
41 43 1 0 0 
SMALL
USER_CHARGES


@<TRIPOS>ATOM
  1 O       -0.4370     0.4220     0.5310 O.2   1 <1>  -0.5700 
  2 C       -1.4050     0.9560     0.0140 C.2   1 <1>   0.7160 
  3 N       -2.5430     0.1870    -0.1290 N.am  1 <1>  -0.6600 
  4 C       -1.3150     2.3490    -0.4230 C.2   1 <1>   0.1410 
  5 C       -3.8670     0.6550    -0.6100 C.3   1 <1>   0.1400 
  6 C       -2.6430    -1.2110     0.3420 C.3   1 <1>   0.1400 
  7 N       -2.1120     2.9270    -1.3810 N.2   1 <1>  -0.5650 
  8 C       -0.4520     3.3090    -0.0010 C.2   1 <1>  -0.0400 
  9 C       -4.8500    -0.4810    -0.2960 C.3   1 <1>   0.2000 
 10 C       -3.9590    -1.7270    -0.2440 C.3   1 <1>  -0.0800 
 11 C       -1.6810     4.1300    -1.4590 C.2   1 <1>   0.3280 
 12 O       -0.6910     4.4070    -0.6520 O.3   1 <1>  -0.2800 
 13 C        0.6640     3.3270     1.0280 C.3   1 <1>  -0.0600 
 14 O       -5.4240    -0.2870     0.9660 O.3   1 <1>  -0.5600 
 15 C       -4.5580    -2.9110     0.5380 C.3   1 <1>   0.0200 
 16 C       -6.5360     0.5520     0.9910 C.3   1 <1>   0.0400 
 17 C       -3.7320    -4.1820     0.4220 C.2   1 <1>  -0.0400 
 18 O       -4.0900    -5.2270     1.1200 O.3   1 <1>  -0.0190 
 19 C       -2.6400    -4.5180    -0.2840 C.2   1 <1>  -0.1500 
 20 N       -3.2970    -6.2410     0.9220 N.2   1 <1>  -0.4100 
 21 C       -2.4130    -5.8420     0.0810 C.2   1 <1>   0.1080 
 22 C       -1.2820    -6.7020    -0.4360 C.3   1 <1>  -0.0590 
 23 H       -4.1500     1.5750    -0.1310 H     1 <1>   0.0800 
 24 H       -3.8120     0.8040    -1.6740 H     1 <1>   0.0800 
 25 H       -1.7960    -1.7880     0.0120 H     1 <1>   0.0800 
 26 H       -2.6800    -1.2120     1.4180 H     1 <1>   0.0800 
 27 H       -5.6310    -0.5730    -1.0320 H     1 <1>   0.0800 
 28 H       -3.7720    -2.0370    -1.2560 H     1 <1>   0.0800 
 29 H       -2.0500     4.9070    -2.1070 H     1 <1>   0.1500 
 30 H        0.7300     2.3920     1.5520 H     1 <1>   0.0800 
 31 H        0.4830     4.1080     1.7450 H     1 <1>   0.0800 
 32 H        1.6030     3.5150     0.5400 H     1 <1>   0.0800 
 33 H       -5.5470    -3.1160     0.1700 H     1 <1>   0.0800 
 34 H       -4.6450    -2.6530     1.5790 H     1 <1>   0.0800 
 35 H       -6.8760     0.6230     2.0100 H     1 <1>   0.0800 
 36 H       -7.3140     0.1300     0.3800 H     1 <1>   0.0800 
 37 H       -6.2620     1.5300     0.6360 H     1 <1>   0.0800 
 38 H       -2.0510    -3.9450    -0.9740 H     1 <1>   0.1500 
 39 H       -1.3490    -6.7900    -1.5040 H     1 <1>   0.0800 
 40 H       -1.3400    -7.6840    -0.0010 H     1 <1>   0.0800 
 41 H       -0.3390    -6.2600    -0.1730 H     1 <1>   0.0800 
@<TRIPOS>BOND
  1   1   2  2   
  2   2   3  am  
  3   2   4  1   
  4   3   5  1   
  5   3   6  1   
  6   4   7  1   
  7   4   8  2   
  8   5   9  1   
  9   5  23  1   
 10   5  24  1   
 11   6  10  1   
 12   6  25  1   
 13   6  26  1   
 14   7  11  2   
 15   8  12  1   
 16   8  13  1   
 17   9  10  1   
 18   9  14  1   
 19   9  27  1   
 20  10  15  1   
 21  10  28  1   
 22  11  12  1   
 23  11  29  1   
 24  13  30  1   
 25  13  31  1   
 26  13  32  1   
 27  14  16  1   
 28  15  17  1   
 29  15  33  1   
 30  15  34  1   
 31  16  35  1   
 32  16  36  1   
 33  16  37  1   
 34  17  18  1   
 35  17  19  2   
 36  18  20  1   
 37  19  21  1   
 38  19  38  1   
 39  20  21  2   
 40  21  22  1   
 41  22  39  1   
 42  22  40  1   
 43  22  41  1   
@<TRIPOS>SUBSTRUCTURE
  1 ****   6 GROUP 4 **** **** 0

# MOE 2024.06 (io_trps.svl 2023.06)
