@<TRIPOS>MOLECULE
NONAME
56 59 1 0 0 
SMALL
USER_CHARGES


@<TRIPOS>ATOM
  1 O       -0.8680     0.4460     1.2400 O.2   1 <1>  -0.5700 
  2 C       -1.8070     1.0940     0.8050 C.2   1 <1>   0.5440 
  3 N       -1.7110     2.4790     0.8610 N.am  1 <1>  -0.6600 
  4 C       -2.9510     0.3730     0.2330 C.ar  1 <1>   0.3960 
  5 C       -0.7110     3.1560     1.7310 C.3   1 <1>   0.1400 
  6 C       -2.6030     3.4010     0.1050 C.3   1 <1>   0.1400 
  7 N       -4.2120     0.7810     0.4760 N.ar  1 <1>  -0.6200 
  8 C       -2.7000    -0.7520    -0.5560 C.ar  1 <1>  -0.1500 
  9 C        0.1500     4.1010     0.8900 C.3   1 <1>  -0.1600 
 10 C       -1.7620     4.3700    -0.7300 C.3   1 <1>  -0.1600 
 11 C       -5.1880     0.0750    -0.0630 C.ar  1 <1>   0.1600 
 12 C       -3.7270    -1.4780    -1.1170 C.ar  1 <1>  -0.1500 
 13 C       -0.7170     5.1160     0.1220 C.3   1 <1>  -0.0190 
 14 C       -5.0070    -1.0430    -0.8560 C.ar  1 <1>  -0.1500 
 15 C        0.1320     6.0470    -0.7410 C.2   1 <1>   0.5690 
 16 O        0.7810     5.6130    -1.6650 O.2   1 <1>  -0.5700 
 17 N        0.2170     7.3740    -0.4380 N.am  1 <1>  -0.6600 
 18 C        1.1020     7.7580     0.7180 C.3   1 <1>   0.2200 
 19 C        0.0330     8.3590    -1.5520 C.3   1 <1>   0.1400 
 20 C        0.8260     9.1740     1.2500 C.3   1 <1>   0.1200 
 21 C        2.6010     7.5910     0.3450 C.3   1 <1>   0.3430 
 22 C        1.1630     9.3950    -1.7120 C.3   1 <1>  -0.0800 
 23 O        1.5850    10.1170     0.5550 O.3   1 <1>  -0.5600 
 24 N        2.8380     7.5330    -1.1410 N.4   1 <1>  -0.9590 
 25 C        1.0720    10.5200    -0.6700 C.3   1 <1>   0.1200 
 26 C        2.5940     8.8300    -1.8460 C.3   1 <1>   0.3430 
 27 C        4.1800     6.9740    -1.4660 C.3   1 <1>   0.2630 
 28 H       -1.2330     3.7080     2.4930 H     1 <1>   0.0800 
 29 H       -0.0790     2.4360     2.2230 H     1 <1>   0.0800 
 30 H       -3.2500     2.8540    -0.5580 H     1 <1>   0.0800 
 31 H       -3.2190     3.9420     0.8020 H     1 <1>   0.0800 
 32 H       -1.6800    -1.0510    -0.7200 H     1 <1>   0.1500 
 33 H        0.8380     4.6130     1.5360 H     1 <1>   0.0800 
 34 H        0.7260     3.5110     0.1960 H     1 <1>   0.0800 
 35 H       -1.2660     3.8100    -1.5050 H     1 <1>   0.0800 
 36 H       -2.4140     5.0790    -1.2090 H     1 <1>   0.0800 
 37 H       -6.1950     0.4030     0.1380 H     1 <1>   0.1500 
 38 H       -3.5380    -2.3450    -1.7260 H     1 <1>   0.1500 
 39 H       -1.2480     5.7170     0.8380 H     1 <1>   0.0800 
 40 H       -5.8560    -1.5640    -1.2600 H     1 <1>   0.1500 
 41 H        0.8880     7.0870     1.5320 H     1 <1>   0.0800 
 42 H       -0.0710     7.8210    -2.4810 H     1 <1>   0.0800 
 43 H       -0.8980     8.8750    -1.3930 H     1 <1>   0.0800 
 44 H        1.1400     9.2320     2.2780 H     1 <1>   0.0800 
 45 H       -0.2200     9.4270     1.2040 H     1 <1>   0.0800 
 46 H        2.9480     6.6730     0.7880 H     1 <1>   0.0800 
 47 H        3.1730     8.3940     0.7820 H     1 <1>   0.0800 
 48 H        0.9610     9.8890    -2.6460 H     1 <1>   0.0800 
 49 H        2.1150     6.8660    -1.4980 H     1 <1>   0.4500 
 50 H        0.0580    10.8590    -0.5320 H     1 <1>   0.0800 
 51 H        1.6610    11.3630    -0.9900 H     1 <1>   0.0800 
 52 H        3.2930     9.5700    -1.4910 H     1 <1>   0.0800 
 53 H        2.7890     8.6800    -2.8960 H     1 <1>   0.0800 
 54 H        4.9560     7.6250    -1.1000 H     1 <1>   0.0800 
 55 H        4.2890     6.8670    -2.5340 H     1 <1>   0.0800 
 56 H        4.2970     6.0020    -1.0150 H     1 <1>   0.0800 
@<TRIPOS>BOND
  1   1   2  2   
  2   2   3  am  
  3   2   4  1   
  4   3   5  1   
  5   3   6  1   
  6   4   7  ar  
  7   4   8  ar  
  8   5   9  1   
  9   5  28  1   
 10   5  29  1   
 11   6  10  1   
 12   6  30  1   
 13   6  31  1   
 14   7  11  ar  
 15   8  12  ar  
 16   8  32  1   
 17   9  13  1   
 18   9  33  1   
 19   9  34  1   
 20  10  13  1   
 21  10  35  1   
 22  10  36  1   
 23  11  14  ar  
 24  11  37  1   
 25  12  14  ar  
 26  12  38  1   
 27  13  15  1   
 28  13  39  1   
 29  14  40  1   
 30  15  16  2   
 31  15  17  am  
 32  17  18  1   
 33  17  19  1   
 34  18  20  1   
 35  18  21  1   
 36  18  41  1   
 37  19  22  1   
 38  19  42  1   
 39  19  43  1   
 40  20  23  1   
 41  20  44  1   
 42  20  45  1   
 43  21  24  1   
 44  21  46  1   
 45  21  47  1   
 46  22  25  1   
 47  22  26  1   
 48  22  48  1   
 49  23  25  1   
 50  24  26  1   
 51  24  27  1   
 52  24  49  1   
 53  25  50  1   
 54  25  51  1   
 55  26  52  1   
 56  26  53  1   
 57  27  54  1   
 58  27  55  1   
 59  27  56  1   
@<TRIPOS>SUBSTRUCTURE
  1 ****  13 GROUP 4 **** **** 0

# MOE 2024.06 (io_trps.svl 2023.06)
