@<TRIPOS>MOLECULE
NONAME
49 52 1 0 0 
SMALL
USER_CHARGES


@<TRIPOS>ATOM
  1 O       -0.4640    -0.7980     0.2070 O.3   1 <1>  -0.3630 
  2 C       -0.3850    -2.1370     0.3190 C.ar  1 <1>   0.7020 
  3 C        0.6760     0.0330     0.3050 C.3   1 <1>   0.0400 
  4 N        0.8130    -2.6700     0.5210 N.ar  1 <1>  -0.6200 
  5 N       -1.5440    -2.7560     0.2060 N.ar  1 <1>  -0.6200 
  6 C        0.8120    -3.9840     0.6260 C.ar  1 <1>   0.3930 
  7 C       -1.5170    -4.0680     0.3070 C.ar  1 <1>   0.4100 
  8 O        1.9760    -4.6320     0.8380 O.3   1 <1>  -0.3630 
  9 C       -0.3290    -4.7300     0.5270 C.ar  1 <1>  -0.1500 
 10 N       -2.7210    -4.7420     0.1900 N.pl3 1 <1>  -0.8380 
 11 C        3.1940    -3.9240     0.9650 C.3   1 <1>   0.0400 
 12 C       -3.9910    -4.0310    -0.1350 C.3   1 <1>   0.2090 
 13 C       -2.8190    -6.1680    -0.1980 C.3   1 <1>   0.2090 
 14 C       -4.9130    -5.0910    -0.7430 C.3   1 <1>   0.2000 
 15 C       -4.3140    -6.4400    -0.3500 C.3   1 <1>  -0.0800 
 16 O       -6.2090    -4.9980    -0.2520 O.3   1 <1>  -0.6800 
 17 C       -4.6390    -7.5540    -1.3600 C.3   1 <1>  -0.0170 
 18 C       -3.9630    -8.8660    -0.9770 C.ar  1 <1>  -0.1430 
 19 C       -4.4420    -9.6900     0.0700 C.ar  1 <1>   0.0000 
 20 C       -2.8470    -9.2810    -1.6440 C.ar  1 <1>  -0.1500 
 21 C       -3.7130   -10.8680     0.3660 C.ar  1 <1>   0.3100 
 22 C       -5.6000    -9.4180     0.8350 C.ar  1 <1>  -0.1500 
 23 C       -2.2080   -10.4720    -1.2790 C.ar  1 <1>   0.1600 
 24 N       -2.6020   -11.2430    -0.3160 N.ar  1 <1>  -0.6200 
 25 C       -4.1540   -11.6950     1.4110 C.ar  1 <1>  -0.1500 
 26 C       -6.0040   -10.2470     1.8460 C.ar  1 <1>  -0.1500 
 27 C       -5.2720   -11.3990     2.1420 C.ar  1 <1>  -0.1500 
 28 H        0.3610     1.0530     0.1860 H     1 <1>   0.0800 
 29 H        1.3700    -0.2340    -0.4730 H     1 <1>   0.0800 
 30 H        1.1240    -0.1050     1.2740 H     1 <1>   0.0800 
 31 H       -0.2840    -5.7930     0.6280 H     1 <1>   0.1500 
 32 H        3.9830    -4.6340     1.1310 H     1 <1>   0.0800 
 33 H        3.1190    -3.2510     1.8010 H     1 <1>   0.0800 
 34 H        3.3740    -3.3750     0.0570 H     1 <1>   0.0800 
 35 H       -4.4040    -3.6200     0.7690 H     1 <1>   0.0800 
 36 H       -3.8150    -3.2420    -0.8460 H     1 <1>   0.0800 
 37 H       -2.3050    -6.3140    -1.1330 H     1 <1>   0.0800 
 38 H       -2.3900    -6.8050     0.5560 H     1 <1>   0.0800 
 39 H       -4.9460    -4.9700    -1.8120 H     1 <1>   0.0800 
 40 H       -4.6740    -6.7150     0.6250 H     1 <1>   0.0800 
 41 H       -6.1960    -5.0160     0.7250 H     1 <1>   0.4000 
 42 H       -4.3080    -7.2520    -2.3380 H     1 <1>   0.0800 
 43 H       -5.7040    -7.6940    -1.4240 H     1 <1>   0.0800 
 44 H       -2.4300    -8.7140    -2.4560 H     1 <1>   0.1500 
 45 H       -6.1840    -8.5430     0.6200 H     1 <1>   0.1500 
 46 H       -1.3310   -10.7630    -1.8320 H     1 <1>   0.1500 
 47 H       -3.5780   -12.5780     1.6180 H     1 <1>   0.1500 
 48 H       -6.8870   -10.0280     2.4220 H     1 <1>   0.1500 
 49 H       -5.5980   -12.0430     2.9410 H     1 <1>   0.1500 
@<TRIPOS>BOND
  1   1   2  1   
  2   1   3  1   
  3   2   4  ar  
  4   2   5  ar  
  5   3  28  1   
  6   3  29  1   
  7   3  30  1   
  8   4   6  ar  
  9   5   7  ar  
 10   6   8  1   
 11   6   9  ar  
 12   7   9  ar  
 13   7  10  1   
 14   8  11  1   
 15   9  31  1   
 16  10  12  1   
 17  10  13  1   
 18  11  32  1   
 19  11  33  1   
 20  11  34  1   
 21  12  14  1   
 22  12  35  1   
 23  12  36  1   
 24  13  15  1   
 25  13  37  1   
 26  13  38  1   
 27  14  15  1   
 28  14  16  1   
 29  14  39  1   
 30  15  17  1   
 31  15  40  1   
 32  16  41  1   
 33  17  18  1   
 34  17  42  1   
 35  17  43  1   
 36  18  19  ar  
 37  18  20  ar  
 38  19  21  ar  
 39  19  22  ar  
 40  20  23  ar  
 41  20  44  1   
 42  21  24  ar  
 43  21  25  ar  
 44  22  26  ar  
 45  22  45  1   
 46  23  24  ar  
 47  23  46  1   
 48  25  27  ar  
 49  25  47  1   
 50  26  27  ar  
 51  26  48  1   
 52  27  49  1   
@<TRIPOS>SUBSTRUCTURE
  1 ****  13 GROUP 4 **** **** 0

# MOE 2024.06 (io_trps.svl 2023.06)
