@<TRIPOS>MOLECULE
NONAME
48 51 1 0 0 
SMALL
USER_CHARGES


@<TRIPOS>ATOM
  1 S       -1.1870     0.8050     1.8210 S.3   1 <1>  -0.0800 
  2 C       -1.3520     1.7660     0.3590 C.2   1 <1>  -0.1400 
  3 C       -2.8930     0.3780     1.7710 C.2   1 <1>  -0.1100 
  4 C       -2.6160     1.7440    -0.0820 C.2   1 <1>  -0.1810 
  5 C       -0.1820     2.5080    -0.2780 C.3   1 <1>   0.4600 
  6 C       -3.5010     0.9490     0.7130 C.2   1 <1>  -0.1500 
  7 C       -2.9860     2.5220    -1.3240 C.3   1 <1>   0.0210 
  8 O       -0.6120     3.0460    -1.5150 O.3   1 <1>  -0.5600 
  9 C        0.9670     1.5480    -0.6030 C.3   1 <1>  -0.1600 
 10 C        0.3150     3.6500     0.6200 C.3   1 <1>  -0.1600 
 11 C       -1.9080     3.5920    -1.5880 C.3   1 <1>   0.1200 
 12 C        2.1650     2.2860    -1.2020 C.3   1 <1>   0.1400 
 13 C        1.5170     4.3660     0.0040 C.3   1 <1>   0.1400 
 14 N        2.5920     3.3720    -0.2750 N.am  1 <1>  -0.6600 
 15 C        3.8880     3.4540     0.1800 C.2   1 <1>   0.5690 
 16 O        4.7260     2.6440    -0.1460 O.2   1 <1>  -0.5700 
 17 C        4.3370     4.5590     1.1310 C.3   1 <1>   0.0440 
 18 C        4.3550     5.9450     0.4910 C.ar  1 <1>  -0.1440 
 19 C        3.7770     7.0250     1.1390 C.ar  1 <1>  -0.1500 
 20 C        4.9510     6.1390    -0.7460 C.ar  1 <1>  -0.1500 
 21 C        3.7800     8.2850     0.5630 C.ar  1 <1>   0.0820 
 22 C        4.9620     7.3940    -1.3290 C.ar  1 <1>  -0.1500 
 23 O        3.1840     9.2790     1.2680 O.3   1 <1>  -0.3620 
 24 C        4.3780     8.4680    -0.6810 C.ar  1 <1>  -0.1500 
 25 C        3.1760    10.6070     0.7960 C.3   1 <1>   0.0400 
 26 H       -3.2630    -0.2640     2.5490 H     1 <1>   0.1500 
 27 H       -4.5410     0.8450     0.4570 H     1 <1>   0.1500 
 28 H       -3.9390     3.0020    -1.1910 H     1 <1>   0.0800 
 29 H       -3.0530     1.8560    -2.1650 H     1 <1>   0.0800 
 30 H        0.6180     0.7970    -1.2880 H     1 <1>   0.0800 
 31 H        1.2890     1.0490     0.2920 H     1 <1>   0.0800 
 32 H        0.6090     3.2460     1.5710 H     1 <1>   0.0800 
 33 H       -0.4780     4.3490     0.8030 H     1 <1>   0.0800 
 34 H       -1.9850     4.3860    -0.8660 H     1 <1>   0.0800 
 35 H       -2.0330     4.0090    -2.5710 H     1 <1>   0.0800 
 36 H        1.8960     2.7190    -2.1510 H     1 <1>   0.0800 
 37 H        2.9680     1.5880    -1.3720 H     1 <1>   0.0800 
 38 H        1.8520     5.1330     0.6760 H     1 <1>   0.0800 
 39 H        1.2310     4.8390    -0.9210 H     1 <1>   0.0800 
 40 H        5.3290     4.3310     1.4730 H     1 <1>   0.0800 
 41 H        3.6940     4.5470     1.9900 H     1 <1>   0.0800 
 42 H        3.3160     6.9070     2.1020 H     1 <1>   0.1500 
 43 H        5.4090     5.3100    -1.2620 H     1 <1>   0.1500 
 44 H        5.4260     7.5320    -2.2900 H     1 <1>   0.1500 
 45 H        4.3990     9.4300    -1.1560 H     1 <1>   0.1500 
 46 H        2.6710    11.2170     1.5230 H     1 <1>   0.0800 
 47 H        2.6490    10.6420    -0.1410 H     1 <1>   0.0800 
 48 H        4.1920    10.9420     0.6800 H     1 <1>   0.0800 
@<TRIPOS>BOND
  1   1   2  1   
  2   1   3  1   
  3   2   4  2   
  4   2   5  1   
  5   3   6  2   
  6   3  26  1   
  7   4   6  1   
  8   4   7  1   
  9   5   8  1   
 10   5   9  1   
 11   5  10  1   
 12   6  27  1   
 13   7  11  1   
 14   7  28  1   
 15   7  29  1   
 16   8  11  1   
 17   9  12  1   
 18   9  30  1   
 19   9  31  1   
 20  10  13  1   
 21  10  32  1   
 22  10  33  1   
 23  11  34  1   
 24  11  35  1   
 25  12  14  1   
 26  12  36  1   
 27  12  37  1   
 28  13  14  1   
 29  13  38  1   
 30  13  39  1   
 31  14  15  am  
 32  15  16  2   
 33  15  17  1   
 34  17  18  1   
 35  17  40  1   
 36  17  41  1   
 37  18  19  ar  
 38  18  20  ar  
 39  19  21  ar  
 40  19  42  1   
 41  20  22  ar  
 42  20  43  1   
 43  21  23  1   
 44  21  24  ar  
 45  22  24  ar  
 46  22  44  1   
 47  23  25  1   
 48  24  45  1   
 49  25  46  1   
 50  25  47  1   
 51  25  48  1   
@<TRIPOS>SUBSTRUCTURE
  1 ****  13 GROUP 4 **** **** 0

# MOE 2024.06 (io_trps.svl 2023.06)
