@<TRIPOS>MOLECULE
NONAME
54 56 1 0 0 
SMALL
USER_CHARGES


@<TRIPOS>ATOM
  1 O        0.6320    -1.3970    -2.0210 O.3   1 <1>  -0.6800 
  2 C        0.0610    -1.7500    -0.8060 C.3   1 <1>   0.1200 
  3 C        1.1010    -1.7160     0.3520 C.3   1 <1>   0.0000 
  4 C        2.4340    -2.4500     0.0240 C.3   1 <1>   0.4230 
  5 C        1.4170    -0.2390     0.7130 C.3   1 <1>  -0.1600 
  6 C        0.4620    -2.3930     1.5980 C.3   1 <1>  -0.1600 
  7 N        2.2440    -3.9310    -0.3110 N.4   1 <1>  -0.9590 
  8 C        3.3330    -1.6450    -0.9710 C.3   1 <1>   0.3430 
  9 C        2.2280     0.5060    -0.3510 C.3   1 <1>   0.3430 
 10 C        0.8570    -3.8740     1.7740 C.3   1 <1>  -0.1600 
 11 C        1.1170    -4.5830     0.4440 C.3   1 <1>   0.3430 
 12 C        2.0830    -4.2370    -1.7740 C.3   1 <1>   0.2630 
 13 N        3.5260    -0.1990    -0.5860 N.4   1 <1>  -0.9590 
 14 C        4.3290     0.5390    -1.6050 C.3   1 <1>   0.4860 
 15 C        4.7150     1.8770    -1.0070 C.ar  1 <1>  -0.1430 
 16 C        5.6960     2.0090    -0.0220 C.ar  1 <1>  -0.1430 
 17 C        4.0350     2.9970    -1.4640 C.ar  1 <1>  -0.1500 
 18 C        5.9530     3.2690     0.5170 C.ar  1 <1>  -0.1430 
 19 C        6.5140     0.8170     0.4820 C.3   1 <1>  -0.0970 
 20 C        4.3030     4.2420    -0.9340 C.ar  1 <1>  -0.1500 
 21 C        5.2540     4.3730     0.0560 C.ar  1 <1>  -0.1500 
 22 C        6.9950     3.4930     1.6070 C.3   1 <1>  -0.0970 
 23 H       -0.0710    -1.2600    -2.6990 H     1 <1>   0.4000 
 24 H       -0.7450    -1.0620    -0.6060 H     1 <1>   0.0800 
 25 H       -0.3680    -2.7300    -0.9230 H     1 <1>   0.0800 
 26 H        2.9820    -2.4360     0.9510 H     1 <1>   0.0800 
 27 H        1.9660    -0.1840     1.6390 H     1 <1>   0.0800 
 28 H        0.4970     0.2980     0.8720 H     1 <1>   0.0800 
 29 H        0.7440    -1.8810     2.5040 H     1 <1>   0.0800 
 30 H       -0.6120    -2.3180     1.5430 H     1 <1>   0.0800 
 31 H        3.0950    -4.4210     0.0050 H     1 <1>   0.4500 
 32 H        2.8810    -1.6790    -1.9470 H     1 <1>   0.0800 
 33 H        4.2960    -2.1230    -1.0320 H     1 <1>   0.0800 
 34 H        2.4140     1.5150    -0.0140 H     1 <1>   0.0800 
 35 H        1.6650     0.5610    -1.2690 H     1 <1>   0.0800 
 36 H        0.0680    -4.3880     2.2970 H     1 <1>   0.0800 
 37 H        1.7370    -3.9530     2.3900 H     1 <1>   0.0800 
 38 H        0.2140    -4.5470    -0.1430 H     1 <1>   0.0800 
 39 H        1.3480    -5.6220     0.6240 H     1 <1>   0.0800 
 40 H        1.2050    -3.7510    -2.1690 H     1 <1>   0.0800 
 41 H        1.9760    -5.3010    -1.9230 H     1 <1>   0.0800 
 42 H        2.9410    -3.9050    -2.3330 H     1 <1>   0.0800 
 43 H        4.0720    -0.1020     0.2820 H     1 <1>   0.4500 
 44 H        5.2230    -0.0080    -1.8580 H     1 <1>   0.0800 
 45 H        3.7540     0.6870    -2.5040 H     1 <1>   0.0800 
 46 H        3.2900     2.9230    -2.2380 H     1 <1>   0.1500 
 47 H        7.5600     1.0680     0.4780 H     1 <1>   0.0800 
 48 H        6.4080    -0.0590    -0.1260 H     1 <1>   0.0800 
 49 H        6.2320     0.5780     1.4920 H     1 <1>   0.0800 
 50 H        3.7760     5.1120    -1.2880 H     1 <1>   0.1500 
 51 H        5.4510     5.3500     0.4630 H     1 <1>   0.1500 
 52 H        6.9470     4.4990     1.9870 H     1 <1>   0.0800 
 53 H        7.9820     3.3340     1.2130 H     1 <1>   0.0800 
 54 H        6.8300     2.8230     2.4310 H     1 <1>   0.0800 
@<TRIPOS>BOND
  1   1   2  1   
  2   1  23  1   
  3   2   3  1   
  4   2  24  1   
  5   2  25  1   
  6   3   4  1   
  7   3   5  1   
  8   3   6  1   
  9   4   7  1   
 10   4   8  1   
 11   4  26  1   
 12   5   9  1   
 13   5  27  1   
 14   5  28  1   
 15   6  10  1   
 16   6  29  1   
 17   6  30  1   
 18   7  11  1   
 19   7  12  1   
 20   7  31  1   
 21   8  13  1   
 22   8  32  1   
 23   8  33  1   
 24   9  13  1   
 25   9  34  1   
 26   9  35  1   
 27  10  11  1   
 28  10  36  1   
 29  10  37  1   
 30  11  38  1   
 31  11  39  1   
 32  12  40  1   
 33  12  41  1   
 34  12  42  1   
 35  13  14  1   
 36  13  43  1   
 37  14  15  1   
 38  14  44  1   
 39  14  45  1   
 40  15  16  ar  
 41  15  17  ar  
 42  16  18  ar  
 43  16  19  1   
 44  17  20  ar  
 45  17  46  1   
 46  18  21  ar  
 47  18  22  1   
 48  19  47  1   
 49  19  48  1   
 50  19  49  1   
 51  20  21  ar  
 52  20  50  1   
 53  21  51  1   
 54  22  52  1   
 55  22  53  1   
 56  22  54  1   
@<TRIPOS>SUBSTRUCTURE
  1 ****  13 GROUP 4 **** **** 0

# MOE 2024.06 (io_trps.svl 2023.06)
