@<TRIPOS>MOLECULE
NONAME
45 47 1 0 0 
SMALL
USER_CHARGES


@<TRIPOS>ATOM
  1 O        1.3490    -0.6910    -1.5070 O.3   1 <1>  -0.6800 
  2 C        1.1790    -0.5450    -0.1440 C.3   1 <1>   0.2800 
  3 C        2.3310     0.3340     0.4120 C.3   1 <1>  -0.0800 
  4 C        1.2410    -1.9490     0.4830 C.3   1 <1>  -0.1600 
  5 C       -0.2190     0.0710     0.0810 C.3   1 <1>  -0.1600 
  6 C        3.6110    -0.4270     0.8200 C.3   1 <1>  -0.0800 
  7 C        2.8230     1.3920    -0.5690 C.3   1 <1>   0.3430 
  8 C        2.5760    -2.6890     0.2530 C.3   1 <1>  -0.1600 
  9 C       -0.4630     1.4530    -0.5500 C.3   1 <1>  -0.2400 
 10 C        3.7760    -1.7490     0.0520 C.3   1 <1>  -0.1600 
 11 C        4.7760     0.5220     0.5220 C.3   1 <1>   0.3430 
 12 N        4.1800     1.7330    -0.0930 N.4   1 <1>  -0.9590 
 13 C        5.0570     2.3750    -1.1010 C.3   1 <1>   0.5240 
 14 C        6.1840     3.0590    -0.3390 C.2   1 <1>   0.0460 
 15 N        5.9020     3.7230     0.8040 N.2   1 <1>  -0.5650 
 16 C        7.5090     3.1100    -0.6140 C.2   1 <1>  -0.3320 
 17 C        7.0520     4.1730     1.1920 C.2   1 <1>   0.0360 
 18 N        8.0700     3.8350     0.3740 N.pl3 1 <1>   0.0330 
 19 C        8.3220     2.5290    -1.7600 C.3   1 <1>  -0.0600 
 20 H        0.6800    -1.3170    -1.8480 H     1 <1>   0.4000 
 21 H        1.9720     0.8410     1.2900 H     1 <1>   0.0800 
 22 H        1.1010    -1.8400     1.5440 H     1 <1>   0.0800 
 23 H        0.4280    -2.5570     0.1280 H     1 <1>   0.0800 
 24 H       -0.9610    -0.6100    -0.3010 H     1 <1>   0.0800 
 25 H       -0.3960     0.1500     1.1400 H     1 <1>   0.0800 
 26 H        3.5890    -0.6460     1.8740 H     1 <1>   0.0800 
 27 H        2.1780     2.2540    -0.5910 H     1 <1>   0.0800 
 28 H        2.8850     0.9670    -1.5580 H     1 <1>   0.0800 
 29 H        2.7590    -3.3350     1.0950 H     1 <1>   0.0800 
 30 H        2.4890    -3.3190    -0.6160 H     1 <1>   0.0800 
 31 H       -0.2410     1.4420    -1.6020 H     1 <1>   0.0800 
 32 H        0.1280     2.2100    -0.0680 H     1 <1>   0.0800 
 33 H       -1.4980     1.7240    -0.4320 H     1 <1>   0.0800 
 34 H        3.8690    -1.5370    -1.0000 H     1 <1>   0.0800 
 35 H        4.6760    -2.2540     0.3600 H     1 <1>   0.0800 
 36 H        5.4620     0.0520    -0.1630 H     1 <1>   0.0800 
 37 H        5.3060     0.7840     1.4240 H     1 <1>   0.0800 
 38 H        4.1340     2.4490     0.6540 H     1 <1>   0.4500 
 39 H        5.4470     1.6500    -1.7950 H     1 <1>   0.0800 
 40 H        4.5050     3.1250    -1.6420 H     1 <1>   0.0800 
 41 H        7.2060     4.7650     2.0790 H     1 <1>   0.1500 
 42 H        9.0580     4.0890     0.4860 H     1 <1>   0.2700 
 43 H        7.6940     1.9880    -2.4440 H     1 <1>   0.0800 
 44 H        9.0710     1.8550    -1.3800 H     1 <1>   0.0800 
 45 H        8.8130     3.3180    -2.3020 H     1 <1>   0.0800 
@<TRIPOS>BOND
  1   1   2  1   
  2   1  20  1   
  3   2   3  1   
  4   2   4  1   
  5   2   5  1   
  6   3   6  1   
  7   3   7  1   
  8   3  21  1   
  9   4   8  1   
 10   4  22  1   
 11   4  23  1   
 12   5   9  1   
 13   5  24  1   
 14   5  25  1   
 15   6  10  1   
 16   6  11  1   
 17   6  26  1   
 18   7  12  1   
 19   7  27  1   
 20   7  28  1   
 21   8  10  1   
 22   8  29  1   
 23   8  30  1   
 24   9  31  1   
 25   9  32  1   
 26   9  33  1   
 27  10  34  1   
 28  10  35  1   
 29  11  12  1   
 30  11  36  1   
 31  11  37  1   
 32  12  13  1   
 33  12  38  1   
 34  13  14  1   
 35  13  39  1   
 36  13  40  1   
 37  14  15  1   
 38  14  16  2   
 39  15  17  2   
 40  16  18  1   
 41  16  19  1   
 42  17  18  1   
 43  17  41  1   
 44  18  42  1   
 45  19  43  1   
 46  19  44  1   
 47  19  45  1   
@<TRIPOS>SUBSTRUCTURE
  1 ****  12 GROUP 4 **** **** 0

# MOE 2024.06 (io_trps.svl 2023.06)
