@<TRIPOS>MOLECULE
NONAME
54 57 1 0 0 
SMALL
USER_CHARGES


@<TRIPOS>ATOM
  1 S        0.5950    -0.5790     2.1360 S.3   1 <1>  -0.0800 
  2 C        0.7780    -1.4780     0.6410 C.2   1 <1>  -0.1400 
  3 C        1.3370     0.8420     1.4280 C.2   1 <1>  -0.1100 
  4 C        1.3570    -0.7070    -0.3000 C.2   1 <1>  -0.1500 
  5 C        0.2960    -2.9190     0.6460 C.3   1 <1>   0.5230 
  6 C        1.6820     0.6220     0.1420 C.2   1 <1>  -0.1810 
  7 N       -1.1390    -2.9480     1.0480 N.4   1 <1>  -0.9590 
  8 C        2.3710     1.5840    -0.8210 C.3   1 <1>   0.5240 
  9 C       -2.0380    -2.3180     0.0240 C.3   1 <1>   0.3430 
 10 C       -1.6070    -4.3510     1.2500 C.3   1 <1>   0.3430 
 11 N        2.4620     2.9490    -0.2420 N.4   1 <1>  -0.9590 
 12 C       -3.1280    -3.3510    -0.2950 C.3   1 <1>   0.2000 
 13 C       -2.4830    -4.6930     0.0400 C.3   1 <1>  -0.0800 
 14 C        1.1620     3.6640    -0.1840 C.3   1 <1>   0.3430 
 15 C        3.3820     3.8410    -0.9860 C.3   1 <1>   0.3430 
 16 O       -4.2230    -3.1500     0.5370 O.3   1 <1>  -0.6800 
 17 C       -1.6790    -5.2230    -1.1710 C.3   1 <1>  -0.0170 
 18 C        1.5470     5.1290    -0.0270 C.3   1 <1>  -0.1600 
 19 C        2.9840     5.2430    -0.5450 C.3   1 <1>  -0.1600 
 20 C       -0.6600    -6.2830    -0.7880 C.ar  1 <1>   0.1670 
 21 N        0.5140    -5.8350    -0.3610 N.ar  1 <1>  -0.6200 
 22 C       -0.9900    -7.6250    -0.9010 C.ar  1 <1>  -0.1500 
 23 C        1.4000    -6.7730    -0.0510 C.ar  1 <1>   0.1600 
 24 C       -0.0610    -8.5850    -0.5630 C.ar  1 <1>  -0.1500 
 25 C        1.1660    -8.1350    -0.1290 C.ar  1 <1>  -0.1500 
 26 H        1.4350     1.6920     2.0820 H     1 <1>   0.1500 
 27 H        1.5830    -1.0300    -1.3050 H     1 <1>   0.1500 
 28 H        0.8840    -3.4890     1.3470 H     1 <1>   0.0800 
 29 H        0.4220    -3.3570    -0.3310 H     1 <1>   0.0800 
 30 H       -1.2040    -2.4250     1.9320 H     1 <1>   0.4500 
 31 H        1.8260     1.6190    -1.7510 H     1 <1>   0.0800 
 32 H        3.3620     1.2110    -1.0280 H     1 <1>   0.0800 
 33 H       -2.4750    -1.4000     0.3820 H     1 <1>   0.0800 
 34 H       -1.4770    -2.1140    -0.8730 H     1 <1>   0.0800 
 35 H       -0.7880    -5.0400     1.3760 H     1 <1>   0.0800 
 36 H       -2.2160    -4.3950     2.1380 H     1 <1>   0.0800 
 37 H        2.8220     2.8620     0.7160 H     1 <1>   0.4500 
 38 H       -3.4750    -3.2790    -1.3130 H     1 <1>   0.0800 
 39 H       -3.2180    -5.4330     0.3070 H     1 <1>   0.0800 
 40 H        0.6280     3.5320    -1.1110 H     1 <1>   0.0800 
 41 H        0.5480     3.3220     0.6340 H     1 <1>   0.0800 
 42 H        4.4170     3.6320    -0.7610 H     1 <1>   0.0800 
 43 H        3.2170     3.7400    -2.0470 H     1 <1>   0.0800 
 44 H       -4.0390    -3.3240     1.4800 H     1 <1>   0.4000 
 45 H       -1.1520    -4.4260    -1.6640 H     1 <1>   0.0800 
 46 H       -2.3640    -5.6330    -1.8940 H     1 <1>   0.0800 
 47 H        0.8700     5.7570    -0.5810 H     1 <1>   0.0800 
 48 H        1.4980     5.4110     1.0120 H     1 <1>   0.0800 
 49 H        3.6400     5.5800     0.2390 H     1 <1>   0.0800 
 50 H        3.0580     5.9320    -1.3690 H     1 <1>   0.0800 
 51 H       -1.9610    -7.9270    -1.2540 H     1 <1>   0.1500 
 52 H        2.3700    -6.4460     0.2840 H     1 <1>   0.1500 
 53 H       -0.2810    -9.6370    -0.6390 H     1 <1>   0.1500 
 54 H        1.9370    -8.8340     0.1430 H     1 <1>   0.1500 
@<TRIPOS>BOND
  1   1   2  1   
  2   1   3  1   
  3   2   4  2   
  4   2   5  1   
  5   3   6  2   
  6   3  26  1   
  7   4   6  1   
  8   4  27  1   
  9   5   7  1   
 10   5  28  1   
 11   5  29  1   
 12   6   8  1   
 13   7   9  1   
 14   7  10  1   
 15   7  30  1   
 16   8  11  1   
 17   8  31  1   
 18   8  32  1   
 19   9  12  1   
 20   9  33  1   
 21   9  34  1   
 22  10  13  1   
 23  10  35  1   
 24  10  36  1   
 25  11  14  1   
 26  11  15  1   
 27  11  37  1   
 28  12  13  1   
 29  12  16  1   
 30  12  38  1   
 31  13  17  1   
 32  13  39  1   
 33  14  18  1   
 34  14  40  1   
 35  14  41  1   
 36  15  19  1   
 37  15  42  1   
 38  15  43  1   
 39  16  44  1   
 40  17  20  1   
 41  17  45  1   
 42  17  46  1   
 43  18  19  1   
 44  18  47  1   
 45  18  48  1   
 46  19  49  1   
 47  19  50  1   
 48  20  21  ar  
 49  20  22  ar  
 50  21  23  ar  
 51  22  24  ar  
 52  22  51  1   
 53  23  25  ar  
 54  23  52  1   
 55  24  25  ar  
 56  24  53  1   
 57  25  54  1   
@<TRIPOS>SUBSTRUCTURE
  1 ****   2 GROUP 4 **** **** 0

# MOE 2024.06 (io_trps.svl 2023.06)
