@<TRIPOS>MOLECULE
NONAME
39 40 1 0 0 
SMALL
USER_CHARGES


@<TRIPOS>ATOM
  1 F       -1.1400    -0.0200     0.5890 F     1 <1>  -0.1900 
  2 C       -2.0530     0.6520    -0.0630 C.ar  1 <1>   0.1900 
  3 C       -2.0800     2.0330     0.0400 C.ar  1 <1>   0.1900 
  4 C       -2.9790    -0.0360    -0.8390 C.ar  1 <1>   0.0860 
  5 F       -1.1980     2.6390     0.7950 F     1 <1>  -0.1900 
  6 C       -3.0260     2.7910    -0.6340 C.ar  1 <1>  -0.1440 
  7 C       -2.9810    -1.4760    -0.9510 C.2   1 <1>   0.5440 
  8 C       -3.9210     0.7350    -1.5250 C.ar  1 <1>  -0.1500 
  9 C       -3.9490     2.1180    -1.4240 C.ar  1 <1>  -0.1500 
 10 C       -3.0570     4.3090    -0.5210 C.3   1 <1>  -0.0960 
 11 O       -2.6290    -1.9690    -2.0030 O.2   1 <1>  -0.5700 
 12 N       -3.4030    -2.3020     0.0740 N.am  1 <1>  -0.6600 
 13 C       -3.2120    -3.7770    -0.0500 C.3   1 <1>   0.3200 
 14 C       -3.7770    -1.8140     1.4450 C.3   1 <1>   0.1400 
 15 C       -4.4870    -4.4490    -0.5190 C.2   1 <1>  -0.3320 
 16 C       -5.0610    -0.9680     1.4600 C.3   1 <1>   0.1200 
 17 N       -5.6890    -4.3390     0.0760 N.pl3 1 <1>   0.0330 
 18 C       -4.6720    -5.2670    -1.5790 C.2   1 <1>   0.0770 
 19 O       -6.0420    -1.5910     0.7070 O.3   1 <1>  -0.6800 
 20 C       -6.5270    -5.0980    -0.6600 C.2   1 <1>   0.0060 
 21 N       -5.9510    -5.6790    -1.6590 N.2   1 <1>  -0.5650 
 22 C       -7.9990    -5.2310    -0.3400 C.3   1 <1>  -0.0600 
 23 H       -4.6400     0.2330    -2.1520 H     1 <1>   0.1500 
 24 H       -4.6950     2.6710    -1.9700 H     1 <1>   0.1500 
 25 H       -2.1280     4.7210    -0.8760 H     1 <1>   0.0800 
 26 H       -3.1920     4.6000     0.5050 H     1 <1>   0.0800 
 27 H       -3.8590     4.7250    -1.1030 H     1 <1>   0.0800 
 28 H       -2.9130    -4.1900     0.8980 H     1 <1>   0.0800 
 29 H       -2.4210    -3.9920    -0.7490 H     1 <1>   0.0800 
 30 H       -2.9670    -1.2410     1.8590 H     1 <1>   0.0800 
 31 H       -3.9280    -2.6550     2.0990 H     1 <1>   0.0800 
 32 H       -4.8880     0.0090     1.0460 H     1 <1>   0.0800 
 33 H       -5.4290    -0.8530     2.4640 H     1 <1>   0.0800 
 34 H       -5.9430    -3.7360     0.8680 H     1 <1>   0.2700 
 35 H       -3.9390    -5.5860    -2.3020 H     1 <1>   0.1500 
 36 H       -5.6590    -1.8380    -0.1670 H     1 <1>   0.4000 
 37 H       -8.4660    -4.2630    -0.3460 H     1 <1>   0.0800 
 38 H       -8.1270    -5.6840     0.6260 H     1 <1>   0.0800 
 39 H       -8.4760    -5.8510    -1.0780 H     1 <1>   0.0800 
@<TRIPOS>BOND
  1   1   2  1   
  2   2   3  ar  
  3   2   4  ar  
  4   3   5  1   
  5   3   6  ar  
  6   4   7  1   
  7   4   8  ar  
  8   6   9  ar  
  9   6  10  1   
 10   7  11  2   
 11   7  12  am  
 12   8   9  ar  
 13   8  23  1   
 14   9  24  1   
 15  10  25  1   
 16  10  26  1   
 17  10  27  1   
 18  12  13  1   
 19  12  14  1   
 20  13  15  1   
 21  13  28  1   
 22  13  29  1   
 23  14  16  1   
 24  14  30  1   
 25  14  31  1   
 26  15  17  1   
 27  15  18  2   
 28  16  19  1   
 29  16  32  1   
 30  16  33  1   
 31  17  20  1   
 32  17  34  1   
 33  18  21  1   
 34  18  35  1   
 35  19  36  1   
 36  20  21  2   
 37  20  22  1   
 38  22  37  1   
 39  22  38  1   
 40  22  39  1   
@<TRIPOS>SUBSTRUCTURE
  1 ****   7 GROUP 4 **** **** 0

# MOE 2024.06 (io_trps.svl 2023.06)
