@<TRIPOS>MOLECULE
NONAME
45 47 1 0 0 
SMALL
USER_CHARGES


@<TRIPOS>ATOM
  1 O       -1.5850    -0.7950    -0.8660 O.2   1 <1>  -0.5700 
  2 C       -1.6250    -1.7340    -0.1010 C.2   1 <1>   0.7800 
  3 O       -0.8780    -1.7840     0.9920 O.3   1 <1>  -0.4300 
  4 N       -2.4220    -2.8150    -0.2120 N.am  1 <1>  -0.6600 
  5 C       -1.1600    -2.9510     1.7420 C.3   1 <1>   0.1200 
  6 C       -2.2570    -3.6820     0.9570 C.3   1 <1>   0.1400 
  7 C       -3.5400    -2.9980    -1.1870 C.3   1 <1>   0.2010 
  8 C       -4.9190    -3.0400    -0.5200 C.2   1 <1>   0.5690 
  9 O       -5.4120    -4.1360    -0.3670 O.2   1 <1>  -0.5700 
 10 N       -5.5570    -1.8960    -0.1010 N.am  1 <1>  -0.6600 
 11 C       -6.8960    -1.9500     0.5670 C.3   1 <1>   0.1400 
 12 C       -5.0340    -0.5100    -0.2540 C.3   1 <1>   0.1400 
 13 C       -7.9460    -1.1450    -0.2370 C.3   1 <1>   0.0000 
 14 C       -6.0300     0.3310    -1.0600 C.3   1 <1>  -0.1600 
 15 C       -9.3190    -1.1680     0.4570 C.3   1 <1>   0.2000 
 16 C       -7.4390     0.3000    -0.4420 C.3   1 <1>  -0.1600 
 17 C       -8.2600    -1.8500    -1.5690 C.3   1 <1>  -0.1600 
 18 O       -9.1950    -1.0400     1.8430 O.3   1 <1>  -0.5600 
 19 C       -9.9560    -2.5080     0.0740 C.3   1 <1>  -0.1600 
 20 C       -9.2650    -2.9520    -1.2220 C.3   1 <1>  -0.1600 
 21 C      -10.3800    -0.7500     2.5150 C.3   1 <1>   0.0400 
 22 H       -0.2640    -3.5410     1.8140 H     1 <1>   0.0800 
 23 H       -1.4980    -2.6620     2.7210 H     1 <1>   0.0800 
 24 H       -3.1690    -3.7400     1.5270 H     1 <1>   0.0800 
 25 H       -1.9430    -4.6690     0.6630 H     1 <1>   0.0800 
 26 H       -3.5200    -2.2110    -1.9180 H     1 <1>   0.0800 
 27 H       -3.3900    -3.9250    -1.7090 H     1 <1>   0.0800 
 28 H       -7.2220    -2.9680     0.6840 H     1 <1>   0.0800 
 29 H       -6.7960    -1.5310     1.5530 H     1 <1>   0.0800 
 30 H       -4.9020    -0.0780     0.7240 H     1 <1>   0.0800 
 31 H       -4.0820    -0.4970    -0.7490 H     1 <1>   0.0800 
 32 H       -5.6790     1.3470    -1.1000 H     1 <1>   0.0800 
 33 H       -6.0630    -0.0400    -2.0690 H     1 <1>   0.0800 
 34 H       -9.9190    -0.3560     0.0810 H     1 <1>   0.0800 
 35 H       -8.1200     0.8510    -1.0660 H     1 <1>   0.0800 
 36 H       -7.4070     0.7900     0.5160 H     1 <1>   0.0800 
 37 H       -8.7270    -1.1560    -2.2450 H     1 <1>   0.0800 
 38 H       -7.3830    -2.2520    -2.0460 H     1 <1>   0.0800 
 39 H       -9.7780    -3.2400     0.8430 H     1 <1>   0.0800 
 40 H      -11.0140    -2.3920    -0.0770 H     1 <1>   0.0800 
 41 H       -8.7400    -3.8780    -1.0510 H     1 <1>   0.0800 
 42 H       -9.9720    -3.0970    -2.0220 H     1 <1>   0.0800 
 43 H      -10.1540    -0.6560     3.5620 H     1 <1>   0.0800 
 44 H      -11.0820    -1.5520     2.3690 H     1 <1>   0.0800 
 45 H      -10.7800     0.1780     2.1460 H     1 <1>   0.0800 
@<TRIPOS>BOND
  1   1   2  2   
  2   2   3  1   
  3   2   4  am  
  4   3   5  1   
  5   4   6  1   
  6   4   7  1   
  7   5   6  1   
  8   5  22  1   
  9   5  23  1   
 10   6  24  1   
 11   6  25  1   
 12   7   8  1   
 13   7  26  1   
 14   7  27  1   
 15   8   9  2   
 16   8  10  am  
 17  10  11  1   
 18  10  12  1   
 19  11  13  1   
 20  11  28  1   
 21  11  29  1   
 22  12  14  1   
 23  12  30  1   
 24  12  31  1   
 25  13  15  1   
 26  13  16  1   
 27  13  17  1   
 28  14  16  1   
 29  14  32  1   
 30  14  33  1   
 31  15  18  1   
 32  15  19  1   
 33  15  34  1   
 34  16  35  1   
 35  16  36  1   
 36  17  20  1   
 37  17  37  1   
 38  17  38  1   
 39  18  21  1   
 40  19  20  1   
 41  19  39  1   
 42  19  40  1   
 43  20  41  1   
 44  20  42  1   
 45  21  43  1   
 46  21  44  1   
 47  21  45  1   
@<TRIPOS>SUBSTRUCTURE
  1 ****  10 GROUP 4 **** **** 0

# MOE 2024.06 (io_trps.svl 2023.06)
