@<TRIPOS>MOLECULE
NONAME
54 56 1 0 0 
SMALL
USER_CHARGES


@<TRIPOS>ATOM
  1 S       -0.9020     1.2660     0.6760 S.3   1 <1>  -0.0800 
  2 C       -0.6140     1.9650    -0.9090 C.2   1 <1>  -0.1400 
  3 C       -0.9290    -0.3660     0.0220 C.2   1 <1>  -0.1400 
  4 C       -0.5360     0.9930    -1.8370 C.2   1 <1>  -0.1500 
  5 C       -0.5150     3.4780    -0.9990 C.3   1 <1>   0.5230 
  6 C       -0.7140    -0.3260    -1.3110 C.2   1 <1>  -0.1500 
  7 C       -1.1910    -1.4580     1.0540 C.3   1 <1>   0.5230 
  8 N        0.6500     3.9390    -0.2000 N.4   1 <1>  -0.9590 
  9 N       -1.3150    -2.8130     0.4540 N.4   1 <1>  -0.9590 
 10 C        0.6200     5.4150     0.0070 C.3   1 <1>   0.3430 
 11 C        1.9430     3.4850    -0.7940 C.3   1 <1>   0.3430 
 12 C       -0.0420    -3.3430    -0.0870 C.3   1 <1>   0.5230 
 13 C       -2.4980    -2.9580    -0.4560 C.3   1 <1>   0.3430 
 14 C        1.7460     5.8230     0.9580 C.3   1 <1>  -0.1600 
 15 C        3.0950     3.8540     0.1430 C.3   1 <1>  -0.1600 
 16 C       -0.2750    -4.7660    -0.5310 C.2   1 <1>  -0.3320 
 17 C       -3.7780    -3.1420     0.3840 C.3   1 <1>   0.1200 
 18 C        3.1170     5.3570     0.4500 C.3   1 <1>  -0.1600 
 19 N       -0.4980    -5.8300     0.2730 N.pl3 1 <1>   0.0480 
 20 C       -0.3070    -5.2300    -1.8010 C.2   1 <1>   0.0770 
 21 O       -3.4700    -3.7700     1.5980 O.3   1 <1>  -0.6800 
 22 C       -0.6710    -6.8650    -0.5780 C.2   1 <1>   0.0360 
 23 C       -0.5320    -5.9170     1.7470 C.3   1 <1>   0.0160 
 24 N       -0.5700    -6.5430    -1.8260 N.2   1 <1>  -0.5650 
 25 H       -0.3680     1.1370    -2.8930 H     1 <1>   0.1500 
 26 H       -1.4230     3.9120    -0.6120 H     1 <1>   0.0800 
 27 H       -0.4030     3.7800    -2.0280 H     1 <1>   0.0800 
 28 H       -0.6770    -1.1660    -1.9850 H     1 <1>   0.1500 
 29 H       -2.1040    -1.2220     1.5780 H     1 <1>   0.0800 
 30 H       -0.3940    -1.4540     1.7790 H     1 <1>   0.0800 
 31 H        0.5700     3.4930     0.7220 H     1 <1>   0.4500 
 32 H       -1.5960    -3.4420     1.2250 H     1 <1>   0.4500 
 33 H       -0.3280     5.7140     0.4270 H     1 <1>   0.0800 
 34 H        0.7480     5.9210    -0.9380 H     1 <1>   0.0800 
 35 H        2.0940     3.9580    -1.7510 H     1 <1>   0.0800 
 36 H        1.9310     2.4160    -0.9400 H     1 <1>   0.0800 
 37 H        0.7300    -3.3180     0.6650 H     1 <1>   0.0800 
 38 H        0.2810    -2.7520    -0.9270 H     1 <1>   0.0800 
 39 H       -2.3860    -3.8370    -1.0690 H     1 <1>   0.0800 
 40 H       -2.5980    -2.1110    -1.1140 H     1 <1>   0.0800 
 41 H        1.5570     5.4120     1.9340 H     1 <1>   0.0800 
 42 H        1.7510     6.8950     1.0580 H     1 <1>   0.0800 
 43 H        4.0260     3.5720    -0.3170 H     1 <1>   0.0800 
 44 H        3.0070     3.2930     1.0570 H     1 <1>   0.0800 
 45 H       -4.4900    -3.7480    -0.1520 H     1 <1>   0.0800 
 46 H       -4.2290    -2.1880     0.6020 H     1 <1>   0.0800 
 47 H        3.8730     5.5680     1.1900 H     1 <1>   0.0800 
 48 H        3.3750     5.9030    -0.4430 H     1 <1>   0.0800 
 49 H       -0.1600    -4.6900    -2.7230 H     1 <1>   0.1500 
 50 H       -4.2950    -4.0100     2.0790 H     1 <1>   0.4000 
 51 H       -0.8710    -7.8660    -0.2330 H     1 <1>   0.1500 
 52 H        0.2390    -5.2980     2.1680 H     1 <1>   0.0800 
 53 H       -0.3620    -6.9360     2.0480 H     1 <1>   0.0800 
 54 H       -1.4950    -5.6030     2.1050 H     1 <1>   0.0800 
@<TRIPOS>BOND
  1   1   2  1   
  2   1   3  1   
  3   2   4  2   
  4   2   5  1   
  5   3   6  2   
  6   3   7  1   
  7   4   6  1   
  8   4  25  1   
  9   5   8  1   
 10   5  26  1   
 11   5  27  1   
 12   6  28  1   
 13   7   9  1   
 14   7  29  1   
 15   7  30  1   
 16   8  10  1   
 17   8  11  1   
 18   8  31  1   
 19   9  12  1   
 20   9  13  1   
 21   9  32  1   
 22  10  14  1   
 23  10  33  1   
 24  10  34  1   
 25  11  15  1   
 26  11  35  1   
 27  11  36  1   
 28  12  16  1   
 29  12  37  1   
 30  12  38  1   
 31  13  17  1   
 32  13  39  1   
 33  13  40  1   
 34  14  18  1   
 35  14  41  1   
 36  14  42  1   
 37  15  18  1   
 38  15  43  1   
 39  15  44  1   
 40  16  19  1   
 41  16  20  2   
 42  17  21  1   
 43  17  45  1   
 44  17  46  1   
 45  18  47  1   
 46  18  48  1   
 47  19  22  1   
 48  19  23  1   
 49  20  24  1   
 50  20  49  1   
 51  21  50  1   
 52  22  24  2   
 53  22  51  1   
 54  23  52  1   
 55  23  53  1   
 56  23  54  1   
@<TRIPOS>SUBSTRUCTURE
  1 ****   3 GROUP 4 **** **** 0

# MOE 2024.06 (io_trps.svl 2023.06)
