@<TRIPOS>MOLECULE
NONAME
34 35 1 0 0 
SMALL
USER_CHARGES


@<TRIPOS>ATOM
  1 N       -0.0330     0.4540     0.3380 N.ar  1 <1>  -0.6200 
  2 C       -1.1500     0.9590    -0.1450 C.ar  1 <1>   0.4100 
  3 C        1.0130     1.2510     0.3490 C.ar  1 <1>   0.4760 
  4 N       -2.2690     0.1590    -0.1660 N.pl3 1 <1>  -0.7450 
  5 C       -1.1980     2.2660    -0.6160 C.ar  1 <1>  -0.1440 
  6 N        1.0840     2.5020    -0.0620 N.ar  1 <1>  -0.6200 
  7 C        2.2900     0.6680     0.9050 C.3   1 <1>  -0.0970 
  8 C       -2.4000    -1.2010     0.3980 C.3   1 <1>   0.2450 
  9 C       -0.0390     2.9940    -0.5450 C.ar  1 <1>   0.1600 
 10 C       -2.4630     2.8920    -1.1970 C.3   1 <1>  -0.0170 
 11 C       -1.4440    -2.2510    -0.2410 C.3   1 <1>   0.0000 
 12 C       -3.5800    -1.9690    -0.2630 C.3   1 <1>   0.0000 
 13 C       -2.4500    -1.1750     1.9290 C.3   1 <1>  -0.2400 
 14 C       -3.3810     3.4040    -0.0830 C.3   1 <1>  -0.2400 
 15 C       -2.6560    -3.2120    -0.3420 C.3   1 <1>   0.0000 
 16 H       -3.1590     0.6190    -0.3430 H     1 <1>   0.4000 
 17 H        2.2180    -0.4030     0.9640 H     1 <1>   0.0800 
 18 H        2.4620     1.0650     1.8870 H     1 <1>   0.0800 
 19 H        3.1140     0.9280     0.2680 H     1 <1>   0.0800 
 20 H       -0.0170     4.0130    -0.8910 H     1 <1>   0.1500 
 21 H       -2.9840     2.1720    -1.8050 H     1 <1>   0.0800 
 22 H       -2.1970     3.7140    -1.8390 H     1 <1>   0.0800 
 23 H       -0.6750    -2.6110     0.4190 H     1 <1>   0.0000 
 24 H       -1.0800    -1.9610    -1.2120 H     1 <1>   0.0000 
 25 H       -3.8360    -1.5990    -1.2410 H     1 <1>   0.0000 
 26 H       -4.4310    -2.1180     0.3770 H     1 <1>   0.0000 
 27 H       -1.5250    -0.7870     2.3160 H     1 <1>   0.0800 
 28 H       -2.5900    -2.1640     2.3230 H     1 <1>   0.0800 
 29 H       -3.2600    -0.5540     2.2620 H     1 <1>   0.0800 
 30 H       -3.6700     2.6010     0.5710 H     1 <1>   0.0800 
 31 H       -4.2680     3.8420    -0.5060 H     1 <1>   0.0800 
 32 H       -2.8730     4.1520     0.5000 H     1 <1>   0.0800 
 33 H       -2.7490    -3.8550     0.5160 H     1 <1>   0.0000 
 34 H       -2.7150    -3.7370    -1.2790 H     1 <1>   0.0000 
@<TRIPOS>BOND
  1   1   2  ar  
  2   1   3  ar  
  3   2   4  1   
  4   2   5  ar  
  5   3   6  ar  
  6   3   7  1   
  7   4   8  1   
  8   4  16  1   
  9   5   9  ar  
 10   5  10  1   
 11   6   9  ar  
 12   7  17  1   
 13   7  18  1   
 14   7  19  1   
 15   8  11  1   
 16   8  12  1   
 17   8  13  1   
 18   9  20  1   
 19  10  14  1   
 20  10  21  1   
 21  10  22  1   
 22  11  15  1   
 23  11  23  1   
 24  11  24  1   
 25  12  15  1   
 26  12  25  1   
 27  12  26  1   
 28  13  27  1   
 29  13  28  1   
 30  13  29  1   
 31  14  30  1   
 32  14  31  1   
 33  14  32  1   
 34  15  33  1   
 35  15  34  1   
@<TRIPOS>SUBSTRUCTURE
  1 ****   2 GROUP 4 **** **** 0

# MOE 2024.06 (io_trps.svl 2023.06)
