@<TRIPOS>MOLECULE
NONAME
36 38 1 0 0 
SMALL
USER_CHARGES


@<TRIPOS>ATOM
  1 N       -1.1470    -0.3250    -0.4140 N.ar  1 <1>  -0.6200 
  2 C       -2.0090     0.6660    -0.2220 C.ar  1 <1>   0.4100 
  3 C        0.0630    -0.0600     0.0560 C.ar  1 <1>   0.1600 
  4 N       -3.3120     0.4360    -0.6920 N.3   1 <1>  -0.5900 
  5 C       -1.6360     1.9030     0.4160 C.ar  1 <1>   0.4100 
  6 C        0.4120     1.1190     0.6830 C.ar  1 <1>   0.1600 
  7 C       -3.7940    -0.9660    -0.9780 C.3   1 <1>   0.2450 
  8 C       -4.4370     0.6080     0.2930 C.3   1 <1>   0.2450 
  9 N       -0.4180     2.1300     0.8850 N.ar  1 <1>  -0.6200 
 10 N       -2.5310     2.9770     0.5690 N.pl3 1 <1>  -0.8380 
 11 C       -5.1660    -0.5670    -0.3940 C.3   1 <1>   0.1080 
 12 C       -2.3790     3.8820     1.7420 C.3   1 <1>   0.1290 
 13 C       -2.9420     3.6740    -0.6770 C.3   1 <1>   0.1290 
 14 C       -5.7910    -1.5830     0.5590 C.ar  1 <1>  -0.1080 
 15 C       -5.1000    -2.1660     1.6050 C.ar  1 <1>  -0.1500 
 16 C       -7.1080    -1.9710     0.4150 C.ar  1 <1>  -0.1500 
 17 C       -5.7390    -3.0790     2.4270 C.ar  1 <1>   0.1600 
 18 C       -7.6530    -2.8930     1.2930 C.ar  1 <1>   0.1600 
 19 N       -7.0000    -3.4560     2.2950 N.ar  1 <1>  -0.6200 
 20 H        0.8090    -0.8240    -0.0690 H     1 <1>   0.1500 
 21 H        1.4210     1.2430     1.0350 H     1 <1>   0.1500 
 22 H       -3.2780    -1.7100    -0.3980 H     1 <1>   0.0000 
 23 H       -3.8210    -1.1740    -2.0330 H     1 <1>   0.0000 
 24 H       -4.9410     1.5490     0.1720 H     1 <1>   0.0000 
 25 H       -4.1150     0.4080     1.3000 H     1 <1>   0.0000 
 26 H       -5.8430    -0.2260    -1.1590 H     1 <1>   0.0000 
 27 H       -2.1210     3.3080     2.6150 H     1 <1>   0.0800 
 28 H       -3.3040     4.4000     1.9280 H     1 <1>   0.0800 
 29 H       -1.5980     4.5980     1.5540 H     1 <1>   0.0800 
 30 H       -2.8930     3.0020    -1.5180 H     1 <1>   0.0800 
 31 H       -2.2870     4.5070    -0.8640 H     1 <1>   0.0800 
 32 H       -3.9520     4.0290    -0.5780 H     1 <1>   0.0800 
 33 H       -4.0690    -1.9230     1.7920 H     1 <1>   0.1500 
 34 H       -7.7160    -1.5660    -0.3730 H     1 <1>   0.1500 
 35 H       -5.1830    -3.5220     3.2350 H     1 <1>   0.1500 
 36 H       -8.6820    -3.1830     1.1620 H     1 <1>   0.1500 
@<TRIPOS>BOND
  1   1   2  ar  
  2   1   3  ar  
  3   2   4  1   
  4   2   5  ar  
  5   3   6  ar  
  6   3  20  1   
  7   4   7  1   
  8   4   8  1   
  9   5   9  ar  
 10   5  10  1   
 11   6   9  ar  
 12   6  21  1   
 13   7  11  1   
 14   7  22  1   
 15   7  23  1   
 16   8  11  1   
 17   8  24  1   
 18   8  25  1   
 19  10  12  1   
 20  10  13  1   
 21  11  14  1   
 22  11  26  1   
 23  12  27  1   
 24  12  28  1   
 25  12  29  1   
 26  13  30  1   
 27  13  31  1   
 28  13  32  1   
 29  14  15  ar  
 30  14  16  ar  
 31  15  17  ar  
 32  15  33  1   
 33  16  18  ar  
 34  16  34  1   
 35  17  19  ar  
 36  17  35  1   
 37  18  19  ar  
 38  18  36  1   
@<TRIPOS>SUBSTRUCTURE
  1 ****   8 GROUP 4 **** **** 0

# MOE 2024.06 (io_trps.svl 2023.06)
