@<TRIPOS>MOLECULE
NONAME
40 42 1 0 0 
SMALL
USER_CHARGES


@<TRIPOS>ATOM
  1 O        0.1630    -0.1100    -0.1060 O.2   1 <1>  -0.5700 
  2 C        1.3180    -0.4830    -0.1170 C.2   1 <1>   0.5440 
  3 N        2.3490     0.4130     0.0550 N.am  1 <1>  -0.4940 
  4 C        1.6130    -1.8770    -0.3360 C.ar  1 <1>   0.0860 
  5 C        2.3290     1.8110     0.2830 C.2   1 <1>  -0.0880 
  6 C        2.7090    -2.5140     0.2170 C.ar  1 <1>   0.1600 
  7 C        0.8090    -2.6760    -1.1250 C.ar  1 <1>   0.1600 
  8 N        3.4160     2.5990     0.5560 N.pl3 1 <1>   0.3140 
  9 C        1.2600     2.6410     0.2540 C.2   1 <1>  -0.1500 
 10 N        3.0020    -3.7750    -0.0090 N.ar  1 <1>  -0.6200 
 11 N        1.0690    -3.9440    -1.3690 N.ar  1 <1>  -0.6200 
 12 N        3.0450     3.9010     0.6760 N.2   1 <1>  -0.7070 
 13 C        4.8620     2.2520     0.7610 C.3   1 <1>   0.2710 
 14 C        1.7650     3.9080     0.5010 C.2   1 <1>   0.1080 
 15 C        2.1590    -4.4240    -0.7950 C.ar  1 <1>   0.4770 
 16 C        5.2540     0.8240     0.3240 C.3   1 <1>  -0.1950 
 17 C        5.2610     2.4630     2.2300 C.3   1 <1>  -0.2400 
 18 C        0.9460     5.1760     0.5620 C.3   1 <1>  -0.0590 
 19 C        2.4680    -5.8760    -1.0670 C.3   1 <1>  -0.0970 
 20 C        6.5980     0.5750    -0.2880 C.3   1 <1>  -0.2000 
 21 C        5.3560     0.4250    -1.1170 C.3   1 <1>  -0.2000 
 22 H        3.2850     0.0410    -0.1120 H     1 <1>   0.3700 
 23 H        3.3660    -1.9690     0.8720 H     1 <1>   0.1500 
 24 H       -0.0750    -2.2490    -1.5710 H     1 <1>   0.1500 
 25 H        0.2290     2.3940     0.0750 H     1 <1>   0.1500 
 26 H        5.4200     2.9500     0.1620 H     1 <1>   0.0800 
 27 H        4.9460     0.0850     1.0450 H     1 <1>   0.1000 
 28 H        4.6900     1.8150     2.8710 H     1 <1>   0.0800 
 29 H        5.0830     3.4850     2.5160 H     1 <1>   0.0800 
 30 H        6.3060     2.2520     2.3630 H     1 <1>   0.0800 
 31 H       -0.0920     4.9610     0.3900 H     1 <1>   0.0800 
 32 H        1.2940     5.8640    -0.1860 H     1 <1>   0.0800 
 33 H        1.0570     5.6270     1.5310 H     1 <1>   0.0800 
 34 H        3.4750    -6.1090    -0.7740 H     1 <1>   0.0800 
 35 H        2.3530    -6.0810    -2.1150 H     1 <1>   0.0800 
 36 H        1.7880    -6.4930    -0.5110 H     1 <1>   0.0800 
 37 H        7.1410    -0.3120    -0.0070 H     1 <1>   0.1000 
 38 H        7.2520     1.4040    -0.4980 H     1 <1>   0.1000 
 39 H        5.1610     1.1590    -1.8820 H     1 <1>   0.1000 
 40 H        5.0810    -0.5700    -1.4260 H     1 <1>   0.1000 
@<TRIPOS>BOND
  1   1   2  2   
  2   2   3  am  
  3   2   4  1   
  4   3   5  1   
  5   3  22  1   
  6   4   6  ar  
  7   4   7  ar  
  8   5   8  1   
  9   5   9  2   
 10   6  10  ar  
 11   6  23  1   
 12   7  11  ar  
 13   7  24  1   
 14   8  12  1   
 15   8  13  1   
 16   9  14  1   
 17   9  25  1   
 18  10  15  ar  
 19  11  15  ar  
 20  12  14  2   
 21  13  16  1   
 22  13  17  1   
 23  13  26  1   
 24  14  18  1   
 25  15  19  1   
 26  16  20  1   
 27  16  21  1   
 28  16  27  1   
 29  17  28  1   
 30  17  29  1   
 31  17  30  1   
 32  18  31  1   
 33  18  32  1   
 34  18  33  1   
 35  19  34  1   
 36  19  35  1   
 37  19  36  1   
 38  20  21  1   
 39  20  37  1   
 40  20  38  1   
 41  21  39  1   
 42  21  40  1   
@<TRIPOS>SUBSTRUCTURE
  1 ****   3 GROUP 4 **** **** 0

# MOE 2024.06 (io_trps.svl 2023.06)
