@<TRIPOS>MOLECULE
NONAME
43 45 1 0 0 
SMALL
USER_CHARGES


@<TRIPOS>ATOM
  1 F       -2.9780    -1.0540     1.6160 F     1 <1>  -0.1900 
  2 C       -2.2220    -1.9930     1.1170 C.ar  1 <1>   0.1900 
  3 C       -2.3500    -3.2770     1.6100 C.ar  1 <1>  -0.1500 
  4 C       -1.3330    -1.6720     0.1100 C.ar  1 <1>  -0.1500 
  5 C       -1.5680    -4.2870     1.0670 C.ar  1 <1>  -0.1440 
  6 C       -0.5460    -2.6800    -0.4200 C.ar  1 <1>  -0.1500 
  7 C       -0.6650    -3.9770     0.0570 C.ar  1 <1>  -0.1500 
  8 C       -1.7070    -5.7220     1.5690 C.3   1 <1>   0.0450 
  9 C       -1.8840    -6.7620     0.4640 C.2   1 <1>   0.5690 
 10 O       -1.0110    -7.5960     0.3740 O.2   1 <1>  -0.5700 
 11 N       -2.9820    -6.7810    -0.3710 N.am  1 <1>  -0.6600 
 12 C       -4.0330    -5.7180    -0.3690 C.3   1 <1>   0.2200 
 13 C       -3.1300    -7.8900    -1.3660 C.3   1 <1>   0.0600 
 14 C       -5.4700    -6.2310    -0.3800 C.3   1 <1>  -0.1600 
 15 C       -3.9460    -4.7970    -1.5850 C.3   1 <1>  -0.1600 
 16 C       -6.2860    -5.0200    -0.8470 C.3   1 <1>  -0.0800 
 17 C       -5.3370    -4.1560    -1.6970 C.3   1 <1>  -0.0800 
 18 C       -6.7620    -4.1210     0.3020 C.3   1 <1>  -0.1600 
 19 C       -5.4050    -2.7310    -1.1240 C.3   1 <1>  -0.1600 
 20 C       -6.6540    -2.7120    -0.2560 C.3   1 <1>   0.2000 
 21 O       -6.5100    -1.8010     0.7660 O.3   1 <1>  -0.6800 
 22 H       -3.0520    -3.4710     2.4000 H     1 <1>   0.1500 
 23 H       -1.2610    -0.6600    -0.2470 H     1 <1>   0.1500 
 24 H        0.1590    -2.4590    -1.2040 H     1 <1>   0.1500 
 25 H       -0.0480    -4.7540    -0.3670 H     1 <1>   0.1500 
 26 H       -2.5380    -5.8080     2.2420 H     1 <1>   0.0800 
 27 H       -0.8230    -5.9690     2.1290 H     1 <1>   0.0800 
 28 H       -3.9420    -5.1080     0.5090 H     1 <1>   0.0800 
 29 H       -3.5450    -7.5270    -2.2880 H     1 <1>   0.0800 
 30 H       -3.7780    -8.6490    -0.9630 H     1 <1>   0.0800 
 31 H       -2.1760    -8.3370    -1.5850 H     1 <1>   0.0800 
 32 H       -5.5930    -7.0160    -1.1020 H     1 <1>   0.0800 
 33 H       -5.7780    -6.5830     0.5890 H     1 <1>   0.0800 
 34 H       -3.1620    -4.0700    -1.4740 H     1 <1>   0.0800 
 35 H       -3.7600    -5.3690    -2.4740 H     1 <1>   0.0800 
 36 H       -7.1340    -5.3320    -1.4350 H     1 <1>   0.0800 
 37 H       -5.6630    -4.1500    -2.7240 H     1 <1>   0.0800 
 38 H       -6.1130    -4.2240     1.1530 H     1 <1>   0.0800 
 39 H       -7.7730    -4.3510     0.5890 H     1 <1>   0.0800 
 40 H       -5.4700    -1.9980    -1.9080 H     1 <1>   0.0800 
 41 H       -4.5390    -2.5300    -0.5200 H     1 <1>   0.0800 
 42 H       -7.5280    -2.4580    -0.8340 H     1 <1>   0.0800 
 43 H       -5.6300    -1.8920     1.1770 H     1 <1>   0.4000 
@<TRIPOS>BOND
  1   1   2  1   
  2   2   3  ar  
  3   2   4  ar  
  4   3   5  ar  
  5   3  22  1   
  6   4   6  ar  
  7   4  23  1   
  8   5   7  ar  
  9   5   8  1   
 10   6   7  ar  
 11   6  24  1   
 12   7  25  1   
 13   8   9  1   
 14   8  26  1   
 15   8  27  1   
 16   9  10  2   
 17   9  11  am  
 18  11  12  1   
 19  11  13  1   
 20  12  14  1   
 21  12  15  1   
 22  12  28  1   
 23  13  29  1   
 24  13  30  1   
 25  13  31  1   
 26  14  16  1   
 27  14  32  1   
 28  14  33  1   
 29  15  17  1   
 30  15  34  1   
 31  15  35  1   
 32  16  17  1   
 33  16  18  1   
 34  16  36  1   
 35  17  19  1   
 36  17  37  1   
 37  18  20  1   
 38  18  38  1   
 39  18  39  1   
 40  19  20  1   
 41  19  40  1   
 42  19  41  1   
 43  20  21  1   
 44  20  42  1   
 45  21  43  1   
@<TRIPOS>SUBSTRUCTURE
  1 ****  12 GROUP 4 **** **** 0

# MOE 2024.06 (io_trps.svl 2023.06)
