@<TRIPOS>MOLECULE
NONAME
52 56 1 0 0 
SMALL
USER_CHARGES


@<TRIPOS>ATOM
  1 O       -0.4700     0.7710    -1.5980 O.2   1 <1>  -0.5700 
  2 C       -0.6650     1.6250    -0.7500 C.2   1 <1>   0.7150 
  3 N       -1.9060     1.6950    -0.1580 N.am  1 <1>  -0.6600 
  4 C        0.4090     2.5340    -0.4340 C.2   1 <1>  -0.2370 
  5 C       -2.4430     2.9600     0.4460 C.3   1 <1>   0.1400 
  6 C       -2.8640     0.5600    -0.3110 C.3   1 <1>   0.1400 
  7 N        1.4580     2.6800    -1.3080 N.pl3 1 <1>   0.0330 
  8 C        0.6600     3.3440     0.6400 C.2   1 <1>  -0.1500 
  9 C       -3.9430     3.1550     0.1520 C.3   1 <1>   0.1440 
 10 C       -3.9760     0.6320     0.7410 C.3   1 <1>  -0.1600 
 11 C        2.3500     3.5880    -0.8040 C.ar  1 <1>  -0.1520 
 12 C        1.8710     4.0250     0.4240 C.ar  1 <1>   0.0000 
 13 C       -4.3720     4.4860     0.7490 C.ar  1 <1>   0.1670 
 14 C       -4.7600     1.9600     0.7130 C.3   1 <1>  -0.1600 
 15 C       -4.1890     3.3830    -1.3700 C.3   1 <1>  -0.1600 
 16 C        3.5550     4.0740    -1.3200 C.ar  1 <1>  -0.1500 
 17 C        2.5980     4.9670     1.1600 C.ar  1 <1>  -0.1500 
 18 N       -4.5250     4.7340     2.0320 N.ar  1 <1>  -0.6200 
 19 C       -4.5640     5.4340    -0.2110 C.ar  1 <1>  -0.1440 
 20 C       -4.2920     4.9020    -1.5940 C.3   1 <1>  -0.0170 
 21 C        4.2600     4.9990    -0.5880 C.ar  1 <1>  -0.1500 
 22 C        3.7890     5.4520     0.6520 C.ar  1 <1>   0.0820 
 23 C       -4.9010     5.9730     2.3130 C.ar  1 <1>   0.4770 
 24 C       -4.9490     6.6880     0.1920 C.ar  1 <1>   0.1600 
 25 O        4.5710     6.3700     1.2850 O.3   1 <1>  -0.3630 
 26 N       -5.1240     6.9700     1.4670 N.ar  1 <1>  -0.6200 
 27 C       -5.1050     6.2930     3.7730 C.3   1 <1>  -0.0970 
 28 C        4.1940     6.8850     2.5420 C.3   1 <1>   0.0400 
 29 H       -1.9030     3.8080     0.0620 H     1 <1>   0.0800 
 30 H       -2.3000     2.9240     1.5120 H     1 <1>   0.0800 
 31 H       -2.3310    -0.3710    -0.2100 H     1 <1>   0.0800 
 32 H       -3.2900     0.5910    -1.3000 H     1 <1>   0.0800 
 33 H        1.5580     2.1450    -2.1780 H     1 <1>   0.2700 
 34 H        0.0680     3.4650     1.5290 H     1 <1>   0.1500 
 35 H       -3.5210     0.5100     1.7090 H     1 <1>   0.0800 
 36 H       -4.6550    -0.1910     0.6030 H     1 <1>   0.0800 
 37 H       -5.6680     1.8360     0.1520 H     1 <1>   0.0800 
 38 H       -5.0580     2.1750     1.7240 H     1 <1>   0.0800 
 39 H       -5.1260     2.9450    -1.6620 H     1 <1>   0.0800 
 40 H       -3.4170     2.9560    -1.9850 H     1 <1>   0.0800 
 41 H        3.9150     3.7240    -2.2710 H     1 <1>   0.1500 
 42 H        2.1990     5.2830     2.1030 H     1 <1>   0.1500 
 43 H       -5.0850     5.1480    -2.2790 H     1 <1>   0.0800 
 44 H       -3.3580     5.2970    -1.9560 H     1 <1>   0.0800 
 45 H        5.1900     5.3960    -0.9530 H     1 <1>   0.1500 
 46 H       -5.1150     7.4680    -0.5310 H     1 <1>   0.1500 
 47 H       -4.5930     5.5770     4.3890 H     1 <1>   0.0800 
 48 H       -6.1540     6.2660     3.9980 H     1 <1>   0.0800 
 49 H       -4.7240     7.2740     3.9880 H     1 <1>   0.0800 
 50 H        4.9480     7.5840     2.8560 H     1 <1>   0.0800 
 51 H        4.1310     6.0740     3.2470 H     1 <1>   0.0800 
 52 H        3.2470     7.3870     2.4440 H     1 <1>   0.0800 
@<TRIPOS>BOND
  1   1   2  2   
  2   2   3  am  
  3   2   4  1   
  4   3   5  1   
  5   3   6  1   
  6   4   7  1   
  7   4   8  2   
  8   5   9  1   
  9   5  29  1   
 10   5  30  1   
 11   6  10  1   
 12   6  31  1   
 13   6  32  1   
 14   7  11  1   
 15   7  33  1   
 16   8  12  1   
 17   8  34  1   
 18   9  13  1   
 19   9  14  1   
 20   9  15  1   
 21  10  14  1   
 22  10  35  1   
 23  10  36  1   
 24  11  12  ar  
 25  11  16  ar  
 26  12  17  ar  
 27  13  18  ar  
 28  13  19  ar  
 29  14  37  1   
 30  14  38  1   
 31  15  20  1   
 32  15  39  1   
 33  15  40  1   
 34  16  21  ar  
 35  16  41  1   
 36  17  22  ar  
 37  17  42  1   
 38  18  23  ar  
 39  19  20  1   
 40  19  24  ar  
 41  20  43  1   
 42  20  44  1   
 43  21  22  ar  
 44  21  45  1   
 45  22  25  1   
 46  23  26  ar  
 47  23  27  1   
 48  24  26  ar  
 49  24  46  1   
 50  25  28  1   
 51  27  47  1   
 52  27  48  1   
 53  27  49  1   
 54  28  50  1   
 55  28  51  1   
 56  28  52  1   
@<TRIPOS>SUBSTRUCTURE
  1 ****   5 GROUP 4 **** **** 0

# MOE 2024.06 (io_trps.svl 2023.06)
