@<TRIPOS>MOLECULE
NONAME
54 57 1 0 0 
SMALL
USER_CHARGES


@<TRIPOS>ATOM
  1 O       -0.1880     2.0940     3.0870 O.2   1 <1>  -0.5700 
  2 C       -0.2910     3.0630     2.3790 C.2   1 <1>   0.5690 
  3 N       -1.5040     3.5510     2.0440 N.am  1 <1>  -0.7300 
  4 C        0.9560     3.7400     1.8110 C.3   1 <1>   0.1810 
  5 C       -1.7160     4.6620     1.0830 C.3   1 <1>   0.3640 
  6 O        0.7110     5.0740     1.4230 O.3   1 <1>  -0.5600 
  7 C       -2.6020     4.1370    -0.0450 C.ar  1 <1>  -0.1440 
  8 C       -0.3840     5.2470     0.5250 C.3   1 <1>   0.2610 
  9 C       -2.3390     2.9190    -0.6620 C.ar  1 <1>  -0.1500 
 10 C       -3.6920     4.8820    -0.4740 C.ar  1 <1>  -0.1500 
 11 C       -0.5380     6.7390     0.1920 C.2   1 <1>   0.5690 
 12 C       -3.1500     2.4570    -1.6840 C.ar  1 <1>  -0.1500 
 13 C       -4.5040     4.4210    -1.4960 C.ar  1 <1>  -0.1500 
 14 O       -1.5590     7.1620    -0.2960 O.2   1 <1>  -0.5700 
 15 N        0.4970     7.5810     0.4650 N.am  1 <1>  -0.7300 
 16 C       -4.2330     3.2070    -2.1020 C.ar  1 <1>  -0.1500 
 17 C        0.5170     9.0210     0.1820 C.3   1 <1>   0.2200 
 18 C        1.8100     9.3780    -0.5460 C.3   1 <1>  -0.1600 
 19 C        0.4000     9.7940     1.4920 C.3   1 <1>  -0.1600 
 20 C        1.8830    10.8830    -0.7910 C.3   1 <1>   0.3430 
 21 C        0.4830    11.2960     1.2330 C.3   1 <1>   0.3430 
 22 N        1.7430    11.6150     0.5040 N.4   1 <1>  -0.9590 
 23 C        1.9220    13.0820     0.3190 C.3   1 <1>   0.5230 
 24 C        3.3650    13.3350    -0.0730 C.2   1 <1>  -0.0400 
 25 O        4.3140    12.7950     0.6700 O.3   1 <1>  -0.2800 
 26 C        3.9020    14.0330    -1.0970 C.2   1 <1>  -0.1500 
 27 C        5.4740    13.1400     0.1440 C.2   1 <1>  -0.0100 
 28 C        5.2890    13.9040    -0.9530 C.2   1 <1>  -0.1500 
 29 H       -2.3360     3.0550     2.3670 H     1 <1>   0.3700 
 30 H        1.3070     3.1920     0.9570 H     1 <1>   0.0800 
 31 H        1.7260     3.7500     2.5610 H     1 <1>   0.0800 
 32 H       -2.2410     5.4460     1.6030 H     1 <1>   0.0800 
 33 H       -0.1330     4.7350    -0.3860 H     1 <1>   0.0800 
 34 H       -1.5030     2.3170    -0.3500 H     1 <1>   0.1500 
 35 H       -3.9160     5.8330    -0.0210 H     1 <1>   0.1500 
 36 H       -2.9390     1.5120    -2.1540 H     1 <1>   0.1500 
 37 H       -5.3440     5.0090    -1.8210 H     1 <1>   0.1500 
 38 H        1.2990     7.1700     0.9560 H     1 <1>   0.3700 
 39 H       -4.8650     2.8490    -2.8970 H     1 <1>   0.1500 
 40 H       -0.3220     9.2690    -0.4510 H     1 <1>   0.0800 
 41 H        2.6660     9.0670     0.0260 H     1 <1>   0.0800 
 42 H        1.8350     8.8700    -1.4940 H     1 <1>   0.0800 
 43 H       -0.5480     9.5710     1.9490 H     1 <1>   0.0800 
 44 H        1.1790     9.5020     2.1750 H     1 <1>   0.0800 
 45 H        1.0920    11.1750    -1.4640 H     1 <1>   0.0800 
 46 H        2.8280    11.1240    -1.2530 H     1 <1>   0.0800 
 47 H        0.4540    11.8230     2.1740 H     1 <1>   0.0800 
 48 H       -0.3680    11.6030     0.6450 H     1 <1>   0.0800 
 49 H        2.5490    11.3400     1.0870 H     1 <1>   0.4500 
 50 H        1.2550    13.4580    -0.4390 H     1 <1>   0.0800 
 51 H        1.7230    13.5950     1.2460 H     1 <1>   0.0800 
 52 H        3.4200    14.5900    -1.8830 H     1 <1>   0.1500 
 53 H        6.3840    12.8010     0.6110 H     1 <1>   0.1500 
 54 H        6.0320    14.3420    -1.5990 H     1 <1>   0.1500 
@<TRIPOS>BOND
  1   1   2  2   
  2   2   3  am  
  3   2   4  1   
  4   3   5  1   
  5   3  29  1   
  6   4   6  1   
  7   4  30  1   
  8   4  31  1   
  9   5   7  1   
 10   5   8  1   
 11   5  32  1   
 12   6   8  1   
 13   7   9  ar  
 14   7  10  ar  
 15   8  11  1   
 16   8  33  1   
 17   9  12  ar  
 18   9  34  1   
 19  10  13  ar  
 20  10  35  1   
 21  11  14  2   
 22  11  15  am  
 23  12  16  ar  
 24  12  36  1   
 25  13  16  ar  
 26  13  37  1   
 27  15  17  1   
 28  15  38  1   
 29  16  39  1   
 30  17  18  1   
 31  17  19  1   
 32  17  40  1   
 33  18  20  1   
 34  18  41  1   
 35  18  42  1   
 36  19  21  1   
 37  19  43  1   
 38  19  44  1   
 39  20  22  1   
 40  20  45  1   
 41  20  46  1   
 42  21  22  1   
 43  21  47  1   
 44  21  48  1   
 45  22  23  1   
 46  22  49  1   
 47  23  24  1   
 48  23  50  1   
 49  23  51  1   
 50  24  25  1   
 51  24  26  2   
 52  25  27  1   
 53  26  28  1   
 54  26  52  1   
 55  27  28  2   
 56  27  53  1   
 57  28  54  1   
@<TRIPOS>SUBSTRUCTURE
  1 ****  15 GROUP 4 **** **** 0

# MOE 2024.06 (io_trps.svl 2023.06)
