@<TRIPOS>MOLECULE
NONAME
52 54 1 0 0 
SMALL
USER_CHARGES


@<TRIPOS>ATOM
  1 O        1.4880     1.3550     1.3320 O.co2 1 <1>  -0.9000 
  2 C        1.8680     2.1630     0.4690 C.2   1 <1>   0.9060 
  3 O        1.4130     3.3050     0.4130 O.co2 1 <1>  -0.9000 
  4 C        2.9300     1.7170    -0.5540 C.3   1 <1>  -0.1060 
  5 C        3.8510     0.6660     0.1060 C.3   1 <1>   0.4230 
  6 C        3.8060     2.9250    -0.9960 C.3   1 <1>  -0.1600 
  7 C        2.2600     1.1010    -1.8050 C.3   1 <1>  -0.1600 
  8 N        3.0640    -0.5660     0.4610 N.4   1 <1>  -0.9590 
  9 C        4.6150     1.2980     1.2920 C.3   1 <1>   0.1400 
 10 C        4.5940     3.5280     0.1760 C.3   1 <1>   0.1400 
 11 C        1.5450    -0.2160    -1.4660 C.3   1 <1>  -0.1600 
 12 C        2.4560    -1.2050    -0.7340 C.3   1 <1>   0.3430 
 13 C        3.7660    -1.5420     1.3360 C.3   1 <1>   0.2630 
 14 N        5.4200     2.4540     0.8000 N.am  1 <1>  -0.6600 
 15 C        6.7930     2.4610     0.8870 C.2   1 <1>   0.5690 
 16 O        7.3960     1.4610     1.2070 O.2   1 <1>  -0.5700 
 17 C        7.6120     3.7020     0.5410 C.3   1 <1>   0.1810 
 18 O        7.2400     4.8050     1.3560 O.3   1 <1>  -0.3630 
 19 C        7.1870     6.0490     0.8090 C.ar  1 <1>   0.0830 
 20 C        8.1640     6.5750    -0.0480 C.ar  1 <1>   0.0830 
 21 C        6.0800     6.8100     1.1470 C.ar  1 <1>  -0.1500 
 22 O        9.2710     5.8320    -0.3390 O.3   1 <1>  -0.3620 
 23 C        7.9810     7.8530    -0.5710 C.ar  1 <1>  -0.1500 
 24 C        5.9140     8.0800     0.6260 C.ar  1 <1>  -0.1500 
 25 C       10.4260     6.4200    -0.8970 C.3   1 <1>   0.0400 
 26 C        6.8630     8.5990    -0.2360 C.ar  1 <1>  -0.1500 
 27 H        4.5960     0.3810    -0.6160 H     1 <1>   0.0800 
 28 H        3.1750     3.6920    -1.4120 H     1 <1>   0.0800 
 29 H        4.5000     2.6300    -1.7620 H     1 <1>   0.0800 
 30 H        1.5460     1.8020    -2.2070 H     1 <1>   0.0800 
 31 H        3.0010     0.9150    -2.5630 H     1 <1>   0.0800 
 32 H        2.2650    -0.1330     1.0010 H     1 <1>   0.4500 
 33 H        5.2660     0.5730     1.7420 H     1 <1>   0.0800 
 34 H        3.9290     1.6460     2.0450 H     1 <1>   0.0800 
 35 H        3.9180     3.9340     0.9120 H     1 <1>   0.0800 
 36 H        5.2030     4.3350    -0.1880 H     1 <1>   0.0800 
 37 H        1.1860    -0.6710    -2.3720 H     1 <1>   0.0800 
 38 H        0.6830    -0.0140    -0.8510 H     1 <1>   0.0800 
 39 H        3.2350    -1.5380    -1.4000 H     1 <1>   0.0800 
 40 H        1.8750    -2.0610    -0.4320 H     1 <1>   0.0800 
 41 H        4.6530    -1.9110     0.8490 H     1 <1>   0.0800 
 42 H        3.1160    -2.3720     1.5600 H     1 <1>   0.0800 
 43 H        4.0460    -1.0740     2.2660 H     1 <1>   0.0800 
 44 H        7.4550     3.9550    -0.4900 H     1 <1>   0.0800 
 45 H        8.6560     3.5110     0.7070 H     1 <1>   0.0800 
 46 H        5.3460     6.4000     1.8180 H     1 <1>   0.1500 
 47 H        8.6960     8.2890    -1.2420 H     1 <1>   0.1500 
 48 H        5.0470     8.6610     0.8920 H     1 <1>   0.1500 
 49 H       11.2070     5.6810    -0.9030 H     1 <1>   0.0800 
 50 H       10.7210     7.2570    -0.2880 H     1 <1>   0.0800 
 51 H       10.2110     6.7300    -1.9030 H     1 <1>   0.0800 
 52 H        6.7320     9.5860    -0.6450 H     1 <1>   0.1500 
@<TRIPOS>BOND
  1   1   2  ar  
  2   2   3  ar  
  3   2   4  1   
  4   4   5  1   
  5   4   6  1   
  6   4   7  1   
  7   5   8  1   
  8   5   9  1   
  9   5  27  1   
 10   6  10  1   
 11   6  28  1   
 12   6  29  1   
 13   7  11  1   
 14   7  30  1   
 15   7  31  1   
 16   8  12  1   
 17   8  13  1   
 18   8  32  1   
 19   9  14  1   
 20   9  33  1   
 21   9  34  1   
 22  10  14  1   
 23  10  35  1   
 24  10  36  1   
 25  11  12  1   
 26  11  37  1   
 27  11  38  1   
 28  12  39  1   
 29  12  40  1   
 30  13  41  1   
 31  13  42  1   
 32  13  43  1   
 33  14  15  am  
 34  15  16  2   
 35  15  17  1   
 36  17  18  1   
 37  17  44  1   
 38  17  45  1   
 39  18  19  1   
 40  19  20  ar  
 41  19  21  ar  
 42  20  22  1   
 43  20  23  ar  
 44  21  24  ar  
 45  21  46  1   
 46  22  25  1   
 47  23  26  ar  
 48  23  47  1   
 49  24  26  ar  
 50  24  48  1   
 51  25  49  1   
 52  25  50  1   
 53  25  51  1   
 54  26  52  1   
@<TRIPOS>SUBSTRUCTURE
  1 ****  10 GROUP 4 **** **** 0

# MOE 2024.06 (io_trps.svl 2023.06)
