@<TRIPOS>MOLECULE
NONAME
56 60 1 0 0 
SMALL
USER_CHARGES


@<TRIPOS>ATOM
  1 O       -0.6290     0.0470     1.3520 O.2   1 <1>  -0.5700 
  2 C       -1.5540    -0.0060     0.5600 C.2   1 <1>   0.7150 
  3 N       -2.0270    -1.2330     0.1800 N.am  1 <1>  -0.6600 
  4 C       -2.1210     1.2180     0.0630 C.2   1 <1>  -0.2370 
  5 C       -1.4930    -2.5330     0.5790 C.3   1 <1>   0.2200 
  6 C       -3.3830    -1.6260    -0.1510 C.3   1 <1>   0.2200 
  7 N       -1.9210     2.3960     0.7250 N.pl3 1 <1>   0.0330 
  8 C       -2.8760     1.5020    -1.0490 C.2   1 <1>  -0.1500 
  9 C       -1.7670    -3.3690    -0.7030 C.3   1 <1>   0.0610 
 10 C       -2.4920    -2.8550     1.7080 C.3   1 <1>  -0.1600 
 11 C       -3.1080    -2.7240    -1.1880 C.3   1 <1>  -0.1600 
 12 C       -3.8130    -2.2790     1.1680 C.3   1 <1>  -0.1600 
 13 C       -2.5510     3.3890     0.0540 C.2   1 <1>  -0.3020 
 14 C       -3.1520     2.8680    -1.0480 C.2   1 <1>  -0.1500 
 15 C       -1.8710    -4.8720    -0.3850 C.2   1 <1>   0.5690 
 16 C       -0.6400    -3.2310    -1.7720 C.3   1 <1>  -0.1600 
 17 O       -1.1350    -5.3670     0.4370 O.2   1 <1>  -0.5700 
 18 N       -2.7510    -5.6530    -1.0600 N.am  1 <1>  -0.7300 
 19 C       -0.1940    -1.8160    -2.1820 C.3   1 <1>  -0.2400 
 20 C       -2.9890    -7.0830    -0.7890 C.3   1 <1>   0.3200 
 21 C       -4.4530    -7.4110    -1.0290 C.2   1 <1>   0.0060 
 22 N       -5.2960    -6.6990    -1.6800 N.2   1 <1>  -0.3380 
 23 N       -5.0310    -8.5210    -0.5860 N.pl3 1 <1>   0.5930 
 24 N       -6.4340    -7.3810    -1.6470 N.2   1 <1>   0.0000 
 25 N       -6.2870    -8.4780    -0.9980 N.2   1 <1>  -0.4180 
 26 C       -4.4580    -9.5900     0.1540 C.ar  1 <1>  -0.0230 
 27 C       -4.2590   -10.8300    -0.4440 C.ar  1 <1>  -0.1500 
 28 C       -4.0790    -9.4140     1.4820 C.ar  1 <1>  -0.1500 
 29 C       -3.6780   -11.8670     0.2650 C.ar  1 <1>  -0.1500 
 30 C       -3.4970   -10.4500     2.1890 C.ar  1 <1>  -0.1500 
 31 C       -3.2950   -11.6760     1.5810 C.ar  1 <1>  -0.1500 
 32 H       -0.4620    -2.5110     0.8900 H     1 <1>   0.0800 
 33 H       -4.0270    -0.8300    -0.4820 H     1 <1>   0.0800 
 34 H       -1.3610     2.4740     1.5840 H     1 <1>   0.2700 
 35 H       -3.2010     0.8130    -1.8080 H     1 <1>   0.1500 
 36 H       -2.5620    -3.9000     1.9450 H     1 <1>   0.0800 
 37 H       -2.1920    -2.3300     2.5980 H     1 <1>   0.0800 
 38 H       -3.9380    -3.4050    -1.2220 H     1 <1>   0.0800 
 39 H       -3.0060    -2.2800    -2.1610 H     1 <1>   0.0800 
 40 H       -4.2020    -1.5330     1.8390 H     1 <1>   0.0800 
 41 H       -4.5600    -3.0380     1.0160 H     1 <1>   0.0800 
 42 H       -2.5390     4.4120     0.3860 H     1 <1>   0.1500 
 43 H       -3.7280     3.3920    -1.7920 H     1 <1>   0.1500 
 44 H        0.2330    -3.7440    -1.4030 H     1 <1>   0.0800 
 45 H       -0.9510    -3.7530    -2.6600 H     1 <1>   0.0800 
 46 H       -3.3950    -5.2490    -1.7450 H     1 <1>   0.3700 
 47 H        0.2580    -1.3050    -1.3500 H     1 <1>   0.0800 
 48 H       -1.0190    -1.2280    -2.5410 H     1 <1>   0.0800 
 49 H        0.5400    -1.8790    -2.9660 H     1 <1>   0.0800 
 50 H       -2.3730    -7.6730    -1.4450 H     1 <1>   0.0800 
 51 H       -2.7160    -7.3050     0.2280 H     1 <1>   0.0800 
 52 H       -4.5610   -10.9890    -1.4660 H     1 <1>   0.1500 
 53 H       -4.2380    -8.4670     1.9720 H     1 <1>   0.1500 
 54 H       -3.5260   -12.8240    -0.2050 H     1 <1>   0.1500 
 55 H       -3.2030   -10.3070     3.2160 H     1 <1>   0.1500 
 56 H       -2.8420   -12.4830     2.1320 H     1 <1>   0.1500 
@<TRIPOS>BOND
  1   1   2  2   
  2   2   3  am  
  3   2   4  1   
  4   3   5  1   
  5   3   6  1   
  6   4   7  1   
  7   4   8  2   
  8   5   9  1   
  9   5  10  1   
 10   5  32  1   
 11   6  11  1   
 12   6  12  1   
 13   6  33  1   
 14   7  13  1   
 15   7  34  1   
 16   8  14  1   
 17   8  35  1   
 18   9  11  1   
 19   9  15  1   
 20   9  16  1   
 21  10  12  1   
 22  10  36  1   
 23  10  37  1   
 24  11  38  1   
 25  11  39  1   
 26  12  40  1   
 27  12  41  1   
 28  13  14  2   
 29  13  42  1   
 30  14  43  1   
 31  15  17  2   
 32  15  18  am  
 33  16  19  1   
 34  16  44  1   
 35  16  45  1   
 36  18  20  1   
 37  18  46  1   
 38  19  47  1   
 39  19  48  1   
 40  19  49  1   
 41  20  21  1   
 42  20  50  1   
 43  20  51  1   
 44  21  22  2   
 45  21  23  1   
 46  22  24  1   
 47  23  25  1   
 48  23  26  1   
 49  24  25  2   
 50  26  27  ar  
 51  26  28  ar  
 52  27  29  ar  
 53  27  52  1   
 54  28  30  ar  
 55  28  53  1   
 56  29  31  ar  
 57  29  54  1   
 58  30  31  ar  
 59  30  55  1   
 60  31  56  1   
@<TRIPOS>SUBSTRUCTURE
  1 ****  15 GROUP 4 **** **** 0

# MOE 2024.06 (io_trps.svl 2023.06)
