@<TRIPOS>MOLECULE
NONAME
44 47 1 0 0 
SMALL
USER_CHARGES


@<TRIPOS>ATOM
  1 O       -0.9710     1.0240     0.4200 O.3   1 <1>  -0.3630 
  2 C       -2.3310     1.1400     0.4240 C.ar  1 <1>   0.0830 
  3 C       -0.1570     2.1560     0.6420 C.3   1 <1>   0.0400 
  4 C       -3.0300     2.3170     0.6210 C.ar  1 <1>   0.1600 
  5 C       -3.0900     0.0100     0.2180 C.ar  1 <1>   0.1600 
  6 N       -4.3420     2.3670     0.6140 N.ar  1 <1>  -0.6200 
  7 N       -4.4030     0.0290     0.2060 N.ar  1 <1>  -0.6200 
  8 C       -4.9790     1.2140     0.4090 C.ar  1 <1>   0.7200 
  9 N       -6.3590     1.2440     0.4010 N.pl3 1 <1>  -0.8380 
 10 C       -7.1560     2.4370     0.8280 C.3   1 <1>   0.2090 
 11 C       -7.1540     0.1000    -0.1390 C.3   1 <1>   0.2090 
 12 C       -7.9630     3.0120    -0.3570 C.3   1 <1>   0.1430 
 13 C       -8.5760     0.5290    -0.5410 C.3   1 <1>  -0.1600 
 14 C       -9.0210     3.9350     0.2250 C.ar  1 <1>   0.1670 
 15 C       -8.5650     1.8930    -1.2520 C.3   1 <1>  -0.1600 
 16 C       -7.1050     3.9970    -1.1940 C.3   1 <1>  -0.1600 
 17 N      -10.1310     3.5530     0.8180 N.ar  1 <1>  -0.6200 
 18 C       -8.6770     5.2460     0.0780 C.ar  1 <1>  -0.1430 
 19 C       -7.3500     5.4020    -0.6200 C.3   1 <1>  -0.0170 
 20 C      -10.8920     4.5480     1.2520 C.ar  1 <1>   0.4770 
 21 C       -9.5410     6.1950     0.5660 C.ar  1 <1>   0.1600 
 22 N      -10.6650     5.8520     1.1600 N.ar  1 <1>  -0.6200 
 23 C      -12.1810     4.1520     1.9310 C.3   1 <1>  -0.0970 
 24 H        0.8710     1.8410     0.6010 H     1 <1>   0.0800 
 25 H       -0.3750     2.5600     1.6150 H     1 <1>   0.0800 
 26 H       -0.3450     2.8810    -0.1300 H     1 <1>   0.0800 
 27 H       -2.5080     3.2400     0.7880 H     1 <1>   0.1500 
 28 H       -2.5930    -0.9300     0.0600 H     1 <1>   0.1500 
 29 H       -6.5350     3.2020     1.2590 H     1 <1>   0.0800 
 30 H       -7.8380     2.1210     1.5990 H     1 <1>   0.0800 
 31 H       -7.1980    -0.6830     0.5990 H     1 <1>   0.0800 
 32 H       -6.6520    -0.2900    -1.0090 H     1 <1>   0.0800 
 33 H       -9.1960     0.5830     0.3370 H     1 <1>   0.0800 
 34 H       -8.9990    -0.2190    -1.1870 H     1 <1>   0.0800 
 35 H       -7.9700     1.7840    -2.1410 H     1 <1>   0.0800 
 36 H       -9.5620     2.1590    -1.5570 H     1 <1>   0.0800 
 37 H       -7.4480     3.9970    -2.2140 H     1 <1>   0.0800 
 38 H       -6.0620     3.7330    -1.1860 H     1 <1>   0.0800 
 39 H       -7.3870     6.1470    -1.3950 H     1 <1>   0.0800 
 40 H       -6.5890     5.6560     0.0980 H     1 <1>   0.0800 
 41 H       -9.3110     7.2420     0.4720 H     1 <1>   0.1500 
 42 H      -12.1310     3.1310     2.2610 H     1 <1>   0.0800 
 43 H      -12.9930     4.2590     1.2380 H     1 <1>   0.0800 
 44 H      -12.3540     4.7860     2.7800 H     1 <1>   0.0800 
@<TRIPOS>BOND
  1   1   2  1   
  2   1   3  1   
  3   2   4  ar  
  4   2   5  ar  
  5   3  24  1   
  6   3  25  1   
  7   3  26  1   
  8   4   6  ar  
  9   4  27  1   
 10   5   7  ar  
 11   5  28  1   
 12   6   8  ar  
 13   7   8  ar  
 14   8   9  1   
 15   9  10  1   
 16   9  11  1   
 17  10  12  1   
 18  10  29  1   
 19  10  30  1   
 20  11  13  1   
 21  11  31  1   
 22  11  32  1   
 23  12  14  1   
 24  12  15  1   
 25  12  16  1   
 26  13  15  1   
 27  13  33  1   
 28  13  34  1   
 29  14  17  ar  
 30  14  18  ar  
 31  15  35  1   
 32  15  36  1   
 33  16  19  1   
 34  16  37  1   
 35  16  38  1   
 36  17  20  ar  
 37  18  19  1   
 38  18  21  ar  
 39  19  39  1   
 40  19  40  1   
 41  20  22  ar  
 42  20  23  1   
 43  21  22  ar  
 44  21  41  1   
 45  23  42  1   
 46  23  43  1   
 47  23  44  1   
@<TRIPOS>SUBSTRUCTURE
  1 ****  10 GROUP 4 **** **** 0

# MOE 2024.06 (io_trps.svl 2023.06)
