@<TRIPOS>MOLECULE
NONAME
57 60 1 0 0 
SMALL
USER_CHARGES


@<TRIPOS>ATOM
  1 S       -1.7460     2.4910     2.0210 S.3   1 <1>  -0.0800 
  2 C       -2.5160     1.8060     0.5850 C.2   1 <1>  -0.0450 
  3 C       -0.3990     3.1130     1.0940 C.2   1 <1>  -0.1100 
  4 C       -3.7730     1.1140     0.7360 C.2   1 <1>   0.7150 
  5 C       -1.7310     2.0720    -0.4920 C.2   1 <1>  -0.1500 
  6 C       -0.5440     2.8080    -0.2080 C.2   1 <1>  -0.1500 
  7 O       -4.0760     0.5870     1.7910 O.2   1 <1>  -0.5700 
  8 N       -4.6870     1.0470    -0.2990 N.am  1 <1>  -0.6600 
  9 C       -5.7240    -0.0140    -0.3210 C.3   1 <1>   0.1400 
 10 C       -4.9810     2.2200    -1.1560 C.3   1 <1>   0.1400 
 11 C       -7.0350     0.5770     0.1960 C.3   1 <1>  -0.1600 
 12 C       -6.2820     2.8570    -0.6610 C.3   1 <1>  -0.1600 
 13 C       -7.4180     1.8250    -0.6130 C.3   1 <1>   0.4230 
 14 N       -8.6600     2.4610    -0.0920 N.4   1 <1>  -0.9590 
 15 C       -8.6070     2.9310     1.3280 C.3   1 <1>   0.3430 
 16 C       -9.8890     1.6710    -0.3510 C.3   1 <1>   0.3430 
 17 C       -9.9470     3.5450     1.7580 C.3   1 <1>  -0.1600 
 18 C      -11.1240     2.5730    -0.2200 C.3   1 <1>  -0.1600 
 19 C      -10.8790     3.8700     0.5800 C.3   1 <1>   0.2800 
 20 O      -10.1590     4.7360    -0.2710 O.3   1 <1>  -0.5600 
 21 C      -12.1940     4.5030     1.0890 C.3   1 <1>  -0.1600 
 22 C      -10.7330     5.9480    -0.6820 C.3   1 <1>   0.1200 
 23 C      -13.0340     5.1740    -0.0130 C.3   1 <1>   0.2800 
 24 C      -12.1630     5.7020    -1.1600 C.3   1 <1>  -0.1600 
 25 O      -13.6490     6.2560     0.5670 O.3   1 <1>  -0.6800 
 26 C      -14.1690     4.2890    -0.5280 C.3   1 <1>  -0.2400 
 27 H        0.3690     3.6460     1.6270 H     1 <1>   0.1500 
 28 H       -1.9500     1.7590    -1.4980 H     1 <1>   0.1500 
 29 H        0.1490     3.0730    -0.9880 H     1 <1>   0.1500 
 30 H       -5.4220    -0.8440     0.2990 H     1 <1>   0.0800 
 31 H       -5.8390    -0.3790    -1.3280 H     1 <1>   0.0800 
 32 H       -5.0750     1.9000    -2.1810 H     1 <1>   0.0800 
 33 H       -4.1860     2.9450    -1.1030 H     1 <1>   0.0800 
 34 H       -6.8930     0.8150     1.2340 H     1 <1>   0.0800 
 35 H       -7.8000    -0.1730     0.1170 H     1 <1>   0.0800 
 36 H       -6.5470     3.6620    -1.3230 H     1 <1>   0.0800 
 37 H       -6.0920     3.2650     0.3150 H     1 <1>   0.0800 
 38 H       -7.6000     1.5090    -1.6280 H     1 <1>   0.0800 
 39 H       -8.8190     3.3420    -0.6190 H     1 <1>   0.4500 
 40 H       -7.8390     3.6810     1.4240 H     1 <1>   0.0800 
 41 H       -8.3600     2.1150     1.9870 H     1 <1>   0.0800 
 42 H       -9.9520     0.8640     0.3610 H     1 <1>   0.0800 
 43 H       -9.8620     1.2460    -1.3420 H     1 <1>   0.0800 
 44 H       -9.7540     4.4330     2.3320 H     1 <1>   0.0800 
 45 H      -10.4410     2.8540     2.4170 H     1 <1>   0.0800 
 46 H      -11.8940     1.9940     0.2560 H     1 <1>   0.0800 
 47 H      -11.4840     2.8160    -1.2030 H     1 <1>   0.0800 
 48 H      -11.9310     5.2390     1.8290 H     1 <1>   0.0800 
 49 H      -12.7840     3.7620     1.5960 H     1 <1>   0.0800 
 50 H      -10.1310     6.3440    -1.4820 H     1 <1>   0.0800 
 51 H      -10.7090     6.6390     0.1430 H     1 <1>   0.0800 
 52 H      -12.1250     4.9860    -1.9610 H     1 <1>   0.0800 
 53 H      -12.5850     6.6040    -1.5680 H     1 <1>   0.0800 
 54 H      -12.9910     6.9150     0.8500 H     1 <1>   0.4000 
 55 H      -13.7880     3.4040    -0.9980 H     1 <1>   0.0800 
 56 H      -14.7560     4.8270    -1.2520 H     1 <1>   0.0800 
 57 H      -14.8110     3.9940     0.2830 H     1 <1>   0.0800 
@<TRIPOS>BOND
  1   1   2  1   
  2   1   3  1   
  3   2   4  1   
  4   2   5  2   
  5   3   6  2   
  6   3  27  1   
  7   4   7  2   
  8   4   8  am  
  9   5   6  1   
 10   5  28  1   
 11   6  29  1   
 12   8   9  1   
 13   8  10  1   
 14   9  11  1   
 15   9  30  1   
 16   9  31  1   
 17  10  12  1   
 18  10  32  1   
 19  10  33  1   
 20  11  13  1   
 21  11  34  1   
 22  11  35  1   
 23  12  13  1   
 24  12  36  1   
 25  12  37  1   
 26  13  14  1   
 27  13  38  1   
 28  14  15  1   
 29  14  16  1   
 30  14  39  1   
 31  15  17  1   
 32  15  40  1   
 33  15  41  1   
 34  16  18  1   
 35  16  42  1   
 36  16  43  1   
 37  17  19  1   
 38  17  44  1   
 39  17  45  1   
 40  18  19  1   
 41  18  46  1   
 42  18  47  1   
 43  19  20  1   
 44  19  21  1   
 45  20  22  1   
 46  21  23  1   
 47  21  48  1   
 48  21  49  1   
 49  22  24  1   
 50  22  50  1   
 51  22  51  1   
 52  23  24  1   
 53  23  25  1   
 54  23  26  1   
 55  24  52  1   
 56  24  53  1   
 57  25  54  1   
 58  26  55  1   
 59  26  56  1   
 60  26  57  1   
@<TRIPOS>SUBSTRUCTURE
  1 ****  14 GROUP 4 **** **** 0

# MOE 2024.06 (io_trps.svl 2023.06)
