@<TRIPOS>MOLECULE
NONAME
44 46 1 0 0 
SMALL
USER_CHARGES


@<TRIPOS>ATOM
  1 O        0.4800     1.0580     1.5600 O.co2 1 <1>  -0.9000 
  2 C       -0.3500     1.2940     0.6780 C.2   1 <1>   0.9060 
  3 O       -0.2140     0.8650    -0.4790 O.co2 1 <1>  -0.9000 
  4 C       -1.6800     1.9990     1.0720 C.3   1 <1>   0.4600 
  5 N       -2.9500     1.3710     0.5400 N.4   1 <1>  -0.8970 
  6 C       -1.7720     3.4870     0.7360 C.ar  1 <1>  -0.1430 
  7 C       -2.9340    -0.1260     0.4470 C.3   1 <1>   0.4720 
  8 C       -3.0640     1.4020    -0.9570 C.3   1 <1>   0.4720 
  9 C       -2.6770     4.2740     1.4430 C.ar  1 <1>   0.0830 
 10 C       -0.9980     4.0680    -0.2600 C.ar  1 <1>  -0.1500 
 11 C       -3.7580     0.0220    -0.8560 C.3   1 <1>   0.1080 
 12 O       -3.4390     3.6580     2.3900 O.3   1 <1>  -0.3630 
 13 C       -2.7870     5.6320     1.1570 C.ar  1 <1>  -0.1500 
 14 C       -1.1120     5.4180    -0.5510 C.ar  1 <1>   0.0830 
 15 C       -5.2730     0.0860    -0.6400 C.ar  1 <1>  -0.1080 
 16 C       -4.1280     4.4120     3.3660 C.3   1 <1>   0.0400 
 17 C       -2.0080     6.2020     0.1660 C.ar  1 <1>  -0.1500 
 18 O       -0.3210     5.8960    -1.5460 O.3   1 <1>  -0.3630 
 19 C       -5.9250    -0.7820     0.2170 C.ar  1 <1>  -0.1500 
 20 C       -6.0730     1.0030    -1.2970 C.ar  1 <1>  -0.1500 
 21 C       -0.2380     7.2780    -1.8140 C.3   1 <1>   0.0400 
 22 C       -7.2950    -0.6770     0.3900 C.ar  1 <1>   0.1600 
 23 C       -7.4360     1.0240    -1.0530 C.ar  1 <1>   0.1600 
 24 N       -8.0610     0.2110    -0.2190 N.ar  1 <1>  -0.6200 
 25 H       -1.7050     1.9230     2.1440 H     1 <1>   0.0800 
 26 H       -3.7780     1.7660     0.9920 H     1 <1>   0.4500 
 27 H       -3.4600    -0.5890     1.2620 H     1 <1>   0.0000 
 28 H       -1.9480    -0.5170     0.2760 H     1 <1>   0.0000 
 29 H       -2.1120     1.3610    -1.4490 H     1 <1>   0.0000 
 30 H       -3.6980     2.2010    -1.2960 H     1 <1>   0.0000 
 31 H       -0.2910     3.4860    -0.8290 H     1 <1>   0.1500 
 32 H       -3.4640    -0.6640    -1.6300 H     1 <1>   0.0000 
 33 H       -3.4750     6.2610     1.6890 H     1 <1>   0.1500 
 34 H       -4.5450     3.7300     4.0860 H     1 <1>   0.0800 
 35 H       -4.9180     4.9650     2.8910 H     1 <1>   0.0800 
 36 H       -3.4330     5.0740     3.8530 H     1 <1>   0.0800 
 37 H       -2.1150     7.2510    -0.0360 H     1 <1>   0.1500 
 38 H       -5.3940    -1.5460     0.7560 H     1 <1>   0.1500 
 39 H       -5.6660     1.7040    -2.0020 H     1 <1>   0.1500 
 40 H        0.4900     7.4230    -2.5910 H     1 <1>   0.0800 
 41 H        0.0750     7.7890    -0.9200 H     1 <1>   0.0800 
 42 H       -1.1990     7.6290    -2.1450 H     1 <1>   0.0800 
 43 H       -7.7880    -1.3580     1.0630 H     1 <1>   0.1500 
 44 H       -8.0450     1.7460    -1.5710 H     1 <1>   0.1500 
@<TRIPOS>BOND
  1   1   2  ar  
  2   2   3  ar  
  3   2   4  1   
  4   4   5  1   
  5   4   6  1   
  6   4  25  1   
  7   5   7  1   
  8   5   8  1   
  9   5  26  1   
 10   6   9  ar  
 11   6  10  ar  
 12   7  11  1   
 13   7  27  1   
 14   7  28  1   
 15   8  11  1   
 16   8  29  1   
 17   8  30  1   
 18   9  12  1   
 19   9  13  ar  
 20  10  14  ar  
 21  10  31  1   
 22  11  15  1   
 23  11  32  1   
 24  12  16  1   
 25  13  17  ar  
 26  13  33  1   
 27  14  17  ar  
 28  14  18  1   
 29  15  19  ar  
 30  15  20  ar  
 31  16  34  1   
 32  16  35  1   
 33  16  36  1   
 34  17  37  1   
 35  18  21  1   
 36  19  22  ar  
 37  19  38  1   
 38  20  23  ar  
 39  20  39  1   
 40  21  40  1   
 41  21  41  1   
 42  21  42  1   
 43  22  24  ar  
 44  22  43  1   
 45  23  24  ar  
 46  23  44  1   
@<TRIPOS>SUBSTRUCTURE
  1 ****   5 GROUP 4 **** **** 0

# MOE 2024.06 (io_trps.svl 2023.06)
