@<TRIPOS>MOLECULE
NONAME
23 23 1 0 0 
SMALL
USER_CHARGES


@<TRIPOS>ATOM
  1 S       -0.3050     0.0140    -0.3500 S.3   1 <1>  -0.3710 
  2 C       -0.2460     1.7950    -0.2230 C.2   1 <1>   0.6510 
  3 C        1.3980    -0.6030     0.0080 C.3   1 <1>   0.0700 
  4 N       -1.3080     2.4720    -0.4290 N.2   1 <1>  -0.6210 
  5 N        0.9610     2.3300     0.0920 N.am  1 <1>  -0.4900 
  6 C        1.3740    -2.1290    -0.0950 C.3   1 <1>  -0.1600 
  7 C       -1.2250     3.8450    -0.3220 C.2   1 <1>   0.0210 
  8 C        1.1010     3.6820     0.2110 C.2   1 <1>   0.6160 
  9 C        2.7550    -2.7280     0.1890 C.3   1 <1>  -0.2400 
 10 O       -2.2580     4.4730    -0.5230 O.3   1 <1>  -0.8500 
 11 C       -0.0180     4.4860     0.0010 C.2   1 <1>   0.2190 
 12 O        2.2390     4.0610     0.5010 O.2   1 <1>  -0.5700 
 13 N        0.1120     5.8500     0.1170 N.pl3 1 <1>   0.8360 
 14 O        0.5350     6.5410    -0.8460 O.2   1 <1>  -0.5200 
 15 O        0.0470     6.4090     1.2430 O.2   1 <1>  -0.5200 
 16 H        1.6580    -0.2820     1.0020 H     1 <1>   0.0800 
 17 H        2.0610    -0.1720    -0.7220 H     1 <1>   0.0800 
 18 H        1.7800     1.7620     0.2480 H     1 <1>   0.3700 
 19 H        1.0570    -2.4130    -1.0840 H     1 <1>   0.0800 
 20 H        0.6610    -2.5210     0.6110 H     1 <1>   0.0800 
 21 H        3.4780    -2.3650    -0.5200 H     1 <1>   0.0800 
 22 H        2.7110    -3.8010     0.1100 H     1 <1>   0.0800 
 23 H        3.0810    -2.4740     1.1830 H     1 <1>   0.0800 
@<TRIPOS>BOND
  1   1   2  1   
  2   1   3  1   
  3   2   4  2   
  4   2   5  1   
  5   3   6  1   
  6   3  16  1   
  7   3  17  1   
  8   4   7  1   
  9   5   8  am  
 10   5  18  1   
 11   6   9  1   
 12   6  19  1   
 13   6  20  1   
 14   7  10  1   
 15   7  11  2   
 16   8  11  1   
 17   8  12  2   
 18   9  21  1   
 19   9  22  1   
 20   9  23  1   
 21  11  13  1   
 22  13  14  2   
 23  13  15  2   
@<TRIPOS>SUBSTRUCTURE
  1 ****   5 GROUP 4 **** **** 0

# MOE 2024.06 (io_trps.svl 2023.06)
