@<TRIPOS>MOLECULE
NONAME
51 53 1 0 0 
SMALL
USER_CHARGES


@<TRIPOS>ATOM
  1 O        3.5330     1.7230     1.4470 O.co2 1 <1>  -0.9000 
  2 C        2.6840     0.9210     1.0330 C.2   1 <1>   0.9060 
  3 O        2.4080    -0.1000     1.6620 O.co2 1 <1>  -0.9000 
  4 C        2.1940     1.0250    -0.4180 C.3   1 <1>  -0.1060 
  5 C        2.9580    -0.1170    -1.1200 C.3   1 <1>   0.2000 
  6 C        2.5970     2.3790    -1.0880 C.3   1 <1>  -0.1600 
  7 C        0.6570     0.8170    -0.4720 C.3   1 <1>  -0.0170 
  8 O        2.6790    -0.1160    -2.4900 O.3   1 <1>  -0.6800 
  9 C        4.4860     0.0660    -0.9230 C.3   1 <1>   0.3430 
 10 C        4.0320     2.4160    -1.6430 C.3   1 <1>   0.3430 
 11 C       -0.1310     1.9970     0.0860 C.ar  1 <1>  -0.1440 
 12 N        4.9070     1.5120    -0.8520 N.4   1 <1>  -0.9590 
 13 C       -0.7600     2.8930    -0.7670 C.ar  1 <1>  -0.1500 
 14 C       -0.2280     2.1860     1.4560 C.ar  1 <1>  -0.1500 
 15 C        6.3750     1.7060    -1.0190 C.3   1 <1>   0.4860 
 16 C       -1.4700     3.9670    -0.2560 C.ar  1 <1>  -0.1500 
 17 C       -0.9360     3.2590     1.9680 C.ar  1 <1>  -0.1500 
 18 C        6.7870     3.1760    -1.1180 C.ar  1 <1>   0.1670 
 19 C       -1.5570     4.1520     1.1120 C.ar  1 <1>  -0.1500 
 20 N        6.4610     3.9760    -0.1260 N.ar  1 <1>  -0.6200 
 21 C        7.4670     3.6480    -2.2190 C.ar  1 <1>  -0.1500 
 22 C        6.8170     5.2440    -0.2480 C.ar  1 <1>   0.4770 
 23 C        7.7890     4.9840    -2.2430 C.ar  1 <1>   0.1600 
 24 N        7.4650     5.7950    -1.2620 N.ar  1 <1>  -0.6200 
 25 C        6.4380     6.1640     0.9010 C.3   1 <1>  -0.0170 
 26 C        7.5320     6.2260     1.9780 C.3   1 <1>  -0.2400 
 27 H        2.6610    -1.0760    -0.7270 H     1 <1>   0.0800 
 28 H        2.4740     3.1800    -0.3770 H     1 <1>   0.0800 
 29 H        1.9370     2.5950    -1.9080 H     1 <1>   0.0800 
 30 H        0.3450     0.6530    -1.4870 H     1 <1>   0.0800 
 31 H        0.3900    -0.0680     0.0820 H     1 <1>   0.0800 
 32 H        1.7340    -0.3210    -2.6330 H     1 <1>   0.4000 
 33 H        4.9950    -0.4420    -1.7230 H     1 <1>   0.0800 
 34 H        4.7570    -0.4080     0.0070 H     1 <1>   0.0800 
 35 H        4.3950     3.4300    -1.6020 H     1 <1>   0.0800 
 36 H        4.0240     2.0900    -2.6700 H     1 <1>   0.0800 
 37 H        4.6770     1.8010     0.1400 H     1 <1>   0.4500 
 38 H       -0.7020     2.7610    -1.8320 H     1 <1>   0.1500 
 39 H        0.2530     1.4980     2.1330 H     1 <1>   0.1500 
 40 H        6.8830     1.2680    -0.1770 H     1 <1>   0.0800 
 41 H        6.7000     1.1970    -1.9100 H     1 <1>   0.0800 
 42 H       -1.9540     4.6580    -0.9230 H     1 <1>   0.1500 
 43 H       -0.9970     3.3960     3.0330 H     1 <1>   0.1500 
 44 H       -2.1050     4.9860     1.5120 H     1 <1>   0.1500 
 45 H        7.7430     3.0100    -3.0370 H     1 <1>   0.1500 
 46 H        8.3230     5.4000    -3.0820 H     1 <1>   0.1500 
 47 H        6.2570     7.1500     0.5150 H     1 <1>   0.0800 
 48 H        5.5230     5.8110     1.3430 H     1 <1>   0.0800 
 49 H        8.4500     6.5910     1.5520 H     1 <1>   0.0800 
 50 H        7.7040     5.2450     2.3840 H     1 <1>   0.0800 
 51 H        7.2310     6.8840     2.7740 H     1 <1>   0.0800 
@<TRIPOS>BOND
  1   1   2  ar  
  2   2   3  ar  
  3   2   4  1   
  4   4   5  1   
  5   4   6  1   
  6   4   7  1   
  7   5   8  1   
  8   5   9  1   
  9   5  27  1   
 10   6  10  1   
 11   6  28  1   
 12   6  29  1   
 13   7  11  1   
 14   7  30  1   
 15   7  31  1   
 16   8  32  1   
 17   9  12  1   
 18   9  33  1   
 19   9  34  1   
 20  10  12  1   
 21  10  35  1   
 22  10  36  1   
 23  11  13  ar  
 24  11  14  ar  
 25  12  15  1   
 26  12  37  1   
 27  13  16  ar  
 28  13  38  1   
 29  14  17  ar  
 30  14  39  1   
 31  15  18  1   
 32  15  40  1   
 33  15  41  1   
 34  16  19  ar  
 35  16  42  1   
 36  17  19  ar  
 37  17  43  1   
 38  18  20  ar  
 39  18  21  ar  
 40  19  44  1   
 41  20  22  ar  
 42  21  23  ar  
 43  21  45  1   
 44  22  24  ar  
 45  22  25  1   
 46  23  24  ar  
 47  23  46  1   
 48  25  26  1   
 49  25  47  1   
 50  25  48  1   
 51  26  49  1   
 52  26  50  1   
 53  26  51  1   
@<TRIPOS>SUBSTRUCTURE
  1 ****   6 GROUP 4 **** **** 0

# MOE 2024.06 (io_trps.svl 2023.06)
