@<TRIPOS>MOLECULE
NONAME
51 54 1 0 0 
SMALL
USER_CHARGES


@<TRIPOS>ATOM
  1 O       -2.2500     0.6650    -2.1860 O.2   1 <1>  -0.5700 
  2 C       -2.1030     0.9870    -1.0220 C.2   1 <1>   0.5440 
  3 N       -2.1580     0.0000    -0.0780 N.am  1 <1>  -0.7300 
  4 C       -1.8710     2.3690    -0.6480 C.ar  1 <1>   0.0860 
  5 C       -2.3790    -1.4370    -0.3580 C.3   1 <1>   0.2200 
  6 C       -2.1310     2.8520     0.6380 C.ar  1 <1>  -0.1500 
  7 C       -1.3670     3.2890    -1.5690 C.ar  1 <1>  -0.1500 
  8 C       -3.8220    -1.7880    -0.0440 C.3   1 <1>  -0.0800 
  9 C       -1.6240    -2.2800     0.6630 C.3   1 <1>   0.1200 
 10 C       -1.8920     4.1690     0.9790 C.ar  1 <1>  -0.1500 
 11 C       -1.1300     4.6060    -1.2290 C.ar  1 <1>  -0.1500 
 12 C       -3.7710    -2.0390     1.4670 C.3   1 <1>   0.1200 
 13 C       -4.2860    -3.0290    -0.8290 C.3   1 <1>  -0.0160 
 14 O       -2.4470    -2.3550     1.7890 O.3   1 <1>  -0.5600 
 15 C       -1.3910     5.0820     0.0550 C.ar  1 <1>   0.1000 
 16 C       -5.7430    -3.3580    -0.5400 C.ar  1 <1>  -0.1430 
 17 N       -1.1550     6.4080     0.4220 N.pl3 1 <1>  -0.8380 
 18 C       -6.7720    -2.6080    -1.0710 C.ar  1 <1>  -0.1500 
 19 C       -6.1120    -4.4160     0.2660 C.ar  1 <1>  -0.1500 
 20 C       -0.5000     7.3980    -0.4660 C.3   1 <1>   0.2090 
 21 C       -1.9860     7.1030     1.4360 C.3   1 <1>   0.2090 
 22 C       -8.0840    -2.9400    -0.7760 C.ar  1 <1>   0.1600 
 23 C       -7.4550    -4.6630     0.4980 C.ar  1 <1>   0.1600 
 24 C       -0.6580     8.7300     0.2520 C.3   1 <1>  -0.1600 
 25 C       -1.9510     8.5750     1.0450 C.3   1 <1>  -0.1600 
 26 N       -8.4500    -3.9490    -0.0020 N.ar  1 <1>  -0.6200 
 27 H       -2.0020     0.2190     0.9070 H     1 <1>   0.3700 
 28 H       -2.0930    -1.6700    -1.3710 H     1 <1>   0.0800 
 29 H       -2.5290     2.1910     1.3850 H     1 <1>   0.1500 
 30 H       -1.1590     2.9550    -2.5710 H     1 <1>   0.1500 
 31 H       -4.4790    -0.9680    -0.2780 H     1 <1>   0.0800 
 32 H       -0.6750    -1.8530     0.9330 H     1 <1>   0.0800 
 33 H       -1.4810    -3.2810     0.2970 H     1 <1>   0.0800 
 34 H       -2.0900     4.4960     1.9820 H     1 <1>   0.1500 
 35 H       -0.7380     5.2670    -1.9760 H     1 <1>   0.1500 
 36 H       -4.4100    -2.8430     1.7850 H     1 <1>   0.0800 
 37 H       -4.0300    -1.1450     2.0070 H     1 <1>   0.0800 
 38 H       -3.6690    -3.8780    -0.5870 H     1 <1>   0.0800 
 39 H       -4.1810    -2.8420    -1.8840 H     1 <1>   0.0800 
 40 H       -6.5670    -1.7700    -1.7120 H     1 <1>   0.1500 
 41 H       -5.3710    -5.0510     0.7160 H     1 <1>   0.1500 
 42 H        0.5370     7.1480    -0.6190 H     1 <1>   0.0800 
 43 H       -1.0160     7.4290    -1.4110 H     1 <1>   0.0800 
 44 H       -2.9940     6.7230     1.4380 H     1 <1>   0.0800 
 45 H       -1.5410     6.9630     2.4060 H     1 <1>   0.0800 
 46 H       -8.8740    -2.3440    -1.2000 H     1 <1>   0.1500 
 47 H       -7.7250    -5.4930     1.1290 H     1 <1>   0.1500 
 48 H        0.1710     8.8630     0.9240 H     1 <1>   0.0800 
 49 H       -0.6920     9.5550    -0.4360 H     1 <1>   0.0800 
 50 H       -2.7950     8.7860     0.4130 H     1 <1>   0.0800 
 51 H       -1.9860     9.2180     1.9060 H     1 <1>   0.0800 
@<TRIPOS>BOND
  1   1   2  2   
  2   2   3  am  
  3   2   4  1   
  4   3   5  1   
  5   3  27  1   
  6   4   6  ar  
  7   4   7  ar  
  8   5   8  1   
  9   5   9  1   
 10   5  28  1   
 11   6  10  ar  
 12   6  29  1   
 13   7  11  ar  
 14   7  30  1   
 15   8  12  1   
 16   8  13  1   
 17   8  31  1   
 18   9  14  1   
 19   9  32  1   
 20   9  33  1   
 21  10  15  ar  
 22  10  34  1   
 23  11  15  ar  
 24  11  35  1   
 25  12  14  1   
 26  12  36  1   
 27  12  37  1   
 28  13  16  1   
 29  13  38  1   
 30  13  39  1   
 31  15  17  1   
 32  16  18  ar  
 33  16  19  ar  
 34  17  20  1   
 35  17  21  1   
 36  18  22  ar  
 37  18  40  1   
 38  19  23  ar  
 39  19  41  1   
 40  20  24  1   
 41  20  42  1   
 42  20  43  1   
 43  21  25  1   
 44  21  44  1   
 45  21  45  1   
 46  22  26  ar  
 47  22  46  1   
 48  23  26  ar  
 49  23  47  1   
 50  24  25  1   
 51  24  48  1   
 52  24  49  1   
 53  25  50  1   
 54  25  51  1   
@<TRIPOS>SUBSTRUCTURE
  1 ****   2 GROUP 4 **** **** 0

# MOE 2024.06 (io_trps.svl 2023.06)
