@<TRIPOS>MOLECULE
NONAME
47 49 1 0 0 
SMALL
USER_CHARGES


@<TRIPOS>ATOM
  1 CL       1.0990    -0.2740     1.2070 Cl    1 <1>  -0.1770 
  2 C        0.5910    -1.9220     0.9200 C.ar  1 <1>   0.1770 
  3 C       -0.0230    -2.2570    -0.2790 C.ar  1 <1>   0.0830 
  4 C        0.8070    -2.8810     1.8890 C.ar  1 <1>  -0.1500 
  5 O       -0.2310    -1.3280    -1.2300 O.3   1 <1>  -0.5330 
  6 C       -0.4250    -3.5600    -0.5040 C.ar  1 <1>  -0.1500 
  7 C        0.3990    -4.1840     1.6530 C.ar  1 <1>  -0.1500 
  8 C       -0.2300    -4.5540     0.4590 C.ar  1 <1>   0.0860 
  9 C       -0.6520    -5.9270     0.2360 C.2   1 <1>   0.5440 
 10 O       -0.0410    -6.8500     0.7450 O.2   1 <1>  -0.5700 
 11 N       -1.7630    -6.2490    -0.5130 N.am  1 <1>  -0.6600 
 12 C       -1.9090    -7.6370    -1.0220 C.3   1 <1>   0.1400 
 13 C       -3.0630    -5.5650    -0.2780 C.3   1 <1>   0.1400 
 14 C       -2.6510    -8.4750     0.0420 C.3   1 <1>   0.4230 
 15 C       -3.8470    -6.3710     0.7680 C.3   1 <1>  -0.1600 
 16 N       -2.6720    -9.9690    -0.2470 N.4   1 <1>  -0.9590 
 17 C       -4.0460    -7.8710     0.3910 C.3   1 <1>   0.0000 
 18 C       -3.7090   -10.7270     0.5260 C.3   1 <1>   0.3430 
 19 C       -2.7290   -10.3480    -1.6960 C.3   1 <1>   0.2630 
 20 C       -4.6330    -8.6220     1.6240 C.3   1 <1>  -0.1600 
 21 C       -5.0040    -7.9960    -0.8290 C.3   1 <1>   0.1200 
 22 C       -4.0330   -10.0250     1.8430 C.3   1 <1>  -0.1600 
 23 O       -6.1910    -7.3140    -0.6230 O.3   1 <1>  -0.6800 
 24 H        1.2890    -2.6120     2.8120 H     1 <1>   0.1500 
 25 H        0.1090    -0.4470    -0.9740 H     1 <1>   0.4500 
 26 H       -0.8890    -3.8040    -1.4430 H     1 <1>   0.1500 
 27 H        0.5720    -4.9360     2.4050 H     1 <1>   0.1500 
 28 H       -2.4410    -7.6110    -1.9550 H     1 <1>   0.0800 
 29 H       -0.9320    -8.0530    -1.1990 H     1 <1>   0.0800 
 30 H       -2.9040    -4.5630     0.0850 H     1 <1>   0.0800 
 31 H       -3.6140    -5.4980    -1.2020 H     1 <1>   0.0800 
 32 H       -2.0630    -8.3550     0.9380 H     1 <1>   0.0800 
 33 H       -3.3020    -6.2990     1.6940 H     1 <1>   0.0800 
 34 H       -4.7950    -5.8910     0.9350 H     1 <1>   0.0800 
 35 H       -1.7600   -10.2980     0.1090 H     1 <1>   0.4500 
 36 H       -4.6150   -10.7990    -0.0540 H     1 <1>   0.0800 
 37 H       -3.3600   -11.7290     0.7220 H     1 <1>   0.0800 
 38 H       -3.6420    -9.9930    -2.1450 H     1 <1>   0.0800 
 39 H       -2.6900   -11.4210    -1.8030 H     1 <1>   0.0800 
 40 H       -1.8930    -9.9270    -2.2310 H     1 <1>   0.0800 
 41 H       -4.4650    -8.0590     2.5270 H     1 <1>   0.0800 
 42 H       -5.7010    -8.7130     1.5280 H     1 <1>   0.0800 
 43 H       -5.2550    -9.0220    -1.0300 H     1 <1>   0.0800 
 44 H       -4.5660    -7.5750    -1.7160 H     1 <1>   0.0800 
 45 H       -4.7320   -10.6240     2.4020 H     1 <1>   0.0800 
 46 H       -3.1360    -9.9560     2.4350 H     1 <1>   0.0800 
 47 H       -6.6950    -7.6670     0.1370 H     1 <1>   0.4000 
@<TRIPOS>BOND
  1   1   2  1   
  2   2   3  ar  
  3   2   4  ar  
  4   3   5  1   
  5   3   6  ar  
  6   4   7  ar  
  7   4  24  1   
  8   5  25  1   
  9   6   8  ar  
 10   6  26  1   
 11   7   8  ar  
 12   7  27  1   
 13   8   9  1   
 14   9  10  2   
 15   9  11  am  
 16  11  12  1   
 17  11  13  1   
 18  12  14  1   
 19  12  28  1   
 20  12  29  1   
 21  13  15  1   
 22  13  30  1   
 23  13  31  1   
 24  14  16  1   
 25  14  17  1   
 26  14  32  1   
 27  15  17  1   
 28  15  33  1   
 29  15  34  1   
 30  16  18  1   
 31  16  19  1   
 32  16  35  1   
 33  17  20  1   
 34  17  21  1   
 35  18  22  1   
 36  18  36  1   
 37  18  37  1   
 38  19  38  1   
 39  19  39  1   
 40  19  40  1   
 41  20  22  1   
 42  20  41  1   
 43  20  42  1   
 44  21  23  1   
 45  21  43  1   
 46  21  44  1   
 47  22  45  1   
 48  22  46  1   
 49  23  47  1   
@<TRIPOS>SUBSTRUCTURE
  1 ****  11 GROUP 4 **** **** 0

# MOE 2024.06 (io_trps.svl 2023.06)
