@<TRIPOS>MOLECULE
NONAME
41 42 1 0 0 
SMALL
USER_CHARGES


@<TRIPOS>ATOM
  1 S       -0.0130     1.1150    -0.2600 S.3   1 <1>  -0.0800 
  2 C        1.5930     1.7060     0.1780 C.2   1 <1>  -0.0450 
  3 C        0.6160    -0.4090    -0.8490 C.2   1 <1>  -0.1400 
  4 C        1.7040     3.0230     0.7600 C.2   1 <1>   0.7150 
  5 C        2.5020     0.7490    -0.1450 C.2   1 <1>  -0.1500 
  6 C        1.9550    -0.4370    -0.7160 C.2   1 <1>  -0.1500 
  7 C       -0.4030    -1.3980    -1.3890 C.3   1 <1>   0.0200 
  8 O        0.9660     3.9160     0.3800 O.2   1 <1>  -0.5700 
  9 N        2.6530     3.3220     1.7240 N.am  1 <1>  -0.6600 
 10 C        0.2480    -2.6950    -1.8750 C.3   1 <1>  -0.2400 
 11 C        2.9220     4.7320     2.1120 C.3   1 <1>   0.1400 
 12 C        3.4090     2.2960     2.4970 C.3   1 <1>   0.0600 
 13 C        3.8820     5.3560     1.0990 C.3   1 <1>  -0.1600 
 14 C        4.0290     6.8640     1.3260 C.3   1 <1>   0.0200 
 15 C        4.9150     7.4900     0.2640 C.2   1 <1>   0.0060 
 16 N        6.1320     7.8590     0.5020 N.2   1 <1>  -0.5650 
 17 N        4.5170     7.7160    -1.0150 N.pl3 1 <1>   0.0480 
 18 C        6.5570     8.3490    -0.6760 C.2   1 <1>   0.0770 
 19 C        5.5870     8.2690    -1.6110 C.2   1 <1>  -0.3020 
 20 C        3.2210     7.4260    -1.6580 C.3   1 <1>   0.0160 
 21 H        3.5640     0.8450    -0.0050 H     1 <1>   0.1500 
 22 H        2.5930    -1.2550    -1.0030 H     1 <1>   0.1500 
 23 H       -0.9360    -0.9380    -2.2030 H     1 <1>   0.0800 
 24 H       -1.1140    -1.6240    -0.6130 H     1 <1>   0.0800 
 25 H        0.9460    -2.4870    -2.6660 H     1 <1>   0.0800 
 26 H       -0.5040    -3.3670    -2.2480 H     1 <1>   0.0800 
 27 H        0.7680    -3.1760    -1.0660 H     1 <1>   0.0800 
 28 H        3.3450     4.7760     3.1010 H     1 <1>   0.0800 
 29 H        1.9950     5.2800     2.1250 H     1 <1>   0.0800 
 30 H        2.9290     1.3360     2.4300 H     1 <1>   0.0800 
 31 H        3.4490     2.5740     3.5360 H     1 <1>   0.0800 
 32 H        4.4120     2.2210     2.1150 H     1 <1>   0.0800 
 33 H        3.5030     5.1860     0.1070 H     1 <1>   0.0800 
 34 H        4.8490     4.8910     1.1780 H     1 <1>   0.0800 
 35 H        4.4710     7.0400     2.2920 H     1 <1>   0.0800 
 36 H        3.0660     7.3430     1.3140 H     1 <1>   0.0800 
 37 H        7.5540     8.7400    -0.7900 H     1 <1>   0.1500 
 38 H        5.6040     8.5700    -2.6420 H     1 <1>   0.1500 
 39 H        2.4230     7.5680    -0.9530 H     1 <1>   0.0800 
 40 H        3.2170     6.4090    -2.0050 H     1 <1>   0.0800 
 41 H        3.0790     8.0890    -2.4920 H     1 <1>   0.0800 
@<TRIPOS>BOND
  1   1   2  1   
  2   1   3  1   
  3   2   4  1   
  4   2   5  2   
  5   3   6  2   
  6   3   7  1   
  7   4   8  2   
  8   4   9  am  
  9   5   6  1   
 10   5  21  1   
 11   6  22  1   
 12   7  10  1   
 13   7  23  1   
 14   7  24  1   
 15   9  11  1   
 16   9  12  1   
 17  10  25  1   
 18  10  26  1   
 19  10  27  1   
 20  11  13  1   
 21  11  28  1   
 22  11  29  1   
 23  12  30  1   
 24  12  31  1   
 25  12  32  1   
 26  13  14  1   
 27  13  33  1   
 28  13  34  1   
 29  14  15  1   
 30  14  35  1   
 31  14  36  1   
 32  15  16  2   
 33  15  17  1   
 34  16  18  1   
 35  17  19  1   
 36  17  20  1   
 37  18  19  2   
 38  18  37  1   
 39  19  38  1   
 40  20  39  1   
 41  20  40  1   
 42  20  41  1   
@<TRIPOS>SUBSTRUCTURE
  1 ****   4 GROUP 4 **** **** 0

# MOE 2024.06 (io_trps.svl 2023.06)
