@<TRIPOS>MOLECULE
NONAME
53 57 1 0 0 
SMALL
USER_CHARGES


@<TRIPOS>ATOM
  1 O       -0.1110     0.5890     2.1030 O.2   1 <1>  -0.5700 
  2 C       -1.0040     1.0020     1.3990 C.2   1 <1>   0.5690 
  3 N       -2.2610     0.4420     1.4260 N.am  1 <1>  -0.6600 
  4 C       -0.6610     2.1550     0.4580 C.3   1 <1>   0.1810 
  5 C       -2.6040    -0.6540     2.3770 C.3   1 <1>   0.1400 
  6 C       -3.4120     0.8760     0.5860 C.3   1 <1>   0.1400 
  7 O       -1.3820     3.3390     0.7950 O.3   1 <1>  -0.4300 
  8 C       -3.1170    -1.8640     1.5940 C.3   1 <1>  -0.1600 
  9 C       -3.9210    -0.3200    -0.2230 C.3   1 <1>  -0.1600 
 10 C       -1.1820     4.4760     0.0990 C.2   1 <1>   0.5860 
 11 C       -4.3020    -1.5030     0.6850 C.3   1 <1>   0.4240 
 12 N       -0.4180     4.4700    -0.9480 N.2   1 <1>  -0.6520 
 13 C       -1.8560     5.6220     0.5980 C.2   1 <1>  -0.1360 
 14 O       -5.3200    -1.0710     1.5580 O.3   1 <1>  -0.5600 
 15 C       -4.7400    -2.7290    -0.1460 C.ar  1 <1>  -0.1440 
 16 N       -0.2950     5.7010    -1.5650 N.pl3 1 <1>   0.5050 
 17 C       -1.7200     6.8190    -0.0330 C.2   1 <1>  -0.1050 
 18 C       -6.6310    -1.1060     1.0880 C.3   1 <1>   0.1200 
 19 C       -6.0350    -3.2310    -0.0600 C.ar  1 <1>  -0.1440 
 20 C       -3.8440    -3.3550    -1.0060 C.ar  1 <1>  -0.1500 
 21 C       -0.8950     6.8540    -1.1750 C.2   1 <1>   0.1420 
 22 C        0.3870     6.0840    -2.6410 C.2   1 <1>   0.0370 
 23 C       -7.0340    -2.5600     0.8610 C.3   1 <1>  -0.0170 
 24 C       -6.4190    -4.3340    -0.8070 C.ar  1 <1>  -0.1500 
 25 C       -4.2260    -4.4530    -1.7540 C.ar  1 <1>  -0.1500 
 26 N       -0.5810     7.8430    -1.9750 N.2   1 <1>  -0.3380 
 27 N        0.2320     7.3450    -2.9010 N.2   1 <1>  -0.3380 
 28 C       -5.5120    -4.9530    -1.6610 C.ar  1 <1>   0.0820 
 29 O       -5.8060    -6.0340    -2.4260 O.3   1 <1>  -0.3620 
 30 C       -7.0820    -6.6320    -2.3890 C.3   1 <1>   0.0400 
 31 H       -0.8960     1.8810    -0.5540 H     1 <1>   0.0800 
 32 H        0.3900     2.3700     0.5320 H     1 <1>   0.0800 
 33 H       -3.3640    -0.3060     3.0570 H     1 <1>   0.0800 
 34 H       -1.7450    -0.9400     2.9590 H     1 <1>   0.0800 
 35 H       -3.1350     1.6680    -0.0840 H     1 <1>   0.0800 
 36 H       -4.1950     1.2430     1.2290 H     1 <1>   0.0800 
 37 H       -3.4210    -2.6370     2.2760 H     1 <1>   0.0800 
 38 H       -2.3030    -2.2520     1.0110 H     1 <1>   0.0800 
 39 H       -3.1440    -0.6230    -0.8990 H     1 <1>   0.0800 
 40 H       -4.7630    -0.0300    -0.8210 H     1 <1>   0.0800 
 41 H       -2.4630     5.5010     1.4770 H     1 <1>   0.1500 
 42 H       -2.2010     7.7270     0.2890 H     1 <1>   0.1500 
 43 H       -6.6980    -0.5390     0.1760 H     1 <1>   0.0800 
 44 H       -7.2610    -0.6530     1.8330 H     1 <1>   0.0800 
 45 H       -2.8360    -2.9930    -1.1040 H     1 <1>   0.1500 
 46 H        0.9890     5.4020    -3.2080 H     1 <1>   0.1500 
 47 H       -8.0180    -2.5910     0.4310 H     1 <1>   0.0800 
 48 H       -7.0590    -3.0750     1.8050 H     1 <1>   0.0800 
 49 H       -7.4230    -4.6990    -0.7150 H     1 <1>   0.1500 
 50 H       -3.5270    -4.9330    -2.4150 H     1 <1>   0.1500 
 51 H       -7.0770    -7.4690    -3.0640 H     1 <1>   0.0800 
 52 H       -7.8150    -5.9120    -2.7050 H     1 <1>   0.0800 
 53 H       -7.2800    -6.9720    -1.3880 H     1 <1>   0.0800 
@<TRIPOS>BOND
  1   1   2  2   
  2   2   3  am  
  3   2   4  1   
  4   3   5  1   
  5   3   6  1   
  6   4   7  1   
  7   4  31  1   
  8   4  32  1   
  9   5   8  1   
 10   5  33  1   
 11   5  34  1   
 12   6   9  1   
 13   6  35  1   
 14   6  36  1   
 15   7  10  1   
 16   8  11  1   
 17   8  37  1   
 18   8  38  1   
 19   9  11  1   
 20   9  39  1   
 21   9  40  1   
 22  10  12  2   
 23  10  13  1   
 24  11  14  1   
 25  11  15  1   
 26  12  16  1   
 27  13  17  2   
 28  13  41  1   
 29  14  18  1   
 30  15  19  ar  
 31  15  20  ar  
 32  16  21  1   
 33  16  22  1   
 34  17  21  1   
 35  17  42  1   
 36  18  23  1   
 37  18  43  1   
 38  18  44  1   
 39  19  23  1   
 40  19  24  ar  
 41  20  25  ar  
 42  20  45  1   
 43  21  26  2   
 44  22  27  2   
 45  22  46  1   
 46  23  47  1   
 47  23  48  1   
 48  24  28  ar  
 49  24  49  1   
 50  25  28  ar  
 51  25  50  1   
 52  26  27  1   
 53  28  29  1   
 54  29  30  1   
 55  30  51  1   
 56  30  52  1   
 57  30  53  1   
@<TRIPOS>SUBSTRUCTURE
  1 ****   6 GROUP 4 **** **** 0

# MOE 2024.06 (io_trps.svl 2023.06)
