@<TRIPOS>MOLECULE
NONAME
50 51 1 0 0 
SMALL
USER_CHARGES


@<TRIPOS>ATOM
  1 O       -0.3960    -0.4800     1.2010 O.2   1 <1>  -0.5700 
  2 C        0.4500    -0.7330     0.3740 C.2   1 <1>   0.5690 
  3 N        1.4670     0.1350     0.1120 N.am  1 <1>  -0.7300 
  4 C        0.3460    -2.0710    -0.4100 C.3   1 <1>   0.4840 
  5 C        1.6810     1.4190     0.8060 C.3   1 <1>   0.2200 
  6 N       -1.0700    -2.5470    -0.6400 N.4   1 <1>  -0.9590 
  7 C        1.1400    -3.1580     0.3240 C.3   1 <1>  -0.2400 
  8 C        1.8270     2.5190    -0.2370 C.3   1 <1>  -0.1600 
  9 C        3.0480     1.3880     1.4760 C.3   1 <1>  -0.1600 
 10 C       -1.2130    -3.8280    -1.3890 C.3   1 <1>   0.5240 
 11 C       -2.0020    -1.4910    -1.1390 C.3   1 <1>   0.2630 
 12 C        3.2770     2.4400    -0.7280 C.3   1 <1>  -0.1600 
 13 C        4.0620     1.7130     0.3720 C.3   1 <1>  -0.1600 
 14 C       -1.5980    -4.9100    -0.3850 C.2   1 <1>   0.1080 
 15 N       -1.9660    -4.6390     0.8350 N.2   1 <1>  -0.7070 
 16 C       -1.5940    -6.2760    -0.6400 C.2   1 <1>  -0.1500 
 17 N       -2.2150    -5.8440     1.3910 N.pl3 1 <1>   0.3000 
 18 C       -1.9940    -6.8490     0.5170 C.2   1 <1>  -0.3320 
 19 C       -2.1960    -8.3130     0.8880 C.3   1 <1>   0.0200 
 20 C       -1.8730    -9.2570    -0.2760 C.3   1 <1>  -0.1600 
 21 C       -2.0790   -10.7240     0.1160 C.3   1 <1>  -0.2400 
 22 H        2.2160    -0.0750    -0.5510 H     1 <1>   0.3700 
 23 H        0.8080    -1.9030    -1.3680 H     1 <1>   0.0800 
 24 H        0.8860     1.6200     1.5080 H     1 <1>   0.0800 
 25 H       -1.4150    -2.8260     0.3060 H     1 <1>   0.4500 
 26 H        0.6700    -3.3930     1.2630 H     1 <1>   0.0800 
 27 H        2.1320    -2.7990     0.5340 H     1 <1>   0.0800 
 28 H        1.2380    -4.0510    -0.2630 H     1 <1>   0.0800 
 29 H        1.6780     3.4670     0.2510 H     1 <1>   0.0800 
 30 H        1.1090     2.4310    -1.0330 H     1 <1>   0.0800 
 31 H        3.2470     0.4500     1.9640 H     1 <1>   0.0800 
 32 H        3.0800     2.1690     2.2160 H     1 <1>   0.0800 
 33 H       -0.2930    -4.0910    -1.8810 H     1 <1>   0.0800 
 34 H       -1.9940    -3.7460    -2.1270 H     1 <1>   0.0800 
 35 H       -1.6990    -1.1470    -2.1140 H     1 <1>   0.0800 
 36 H       -2.0140    -0.6510    -0.4630 H     1 <1>   0.0800 
 37 H       -3.0050    -1.8820    -1.2010 H     1 <1>   0.0800 
 38 H        3.6740     3.4260    -0.9050 H     1 <1>   0.0800 
 39 H        3.3290     1.8790    -1.6450 H     1 <1>   0.0800 
 40 H        4.4860     0.8050    -0.0210 H     1 <1>   0.0800 
 41 H        4.8590     2.3270     0.7560 H     1 <1>   0.0800 
 42 H       -1.3290    -6.7580    -1.5650 H     1 <1>   0.1500 
 43 H       -2.5340    -5.9520     2.3640 H     1 <1>   0.2700 
 44 H       -3.2190    -8.4620     1.1900 H     1 <1>   0.0800 
 45 H       -1.5630    -8.5560     1.7240 H     1 <1>   0.0800 
 46 H       -0.8500    -9.1150    -0.5800 H     1 <1>   0.0800 
 47 H       -2.5090    -9.0240    -1.1130 H     1 <1>   0.0800 
 48 H       -1.4370   -10.9890     0.9380 H     1 <1>   0.0800 
 49 H       -1.8460   -11.3630    -0.7170 H     1 <1>   0.0800 
 50 H       -3.1020   -10.8990     0.4030 H     1 <1>   0.0800 
@<TRIPOS>BOND
  1   1   2  2   
  2   2   3  am  
  3   2   4  1   
  4   3   5  1   
  5   3  22  1   
  6   4   6  1   
  7   4   7  1   
  8   4  23  1   
  9   5   8  1   
 10   5   9  1   
 11   5  24  1   
 12   6  10  1   
 13   6  11  1   
 14   6  25  1   
 15   7  26  1   
 16   7  27  1   
 17   7  28  1   
 18   8  12  1   
 19   8  29  1   
 20   8  30  1   
 21   9  13  1   
 22   9  31  1   
 23   9  32  1   
 24  10  14  1   
 25  10  33  1   
 26  10  34  1   
 27  11  35  1   
 28  11  36  1   
 29  11  37  1   
 30  12  13  1   
 31  12  38  1   
 32  12  39  1   
 33  13  40  1   
 34  13  41  1   
 35  14  15  2   
 36  14  16  1   
 37  15  17  1   
 38  16  18  2   
 39  16  42  1   
 40  17  18  1   
 41  17  43  1   
 42  18  19  1   
 43  19  20  1   
 44  19  44  1   
 45  19  45  1   
 46  20  21  1   
 47  20  46  1   
 48  20  47  1   
 49  21  48  1   
 50  21  49  1   
 51  21  50  1   
@<TRIPOS>SUBSTRUCTURE
  1 ****   4 GROUP 4 **** **** 0

# MOE 2024.06 (io_trps.svl 2023.06)
