@<TRIPOS>MOLECULE
NONAME
50 52 1 0 0 
SMALL
USER_CHARGES


@<TRIPOS>ATOM
  1 S        0.3430     0.3720    -1.5300 S.o2  1 <1>   1.4470 
  2 O        1.0350     1.4820    -2.1520 O.2   1 <1>  -0.6500 
  3 O       -0.3630    -0.5630    -2.3830 O.2   1 <1>  -0.6500 
  4 N       -0.7900     1.0270    -0.4460 N.am  1 <1>  -0.8490 
  5 C        1.4900    -0.5410    -0.4440 C.ar  1 <1>  -0.0090 
  6 C       -1.6560     0.0290     0.2250 C.3   1 <1>   0.1960 
  7 C       -1.4990     2.2020    -0.9410 C.3   1 <1>   0.1960 
  8 C        2.2830     0.0700     0.5330 C.ar  1 <1>  -0.1440 
  9 C        1.5830    -1.9240    -0.5740 C.ar  1 <1>  -0.1500 
 10 C       -3.1710     0.1010    -0.1290 C.3   1 <1>   0.0000 
 11 C       -2.5990     1.8260    -1.9460 C.3   1 <1>  -0.1600 
 12 C        3.1210    -0.6930     1.3340 C.ar  1 <1>  -0.1500 
 13 C        2.2610     1.5780     0.7550 C.3   1 <1>  -0.0970 
 14 C        2.4190    -2.6800     0.2250 C.ar  1 <1>  -0.1500 
 15 C       -4.0040     1.0280     0.7880 C.3   1 <1>   0.2000 
 16 C       -3.3300     0.5110    -1.6130 C.3   1 <1>  -0.1600 
 17 C       -3.8450    -1.2640     0.0980 C.3   1 <1>  -0.1600 
 18 C        3.1940    -2.0660     1.1890 C.ar  1 <1>  -0.1430 
 19 O       -3.5820     0.8840     2.1140 O.3   1 <1>  -0.5600 
 20 C       -5.4410     0.5020     0.6910 C.3   1 <1>  -0.1600 
 21 C       -5.3360    -0.9810     0.3120 C.3   1 <1>  -0.1600 
 22 C        4.1180    -2.8830     2.0740 C.3   1 <1>  -0.0970 
 23 C       -3.8220     1.9840     2.9330 C.3   1 <1>   0.0400 
 24 H       -1.3080    -0.9570    -0.0300 H     1 <1>   0.0800 
 25 H       -1.5160     0.1210     1.2870 H     1 <1>   0.0800 
 26 H       -1.9400     2.7050    -0.0980 H     1 <1>   0.0800 
 27 H       -0.8100     2.8980    -1.3910 H     1 <1>   0.0800 
 28 H        0.9880    -2.4250    -1.3190 H     1 <1>   0.1500 
 29 H       -3.3080     2.6340    -1.9840 H     1 <1>   0.0800 
 30 H       -2.1630     1.7450    -2.9270 H     1 <1>   0.0800 
 31 H        3.7280    -0.2140     2.0820 H     1 <1>   0.1500 
 32 H        2.9350     1.8640     1.5420 H     1 <1>   0.0800 
 33 H        1.2740     1.9030     1.0310 H     1 <1>   0.0800 
 34 H        2.5620     2.0910    -0.1400 H     1 <1>   0.0800 
 35 H        2.4630    -3.7470     0.0920 H     1 <1>   0.1500 
 36 H       -3.9300     2.0620     0.5010 H     1 <1>   0.0800 
 37 H       -2.9060    -0.2670    -2.2240 H     1 <1>   0.0800 
 38 H       -4.3650     0.5920    -1.8940 H     1 <1>   0.0800 
 39 H       -3.6760    -1.9500    -0.7140 H     1 <1>   0.0800 
 40 H       -3.4540    -1.7020     1.0010 H     1 <1>   0.0800 
 41 H       -5.9850     0.6390     1.6080 H     1 <1>   0.0800 
 42 H       -5.9550     1.0280    -0.0930 H     1 <1>   0.0800 
 43 H       -5.7270    -1.6080     1.0950 H     1 <1>   0.0800 
 44 H       -5.8860    -1.1690    -0.5940 H     1 <1>   0.0800 
 45 H        3.7660    -3.8950     2.1560 H     1 <1>   0.0800 
 46 H        4.1610    -2.4590     3.0610 H     1 <1>   0.0800 
 47 H        5.1080    -2.8920     1.6550 H     1 <1>   0.0800 
 48 H       -3.4920     1.7380     3.9270 H     1 <1>   0.0800 
 49 H       -4.8760     2.2010     2.9460 H     1 <1>   0.0800 
 50 H       -3.2640     2.8270     2.5650 H     1 <1>   0.0800 
@<TRIPOS>BOND
  1   1   2  2   
  2   1   3  2   
  3   1   4  am  
  4   1   5  1   
  5   4   6  1   
  6   4   7  1   
  7   5   8  ar  
  8   5   9  ar  
  9   6  10  1   
 10   6  24  1   
 11   6  25  1   
 12   7  11  1   
 13   7  26  1   
 14   7  27  1   
 15   8  12  ar  
 16   8  13  1   
 17   9  14  ar  
 18   9  28  1   
 19  10  15  1   
 20  10  16  1   
 21  10  17  1   
 22  11  16  1   
 23  11  29  1   
 24  11  30  1   
 25  12  18  ar  
 26  12  31  1   
 27  13  32  1   
 28  13  33  1   
 29  13  34  1   
 30  14  18  ar  
 31  14  35  1   
 32  15  19  1   
 33  15  20  1   
 34  15  36  1   
 35  16  37  1   
 36  16  38  1   
 37  17  21  1   
 38  17  39  1   
 39  17  40  1   
 40  18  22  1   
 41  19  23  1   
 42  20  21  1   
 43  20  41  1   
 44  20  42  1   
 45  21  43  1   
 46  21  44  1   
 47  22  45  1   
 48  22  46  1   
 49  22  47  1   
 50  23  48  1   
 51  23  49  1   
 52  23  50  1   
@<TRIPOS>SUBSTRUCTURE
  1 ****   6 GROUP 4 **** **** 0

# MOE 2024.06 (io_trps.svl 2023.06)
