@<TRIPOS>MOLECULE
NONAME
57 60 1 0 0 
SMALL
USER_CHARGES


@<TRIPOS>ATOM
  1 O       -1.8710    -0.4240     1.9980 O.2   1 <1>  -0.5700 
  2 C       -2.2580     0.2180     1.0400 C.2   1 <1>   0.5440 
  3 N       -1.4580     1.2350     0.5600 N.am  1 <1>  -0.6600 
  4 C       -3.5260    -0.1200     0.4430 C.ar  1 <1>   0.0860 
  5 C       -1.5240     1.7940    -0.8230 C.3   1 <1>   0.1400 
  6 C       -0.2760     1.7290     1.3280 C.3   1 <1>   0.1400 
  7 C       -3.8280    -1.4460     0.1440 C.ar  1 <1>   0.1600 
  8 C       -4.5060     0.8250     0.1550 C.ar  1 <1>  -0.1500 
  9 C       -1.3620     3.3240    -0.7920 C.3   1 <1>   0.1200 
 10 C       -0.1720     3.2610     1.2330 C.3   1 <1>   0.1200 
 11 N       -4.9460    -1.8850    -0.4110 N.ar  1 <1>  -0.6200 
 12 C       -5.6760     0.3890    -0.4170 C.ar  1 <1>  -0.1500 
 13 O       -0.1980     3.6820    -0.1030 O.3   1 <1>  -0.5600 
 14 C       -5.8620    -0.9640    -0.6890 C.ar  1 <1>   0.4100 
 15 N       -7.0350    -1.3880    -1.2610 N.pl3 1 <1>  -0.8690 
 16 C       -7.2380    -2.7610    -1.7720 C.3   1 <1>   0.2090 
 17 C       -7.6520    -3.6730    -0.6100 C.3   1 <1>  -0.0800 
 18 C       -7.7520    -5.1400    -1.0170 C.3   1 <1>   0.3430 
 19 C       -9.0080    -3.3220     0.0070 C.3   1 <1>  -0.1600 
 20 N       -9.0510    -5.6310    -0.4740 N.4   1 <1>  -0.9590 
 21 C       -9.5180    -4.6470     0.5360 C.3   1 <1>   0.3430 
 22 C       -8.9960    -7.0210     0.0520 C.3   1 <1>   0.4860 
 23 C      -10.4070    -7.4520     0.3980 C.ar  1 <1>  -0.1440 
 24 C      -11.2910    -7.8240    -0.6060 C.ar  1 <1>  -0.1500 
 25 C      -10.8280    -7.4750     1.7200 C.ar  1 <1>  -0.1500 
 26 C      -12.5840    -8.2020    -0.2910 C.ar  1 <1>  -0.1500 
 27 C      -12.1210    -7.8530     2.0330 C.ar  1 <1>  -0.1500 
 28 C      -13.0000    -8.2150     1.0280 C.ar  1 <1>  -0.1500 
 29 H       -2.4500     1.5390    -1.3040 H     1 <1>   0.0800 
 30 H       -0.7250     1.3740    -1.4080 H     1 <1>   0.0800 
 31 H        0.6180     1.2840     0.9300 H     1 <1>   0.0800 
 32 H       -0.3570     1.4450     2.3630 H     1 <1>   0.0800 
 33 H       -3.0820    -2.1850     0.3860 H     1 <1>   0.1500 
 34 H       -4.3430     1.8630     0.3850 H     1 <1>   0.1500 
 35 H       -2.2050     3.7870    -0.3100 H     1 <1>   0.0800 
 36 H       -1.2820     3.7090    -1.7930 H     1 <1>   0.0800 
 37 H        0.7540     3.5960     1.6650 H     1 <1>   0.0800 
 38 H       -0.9870     3.7270     1.7580 H     1 <1>   0.0800 
 39 H       -6.4600     1.0830    -0.6540 H     1 <1>   0.1500 
 40 H       -7.6300    -0.6670    -1.6770 H     1 <1>   0.4000 
 41 H       -6.3210    -3.1140    -2.2150 H     1 <1>   0.0800 
 42 H       -7.9970    -2.7490    -2.5370 H     1 <1>   0.0800 
 43 H       -6.8950    -3.6150     0.1530 H     1 <1>   0.0800 
 44 H       -6.9240    -5.6850    -0.5920 H     1 <1>   0.0800 
 45 H       -7.7300    -5.2450    -2.0900 H     1 <1>   0.0800 
 46 H       -9.6880    -2.9490    -0.7390 H     1 <1>   0.0800 
 47 H       -8.9130    -2.5880     0.7890 H     1 <1>   0.0800 
 48 H       -9.7510    -5.6250    -1.2260 H     1 <1>   0.4500 
 49 H      -10.5920    -4.6580     0.6410 H     1 <1>   0.0800 
 50 H       -9.0610    -4.8530     1.4910 H     1 <1>   0.0800 
 51 H       -8.3700    -7.0660     0.9270 H     1 <1>   0.0800 
 52 H       -8.5930    -7.6860    -0.6950 H     1 <1>   0.0800 
 53 H      -10.9890    -7.8310    -1.6400 H     1 <1>   0.1500 
 54 H      -10.1610    -7.2040     2.5210 H     1 <1>   0.1500 
 55 H      -13.2710    -8.4920    -1.0690 H     1 <1>   0.1500 
 56 H      -12.4490    -7.8720     3.0600 H     1 <1>   0.1500 
 57 H      -14.0060    -8.5100     1.2730 H     1 <1>   0.1500 
@<TRIPOS>BOND
  1   1   2  2   
  2   2   3  am  
  3   2   4  1   
  4   3   5  1   
  5   3   6  1   
  6   4   7  ar  
  7   4   8  ar  
  8   5   9  1   
  9   5  29  1   
 10   5  30  1   
 11   6  10  1   
 12   6  31  1   
 13   6  32  1   
 14   7  11  ar  
 15   7  33  1   
 16   8  12  ar  
 17   8  34  1   
 18   9  13  1   
 19   9  35  1   
 20   9  36  1   
 21  10  13  1   
 22  10  37  1   
 23  10  38  1   
 24  11  14  ar  
 25  12  14  ar  
 26  12  39  1   
 27  14  15  1   
 28  15  16  1   
 29  15  40  1   
 30  16  17  1   
 31  16  41  1   
 32  16  42  1   
 33  17  18  1   
 34  17  19  1   
 35  17  43  1   
 36  18  20  1   
 37  18  44  1   
 38  18  45  1   
 39  19  21  1   
 40  19  46  1   
 41  19  47  1   
 42  20  21  1   
 43  20  22  1   
 44  20  48  1   
 45  21  49  1   
 46  21  50  1   
 47  22  23  1   
 48  22  51  1   
 49  22  52  1   
 50  23  24  ar  
 51  23  25  ar  
 52  24  26  ar  
 53  24  53  1   
 54  25  27  ar  
 55  25  54  1   
 56  26  28  ar  
 57  26  55  1   
 58  27  28  ar  
 59  27  56  1   
 60  28  57  1   
@<TRIPOS>SUBSTRUCTURE
  1 ****  11 GROUP 4 **** **** 0

# MOE 2024.06 (io_trps.svl 2023.06)
