@<TRIPOS>MOLECULE
NONAME
46 49 1 0 0 
SMALL
USER_CHARGES


@<TRIPOS>ATOM
  1 O        7.9560     0.0250    -2.1460 O.2   1 <1>  -0.5700 
  2 C        8.8510     0.8550    -2.0030 C.2   1 <1>   0.6160 
  3 N        9.1020     1.4060    -0.7560 N.am  1 <1>  -0.4690 
  4 C        9.6110     1.3140    -3.1110 C.2   1 <1>  -0.1360 
  5 C        9.9460     2.5100    -0.6360 C.2   1 <1>  -0.0290 
  6 C        8.5920     0.6850     0.4500 C.3   1 <1>   0.1400 
  7 C       10.4920     2.3400    -2.9820 C.2   1 <1>  -0.1500 
  8 C       10.6370     2.9610    -1.7190 C.2   1 <1>  -0.1500 
  9 C       10.0570     3.2320     0.7150 C.3   1 <1>   0.0580 
 10 C        8.5240     1.5700     1.7030 C.3   1 <1>  -0.0800 
 11 C        8.9770     4.3230     0.8130 C.3   1 <1>   0.1400 
 12 C        9.8780     2.2630     1.8860 C.3   1 <1>  -0.1600 
 13 C        7.3590     2.5870     1.6530 C.3   1 <1>   0.1400 
 14 N        7.6010     3.7370     0.7230 N.am  1 <1>  -0.6600 
 15 C        6.6740     4.3710    -0.0710 C.2   1 <1>   0.5690 
 16 O        6.7900     5.5430    -0.3370 O.2   1 <1>  -0.5700 
 17 C        5.4780     3.6700    -0.7280 C.3   1 <1>  -0.0190 
 18 C        4.2670     3.4360     0.1930 C.3   1 <1>  -0.1600 
 19 C        5.8690     2.3860    -1.4740 C.3   1 <1>  -0.1600 
 20 C        3.1110     2.7960    -0.5800 C.3   1 <1>   0.3430 
 21 C        4.6890     1.7620    -2.2080 C.3   1 <1>   0.3430 
 22 N        3.5720     1.5430    -1.2470 N.4   1 <1>  -0.9060 
 23 H        9.4490     0.8120    -4.0460 H     1 <1>   0.1500 
 24 H        7.6230     0.2640     0.2530 H     1 <1>   0.0800 
 25 H        9.2620    -0.1360     0.6400 H     1 <1>   0.0800 
 26 H       11.0770     2.7020    -3.8100 H     1 <1>   0.1500 
 27 H       11.3010     3.8050    -1.6510 H     1 <1>   0.1500 
 28 H       11.0220     3.7020     0.7910 H     1 <1>   0.0800 
 29 H        8.3530     0.9210     2.5440 H     1 <1>   0.0800 
 30 H        9.1300     5.0300     0.0160 H     1 <1>   0.0800 
 31 H        9.0710     4.8530     1.7450 H     1 <1>   0.0800 
 32 H       10.6750     1.5390     1.8860 H     1 <1>   0.0800 
 33 H        9.9060     2.7960     2.8200 H     1 <1>   0.0800 
 34 H        7.2230     2.9940     2.6410 H     1 <1>   0.0800 
 35 H        6.4590     2.0690     1.3910 H     1 <1>   0.0800 
 36 H        5.1420     4.3560    -1.4890 H     1 <1>   0.0800 
 37 H        3.9410     4.3850     0.5860 H     1 <1>   0.0800 
 38 H        4.5200     2.8170     1.0310 H     1 <1>   0.0800 
 39 H        6.2660     1.6620    -0.7930 H     1 <1>   0.0800 
 40 H        6.6410     2.6160    -2.1870 H     1 <1>   0.0800 
 41 H        2.7520     3.4900    -1.3230 H     1 <1>   0.0800 
 42 H        2.2990     2.5800     0.0970 H     1 <1>   0.0800 
 43 H        4.9970     0.8250    -2.6480 H     1 <1>   0.0800 
 44 H        4.3690     2.4210    -3.0000 H     1 <1>   0.0800 
 45 H        2.7850     1.1010    -1.7390 H     1 <1>   0.4500 
 46 H        3.8880     0.8750    -0.5340 H     1 <1>   0.4500 
@<TRIPOS>BOND
  1   1   2  2   
  2   2   3  am  
  3   2   4  1   
  4   3   5  1   
  5   3   6  1   
  6   4   7  2   
  7   4  23  1   
  8   5   8  2   
  9   5   9  1   
 10   6  10  1   
 11   6  24  1   
 12   6  25  1   
 13   7   8  1   
 14   7  26  1   
 15   8  27  1   
 16   9  11  1   
 17   9  12  1   
 18   9  28  1   
 19  10  12  1   
 20  10  13  1   
 21  10  29  1   
 22  11  14  1   
 23  11  30  1   
 24  11  31  1   
 25  12  32  1   
 26  12  33  1   
 27  13  14  1   
 28  13  34  1   
 29  13  35  1   
 30  14  15  am  
 31  15  16  2   
 32  15  17  1   
 33  17  18  1   
 34  17  19  1   
 35  17  36  1   
 36  18  20  1   
 37  18  37  1   
 38  18  38  1   
 39  19  21  1   
 40  19  39  1   
 41  19  40  1   
 42  20  22  1   
 43  20  41  1   
 44  20  42  1   
 45  21  22  1   
 46  21  43  1   
 47  21  44  1   
 48  22  45  1   
 49  22  46  1   
@<TRIPOS>SUBSTRUCTURE
  1 ****  14 GROUP 4 **** **** 0

# MOE 2024.06 (io_trps.svl 2023.06)
