@<TRIPOS>MOLECULE
NONAME
53 55 1 0 0 
SMALL
USER_CHARGES


@<TRIPOS>ATOM
  1 O        0.6500     1.5460    -1.5310 O.3   1 <1>  -0.0190 
  2 N        1.3670     0.4850    -1.7530 N.2   1 <1>  -0.4100 
  3 C        0.6150     1.8520    -0.2620 C.2   1 <1>  -0.0400 
  4 C        1.7860     0.0890    -0.6050 C.2   1 <1>   0.1080 
  5 C        1.3350     0.9370     0.4040 C.2   1 <1>  -0.1500 
  6 C       -0.1430     3.0810     0.2000 C.3   1 <1>   0.0200 
  7 C        2.6500    -1.1350    -0.3900 C.3   1 <1>  -0.0590 
  8 C        0.2360     4.3020    -0.6610 C.3   1 <1>  -0.0800 
  9 C       -0.3080     5.6450    -0.1780 C.3   1 <1>   0.2000 
 10 C        1.7490     4.5170    -0.7750 C.3   1 <1>   0.3430 
 11 O       -0.0880     5.7450     1.2020 O.3   1 <1>  -0.5600 
 12 C        0.6140     6.6330    -0.8940 C.3   1 <1>   0.3430 
 13 N        1.9600     5.9900    -0.8680 N.4   1 <1>  -0.9590 
 14 C       -0.9600     6.6010     1.8770 C.3   1 <1>   0.0400 
 15 C        2.7640     6.5190     0.2700 C.3   1 <1>   0.5240 
 16 C        3.2590     7.9090    -0.1100 C.2   1 <1>   0.1080 
 17 N        3.4130     8.2910    -1.3460 N.2   1 <1>  -0.7070 
 18 C        3.5910     8.9120     0.7940 C.2   1 <1>  -0.1500 
 19 N        3.8640     9.5610    -1.2520 N.pl3 1 <1>   0.3000 
 20 C        3.9750     9.9620     0.0320 C.2   1 <1>  -0.3320 
 21 C        4.4580    11.3540     0.4250 C.3   1 <1>   0.1800 
 22 C        3.5140    12.4070    -0.1650 C.3   1 <1>  -0.2400 
 23 C        4.4750    11.5030     1.9510 C.3   1 <1>  -0.2400 
 24 C        5.8770    11.5710    -0.1110 C.3   1 <1>  -0.2400 
 25 H        1.5400     0.8420     1.4540 H     1 <1>   0.1500 
 26 H       -1.2000     2.8960     0.1170 H     1 <1>   0.0800 
 27 H        0.0830     3.2520     1.2380 H     1 <1>   0.0800 
 28 H        3.5690    -0.8570     0.0920 H     1 <1>   0.0800 
 29 H        2.8770    -1.5940    -1.3360 H     1 <1>   0.0800 
 30 H        2.1280    -1.8460     0.2230 H     1 <1>   0.0800 
 31 H       -0.1340     4.1320    -1.6580 H     1 <1>   0.0800 
 32 H       -1.3530     5.7810    -0.4050 H     1 <1>   0.0800 
 33 H        2.1380     4.0080    -1.6440 H     1 <1>   0.0800 
 34 H        2.2370     4.1270     0.1040 H     1 <1>   0.0800 
 35 H        0.6140     7.6010    -0.4200 H     1 <1>   0.0800 
 36 H        0.2910     6.7420    -1.9160 H     1 <1>   0.0800 
 37 H        2.4950     6.2980    -1.7000 H     1 <1>   0.4500 
 38 H       -0.6860     6.6110     2.9180 H     1 <1>   0.0800 
 39 H       -1.9680     6.2340     1.7790 H     1 <1>   0.0800 
 40 H       -0.8800     7.5960     1.4740 H     1 <1>   0.0800 
 41 H        2.1700     6.5600     1.1690 H     1 <1>   0.0800 
 42 H        3.6180     5.8870     0.4430 H     1 <1>   0.0800 
 43 H        3.5470     8.8470     1.8670 H     1 <1>   0.1500 
 44 H        4.0920    10.1350    -2.0750 H     1 <1>   0.2700 
 45 H        3.8180    13.3940     0.1340 H     1 <1>   0.0800 
 46 H        2.5100    12.2410     0.1830 H     1 <1>   0.0800 
 47 H        3.5140    12.3670    -1.2390 H     1 <1>   0.0800 
 48 H        4.8160    12.4840     2.2310 H     1 <1>   0.0800 
 49 H        5.1370    10.7790     2.3920 H     1 <1>   0.0800 
 50 H        3.4890    11.3600     2.3540 H     1 <1>   0.0800 
 51 H        6.2510    12.5330     0.1910 H     1 <1>   0.0800 
 52 H        5.8970    11.5240    -1.1840 H     1 <1>   0.0800 
 53 H        6.5380    10.8140     0.2750 H     1 <1>   0.0800 
@<TRIPOS>BOND
  1   1   2  1   
  2   1   3  1   
  3   2   4  2   
  4   3   5  2   
  5   3   6  1   
  6   4   5  1   
  7   4   7  1   
  8   5  25  1   
  9   6   8  1   
 10   6  26  1   
 11   6  27  1   
 12   7  28  1   
 13   7  29  1   
 14   7  30  1   
 15   8   9  1   
 16   8  10  1   
 17   8  31  1   
 18   9  11  1   
 19   9  12  1   
 20   9  32  1   
 21  10  13  1   
 22  10  33  1   
 23  10  34  1   
 24  11  14  1   
 25  12  13  1   
 26  12  35  1   
 27  12  36  1   
 28  13  15  1   
 29  13  37  1   
 30  14  38  1   
 31  14  39  1   
 32  14  40  1   
 33  15  16  1   
 34  15  41  1   
 35  15  42  1   
 36  16  17  2   
 37  16  18  1   
 38  17  19  1   
 39  18  20  2   
 40  18  43  1   
 41  19  20  1   
 42  19  44  1   
 43  20  21  1   
 44  21  22  1   
 45  21  23  1   
 46  21  24  1   
 47  22  45  1   
 48  22  46  1   
 49  22  47  1   
 50  23  48  1   
 51  23  49  1   
 52  23  50  1   
 53  24  51  1   
 54  24  52  1   
 55  24  53  1   
@<TRIPOS>SUBSTRUCTURE
  1 ****  13 GROUP 4 **** **** 0

# MOE 2024.06 (io_trps.svl 2023.06)
