@<TRIPOS>MOLECULE
NONAME
48 51 1 0 0 
SMALL
USER_CHARGES


@<TRIPOS>ATOM
  1 O       -1.8520     0.7480     2.4990 O.2   1 <1>  -0.5700 
  2 C       -2.1320     1.0530     1.3550 C.2   1 <1>   0.5440 
  3 N       -2.7760     0.1190     0.5750 N.am  1 <1>  -0.6600 
  4 C       -1.8570     2.3910     0.8870 C.ar  1 <1>   0.0860 
  5 C       -3.4390     0.3890    -0.7220 C.3   1 <1>   0.1400 
  6 C       -3.0870    -1.2560     1.0400 C.3   1 <1>   0.1400 
  7 C       -1.0610     2.6460    -0.2430 C.ar  1 <1>   0.3920 
  8 C       -2.3880     3.4820     1.5640 C.ar  1 <1>  -0.1500 
  9 C       -4.5690    -0.6350    -0.7770 C.3   1 <1>   0.2000 
 10 C       -4.0260    -1.8540    -0.0240 C.3   1 <1>  -0.0800 
 11 O       -0.5110     1.5910    -0.8810 O.3   1 <1>  -0.3630 
 12 N       -0.8020     3.8590    -0.7410 N.ar  1 <1>  -0.6200 
 13 C       -2.1130     4.7310     1.0600 C.ar  1 <1>  -0.1430 
 14 O       -5.6420    -0.1380    -0.0570 O.3   1 <1>  -0.6800 
 15 C       -3.2850    -2.8090    -0.9810 C.3   1 <1>  -0.0170 
 16 C        0.3780     1.7510    -1.9690 C.3   1 <1>   0.0400 
 17 C       -1.3370     4.8540    -0.0640 C.ar  1 <1>   0.1670 
 18 C       -2.5600     6.0740     1.5810 C.3   1 <1>  -0.0170 
 19 C       -2.9270    -4.1260    -0.3080 C.ar  1 <1>   0.1670 
 20 C       -1.1600     6.3000    -0.4470 C.3   1 <1>  -0.0170 
 21 C       -1.7250     7.0740     0.7600 C.3   1 <1>  -0.1600 
 22 N       -1.7160    -4.2190     0.2150 N.ar  1 <1>  -0.6200 
 23 C       -3.8610    -5.1600    -0.2680 C.ar  1 <1>   0.1600 
 24 C       -1.5030    -5.3970     0.7760 C.ar  1 <1>   0.1600 
 25 N       -3.6520    -6.3410     0.2920 N.ar  1 <1>  -0.6200 
 26 C       -2.4400    -6.4230     0.8130 C.ar  1 <1>   0.1600 
 27 H       -3.8090     1.3970    -0.7900 H     1 <1>   0.0800 
 28 H       -2.7360     0.2070    -1.5160 H     1 <1>   0.0800 
 29 H       -2.1770    -1.8200     1.1550 H     1 <1>   0.0800 
 30 H       -3.5840    -1.2020     1.9930 H     1 <1>   0.0800 
 31 H       -2.9870     3.3430     2.4470 H     1 <1>   0.1500 
 32 H       -4.9040    -0.8460    -1.7780 H     1 <1>   0.0800 
 33 H       -4.8290    -2.3980     0.4430 H     1 <1>   0.0800 
 34 H       -5.3160     0.1630     0.8160 H     1 <1>   0.4000 
 35 H       -2.3870    -2.3420    -1.3520 H     1 <1>   0.0800 
 36 H       -3.9110    -3.0220    -1.8290 H     1 <1>   0.0800 
 37 H        0.6980     0.7770    -2.2910 H     1 <1>   0.0800 
 38 H        1.2250     2.3290    -1.6410 H     1 <1>   0.0800 
 39 H       -0.1340     2.2580    -2.7670 H     1 <1>   0.0800 
 40 H       -3.6100     6.2060     1.3870 H     1 <1>   0.0800 
 41 H       -2.3680     6.1720     2.6350 H     1 <1>   0.0800 
 42 H       -0.1220     6.5280    -0.6140 H     1 <1>   0.0800 
 43 H       -1.7260     6.5020    -1.3380 H     1 <1>   0.0800 
 44 H       -0.9040     7.4210     1.3640 H     1 <1>   0.0800 
 45 H       -2.3110     7.9210     0.4480 H     1 <1>   0.0800 
 46 H       -4.8260    -5.0050    -0.7180 H     1 <1>   0.1500 
 47 H       -0.5410    -5.5600     1.2290 H     1 <1>   0.1500 
 48 H       -2.1740    -7.3480     1.2930 H     1 <1>   0.1500 
@<TRIPOS>BOND
  1   1   2  2   
  2   2   3  am  
  3   2   4  1   
  4   3   5  1   
  5   3   6  1   
  6   4   7  ar  
  7   4   8  ar  
  8   5   9  1   
  9   5  27  1   
 10   5  28  1   
 11   6  10  1   
 12   6  29  1   
 13   6  30  1   
 14   7  11  1   
 15   7  12  ar  
 16   8  13  ar  
 17   8  31  1   
 18   9  10  1   
 19   9  14  1   
 20   9  32  1   
 21  10  15  1   
 22  10  33  1   
 23  11  16  1   
 24  12  17  ar  
 25  13  17  ar  
 26  13  18  1   
 27  14  34  1   
 28  15  19  1   
 29  15  35  1   
 30  15  36  1   
 31  16  37  1   
 32  16  38  1   
 33  16  39  1   
 34  17  20  1   
 35  18  21  1   
 36  18  40  1   
 37  18  41  1   
 38  19  22  ar  
 39  19  23  ar  
 40  20  21  1   
 41  20  42  1   
 42  20  43  1   
 43  21  44  1   
 44  21  45  1   
 45  22  24  ar  
 46  23  25  ar  
 47  23  46  1   
 48  24  26  ar  
 49  24  47  1   
 50  25  26  ar  
 51  26  48  1   
@<TRIPOS>SUBSTRUCTURE
  1 ****   3 GROUP 4 **** **** 0

# MOE 2024.06 (io_trps.svl 2023.06)
