@<TRIPOS>MOLECULE
NONAME
47 49 1 0 0 
SMALL
USER_CHARGES


@<TRIPOS>ATOM
  1 O        0.6290    -0.1720    -1.3770 O.2   1 <1>  -0.5700 
  2 C        0.8000    -1.1100    -0.6370 C.2   1 <1>   0.5690 
  3 N        1.9700    -1.4820    -0.0360 N.am  1 <1>  -0.4770 
  4 C       -0.3260    -2.0350    -0.2630 C.3   1 <1>  -0.0990 
  5 C        3.2480    -0.9070    -0.1900 C.ar  1 <1>   0.1170 
  6 C        1.7690    -2.6750     0.8100 C.3   1 <1>   0.1400 
  7 C        0.3840    -3.2080     0.4240 C.3   1 <1>  -0.1600 
  8 C        3.6680    -0.4040    -1.4170 C.ar  1 <1>  -0.1500 
  9 C        4.1360    -0.8350     0.8810 C.ar  1 <1>  -0.1500 
 10 C        4.9280     0.1440    -1.5730 C.ar  1 <1>  -0.1500 
 11 C        5.3980    -0.2880     0.7280 C.ar  1 <1>  -0.1500 
 12 C        5.8070     0.2020    -0.5030 C.ar  1 <1>  -0.1430 
 13 C        7.1940     0.7990    -0.6800 C.3   1 <1>   0.3530 
 14 N        7.0740     2.2670    -0.6580 N.pl3 1 <1>  -0.8690 
 15 C        8.1360     3.0990    -0.4100 C.ar  1 <1>   0.4100 
 16 N        9.3490     2.5820    -0.4640 N.ar  1 <1>  -0.6200 
 17 C        7.9400     4.4270    -0.1210 C.ar  1 <1>  -0.1500 
 18 C       10.3300     3.4300    -0.2260 C.ar  1 <1>   0.4700 
 19 C        9.0390     5.2150     0.1170 C.ar  1 <1>   0.4100 
 20 N       10.2600     4.7130     0.0640 N.ar  1 <1>  -0.6200 
 21 N        8.8980     6.5530     0.4330 N.pl3 1 <1>  -0.8380 
 22 C        9.9330     7.5260    -0.0070 C.3   1 <1>   0.2090 
 23 C        8.1620     6.9110     1.6750 C.3   1 <1>   0.1290 
 24 C        9.2540     8.7740    -0.5610 C.3   1 <1>  -0.2400 
 25 H       -0.8690    -2.3470    -1.1360 H     1 <1>   0.0800 
 26 H       -0.9820    -1.5240     0.4180 H     1 <1>   0.0800 
 27 H        1.7830    -2.3810     1.8460 H     1 <1>   0.0800 
 28 H        2.5380    -3.4060     0.6250 H     1 <1>   0.0800 
 29 H        0.5060    -4.0160    -0.2760 H     1 <1>   0.0800 
 30 H       -0.1580    -3.5690     1.2800 H     1 <1>   0.0800 
 31 H        2.9990    -0.4410    -2.2580 H     1 <1>   0.1500 
 32 H        3.8390    -1.2000     1.8450 H     1 <1>   0.1500 
 33 H        5.2240     0.5300    -2.5340 H     1 <1>   0.1500 
 34 H        6.0630    -0.2420     1.5740 H     1 <1>   0.1500 
 35 H        7.6170     0.4900    -1.6210 H     1 <1>   0.0800 
 36 H        7.8470     0.4720     0.1110 H     1 <1>   0.0800 
 37 H        6.1340     2.5860    -0.4140 H     1 <1>   0.4000 
 38 H        6.9570     4.8470    -0.0890 H     1 <1>   0.1500 
 39 H       11.3240     3.0180    -0.2720 H     1 <1>   0.1500 
 40 H       10.5410     7.0880    -0.7820 H     1 <1>   0.0800 
 41 H       10.5740     7.7760     0.8210 H     1 <1>   0.0800 
 42 H        7.7260     6.0330     2.1210 H     1 <1>   0.0800 
 43 H        7.3780     7.6100     1.4440 H     1 <1>   0.0800 
 44 H        8.8350     7.3560     2.3870 H     1 <1>   0.0800 
 45 H        8.5920     8.5030    -1.3640 H     1 <1>   0.0800 
 46 H        9.9990     9.4480    -0.9430 H     1 <1>   0.0800 
 47 H        8.7010     9.2790     0.2080 H     1 <1>   0.0800 
@<TRIPOS>BOND
  1   1   2  2   
  2   2   3  am  
  3   2   4  1   
  4   3   5  1   
  5   3   6  1   
  6   4   7  1   
  7   4  25  1   
  8   4  26  1   
  9   5   8  ar  
 10   5   9  ar  
 11   6   7  1   
 12   6  27  1   
 13   6  28  1   
 14   7  29  1   
 15   7  30  1   
 16   8  10  ar  
 17   8  31  1   
 18   9  11  ar  
 19   9  32  1   
 20  10  12  ar  
 21  10  33  1   
 22  11  12  ar  
 23  11  34  1   
 24  12  13  1   
 25  13  14  1   
 26  13  35  1   
 27  13  36  1   
 28  14  15  1   
 29  14  37  1   
 30  15  16  ar  
 31  15  17  ar  
 32  16  18  ar  
 33  17  19  ar  
 34  17  38  1   
 35  18  20  ar  
 36  18  39  1   
 37  19  20  ar  
 38  19  21  1   
 39  21  22  1   
 40  21  23  1   
 41  22  24  1   
 42  22  40  1   
 43  22  41  1   
 44  23  42  1   
 45  23  43  1   
 46  23  44  1   
 47  24  45  1   
 48  24  46  1   
 49  24  47  1   
@<TRIPOS>SUBSTRUCTURE
  1 ****  14 GROUP 4 **** **** 0

# MOE 2024.06 (io_trps.svl 2023.06)
