@<TRIPOS>MOLECULE
NONAME
60 63 1 0 0 
SMALL
USER_CHARGES


@<TRIPOS>ATOM
  1 O       -0.5920    -3.3640    -1.8060 O.2   1 <1>  -0.5700 
  2 C       -0.5290    -2.8230    -0.7290 C.2   1 <1>   0.5690 
  3 N       -1.1820    -3.1970     0.4120 N.am  1 <1>  -0.4770 
  4 C        0.3330    -1.6120    -0.5000 C.3   1 <1>  -0.0990 
  5 C       -2.1760    -4.1800     0.5540 C.ar  1 <1>   0.1170 
  6 C       -0.8480    -2.2890     1.5290 C.3   1 <1>   0.1400 
  7 C        0.3260    -1.4430     1.0240 C.3   1 <1>  -0.1600 
  8 C       -2.2490    -4.9740     1.6950 C.ar  1 <1>  -0.1500 
  9 C       -3.1330    -4.3820    -0.4360 C.ar  1 <1>  -0.1500 
 10 C       -3.2480    -5.9170     1.8440 C.ar  1 <1>  -0.1500 
 11 C       -4.1280    -5.3280    -0.2860 C.ar  1 <1>  -0.1500 
 12 C       -4.2130    -6.1210     0.8590 C.ar  1 <1>   0.0860 
 13 C       -5.2550    -7.1160     1.0200 C.2   1 <1>   0.5440 
 14 O       -5.8500    -7.2180     2.0770 O.2   1 <1>  -0.5700 
 15 N       -5.6150    -7.9590    -0.0030 N.am  1 <1>  -0.6600 
 16 C       -4.7850    -9.1940    -0.2150 C.3   1 <1>   0.3640 
 17 C       -7.0690    -8.1640    -0.2300 C.3   1 <1>   0.1400 
 18 C       -3.3240    -8.7760    -0.4070 C.ar  1 <1>  -0.1430 
 19 C       -5.2680   -10.0780    -1.4090 C.3   1 <1>   0.2000 
 20 C       -7.3110    -8.8970    -1.5500 C.3   1 <1>   0.1200 
 21 C       -2.3750    -9.1250     0.5430 C.ar  1 <1>  -0.1500 
 22 C       -2.9250    -8.0330    -1.5090 C.ar  1 <1>  -0.1500 
 23 O       -6.6690   -10.1330    -1.5160 O.3   1 <1>  -0.5600 
 24 C       -4.8100   -11.5470    -1.3190 C.3   1 <1>   0.1200 
 25 C       -1.0500    -8.7420     0.4180 C.ar  1 <1>   0.0830 
 26 C       -1.6090    -7.6330    -1.6470 C.ar  1 <1>  -0.1500 
 27 O       -3.4620   -11.6820    -1.0000 O.3   1 <1>  -0.6800 
 28 O       -0.2260    -9.1610     1.4200 O.3   1 <1>  -0.3630 
 29 C       -0.6640    -7.9670    -0.6860 C.ar  1 <1>   0.0830 
 30 C        1.1310    -9.4450     1.1660 C.3   1 <1>   0.0400 
 31 O        0.6110    -7.5220    -0.8340 O.3   1 <1>  -0.3630 
 32 C        0.7930    -6.1320    -1.0040 C.3   1 <1>   0.0400 
 33 H        1.3240    -1.7710    -0.8830 H     1 <1>   0.0800 
 34 H       -0.1180    -0.7670    -0.9870 H     1 <1>   0.0800 
 35 H       -1.7020    -1.6690     1.7440 H     1 <1>   0.0800 
 36 H       -0.5720    -2.8420     2.4100 H     1 <1>   0.0800 
 37 H        0.2280    -0.4130     1.3180 H     1 <1>   0.0800 
 38 H        1.2410    -1.8340     1.4360 H     1 <1>   0.0800 
 39 H       -1.5170    -4.8650     2.4720 H     1 <1>   0.1500 
 40 H       -3.0950    -3.7890    -1.3330 H     1 <1>   0.1500 
 41 H       -3.2880    -6.5210     2.7350 H     1 <1>   0.1500 
 42 H       -4.8550    -5.4630    -1.0660 H     1 <1>   0.1500 
 43 H       -4.8600    -9.7900     0.6790 H     1 <1>   0.0800 
 44 H       -7.4840    -8.7370     0.5820 H     1 <1>   0.0800 
 45 H       -7.5640    -7.2080    -0.2500 H     1 <1>   0.0800 
 46 H       -4.9050    -9.6650    -2.3320 H     1 <1>   0.0800 
 47 H       -6.9410    -8.3270    -2.3850 H     1 <1>   0.0800 
 48 H       -8.3620    -9.0780    -1.6870 H     1 <1>   0.0800 
 49 H       -2.6560    -9.7060     1.4040 H     1 <1>   0.1500 
 50 H       -3.6410    -7.7400    -2.2570 H     1 <1>   0.1500 
 51 H       -4.9780   -12.0410    -2.2590 H     1 <1>   0.0800 
 52 H       -5.3670   -12.0560    -0.5510 H     1 <1>   0.0800 
 53 H       -1.3220    -7.0520    -2.5040 H     1 <1>   0.1500 
 54 H       -2.8960   -11.1010    -1.5500 H     1 <1>   0.4000 
 55 H        1.4950   -10.0740     1.9580 H     1 <1>   0.0800 
 56 H        1.6820    -8.5220     1.1520 H     1 <1>   0.0800 
 57 H        1.2140    -9.9540     0.2220 H     1 <1>   0.0800 
 58 H        1.8380    -5.9120    -0.8860 H     1 <1>   0.0800 
 59 H        0.2200    -5.6140    -0.2560 H     1 <1>   0.0800 
 60 H        0.4700    -5.8450    -1.9890 H     1 <1>   0.0800 
@<TRIPOS>BOND
  1   1   2  2   
  2   2   3  am  
  3   2   4  1   
  4   3   5  1   
  5   3   6  1   
  6   4   7  1   
  7   4  33  1   
  8   4  34  1   
  9   5   8  ar  
 10   5   9  ar  
 11   6   7  1   
 12   6  35  1   
 13   6  36  1   
 14   7  37  1   
 15   7  38  1   
 16   8  10  ar  
 17   8  39  1   
 18   9  11  ar  
 19   9  40  1   
 20  10  12  ar  
 21  10  41  1   
 22  11  12  ar  
 23  11  42  1   
 24  12  13  1   
 25  13  14  2   
 26  13  15  am  
 27  15  16  1   
 28  15  17  1   
 29  16  18  1   
 30  16  19  1   
 31  16  43  1   
 32  17  20  1   
 33  17  44  1   
 34  17  45  1   
 35  18  21  ar  
 36  18  22  ar  
 37  19  23  1   
 38  19  24  1   
 39  19  46  1   
 40  20  23  1   
 41  20  47  1   
 42  20  48  1   
 43  21  25  ar  
 44  21  49  1   
 45  22  26  ar  
 46  22  50  1   
 47  24  27  1   
 48  24  51  1   
 49  24  52  1   
 50  25  28  1   
 51  25  29  ar  
 52  26  29  ar  
 53  26  53  1   
 54  27  54  1   
 55  28  30  1   
 56  29  31  1   
 57  30  55  1   
 58  30  56  1   
 59  30  57  1   
 60  31  32  1   
 61  32  58  1   
 62  32  59  1   
 63  32  60  1   
@<TRIPOS>SUBSTRUCTURE
  1 ****  22 GROUP 4 **** **** 0

# MOE 2024.06 (io_trps.svl 2023.06)
