@<TRIPOS>MOLECULE
NONAME
42 44 1 0 0 
SMALL
USER_CHARGES


@<TRIPOS>ATOM
  1 F        1.2220     2.7650     0.6530 F     1 <1>  -0.1900 
  2 C        0.1150     2.3780     0.0670 C.ar  1 <1>   0.1900 
  3 C        0.1830     1.5470    -1.0400 C.ar  1 <1>   0.1900 
  4 C       -1.1040     2.8280     0.5560 C.ar  1 <1>  -0.1440 
  5 F        1.3430     1.1440    -1.4900 F     1 <1>  -0.1900 
  6 C       -0.9650     1.1400    -1.6910 C.ar  1 <1>  -0.1500 
  7 C       -2.2570     2.4180    -0.1050 C.ar  1 <1>  -0.1500 
  8 C       -1.1970     3.7490     1.7740 C.3   1 <1>   0.0450 
  9 C       -2.1890     1.5830    -1.2140 C.ar  1 <1>  -0.1500 
 10 C       -0.9700     5.2140     1.4350 C.2   1 <1>   0.5690 
 11 O       -1.6590     6.0360     1.9890 O.2   1 <1>  -0.5700 
 12 N        0.0240     5.5200     0.5460 N.am  1 <1>  -0.4940 
 13 C        0.4790     6.7590     0.0280 C.2   1 <1>  -0.0880 
 14 N        1.7730     6.9890    -0.3350 N.pl3 1 <1>   0.3140 
 15 C       -0.1980     7.9040    -0.2360 C.2   1 <1>  -0.1810 
 16 N        1.9330     8.2440    -0.8220 N.2   1 <1>  -0.7070 
 17 C        2.8840     5.9950    -0.2430 C.3   1 <1>   0.1760 
 18 C        0.7550     8.7760    -0.7500 C.2   1 <1>   0.1390 
 19 C       -1.6680     8.2340    -0.0590 C.3   1 <1>  -0.0590 
 20 C        4.2830     6.5980    -0.0980 C.3   1 <1>  -0.1600 
 21 C        2.9940     5.1280    -1.4970 C.3   1 <1>  -0.1600 
 22 C        5.2260     5.4700    -0.5210 C.3   1 <1>  -0.1600 
 23 C        4.4300     4.5910    -1.4950 C.3   1 <1>  -0.1600 
 24 H       -0.9010     0.4940    -2.5500 H     1 <1>   0.1500 
 25 H       -3.2230     2.7490     0.2400 H     1 <1>   0.1500 
 26 H       -0.4760     3.4570     2.5150 H     1 <1>   0.0800 
 27 H       -2.1680     3.6520     2.2250 H     1 <1>   0.0800 
 28 H       -3.0970     1.2790    -1.7090 H     1 <1>   0.1500 
 29 H        0.5470     4.7040     0.2240 H     1 <1>   0.3700 
 30 H        2.7060     5.3630     0.6070 H     1 <1>   0.0800 
 31 H        0.5460     9.7860    -1.0620 H     1 <1>   0.1500 
 32 H       -2.2670     7.3590    -0.2350 H     1 <1>   0.0800 
 33 H       -1.9670     8.9990    -0.7510 H     1 <1>   0.0800 
 34 H       -1.8440     8.5780     0.9440 H     1 <1>   0.0800 
 35 H        4.4750     6.9310     0.9070 H     1 <1>   0.0800 
 36 H        4.4040     7.4230    -0.7800 H     1 <1>   0.0800 
 37 H        2.8530     5.7470    -2.3680 H     1 <1>   0.0800 
 38 H        2.2730     4.3300    -1.5030 H     1 <1>   0.0800 
 39 H        5.5040     4.8890     0.3420 H     1 <1>   0.0800 
 40 H        6.1200     5.8620    -0.9780 H     1 <1>   0.0800 
 41 H        4.8490     4.6380    -2.4860 H     1 <1>   0.0800 
 42 H        4.4480     3.5670    -1.1610 H     1 <1>   0.0800 
@<TRIPOS>BOND
  1   1   2  1   
  2   2   3  ar  
  3   2   4  ar  
  4   3   5  1   
  5   3   6  ar  
  6   4   7  ar  
  7   4   8  1   
  8   6   9  ar  
  9   6  24  1   
 10   7   9  ar  
 11   7  25  1   
 12   8  10  1   
 13   8  26  1   
 14   8  27  1   
 15   9  28  1   
 16  10  11  2   
 17  10  12  am  
 18  12  13  1   
 19  12  29  1   
 20  13  14  1   
 21  13  15  2   
 22  14  16  1   
 23  14  17  1   
 24  15  18  1   
 25  15  19  1   
 26  16  18  2   
 27  17  20  1   
 28  17  21  1   
 29  17  30  1   
 30  18  31  1   
 31  19  32  1   
 32  19  33  1   
 33  19  34  1   
 34  20  22  1   
 35  20  35  1   
 36  20  36  1   
 37  21  23  1   
 38  21  37  1   
 39  21  38  1   
 40  22  23  1   
 41  22  39  1   
 42  22  40  1   
 43  23  41  1   
 44  23  42  1   
@<TRIPOS>SUBSTRUCTURE
  1 ****  12 GROUP 4 **** **** 0

# MOE 2024.06 (io_trps.svl 2023.06)
