@<TRIPOS>MOLECULE
NONAME
49 52 1 0 0 
SMALL
USER_CHARGES


@<TRIPOS>ATOM
  1 S       -0.8320    -1.8870     0.5070 S.3   1 <1>  -0.4600 
  2 C       -2.2530    -1.4000     1.5200 C.3   1 <1>   0.0700 
  3 C        0.1580    -0.3820     0.1780 C.3   1 <1>   0.0700 
  4 C       -3.0920    -0.3890     0.7190 C.3   1 <1>   0.4230 
  5 C       -0.0570     0.7370     1.2060 C.3   1 <1>   0.0700 
  6 N       -4.5170    -0.8350     0.5670 N.4   1 <1>  -0.9590 
  7 C       -2.9620     1.0040     1.3560 C.3   1 <1>   0.0700 
  8 S       -1.4620     1.7860     0.7000 S.3   1 <1>  -0.4600 
  9 C       -5.3850     0.0730    -0.2420 C.3   1 <1>   0.3430 
 10 C       -4.6600    -2.1800    -0.0790 C.3   1 <1>   0.3430 
 11 C       -6.5860    -0.7990    -0.6000 C.3   1 <1>   0.2000 
 12 C       -5.9200    -2.1290    -0.9570 C.3   1 <1>  -0.0800 
 13 O       -7.3480    -0.9500     0.5560 O.3   1 <1>  -0.6800 
 14 C       -6.8040    -3.3910    -0.8690 C.3   1 <1>  -0.0170 
 15 C       -5.9540    -4.6390    -1.0840 C.ar  1 <1>  -0.1440 
 16 C       -5.3930    -5.3910    -0.0200 C.ar  1 <1>   0.0000 
 17 C       -5.6890    -5.0520    -2.3570 C.ar  1 <1>  -0.1500 
 18 C       -4.5530    -6.4800    -0.3630 C.ar  1 <1>   0.3100 
 19 C       -5.6060    -5.1350     1.3570 C.ar  1 <1>  -0.1500 
 20 C       -4.8650    -6.1600    -2.5840 C.ar  1 <1>   0.1600 
 21 N       -4.3020    -6.8470    -1.6430 N.ar  1 <1>  -0.6200 
 22 C       -3.9440    -7.2220     0.6610 C.ar  1 <1>  -0.1500 
 23 C       -5.0010    -5.8810     2.3310 C.ar  1 <1>  -0.1500 
 24 C       -4.1540    -6.9350     1.9820 C.ar  1 <1>  -0.1500 
 25 H       -2.7880    -2.3050     1.7390 H     1 <1>   0.0800 
 26 H       -1.8660    -0.9970     2.4380 H     1 <1>   0.0800 
 27 H        1.1840    -0.7050     0.1990 H     1 <1>   0.0800 
 28 H       -0.0760    -0.0460    -0.8180 H     1 <1>   0.0800 
 29 H       -2.6690    -0.3250    -0.2710 H     1 <1>   0.0800 
 30 H        0.7980     1.3900     1.2050 H     1 <1>   0.0800 
 31 H       -0.2140     0.3760     2.2060 H     1 <1>   0.0800 
 32 H       -4.9830    -0.9020     1.4850 H     1 <1>   0.4500 
 33 H       -2.8710     0.9700     2.4270 H     1 <1>   0.0800 
 34 H       -3.7660     1.6590     1.0800 H     1 <1>   0.0800 
 35 H       -5.6920     0.9460     0.3110 H     1 <1>   0.0800 
 36 H       -4.8720     0.3730    -1.1410 H     1 <1>   0.0800 
 37 H       -3.8000    -2.4100    -0.6890 H     1 <1>   0.0800 
 38 H       -4.7540    -2.9390     0.6790 H     1 <1>   0.0800 
 39 H       -7.1970    -0.3790    -1.3830 H     1 <1>   0.0800 
 40 H       -5.5720    -2.0550    -1.9730 H     1 <1>   0.0800 
 41 H       -8.2540    -1.2640     0.3470 H     1 <1>   0.4000 
 42 H       -7.5580    -3.3430    -1.6370 H     1 <1>   0.0800 
 43 H       -7.3280    -3.4510     0.0650 H     1 <1>   0.0800 
 44 H       -6.0920    -4.5460    -3.2160 H     1 <1>   0.1500 
 45 H       -6.2630    -4.3450     1.6630 H     1 <1>   0.1500 
 46 H       -4.6820    -6.4560    -3.6040 H     1 <1>   0.1500 
 47 H       -3.3020    -8.0330     0.3690 H     1 <1>   0.1500 
 48 H       -5.1720    -5.6780     3.3750 H     1 <1>   0.1500 
 49 H       -3.6810    -7.5150     2.7560 H     1 <1>   0.1500 
@<TRIPOS>BOND
  1   1   2  1   
  2   1   3  1   
  3   2   4  1   
  4   2  25  1   
  5   2  26  1   
  6   3   5  1   
  7   3  27  1   
  8   3  28  1   
  9   4   6  1   
 10   4   7  1   
 11   4  29  1   
 12   5   8  1   
 13   5  30  1   
 14   5  31  1   
 15   6   9  1   
 16   6  10  1   
 17   6  32  1   
 18   7   8  1   
 19   7  33  1   
 20   7  34  1   
 21   9  11  1   
 22   9  35  1   
 23   9  36  1   
 24  10  12  1   
 25  10  37  1   
 26  10  38  1   
 27  11  12  1   
 28  11  13  1   
 29  11  39  1   
 30  12  14  1   
 31  12  40  1   
 32  13  41  1   
 33  14  15  1   
 34  14  42  1   
 35  14  43  1   
 36  15  16  ar  
 37  15  17  ar  
 38  16  18  ar  
 39  16  19  ar  
 40  17  20  ar  
 41  17  44  1   
 42  18  21  ar  
 43  18  22  ar  
 44  19  23  ar  
 45  19  45  1   
 46  20  21  ar  
 47  20  46  1   
 48  22  24  ar  
 49  22  47  1   
 50  23  24  ar  
 51  23  48  1   
 52  24  49  1   
@<TRIPOS>SUBSTRUCTURE
  1 ****  10 GROUP 4 **** **** 0

# MOE 2024.06 (io_trps.svl 2023.06)
