@<TRIPOS>MOLECULE
NONAME
49 51 1 0 0 
SMALL
USER_CHARGES


@<TRIPOS>ATOM
  1 O       -2.0360     0.7580    -1.5810 O.2   1 <1>  -0.5700 
  2 C       -1.9700     0.6920    -0.3760 C.2   1 <1>   0.5690 
  3 N       -2.8590    -0.0500     0.3390 N.am  1 <1>  -0.6600 
  4 C       -0.9390     1.5320     0.3590 C.3   1 <1>  -0.0040 
  5 C       -2.9350    -1.5330     0.1470 C.3   1 <1>   0.3640 
  6 C       -4.2130     0.5360     0.5320 C.3   1 <1>   0.1400 
  7 C        0.4720     0.9300     0.3070 C.3   1 <1>  -0.1950 
  8 C       -1.5500    -2.1730    -0.0070 C.ar  1 <1>  -0.1440 
  9 C       -3.9440    -1.8950    -0.9770 C.3   1 <1>   0.2000 
 10 C       -5.1560     0.0920    -0.6010 C.3   1 <1>   0.1200 
 11 C        0.9580    -0.0040     1.3680 C.3   1 <1>  -0.2000 
 12 C        1.5240     1.3830     1.2690 C.3   1 <1>  -0.2000 
 13 C       -0.9970    -2.8520     1.0680 C.ar  1 <1>  -0.1500 
 14 C       -0.8310    -2.1150    -1.1910 C.ar  1 <1>  -0.1500 
 15 O       -5.1900    -1.3040    -0.6880 O.3   1 <1>  -0.5600 
 16 C       -4.1950    -3.4070    -1.1110 C.3   1 <1>   0.1200 
 17 C        0.2400    -3.4680     0.9850 C.ar  1 <1>   0.0830 
 18 C        0.4110    -2.7140    -1.2940 C.ar  1 <1>  -0.1500 
 19 O       -3.1140    -4.0600    -1.6980 O.3   1 <1>  -0.6800 
 20 O        0.6260    -4.1030     2.1290 O.3   1 <1>  -0.3630 
 21 C        0.9720    -3.3890    -0.2120 C.ar  1 <1>   0.0830 
 22 C        1.5730    -5.1480     2.1280 C.3   1 <1>   0.0400 
 23 O        2.2150    -3.9460    -0.3030 O.3   1 <1>  -0.3630 
 24 C        3.1080    -3.6040    -1.3410 C.3   1 <1>   0.0400 
 25 H       -0.9180     2.5040    -0.0990 H     1 <1>   0.0800 
 26 H       -1.2470     1.6560     1.3810 H     1 <1>   0.0800 
 27 H       -3.3530    -1.9370     1.0530 H     1 <1>   0.0800 
 28 H       -4.6130     0.2200     1.4800 H     1 <1>   0.0800 
 29 H       -4.1480     1.6110     0.5380 H     1 <1>   0.0800 
 30 H        0.7860     0.7220    -0.7030 H     1 <1>   0.1000 
 31 H       -3.6090    -1.5080    -1.9240 H     1 <1>   0.0800 
 32 H       -4.8270     0.4900    -1.5460 H     1 <1>   0.0800 
 33 H       -6.1570     0.4340    -0.4100 H     1 <1>   0.0800 
 34 H        0.3040    -0.2480     2.1880 H     1 <1>   0.1000 
 35 H        1.5760    -0.8360     1.0790 H     1 <1>   0.1000 
 36 H        2.5320     1.5040     0.9130 H     1 <1>   0.1000 
 37 H        1.2710     2.0930     2.0380 H     1 <1>   0.1000 
 38 H       -1.5260    -2.9140     2.0020 H     1 <1>   0.1500 
 39 H       -1.2310    -1.5990    -2.0480 H     1 <1>   0.1500 
 40 H       -5.0470    -3.5780    -1.7450 H     1 <1>   0.0800 
 41 H       -4.3730    -3.8520    -0.1480 H     1 <1>   0.0800 
 42 H        0.9240    -2.6380    -2.2330 H     1 <1>   0.1500 
 43 H       -2.2810    -3.8780    -1.2080 H     1 <1>   0.4000 
 44 H        1.5060    -5.6620     3.0690 H     1 <1>   0.0800 
 45 H        2.5550    -4.7260     2.0140 H     1 <1>   0.0800 
 46 H        1.3490    -5.8240     1.3210 H     1 <1>   0.0800 
 47 H        4.0610    -4.0500    -1.1210 H     1 <1>   0.0800 
 48 H        3.2050    -2.5330    -1.3800 H     1 <1>   0.0800 
 49 H        2.7300    -3.9930    -2.2690 H     1 <1>   0.0800 
@<TRIPOS>BOND
  1   1   2  2   
  2   2   3  am  
  3   2   4  1   
  4   3   5  1   
  5   3   6  1   
  6   4   7  1   
  7   4  25  1   
  8   4  26  1   
  9   5   8  1   
 10   5   9  1   
 11   5  27  1   
 12   6  10  1   
 13   6  28  1   
 14   6  29  1   
 15   7  11  1   
 16   7  12  1   
 17   7  30  1   
 18   8  13  ar  
 19   8  14  ar  
 20   9  15  1   
 21   9  16  1   
 22   9  31  1   
 23  10  15  1   
 24  10  32  1   
 25  10  33  1   
 26  11  12  1   
 27  11  34  1   
 28  11  35  1   
 29  12  36  1   
 30  12  37  1   
 31  13  17  ar  
 32  13  38  1   
 33  14  18  ar  
 34  14  39  1   
 35  16  19  1   
 36  16  40  1   
 37  16  41  1   
 38  17  20  1   
 39  17  21  ar  
 40  18  21  ar  
 41  18  42  1   
 42  19  43  1   
 43  20  22  1   
 44  21  23  1   
 45  22  44  1   
 46  22  45  1   
 47  22  46  1   
 48  23  24  1   
 49  24  47  1   
 50  24  48  1   
 51  24  49  1   
@<TRIPOS>SUBSTRUCTURE
  1 ****   8 GROUP 4 **** **** 0

# MOE 2024.06 (io_trps.svl 2023.06)
