@<TRIPOS>MOLECULE
NONAME
50 52 1 0 0 
SMALL
USER_CHARGES


@<TRIPOS>ATOM
  1 F       -0.6270    -0.2540     0.0690 F     1 <1>  -0.3400 
  2 C       -0.7360    -1.5740     0.0910 C.3   1 <1>   1.3000 
  3 F       -0.0540    -2.0190     1.1400 F     1 <1>  -0.3400 
  4 F       -0.1640    -2.0460    -1.0100 F     1 <1>  -0.3400 
  5 O       -2.0970    -1.9450     0.1650 O.3   1 <1>  -0.3630 
  6 C       -2.3910    -3.2570     0.1850 C.ar  1 <1>   0.0830 
  7 C       -2.4730    -3.9330     1.3920 C.ar  1 <1>  -0.1500 
  8 C       -2.6320    -3.9310    -1.0020 C.ar  1 <1>  -0.1500 
  9 C       -2.7870    -5.2790     1.4060 C.ar  1 <1>  -0.1500 
 10 C       -2.9440    -5.2770    -0.9770 C.ar  1 <1>  -0.1500 
 11 C       -3.0380    -5.9830     0.2260 C.ar  1 <1>   0.0860 
 12 C       -3.3820    -7.3940     0.2580 C.2   1 <1>   0.5440 
 13 O       -2.9320    -8.1240     1.1240 O.2   1 <1>  -0.5700 
 14 N       -4.2560    -7.9590    -0.6470 N.am  1 <1>  -0.6600 
 15 C       -4.2860    -9.4370    -0.7910 C.3   1 <1>   0.1400 
 16 C       -5.5610    -7.3080    -0.9440 C.3   1 <1>   0.1400 
 17 C       -5.2970   -10.0070     0.2270 C.3   1 <1>   0.4230 
 18 C       -6.6030    -7.8550     0.0430 C.3   1 <1>  -0.1600 
 19 N       -5.2670   -11.5240     0.3460 N.4   1 <1>  -0.9590 
 20 C       -6.7240    -9.4090     0.0310 C.3   1 <1>   0.0000 
 21 C       -6.4850   -12.1110     0.9960 C.3   1 <1>   0.3430 
 22 C       -4.9480   -12.2680    -0.9160 C.3   1 <1>   0.2630 
 23 C       -7.6320    -9.8480     1.2180 C.3   1 <1>  -0.1600 
 24 C       -7.3250    -9.8920    -1.3200 C.3   1 <1>   0.1200 
 25 C       -7.1340   -11.1090     1.9500 C.3   1 <1>  -0.1600 
 26 O       -8.4990    -9.2250    -1.6280 O.3   1 <1>  -0.6800 
 27 H       -2.2900    -3.4090     2.3140 H     1 <1>   0.1500 
 28 H       -2.5720    -3.4040    -1.9380 H     1 <1>   0.1500 
 29 H       -2.8400    -5.8020     2.3460 H     1 <1>   0.1500 
 30 H       -3.1170    -5.7940    -1.9040 H     1 <1>   0.1500 
 31 H       -4.5510    -9.6820    -1.8030 H     1 <1>   0.0800 
 32 H       -3.3040    -9.8310    -0.5910 H     1 <1>   0.0800 
 33 H       -5.4880    -6.2390    -0.8310 H     1 <1>   0.0800 
 34 H       -5.8520    -7.5140    -1.9600 H     1 <1>   0.0800 
 35 H       -4.9640    -9.6280     1.1810 H     1 <1>   0.0800 
 36 H       -6.3150    -7.5200     1.0250 H     1 <1>   0.0800 
 37 H       -7.5530    -7.3960    -0.1680 H     1 <1>   0.0800 
 38 H       -4.4880   -11.7020     0.9990 H     1 <1>   0.4500 
 39 H       -7.2060   -12.3790     0.2410 H     1 <1>   0.0800 
 40 H       -6.2170   -13.0070     1.5330 H     1 <1>   0.0800 
 41 H       -5.7030   -12.0850    -1.6630 H     1 <1>   0.0800 
 42 H       -4.9050   -13.3280    -0.7240 H     1 <1>   0.0800 
 43 H       -3.9920   -11.9580    -1.3060 H     1 <1>   0.0800 
 44 H       -7.7040    -9.0620     1.9520 H     1 <1>   0.0800 
 45 H       -8.6360   -10.0210     0.8710 H     1 <1>   0.0800 
 46 H       -7.5500   -10.9430    -1.2980 H     1 <1>   0.0800 
 47 H       -6.6540    -9.7060    -2.1380 H     1 <1>   0.0800 
 48 H       -7.9650   -11.5800     2.4460 H     1 <1>   0.0800 
 49 H       -6.4240   -10.8390     2.7130 H     1 <1>   0.0800 
 50 H       -9.2000    -9.3810    -0.9630 H     1 <1>   0.4000 
@<TRIPOS>BOND
  1   1   2  1   
  2   2   3  1   
  3   2   4  1   
  4   2   5  1   
  5   5   6  1   
  6   6   7  ar  
  7   6   8  ar  
  8   7   9  ar  
  9   7  27  1   
 10   8  10  ar  
 11   8  28  1   
 12   9  11  ar  
 13   9  29  1   
 14  10  11  ar  
 15  10  30  1   
 16  11  12  1   
 17  12  13  2   
 18  12  14  am  
 19  14  15  1   
 20  14  16  1   
 21  15  17  1   
 22  15  31  1   
 23  15  32  1   
 24  16  18  1   
 25  16  33  1   
 26  16  34  1   
 27  17  19  1   
 28  17  20  1   
 29  17  35  1   
 30  18  20  1   
 31  18  36  1   
 32  18  37  1   
 33  19  21  1   
 34  19  22  1   
 35  19  38  1   
 36  20  23  1   
 37  20  24  1   
 38  21  25  1   
 39  21  39  1   
 40  21  40  1   
 41  22  41  1   
 42  22  42  1   
 43  22  43  1   
 44  23  25  1   
 45  23  44  1   
 46  23  45  1   
 47  24  26  1   
 48  24  46  1   
 49  24  47  1   
 50  25  48  1   
 51  25  49  1   
 52  26  50  1   
@<TRIPOS>SUBSTRUCTURE
  1 ****  12 GROUP 4 **** **** 0

# MOE 2024.06 (io_trps.svl 2023.06)
