@<TRIPOS>MOLECULE
NONAME
52 55 1 0 0 
SMALL
USER_CHARGES


@<TRIPOS>ATOM
  1 O       -0.0580    -0.0530    -0.1000 O.2   1 <1>  -0.5700 
  2 C        0.9970    -0.6630    -0.0680 C.2   1 <1>   0.7160 
  3 N        2.2000    -0.0020    -0.1280 N.am  1 <1>  -0.4940 
  4 C        1.0640    -2.1080     0.0340 C.2   1 <1>   0.2030 
  5 C        2.5080     1.3770    -0.2290 C.2   1 <1>  -0.0880 
  6 N        2.1910    -2.8050     0.0660 N.2   1 <1>  -0.7070 
  7 C       -0.0360    -2.9620     0.1110 C.2   1 <1>  -0.1500 
  8 N        3.7610     1.9070    -0.2520 N.pl3 1 <1>   0.3140 
  9 C        1.6580     2.4270    -0.3220 C.2   1 <1>  -0.1500 
 10 N        1.8030    -4.0850     0.1610 N.pl3 1 <1>   0.3140 
 11 C        0.4540    -4.2200     0.1960 C.2   1 <1>  -0.2050 
 12 N        3.7290     3.2570    -0.3560 N.2   1 <1>  -0.7070 
 13 C        5.0570     1.1820    -0.1690 C.3   1 <1>   0.1760 
 14 C        2.4660     3.5530    -0.3970 C.2   1 <1>   0.1390 
 15 C        2.7770    -5.1870     0.1860 C.3   1 <1>   0.0160 
 16 C       -0.2530    -5.4700     0.2930 C.ar  1 <1>   0.0530 
 17 C        5.8270     1.6220     1.0880 C.3   1 <1>  -0.1600 
 18 C        5.8830     1.4340    -1.4430 C.3   1 <1>  -0.1600 
 19 C       -0.1370    -6.2830     1.4170 C.ar  1 <1>  -0.1500 
 20 C       -1.0760    -5.9000    -0.7440 C.ar  1 <1>  -0.1500 
 21 C        7.2300     1.0270     1.1310 C.3   1 <1>   0.3430 
 22 C        7.2850     0.8440    -1.3350 C.3   1 <1>   0.3430 
 23 C       -0.8080    -7.4890     1.4990 C.ar  1 <1>  -0.1500 
 24 C       -1.7500    -7.1050    -0.6690 C.ar  1 <1>  -0.1500 
 25 N        7.9580     1.3850    -0.1200 N.4   1 <1>  -0.9590 
 26 C       -1.6150    -7.9040     0.4540 C.ar  1 <1>  -0.1500 
 27 C        9.3860     0.9440    -0.0550 C.3   1 <1>   0.2630 
 28 H        2.9570    -0.6890    -0.0910 H     1 <1>   0.3700 
 29 H       -1.0660    -2.6490     0.1040 H     1 <1>   0.1500 
 30 H        0.5830     2.4170    -0.3360 H     1 <1>   0.1500 
 31 H        4.8510     0.1300    -0.0960 H     1 <1>   0.0800 
 32 H        2.0930     4.5600    -0.4800 H     1 <1>   0.1500 
 33 H        3.7310    -4.8260    -0.1490 H     1 <1>   0.0800 
 34 H        2.4410    -5.9730    -0.4650 H     1 <1>   0.0800 
 35 H        2.8630    -5.5580     1.1900 H     1 <1>   0.0800 
 36 H        5.2860     1.3100     1.9640 H     1 <1>   0.0800 
 37 H        5.9060     2.6960     1.1190 H     1 <1>   0.0800 
 38 H        5.9680     2.4920    -1.6280 H     1 <1>   0.0800 
 39 H        5.3810     0.9940    -2.2860 H     1 <1>   0.0800 
 40 H        0.4790    -5.9600     2.2370 H     1 <1>   0.1500 
 41 H       -1.1830    -5.2800    -1.6160 H     1 <1>   0.1500 
 42 H        7.1700    -0.0450     1.2280 H     1 <1>   0.0800 
 43 H        7.7560     1.4160     1.9890 H     1 <1>   0.0800 
 44 H        7.8500     1.1040    -2.2170 H     1 <1>   0.0800 
 45 H        7.2260    -0.2310    -1.2750 H     1 <1>   0.0800 
 46 H       -0.7080    -8.1060     2.3750 H     1 <1>   0.1500 
 47 H       -2.3800    -7.4220    -1.4810 H     1 <1>   0.1500 
 48 H        7.9420     2.4150    -0.1960 H     1 <1>   0.4500 
 49 H       -2.1390    -8.8420     0.5140 H     1 <1>   0.1500 
 50 H        9.4470    -0.1290     0.0260 H     1 <1>   0.0800 
 51 H        9.8750     1.3820     0.8010 H     1 <1>   0.0800 
 52 H        9.9140     1.2530    -0.9430 H     1 <1>   0.0800 
@<TRIPOS>BOND
  1   1   2  2   
  2   2   3  am  
  3   2   4  1   
  4   3   5  1   
  5   3  28  1   
  6   4   6  2   
  7   4   7  1   
  8   5   8  1   
  9   5   9  2   
 10   6  10  1   
 11   7  11  2   
 12   7  29  1   
 13   8  12  1   
 14   8  13  1   
 15   9  14  1   
 16   9  30  1   
 17  10  11  1   
 18  10  15  1   
 19  11  16  1   
 20  12  14  2   
 21  13  17  1   
 22  13  18  1   
 23  13  31  1   
 24  14  32  1   
 25  15  33  1   
 26  15  34  1   
 27  15  35  1   
 28  16  19  ar  
 29  16  20  ar  
 30  17  21  1   
 31  17  36  1   
 32  17  37  1   
 33  18  22  1   
 34  18  38  1   
 35  18  39  1   
 36  19  23  ar  
 37  19  40  1   
 38  20  24  ar  
 39  20  41  1   
 40  21  25  1   
 41  21  42  1   
 42  21  43  1   
 43  22  25  1   
 44  22  44  1   
 45  22  45  1   
 46  23  26  ar  
 47  23  46  1   
 48  24  26  ar  
 49  24  47  1   
 50  25  27  1   
 51  25  48  1   
 52  26  49  1   
 53  27  50  1   
 54  27  51  1   
 55  27  52  1   
@<TRIPOS>SUBSTRUCTURE
  1 ****   6 GROUP 4 **** **** 0

# MOE 2024.06 (io_trps.svl 2023.06)
