@<TRIPOS>MOLECULE
NONAME
51 55 1 0 0 
SMALL
USER_CHARGES


@<TRIPOS>ATOM
  1 S       -1.0860    -0.5420     2.1260 S.3   1 <1>  -0.0800 
  2 C       -0.9940    -1.7890     0.8710 C.2   1 <1>  -0.0130 
  3 C        0.2130     0.3870     1.4080 C.2   1 <1>  -0.1100 
  4 C       -1.8890    -2.9200     0.9120 C.ar  1 <1>   0.6730 
  5 C       -0.0090    -1.4420     0.0000 C.2   1 <1>  -0.1500 
  6 C        0.6680    -0.2230     0.2990 C.2   1 <1>  -0.1500 
  7 N       -2.7420    -3.0340     1.9360 N.ar  1 <1>  -0.6200 
  8 N       -1.8100    -3.7960    -0.0970 N.ar  1 <1>  -0.6200 
  9 C       -3.5420    -4.0670     1.9470 C.ar  1 <1>   0.1600 
 10 C       -2.6200    -4.8220    -0.0680 C.ar  1 <1>   0.1600 
 11 C       -3.5360    -5.0040     0.9400 C.ar  1 <1>  -0.1430 
 12 C       -4.4950    -6.1720     0.9430 C.3   1 <1>   0.4870 
 13 N       -5.6160    -5.8910    -0.0010 N.4   1 <1>  -0.9590 
 14 C       -6.4310    -4.7010     0.4430 C.3   1 <1>   0.3430 
 15 C       -6.4850    -7.0910    -0.1860 C.3   1 <1>   0.3430 
 16 C       -7.5310    -4.3360    -0.5680 C.3   1 <1>   0.1440 
 17 C       -7.5520    -6.8000    -1.2450 C.3   1 <1>  -0.1600 
 18 C       -8.3750    -3.2410     0.0360 C.ar  1 <1>   0.1670 
 19 C       -8.4020    -5.5690    -0.8850 C.3   1 <1>  -0.1600 
 20 C       -6.9770    -3.6620    -1.8540 C.3   1 <1>  -0.1600 
 21 N       -8.8440    -3.2590     1.2620 N.ar  1 <1>  -0.6200 
 22 C       -8.5830    -2.2180    -0.8370 C.ar  1 <1>  -0.1430 
 23 C       -7.9060    -2.4690    -2.1610 C.3   1 <1>  -0.0170 
 24 C       -9.5630    -2.1880     1.5790 C.ar  1 <1>   0.4770 
 25 C       -9.3370    -1.1560    -0.4020 C.ar  1 <1>   0.1600 
 26 N       -9.8340    -1.1360     0.8180 N.ar  1 <1>  -0.6200 
 27 C      -10.1330    -2.1640     2.9760 C.3   1 <1>  -0.0970 
 28 H        0.5020     1.3000     1.8980 H     1 <1>   0.1500 
 29 H        0.2640    -2.0240    -0.8630 H     1 <1>   0.1500 
 30 H        1.4630     0.1390    -0.3290 H     1 <1>   0.1500 
 31 H       -4.2180    -4.1520     2.7820 H     1 <1>   0.1500 
 32 H       -2.5420    -5.5280    -0.8790 H     1 <1>   0.1500 
 33 H       -4.8790    -6.3310     1.9380 H     1 <1>   0.0800 
 34 H       -3.9700    -7.0630     0.6380 H     1 <1>   0.0800 
 35 H       -5.2110    -5.6520    -0.9140 H     1 <1>   0.4500 
 36 H       -5.7980    -3.8400     0.5830 H     1 <1>   0.0800 
 37 H       -6.9030    -4.9190     1.3880 H     1 <1>   0.0800 
 38 H       -6.9680    -7.3410     0.7460 H     1 <1>   0.0800 
 39 H       -5.8930    -7.9370    -0.4990 H     1 <1>   0.0800 
 40 H       -8.1980    -7.6570    -1.3310 H     1 <1>   0.0800 
 41 H       -7.0810    -6.6650    -2.2040 H     1 <1>   0.0800 
 42 H       -9.0870    -5.3420    -1.6860 H     1 <1>   0.0800 
 43 H       -8.9990    -5.8040    -0.0180 H     1 <1>   0.0800 
 44 H       -6.9230    -4.3320    -2.6930 H     1 <1>   0.0800 
 45 H       -5.9920    -3.2700    -1.6640 H     1 <1>   0.0800 
 46 H       -8.6450    -2.7360    -2.8980 H     1 <1>   0.0800 
 47 H       -7.3530    -1.6080    -2.4960 H     1 <1>   0.0800 
 48 H       -9.5350    -0.3190    -1.0490 H     1 <1>   0.1500 
 49 H      -10.6200    -3.0980     3.1850 H     1 <1>   0.0800 
 50 H      -10.8480    -1.3690     3.0770 H     1 <1>   0.0800 
 51 H       -9.3390    -2.0120     3.6830 H     1 <1>   0.0800 
@<TRIPOS>BOND
  1   1   2  1   
  2   1   3  1   
  3   2   4  1   
  4   2   5  2   
  5   3   6  2   
  6   3  28  1   
  7   4   7  ar  
  8   4   8  ar  
  9   5   6  1   
 10   5  29  1   
 11   6  30  1   
 12   7   9  ar  
 13   8  10  ar  
 14   9  11  ar  
 15   9  31  1   
 16  10  11  ar  
 17  10  32  1   
 18  11  12  1   
 19  12  13  1   
 20  12  33  1   
 21  12  34  1   
 22  13  14  1   
 23  13  15  1   
 24  13  35  1   
 25  14  16  1   
 26  14  36  1   
 27  14  37  1   
 28  15  17  1   
 29  15  38  1   
 30  15  39  1   
 31  16  18  1   
 32  16  19  1   
 33  16  20  1   
 34  17  19  1   
 35  17  40  1   
 36  17  41  1   
 37  18  21  ar  
 38  18  22  ar  
 39  19  42  1   
 40  19  43  1   
 41  20  23  1   
 42  20  44  1   
 43  20  45  1   
 44  21  24  ar  
 45  22  23  1   
 46  22  25  ar  
 47  23  46  1   
 48  23  47  1   
 49  24  26  ar  
 50  24  27  1   
 51  25  26  ar  
 52  25  48  1   
 53  27  49  1   
 54  27  50  1   
 55  27  51  1   
@<TRIPOS>SUBSTRUCTURE
  1 ****  14 GROUP 4 **** **** 0

# MOE 2024.06 (io_trps.svl 2023.06)
