@<TRIPOS>MOLECULE
NONAME
48 50 1 0 0 
SMALL
USER_CHARGES


@<TRIPOS>ATOM
  1 O       -1.8570     0.5260    -1.8150 O.2   1 <1>  -0.5700 
  2 C       -1.7880     0.7910    -0.6290 C.2   1 <1>   0.7160 
  3 N       -1.9280    -0.2210     0.2680 N.am  1 <1>  -0.7300 
  4 C       -1.5650     2.1360    -0.1380 C.2   1 <1>  -0.0860 
  5 C       -2.2240    -1.6310    -0.0540 C.3   1 <1>   0.2200 
  6 C       -2.1570     2.7750     0.9290 C.2   1 <1>  -0.3320 
  7 C       -0.6550     3.0700    -0.6650 C.2   1 <1>  -0.1810 
  8 C       -3.7220    -1.8590     0.0580 C.3   1 <1>  -0.0800 
  9 C       -1.6900    -2.5280     1.0550 C.3   1 <1>   0.1200 
 10 N       -1.6420     4.0100     1.0590 N.pl3 1 <1>   0.0330 
 11 C       -3.2470     2.2720     1.8640 C.3   1 <1>  -0.0600 
 12 C       -0.7080     4.2240     0.0810 C.2   1 <1>  -0.2370 
 13 C        0.2220     2.7810    -1.8750 C.3   1 <1>  -0.0590 
 14 C       -3.9030    -2.1370     1.5560 C.3   1 <1>   0.1200 
 15 C       -4.1810    -3.0400    -0.8160 C.3   1 <1>  -0.0170 
 16 O       -2.6490    -2.4870     2.0690 O.3   1 <1>  -0.5600 
 17 C        0.0080     5.4680    -0.0370 C.2   1 <1>   0.5940 
 18 C       -5.6870    -3.2350    -0.7340 C.ar  1 <1>  -0.1430 
 19 O        0.8470     5.6970    -0.8700 O.2   1 <1>  -0.5700 
 20 C       -0.2930     6.5850     0.9400 C.3   1 <1>  -0.1790 
 21 C       -6.2580    -4.2750    -0.0280 C.ar  1 <1>  -0.1500 
 22 C       -6.5620    -2.3750    -1.3660 C.ar  1 <1>  -0.1500 
 23 C       -7.6370    -4.3970     0.0160 C.ar  1 <1>   0.1600 
 24 C       -7.9270    -2.5860    -1.2590 C.ar  1 <1>   0.1600 
 25 N       -8.4860    -3.5750    -0.5810 N.ar  1 <1>  -0.6200 
 26 H       -1.8810     0.0070     1.2610 H     1 <1>   0.3700 
 27 H       -1.8220    -1.8860    -1.0210 H     1 <1>   0.0800 
 28 H       -4.2690    -0.9810    -0.2380 H     1 <1>   0.0800 
 29 H       -0.7410    -2.1970     1.4380 H     1 <1>   0.0800 
 30 H       -1.6130    -3.5470     0.7190 H     1 <1>   0.0800 
 31 H       -1.9140     4.6950     1.7720 H     1 <1>   0.2700 
 32 H       -3.7230     1.3950     1.4650 H     1 <1>   0.0800 
 33 H       -4.0030     3.0270     1.9900 H     1 <1>   0.0800 
 34 H       -2.8310     2.0340     2.8270 H     1 <1>   0.0800 
 35 H        0.7020     1.8260    -1.7610 H     1 <1>   0.0800 
 36 H        0.9850     3.5240    -2.0040 H     1 <1>   0.0800 
 37 H       -0.3850     2.7550    -2.7620 H     1 <1>   0.0800 
 38 H       -4.5950    -2.9360     1.7560 H     1 <1>   0.0800 
 39 H       -4.2270    -1.2500     2.0720 H     1 <1>   0.0800 
 40 H       -3.6810    -3.9450    -0.5170 H     1 <1>   0.0800 
 41 H       -3.9170    -2.8460    -1.8420 H     1 <1>   0.0800 
 42 H       -1.3250     6.8690     0.8640 H     1 <1>   0.0800 
 43 H        0.3160     7.4410     0.7100 H     1 <1>   0.0800 
 44 H       -0.0700     6.2660     1.9410 H     1 <1>   0.0800 
 45 H       -5.6460    -4.9920     0.4890 H     1 <1>   0.1500 
 46 H       -6.1960    -1.5430    -1.9390 H     1 <1>   0.1500 
 47 H       -8.0650    -5.2140     0.5710 H     1 <1>   0.1500 
 48 H       -8.5940    -1.9040    -1.7580 H     1 <1>   0.1500 
@<TRIPOS>BOND
  1   1   2  2   
  2   2   3  am  
  3   2   4  1   
  4   3   5  1   
  5   3  26  1   
  6   4   6  2   
  7   4   7  1   
  8   5   8  1   
  9   5   9  1   
 10   5  27  1   
 11   6  10  1   
 12   6  11  1   
 13   7  12  2   
 14   7  13  1   
 15   8  14  1   
 16   8  15  1   
 17   8  28  1   
 18   9  16  1   
 19   9  29  1   
 20   9  30  1   
 21  10  12  1   
 22  10  31  1   
 23  11  32  1   
 24  11  33  1   
 25  11  34  1   
 26  12  17  1   
 27  13  35  1   
 28  13  36  1   
 29  13  37  1   
 30  14  16  1   
 31  14  38  1   
 32  14  39  1   
 33  15  18  1   
 34  15  40  1   
 35  15  41  1   
 36  17  19  2   
 37  17  20  1   
 38  18  21  ar  
 39  18  22  ar  
 40  20  42  1   
 41  20  43  1   
 42  20  44  1   
 43  21  23  ar  
 44  21  45  1   
 45  22  24  ar  
 46  22  46  1   
 47  23  25  ar  
 48  23  47  1   
 49  24  25  ar  
 50  24  48  1   
@<TRIPOS>SUBSTRUCTURE
  1 ****   3 GROUP 4 **** **** 0

# MOE 2024.06 (io_trps.svl 2023.06)
