@<TRIPOS>MOLECULE
NONAME
49 52 1 0 0 
SMALL
USER_CHARGES


@<TRIPOS>ATOM
  1 F        0.9150     2.4350    -1.3500 F     1 <1>  -0.1900 
  2 C       -0.3090     2.1600    -0.9610 C.ar  1 <1>   0.1900 
  3 C       -0.8960     2.9010     0.0730 C.ar  1 <1>   0.1000 
  4 C       -0.9630     1.1320    -1.6110 C.ar  1 <1>  -0.1500 
  5 N       -0.2730     3.9510     0.7610 N.pl3 1 <1>  -0.8380 
  6 C       -2.1930     2.5550     0.4320 C.ar  1 <1>  -0.1500 
  7 C       -2.2560     0.8130    -1.2280 C.ar  1 <1>  -0.1500 
  8 C        0.6800     3.6440     1.8480 C.3   1 <1>   0.2090 
  9 C       -0.2290     5.2950     0.1490 C.3   1 <1>   0.2090 
 10 C       -2.8660     1.5260    -0.2080 C.ar  1 <1>  -0.1500 
 11 C        2.0990     3.8840     1.3440 C.3   1 <1>  -0.1600 
 12 C        1.1810     5.5550    -0.3740 C.3   1 <1>  -0.1600 
 13 C        2.2280     5.2790     0.7120 C.3   1 <1>   0.4230 
 14 N        3.5940     5.5100     0.1530 N.4   1 <1>  -0.9590 
 15 C        4.6120     5.7270     1.2500 C.3   1 <1>   0.3430 
 16 C        4.0150     4.4690    -0.8650 C.3   1 <1>   0.3430 
 17 C        5.9500     6.3530     0.7680 C.3   1 <1>   0.2200 
 18 C        5.2650     4.8280    -1.6830 C.3   1 <1>  -0.0190 
 19 N        5.8110     6.9830    -0.5790 N.am  1 <1>  -0.7300 
 20 C        7.0590     5.2850     0.7590 C.3   1 <1>   0.1200 
 21 C        5.5000     6.3210    -1.7160 C.2   1 <1>   0.5690 
 22 C        6.5110     4.0720    -1.2010 C.3   1 <1>   0.1200 
 23 O        6.5970     4.0940     0.1910 O.3   1 <1>  -0.5600 
 24 O        5.3510     6.9230    -2.7430 O.2   1 <1>  -0.5700 
 25 H       -0.4730     0.5910    -2.3990 H     1 <1>   0.1500 
 26 H       -2.6740     3.1030     1.2220 H     1 <1>   0.1500 
 27 H       -2.7840     0.0150    -1.7210 H     1 <1>   0.1500 
 28 H        0.4630     4.2740     2.6940 H     1 <1>   0.0800 
 29 H        0.5620     2.6170     2.1540 H     1 <1>   0.0800 
 30 H       -0.9410     5.3500    -0.6590 H     1 <1>   0.0800 
 31 H       -0.5030     6.0280     0.8890 H     1 <1>   0.0800 
 32 H       -3.8700     1.2800     0.0900 H     1 <1>   0.1500 
 33 H        2.3210     3.1090     0.6360 H     1 <1>   0.0800 
 34 H        2.7720     3.7830     2.1750 H     1 <1>   0.0800 
 35 H        1.2400     6.5790    -0.6920 H     1 <1>   0.0800 
 36 H        1.3260     4.9280    -1.2310 H     1 <1>   0.0800 
 37 H        2.0540     5.9990     1.4960 H     1 <1>   0.0800 
 38 H        3.5570     6.4040    -0.3610 H     1 <1>   0.4500 
 39 H        4.1910     6.3880     1.9900 H     1 <1>   0.0800 
 40 H        4.8210     4.7910     1.7430 H     1 <1>   0.0800 
 41 H        4.1860     3.5270    -0.3700 H     1 <1>   0.0800 
 42 H        3.2080     4.3190    -1.5620 H     1 <1>   0.0800 
 43 H        6.2470     7.1160     1.4670 H     1 <1>   0.0800 
 44 H        5.0930     4.5110    -2.6960 H     1 <1>   0.0800 
 45 H        6.0630     7.9730    -0.6820 H     1 <1>   0.3700 
 46 H        7.3410     5.0530     1.7720 H     1 <1>   0.0800 
 47 H        7.9380     5.6250     0.2360 H     1 <1>   0.0800 
 48 H        7.4140     4.4780    -1.6280 H     1 <1>   0.0800 
 49 H        6.4390     3.0380    -1.4910 H     1 <1>   0.0800 
@<TRIPOS>BOND
  1   1   2  1   
  2   2   3  ar  
  3   2   4  ar  
  4   3   5  1   
  5   3   6  ar  
  6   4   7  ar  
  7   4  25  1   
  8   5   8  1   
  9   5   9  1   
 10   6  10  ar  
 11   6  26  1   
 12   7  10  ar  
 13   7  27  1   
 14   8  11  1   
 15   8  28  1   
 16   8  29  1   
 17   9  12  1   
 18   9  30  1   
 19   9  31  1   
 20  10  32  1   
 21  11  13  1   
 22  11  33  1   
 23  11  34  1   
 24  12  13  1   
 25  12  35  1   
 26  12  36  1   
 27  13  14  1   
 28  13  37  1   
 29  14  15  1   
 30  14  16  1   
 31  14  38  1   
 32  15  17  1   
 33  15  39  1   
 34  15  40  1   
 35  16  18  1   
 36  16  41  1   
 37  16  42  1   
 38  17  19  1   
 39  17  20  1   
 40  17  43  1   
 41  18  21  1   
 42  18  22  1   
 43  18  44  1   
 44  19  21  am  
 45  19  45  1   
 46  20  23  1   
 47  20  46  1   
 48  20  47  1   
 49  21  24  2   
 50  22  23  1   
 51  22  48  1   
 52  22  49  1   
@<TRIPOS>SUBSTRUCTURE
  1 ****  13 GROUP 4 **** **** 0

# MOE 2024.06 (io_trps.svl 2023.06)
