@<TRIPOS>MOLECULE
NONAME
46 48 1 0 0 
SMALL
USER_CHARGES


@<TRIPOS>ATOM
  1 O       -3.4000     1.7010    -3.0410 O.2   1 <1>  -0.5700 
  2 C       -2.4820     1.6390    -2.2610 C.2   1 <1>   0.5690 
  3 N       -2.1120     0.4690    -1.6840 N.am  1 <1>  -0.7300 
  4 C       -1.7230     2.9100    -1.9130 C.3   1 <1>   0.0440 
  5 C       -2.7660    -0.8420    -1.8800 C.3   1 <1>   0.2200 
  6 C       -0.7890     2.7270    -0.7180 C.ar  1 <1>  -0.1440 
  7 C       -3.4780    -1.2330    -0.5980 C.3   1 <1>  -0.0800 
  8 C       -1.7050    -1.9330    -2.0010 C.3   1 <1>   0.1200 
  9 C       -1.2760     2.8550     0.5730 C.ar  1 <1>  -0.1500 
 10 C        0.5450     2.4060    -0.9100 C.ar  1 <1>  -0.1500 
 11 C       -2.3340    -1.8390     0.2180 C.3   1 <1>   0.1200 
 12 C       -4.6070    -2.2480    -0.8640 C.3   1 <1>  -0.0160 
 13 O       -1.4210    -2.3650    -0.7010 O.3   1 <1>  -0.5600 
 14 C       -0.4400     2.6590     1.6580 C.ar  1 <1>  -0.1500 
 15 C        1.3810     2.2100     0.1750 C.ar  1 <1>  -0.1500 
 16 C       -5.3310    -2.6250     0.4200 C.ar  1 <1>  -0.1440 
 17 C        0.8940     2.3330     1.4670 C.ar  1 <1>  -0.1440 
 18 C       -6.2400    -1.7750     1.0170 C.ar  1 <1>  -0.1500 
 19 C       -5.1190    -3.8320     1.0540 C.ar  1 <1>  -0.1500 
 20 C        1.8060     2.1170     2.6620 C.3   1 <1>   0.2630 
 21 C       -6.8710    -2.1610     2.1880 C.ar  1 <1>   0.1600 
 22 C       -5.8020    -4.1220     2.2230 C.ar  1 <1>   0.1600 
 23 O        1.9760     3.3350     3.2870 O.3   1 <1>  -0.6800 
 24 N       -6.6730    -3.3140     2.8070 N.ar  1 <1>  -0.6200 
 25 H       -1.3420     0.4790    -1.0060 H     1 <1>   0.3700 
 26 H       -1.1620     3.2150    -2.7760 H     1 <1>   0.0800 
 27 H       -2.4360     3.6840    -1.6990 H     1 <1>   0.0800 
 28 H       -3.4170    -0.8090    -2.7380 H     1 <1>   0.0800 
 29 H       -3.8940    -0.3730    -0.1030 H     1 <1>   0.0800 
 30 H       -0.8030    -1.5810    -2.4700 H     1 <1>   0.0800 
 31 H       -2.0910    -2.7770    -2.5450 H     1 <1>   0.0800 
 32 H       -2.3100     3.1050     0.7420 H     1 <1>   0.1500 
 33 H        0.9420     2.3030    -1.9060 H     1 <1>   0.1500 
 34 H       -2.6500    -2.6190     0.8870 H     1 <1>   0.0800 
 35 H       -1.8230    -1.0750     0.7780 H     1 <1>   0.0800 
 36 H       -4.2110    -3.1350    -1.3270 H     1 <1>   0.0800 
 37 H       -5.3190    -1.8170    -1.5460 H     1 <1>   0.0800 
 38 H       -0.8270     2.7640     2.6570 H     1 <1>   0.1500 
 39 H        2.4150     1.9610     0.0060 H     1 <1>   0.1500 
 40 H       -6.4640    -0.8180     0.5830 H     1 <1>   0.1500 
 41 H       -4.4270    -4.5510     0.6520 H     1 <1>   0.1500 
 42 H        2.7730     1.7570     2.3570 H     1 <1>   0.0800 
 43 H        1.3730     1.4310     3.3690 H     1 <1>   0.0800 
 44 H       -7.5770    -1.4850     2.6390 H     1 <1>   0.1500 
 45 H       -5.6230    -5.0680     2.7040 H     1 <1>   0.1500 
 46 H        1.9760     4.0350     2.6050 H     1 <1>   0.4000 
@<TRIPOS>BOND
  1   1   2  2   
  2   2   3  am  
  3   2   4  1   
  4   3   5  1   
  5   3  25  1   
  6   4   6  1   
  7   4  26  1   
  8   4  27  1   
  9   5   7  1   
 10   5   8  1   
 11   5  28  1   
 12   6   9  ar  
 13   6  10  ar  
 14   7  11  1   
 15   7  12  1   
 16   7  29  1   
 17   8  13  1   
 18   8  30  1   
 19   8  31  1   
 20   9  14  ar  
 21   9  32  1   
 22  10  15  ar  
 23  10  33  1   
 24  11  13  1   
 25  11  34  1   
 26  11  35  1   
 27  12  16  1   
 28  12  36  1   
 29  12  37  1   
 30  14  17  ar  
 31  14  38  1   
 32  15  17  ar  
 33  15  39  1   
 34  16  18  ar  
 35  16  19  ar  
 36  17  20  1   
 37  18  21  ar  
 38  18  40  1   
 39  19  22  ar  
 40  19  41  1   
 41  20  23  1   
 42  20  42  1   
 43  20  43  1   
 44  21  24  ar  
 45  21  44  1   
 46  22  24  ar  
 47  22  45  1   
 48  23  46  1   
@<TRIPOS>SUBSTRUCTURE
  1 ****   7 GROUP 4 **** **** 0

# MOE 2024.06 (io_trps.svl 2023.06)
