@<TRIPOS>MOLECULE
NONAME
43 45 1 0 0 
SMALL
USER_CHARGES


@<TRIPOS>ATOM
  1 S        2.4090    -1.9380    -1.9530 S.3   1 <1>  -0.0800 
  2 C        1.1270    -2.0740    -0.7730 C.2   1 <1>   0.1980 
  3 C        2.6470    -0.2880    -1.4550 C.2   1 <1>  -0.1100 
  4 N        0.9120    -1.0130    -0.0970 N.2   1 <1>  -0.5650 
  5 C        0.4110    -3.4130    -0.6650 C.3   1 <1>   0.5230 
  6 C        1.7720     0.0030    -0.4800 C.2   1 <1>   0.0460 
  7 N       -0.8220    -3.2600     0.1770 N.4   1 <1>  -0.9590 
  8 C        1.6390     1.3300     0.2360 C.3   1 <1>  -0.0590 
  9 C       -1.3320    -4.5190     0.8130 C.3   1 <1>   0.4230 
 10 C       -1.8460    -2.5810    -0.6720 C.3   1 <1>   0.3430 
 11 C       -2.5980    -4.1890     1.6240 C.3   1 <1>  -0.1600 
 12 C       -0.3120    -5.1850     1.7710 C.3   1 <1>  -0.1600 
 13 C       -3.0800    -2.2270     0.1510 C.3   1 <1>  -0.1600 
 14 C       -3.6740    -3.4750     0.8020 C.3   1 <1>  -0.1600 
 15 C        0.7730    -6.0960     1.1560 C.3   1 <1>   0.0960 
 16 N        0.2770    -6.8480    -0.0140 N.pl3 1 <1>   0.3140 
 17 N        0.1630    -6.2700    -1.2270 N.2   1 <1>  -0.7070 
 18 C       -0.1310    -8.1300    -0.0410 C.2   1 <1>  -0.3020 
 19 C       -0.2970    -7.2110    -1.9980 C.2   1 <1>   0.1390 
 20 C       -0.5060    -8.3980    -1.3090 C.2   1 <1>  -0.1500 
 21 H        3.4150     0.2840    -1.9440 H     1 <1>   0.1500 
 22 H        1.0930    -4.1080    -0.2230 H     1 <1>   0.0800 
 23 H        0.1530    -3.7780    -1.6450 H     1 <1>   0.0800 
 24 H       -0.5620    -2.5830     0.9080 H     1 <1>   0.4500 
 25 H        2.3560     2.0350    -0.1430 H     1 <1>   0.0800 
 26 H        1.8090     1.1940     1.2890 H     1 <1>   0.0800 
 27 H        0.6510     1.7260     0.0910 H     1 <1>   0.0800 
 28 H       -1.6090    -5.2190     0.0400 H     1 <1>   0.0800 
 29 H       -2.1340    -3.2320    -1.4830 H     1 <1>   0.0800 
 30 H       -1.4350    -1.6770    -1.0930 H     1 <1>   0.0800 
 31 H       -2.3350    -3.5790     2.4710 H     1 <1>   0.0800 
 32 H       -3.0220    -5.1020     2.0070 H     1 <1>   0.0800 
 33 H       -0.8650    -5.8260     2.4360 H     1 <1>   0.0800 
 34 H        0.1490    -4.4400     2.3950 H     1 <1>   0.0800 
 35 H       -3.8140    -1.7740    -0.4930 H     1 <1>   0.0800 
 36 H       -2.8160    -1.5010     0.9010 H     1 <1>   0.0800 
 37 H       -4.5000    -3.1990     1.4370 H     1 <1>   0.0800 
 38 H       -4.0510    -4.1390     0.0410 H     1 <1>   0.0800 
 39 H        1.1110    -6.8020     1.8940 H     1 <1>   0.0800 
 40 H        1.6310    -5.5290     0.8510 H     1 <1>   0.0800 
 41 H       -0.1300    -8.7750     0.8190 H     1 <1>   0.1500 
 42 H       -0.4930    -7.0830    -3.0510 H     1 <1>   0.1500 
 43 H       -0.8830    -9.3170    -1.7250 H     1 <1>   0.1500 
@<TRIPOS>BOND
  1   1   2  1   
  2   1   3  1   
  3   2   4  2   
  4   2   5  1   
  5   3   6  2   
  6   3  21  1   
  7   4   6  1   
  8   5   7  1   
  9   5  22  1   
 10   5  23  1   
 11   6   8  1   
 12   7   9  1   
 13   7  10  1   
 14   7  24  1   
 15   8  25  1   
 16   8  26  1   
 17   8  27  1   
 18   9  11  1   
 19   9  12  1   
 20   9  28  1   
 21  10  13  1   
 22  10  29  1   
 23  10  30  1   
 24  11  14  1   
 25  11  31  1   
 26  11  32  1   
 27  12  15  1   
 28  12  33  1   
 29  12  34  1   
 30  13  14  1   
 31  13  35  1   
 32  13  36  1   
 33  14  37  1   
 34  14  38  1   
 35  15  16  1   
 36  15  39  1   
 37  15  40  1   
 38  16  17  1   
 39  16  18  1   
 40  17  19  2   
 41  18  20  2   
 42  18  41  1   
 43  19  20  1   
 44  19  42  1   
 45  20  43  1   
@<TRIPOS>SUBSTRUCTURE
  1 ****   5 GROUP 4 **** **** 0

# MOE 2024.06 (io_trps.svl 2023.06)
