@<TRIPOS>MOLECULE
NONAME
45 47 1 0 0 
SMALL
USER_CHARGES


@<TRIPOS>ATOM
  1 O       -0.7010    -0.0520    -0.6690 O.2   1 <1>  -0.5700 
  2 C       -1.4930     0.6770    -0.1000 C.2   1 <1>   0.5440 
  3 N       -2.4400     0.1220     0.7330 N.am  1 <1>  -0.6600 
  4 C       -1.4020     2.1080    -0.2970 C.ar  1 <1>   0.0860 
  5 C       -2.5720    -1.3630     0.8640 C.3   1 <1>   0.3210 
  6 C       -3.4110     0.9290     1.5430 C.3   1 <1>   0.1400 
  7 C       -0.6160     2.9280     0.5260 C.ar  1 <1>  -0.1440 
  8 C       -2.1190     2.7040    -1.3340 C.ar  1 <1>  -0.1500 
  9 C       -3.8630    -1.8480     0.2150 C.2   1 <1>   0.0460 
 10 C       -4.5130     1.6390     0.7290 C.3   1 <1>   0.1200 
 11 C       -0.5740     4.2980     0.3170 C.ar  1 <1>  -0.1500 
 12 C        0.2130     2.3200     1.6500 C.3   1 <1>  -0.0960 
 13 C       -2.0800     4.0680    -1.5400 C.ar  1 <1>   0.0830 
 14 N       -5.0230    -1.8770     0.9050 N.2   1 <1>  -0.5650 
 15 C       -4.0540    -2.2600    -1.0600 C.2   1 <1>  -0.3320 
 16 O       -4.9690     0.8590    -0.3210 O.3   1 <1>  -0.6800 
 17 C       -1.2970     4.8730    -0.7120 C.ar  1 <1>   0.0830 
 18 O       -2.8170     4.6040    -2.5450 O.3   1 <1>  -0.3620 
 19 C       -5.8860    -2.3100     0.0450 C.2   1 <1>   0.0360 
 20 N       -5.3600    -2.5620    -1.1710 N.pl3 1 <1>   0.0330 
 21 C       -3.0760    -2.3650    -2.2190 C.3   1 <1>  -0.0600 
 22 O       -1.2270     6.2120    -0.8990 O.3   1 <1>  -0.3630 
 23 C       -3.0200     6.0040    -2.5140 C.3   1 <1>   0.1200 
 24 C       -1.7210     6.7220    -2.1240 C.3   1 <1>   0.1200 
 25 H       -2.5740    -1.6340     1.9050 H     1 <1>   0.0800 
 26 H       -1.7400    -1.8630     0.4040 H     1 <1>   0.0800 
 27 H       -2.8710     1.6700     2.1060 H     1 <1>   0.0800 
 28 H       -3.8900     0.2860     2.2610 H     1 <1>   0.0800 
 29 H       -2.7250     2.0890    -1.9760 H     1 <1>   0.1500 
 30 H       -4.1560     2.5670     0.3210 H     1 <1>   0.0800 
 31 H       -5.3510     1.8550     1.3680 H     1 <1>   0.0800 
 32 H        0.0250     4.9360     0.9410 H     1 <1>   0.1500 
 33 H        0.8880     1.5850     1.2490 H     1 <1>   0.0800 
 34 H       -0.4270     1.8440     2.3710 H     1 <1>   0.0800 
 35 H        0.7940     3.0720     2.1530 H     1 <1>   0.0800 
 36 H       -4.8900    -0.0980    -0.0720 H     1 <1>   0.4000 
 37 H       -6.9310    -2.4580     0.2560 H     1 <1>   0.1500 
 38 H       -5.8540    -2.8940    -2.0030 H     1 <1>   0.2700 
 39 H       -2.0940    -2.0470    -1.9180 H     1 <1>   0.0800 
 40 H       -3.3960    -1.7340    -3.0290 H     1 <1>   0.0800 
 41 H       -3.0150    -3.3810    -2.5660 H     1 <1>   0.0800 
 42 H       -3.7940     6.2120    -1.7960 H     1 <1>   0.0800 
 43 H       -3.3500     6.3120    -3.4890 H     1 <1>   0.0800 
 44 H       -0.9680     6.5670    -2.8770 H     1 <1>   0.0800 
 45 H       -1.8870     7.7760    -2.0010 H     1 <1>   0.0800 
@<TRIPOS>BOND
  1   1   2  2   
  2   2   3  am  
  3   2   4  1   
  4   3   5  1   
  5   3   6  1   
  6   4   7  ar  
  7   4   8  ar  
  8   5   9  1   
  9   5  25  1   
 10   5  26  1   
 11   6  10  1   
 12   6  27  1   
 13   6  28  1   
 14   7  11  ar  
 15   7  12  1   
 16   8  13  ar  
 17   8  29  1   
 18   9  14  1   
 19   9  15  2   
 20  10  16  1   
 21  10  30  1   
 22  10  31  1   
 23  11  17  ar  
 24  11  32  1   
 25  12  33  1   
 26  12  34  1   
 27  12  35  1   
 28  13  17  ar  
 29  13  18  1   
 30  14  19  2   
 31  15  20  1   
 32  15  21  1   
 33  16  36  1   
 34  17  22  1   
 35  18  23  1   
 36  19  20  1   
 37  19  37  1   
 38  20  38  1   
 39  21  39  1   
 40  21  40  1   
 41  21  41  1   
 42  22  24  1   
 43  23  24  1   
 44  23  42  1   
 45  23  43  1   
 46  24  44  1   
 47  24  45  1   
@<TRIPOS>SUBSTRUCTURE
  1 ****   4 GROUP 4 **** **** 0

# MOE 2024.06 (io_trps.svl 2023.06)
