@<TRIPOS>MOLECULE
NONAME
40 42 1 0 0 
SMALL
USER_CHARGES


@<TRIPOS>ATOM
  1 CL      -0.5950     2.0500    -0.4470 Cl    1 <1>  -0.1240 
  2 C       -2.2650     1.5560    -0.4860 C.2   1 <1>   0.1640 
  3 S       -2.6030    -0.1080    -0.0620 S.3   1 <1>  -0.0800 
  4 C       -3.3840     2.2350    -0.7910 C.2   1 <1>  -0.1500 
  5 C       -4.3270     0.1520    -0.3100 C.2   1 <1>  -0.1400 
  6 C       -4.5650     1.4280    -0.6910 C.2   1 <1>  -0.1500 
  7 C       -5.2090    -1.0580    -0.0690 C.3   1 <1>   0.5230 
  8 N       -6.6020    -0.6120     0.1730 N.4   1 <1>  -0.9590 
  9 C       -6.7640     0.1400     1.4550 C.3   1 <1>   0.3430 
 10 C       -7.6190    -1.6800     0.0110 C.3   1 <1>   0.3430 
 11 C       -8.2280     0.5370     1.6840 C.3   1 <1>  -0.1600 
 12 C       -9.0160    -1.0530    -0.0770 C.3   1 <1>  -0.1600 
 13 C       -9.0790     0.4000     0.4170 C.3   1 <1>   0.4180 
 14 O       -8.4960     1.1850    -0.6020 O.3   1 <1>  -0.5600 
 15 C      -10.5290     0.8010     0.6570 C.2   1 <1>  -0.2880 
 16 C       -8.8380     2.5470    -0.6400 C.3   1 <1>   0.1200 
 17 C      -11.1230     1.8390     0.0670 C.2   1 <1>  -0.2760 
 18 C      -10.3420     2.7270    -0.8820 C.3   1 <1>  -0.0220 
 19 C      -12.5800     2.2230     0.2630 C.3   1 <1>  -0.1020 
 20 H       -3.4220     3.2700    -1.0830 H     1 <1>   0.1500 
 21 H       -5.5250     1.8610    -0.9190 H     1 <1>   0.1500 
 22 H       -4.8470    -1.6060     0.7860 H     1 <1>   0.0800 
 23 H       -5.1640    -1.7020    -0.9320 H     1 <1>   0.0800 
 24 H       -6.8400     0.0810    -0.5620 H     1 <1>   0.4500 
 25 H       -6.1630     1.0350     1.4170 H     1 <1>   0.0800 
 26 H       -6.4200    -0.4560     2.2840 H     1 <1>   0.0800 
 27 H       -7.5750    -2.3500     0.8540 H     1 <1>   0.0800 
 28 H       -7.4290    -2.2480    -0.8860 H     1 <1>   0.0800 
 29 H       -8.2820     1.5410     2.0630 H     1 <1>   0.0800 
 30 H       -8.6410    -0.0970     2.4470 H     1 <1>   0.0800 
 31 H       -9.6830    -1.6610     0.5080 H     1 <1>   0.0800 
 32 H       -9.3750    -1.0920    -1.0900 H     1 <1>   0.0800 
 33 H      -11.0420     0.1560     1.3480 H     1 <1>   0.1500 
 34 H       -8.2790     3.0110    -1.4350 H     1 <1>   0.0800 
 35 H       -8.5550     3.0010     0.2940 H     1 <1>   0.0800 
 36 H      -10.5850     2.4810    -1.9000 H     1 <1>   0.0800 
 37 H      -10.5930     3.7600    -0.7180 H     1 <1>   0.0800 
 38 H      -13.0990     2.2010    -0.6780 H     1 <1>   0.0800 
 39 H      -12.6530     3.2130     0.6770 H     1 <1>   0.0800 
 40 H      -13.0660     1.5370     0.9350 H     1 <1>   0.0800 
@<TRIPOS>BOND
  1   1   2  1   
  2   2   3  1   
  3   2   4  2   
  4   3   5  1   
  5   4   6  1   
  6   4  20  1   
  7   5   6  2   
  8   5   7  1   
  9   6  21  1   
 10   7   8  1   
 11   7  22  1   
 12   7  23  1   
 13   8   9  1   
 14   8  10  1   
 15   8  24  1   
 16   9  11  1   
 17   9  25  1   
 18   9  26  1   
 19  10  12  1   
 20  10  27  1   
 21  10  28  1   
 22  11  13  1   
 23  11  29  1   
 24  11  30  1   
 25  12  13  1   
 26  12  31  1   
 27  12  32  1   
 28  13  14  1   
 29  13  15  1   
 30  14  16  1   
 31  15  17  2   
 32  15  33  1   
 33  16  18  1   
 34  16  34  1   
 35  16  35  1   
 36  17  18  1   
 37  17  19  1   
 38  18  36  1   
 39  18  37  1   
 40  19  38  1   
 41  19  39  1   
 42  19  40  1   
@<TRIPOS>SUBSTRUCTURE
  1 ****   8 GROUP 4 **** **** 0

# MOE 2024.06 (io_trps.svl 2023.06)
