@<TRIPOS>MOLECULE
NONAME
51 53 1 0 0 
SMALL
USER_CHARGES


@<TRIPOS>ATOM
  1 F        2.8420     0.6520     1.7300 F     1 <1>  -0.1900 
  2 C        3.0200     1.4070     0.6790 C.ar  1 <1>   0.1900 
  3 C        3.3030     2.7460     0.8630 C.ar  1 <1>  -0.1500 
  4 C        2.9190     0.8360    -0.5750 C.ar  1 <1>  -0.1500 
  5 C        3.4950     3.5470    -0.2510 C.ar  1 <1>   0.0830 
  6 C        3.1080     1.6410    -1.6860 C.ar  1 <1>  -0.1500 
  7 O        3.7790     4.8520    -0.0170 O.3   1 <1>  -0.3630 
  8 C        3.3940     2.9900    -1.5270 C.ar  1 <1>  -0.1500 
  9 C        3.9920     5.7630    -1.0830 C.3   1 <1>   0.1810 
 10 C        4.2890     7.1820    -0.5910 C.2   1 <1>   0.5690 
 11 O        4.0160     8.0850    -1.3460 O.2   1 <1>  -0.5700 
 12 N        4.9040     7.4630     0.6100 N.am  1 <1>  -0.6600 
 13 C        5.9640     6.6100     1.2180 C.3   1 <1>   0.1400 
 14 C        4.7130     8.7930     1.2490 C.3   1 <1>   0.1400 
 15 C        7.2910     6.7790     0.4510 C.3   1 <1>   0.3430 
 16 C        5.9990     9.6250     1.2160 C.3   1 <1>  -0.1600 
 17 N        7.8770     8.1710     0.4730 N.4   1 <1>  -0.9590 
 18 C        6.9370     9.2690     0.0620 C.3   1 <1>   0.3430 
 19 C        9.1220     8.2120    -0.3430 C.3   1 <1>   0.5240 
 20 C        9.8500     9.4980    -0.0410 C.2   1 <1>  -0.1810 
 21 C       10.5290     9.8690     1.0580 C.2   1 <1>  -0.0400 
 22 C        9.9580    10.6090    -0.8790 C.2   1 <1>   0.1080 
 23 O       10.9590    11.0850     0.8670 O.3   1 <1>  -0.0190 
 24 C       10.8610     9.1830     2.3690 C.3   1 <1>  -0.0600 
 25 N       10.6160    11.5430    -0.3000 N.2   1 <1>  -0.4100 
 26 C        9.4080    10.7480    -2.2860 C.3   1 <1>  -0.0590 
 27 H        3.3670     3.1550     1.8530 H     1 <1>   0.1500 
 28 H        2.6960    -0.2110    -0.6740 H     1 <1>   0.1500 
 29 H        3.0310     1.2180    -2.6730 H     1 <1>   0.1500 
 30 H        3.5290     3.5830    -2.4120 H     1 <1>   0.1500 
 31 H        3.0990     5.7850    -1.6810 H     1 <1>   0.0800 
 32 H        4.8150     5.4100    -1.6750 H     1 <1>   0.0800 
 33 H        5.6740     5.5770     1.1910 H     1 <1>   0.0800 
 34 H        6.0980     6.8700     2.2540 H     1 <1>   0.0800 
 35 H        4.3800     8.6600     2.2650 H     1 <1>   0.0800 
 36 H        3.9320     9.3280     0.7310 H     1 <1>   0.0800 
 37 H        7.1180     6.4820    -0.5700 H     1 <1>   0.0800 
 38 H        8.0070     6.0900     0.8690 H     1 <1>   0.0800 
 39 H        6.5110     9.5600     2.1580 H     1 <1>   0.0800 
 40 H        5.7040    10.6540     1.1020 H     1 <1>   0.0800 
 41 H        8.1670     8.3980     1.4310 H     1 <1>   0.4500 
 42 H        7.5010    10.1540    -0.1810 H     1 <1>   0.0800 
 43 H        6.3670     8.9870    -0.8110 H     1 <1>   0.0800 
 44 H        8.8870     8.1550    -1.3940 H     1 <1>   0.0800 
 45 H        9.7610     7.3830    -0.0880 H     1 <1>   0.0800 
 46 H       10.4830     8.1790     2.3910 H     1 <1>   0.0800 
 47 H       10.4400     9.7390     3.1880 H     1 <1>   0.0800 
 48 H       11.9290     9.1510     2.4960 H     1 <1>   0.0800 
 49 H        9.7580     9.9430    -2.9050 H     1 <1>   0.0800 
 50 H        9.7480    11.6740    -2.7160 H     1 <1>   0.0800 
 51 H        8.3350    10.7550    -2.2740 H     1 <1>   0.0800 
@<TRIPOS>BOND
  1   1   2  1   
  2   2   3  ar  
  3   2   4  ar  
  4   3   5  ar  
  5   3  27  1   
  6   4   6  ar  
  7   4  28  1   
  8   5   7  1   
  9   5   8  ar  
 10   6   8  ar  
 11   6  29  1   
 12   7   9  1   
 13   8  30  1   
 14   9  10  1   
 15   9  31  1   
 16   9  32  1   
 17  10  11  2   
 18  10  12  am  
 19  12  13  1   
 20  12  14  1   
 21  13  15  1   
 22  13  33  1   
 23  13  34  1   
 24  14  16  1   
 25  14  35  1   
 26  14  36  1   
 27  15  17  1   
 28  15  37  1   
 29  15  38  1   
 30  16  18  1   
 31  16  39  1   
 32  16  40  1   
 33  17  18  1   
 34  17  19  1   
 35  17  41  1   
 36  18  42  1   
 37  18  43  1   
 38  19  20  1   
 39  19  44  1   
 40  19  45  1   
 41  20  21  2   
 42  20  22  1   
 43  21  23  1   
 44  21  24  1   
 45  22  25  2   
 46  22  26  1   
 47  23  25  1   
 48  24  46  1   
 49  24  47  1   
 50  24  48  1   
 51  26  49  1   
 52  26  50  1   
 53  26  51  1   
@<TRIPOS>SUBSTRUCTURE
  1 ****  15 GROUP 4 **** **** 0

# MOE 2024.06 (io_trps.svl 2023.06)
