@<TRIPOS>MOLECULE
NONAME
52 53 1 0 0 
SMALL
USER_CHARGES


@<TRIPOS>ATOM
  1 S        0.5500    -0.3370     0.8950 S.o2  1 <1>   1.3330 
  2 O        1.2280    -1.3260     1.7030 O.2   1 <1>  -0.6500 
  3 O       -0.1410     0.7570     1.5380 O.2   1 <1>  -0.6500 
  4 N       -0.5530    -1.1520    -0.1060 N.am  1 <1>  -0.8490 
  5 C        1.7010     0.3670    -0.2870 C.3   1 <1>  -0.0550 
  6 C       -0.1220    -2.5070    -0.4670 C.3   1 <1>   0.1160 
  7 C       -1.9010    -1.1940     0.4680 C.3   1 <1>   0.1160 
  8 C        2.7760     1.2640     0.3580 C.3   1 <1>  -0.0800 
  9 C        3.5820     2.0010    -0.7000 C.3   1 <1>   0.2200 
 10 C        3.8510     0.4480     1.0920 C.3   1 <1>   0.1200 
 11 N        4.1300     3.2430    -0.1120 N.am  1 <1>  -0.7300 
 12 C        4.7150     1.0190    -0.9630 C.3   1 <1>   0.1200 
 13 O        4.9800     0.4190     0.2670 O.3   1 <1>  -0.5600 
 14 C        3.7740     4.4940    -0.4850 C.2   1 <1>   0.5690 
 15 O        2.9740     4.6970    -1.3640 O.2   1 <1>  -0.5700 
 16 C        4.3990     5.6780     0.2180 C.3   1 <1>  -0.0990 
 17 C        5.3070     6.4720    -0.7330 C.3   1 <1>  -0.0220 
 18 C        5.8480     7.7310    -0.0480 C.2   1 <1>  -0.1240 
 19 C        5.1450     8.8990    -0.0480 C.2   1 <1>  -0.0290 
 20 C        7.1160     7.7130     0.6180 C.2   1 <1>   0.3750 
 21 N        5.7170     9.9670     0.5770 N.am  1 <1>  -0.5390 
 22 C        3.7780     9.1670    -0.6620 C.3   1 <1>  -0.1020 
 23 N        7.6280     8.7340     1.2050 N.2   1 <1>  -0.6610 
 24 C        7.9510     6.4450     0.6660 C.3   1 <1>  -0.1790 
 25 C        6.9260     9.9030     1.1910 C.2   1 <1>   0.8410 
 26 O        7.3630    10.9030     1.7260 O.2   1 <1>  -0.5700 
 27 H        2.1720    -0.4210    -0.8410 H     1 <1>   0.0800 
 28 H        1.1350     0.9600    -0.9790 H     1 <1>   0.0800 
 29 H       -0.8090    -2.9380    -1.1750 H     1 <1>   0.0800 
 30 H       -0.0810    -3.1350     0.4090 H     1 <1>   0.0800 
 31 H        0.8560    -2.4800    -0.9170 H     1 <1>   0.0800 
 32 H       -2.5760    -1.7030    -0.1990 H     1 <1>   0.0800 
 33 H       -2.2700    -0.1920     0.6170 H     1 <1>   0.0800 
 34 H       -1.8890    -1.7020     1.4180 H     1 <1>   0.0800 
 35 H        2.2900     1.9570     1.0250 H     1 <1>   0.0800 
 36 H        3.0180     2.2210    -1.5920 H     1 <1>   0.0800 
 37 H        3.5540    -0.5660     1.2940 H     1 <1>   0.0800 
 38 H        4.1340     0.9240     2.0140 H     1 <1>   0.0800 
 39 H        4.8180     3.0840     0.6280 H     1 <1>   0.3700 
 40 H        5.6040     1.4990    -1.3330 H     1 <1>   0.0800 
 41 H        4.4040     0.2480    -1.6450 H     1 <1>   0.0800 
 42 H        3.6050     6.3100     0.5710 H     1 <1>   0.0800 
 43 H        4.9580     5.3450     1.0720 H     1 <1>   0.0800 
 44 H        4.7490     6.7480    -1.6100 H     1 <1>   0.0800 
 45 H        6.1030     5.8430    -1.0850 H     1 <1>   0.0800 
 46 H        5.2800    10.8850     0.6280 H     1 <1>   0.3700 
 47 H        3.1370     9.6320     0.0650 H     1 <1>   0.0800 
 48 H        3.2920     8.2710    -0.9960 H     1 <1>   0.0800 
 49 H        3.8820     9.8300    -1.5020 H     1 <1>   0.0800 
 50 H        7.3810     5.6330     1.0750 H     1 <1>   0.0800 
 51 H        8.8150     6.5930     1.2900 H     1 <1>   0.0800 
 52 H        8.2910     6.1920    -0.3210 H     1 <1>   0.0800 
@<TRIPOS>BOND
  1   1   2  2   
  2   1   3  2   
  3   1   4  am  
  4   1   5  1   
  5   4   6  1   
  6   4   7  1   
  7   5   8  1   
  8   5  27  1   
  9   5  28  1   
 10   6  29  1   
 11   6  30  1   
 12   6  31  1   
 13   7  32  1   
 14   7  33  1   
 15   7  34  1   
 16   8   9  1   
 17   8  10  1   
 18   8  35  1   
 19   9  11  1   
 20   9  12  1   
 21   9  36  1   
 22  10  13  1   
 23  10  37  1   
 24  10  38  1   
 25  11  14  am  
 26  11  39  1   
 27  12  13  1   
 28  12  40  1   
 29  12  41  1   
 30  14  15  2   
 31  14  16  1   
 32  16  17  1   
 33  16  42  1   
 34  16  43  1   
 35  17  18  1   
 36  17  44  1   
 37  17  45  1   
 38  18  19  2   
 39  18  20  1   
 40  19  21  1   
 41  19  22  1   
 42  20  23  2   
 43  20  24  1   
 44  21  25  am  
 45  21  46  1   
 46  22  47  1   
 47  22  48  1   
 48  22  49  1   
 49  23  25  1   
 50  24  50  1   
 51  24  51  1   
 52  24  52  1   
 53  25  26  2   
@<TRIPOS>SUBSTRUCTURE
  1 ****  14 GROUP 4 **** **** 0

# MOE 2024.06 (io_trps.svl 2023.06)
