@<TRIPOS>MOLECULE
NONAME
52 56 1 0 0 
SMALL
USER_CHARGES


@<TRIPOS>ATOM
  1 O       -2.5260     1.8270    -2.1020 O.2   1 <1>  -0.5700 
  2 C       -2.5760     1.5360    -0.9210 C.2   1 <1>   0.7160 
  3 N       -2.9770     0.2710    -0.5780 N.am  1 <1>  -0.6600 
  4 C       -2.1690     2.4560     0.0900 C.2   1 <1>  -0.0860 
  5 C       -2.4600    -0.4980     0.4910 C.3   1 <1>   0.2200 
  6 C       -3.0000    -0.9380    -1.5310 C.3   1 <1>   0.1400 
  7 C       -2.9290     3.4770     0.6690 C.2   1 <1>   0.3720 
  8 C       -0.9840     2.5250     0.7460 C.2   1 <1>   0.0870 
  9 C       -3.7550    -1.3890     0.4640 C.3   1 <1>  -0.1600 
 10 C       -1.8520    -1.3590     1.5410 C.3   1 <1>  -0.1600 
 11 C       -3.0750    -2.1900    -0.5340 C.3   1 <1>  -0.0800 
 12 N       -2.2470     4.0920     1.5750 N.2   1 <1>  -0.4100 
 13 N       -4.2500     3.8060     0.3280 N.pl3 1 <1>  -0.8210 
 14 O       -1.0810     3.5020     1.6090 O.3   1 <1>  -0.0190 
 15 C        0.2120     1.7330     0.6400 C.ar  1 <1>   0.0530 
 16 C       -1.9270    -2.5840     0.5180 C.3   1 <1>  -0.1600 
 17 C       -4.8690     4.9900     0.9730 C.3   1 <1>   0.2090 
 18 C       -5.2440     2.7040     0.2580 C.3   1 <1>   0.2090 
 19 C        0.9570     1.4060     1.7730 C.ar  1 <1>  -0.1500 
 20 C        0.6580     1.2440    -0.5890 C.ar  1 <1>  -0.1500 
 21 C       -6.3680     4.7450     0.8820 C.3   1 <1>  -0.1600 
 22 C       -6.4980     3.2290     0.9480 C.3   1 <1>  -0.1600 
 23 C        2.0810     0.6070     1.6850 C.ar  1 <1>  -0.1500 
 24 C        1.7820     0.4450    -0.6840 C.ar  1 <1>  -0.1500 
 25 C        2.5020     0.1150     0.4610 C.ar  1 <1>   0.0830 
 26 O        3.6070    -0.6660     0.4590 O.3   1 <1>  -0.3630 
 27 C        4.1520    -1.1750    -0.7370 C.3   1 <1>   0.0400 
 28 H       -1.4870    -0.5160    -0.0050 H     1 <1>   0.0800 
 29 H       -3.8730    -0.8840    -2.1600 H     1 <1>   0.0800 
 30 H       -2.1160    -0.9670    -2.1460 H     1 <1>   0.0800 
 31 H       -4.0580    -1.9680     1.3270 H     1 <1>   0.0800 
 32 H       -4.6870    -0.9430     0.1260 H     1 <1>   0.0800 
 33 H       -0.8340    -1.0930     1.7750 H     1 <1>   0.0800 
 34 H       -2.4120    -1.4590     2.4570 H     1 <1>   0.0800 
 35 H       -3.6510    -3.0210    -0.9050 H     1 <1>   0.0800 
 36 H       -2.1710    -3.4930     1.0430 H     1 <1>   0.0800 
 37 H       -0.9900    -2.7280     0.0050 H     1 <1>   0.0800 
 38 H       -4.5700     5.0480     2.0070 H     1 <1>   0.0800 
 39 H       -4.5800     5.8930     0.4630 H     1 <1>   0.0800 
 40 H       -5.4470     2.4860    -0.7770 H     1 <1>   0.0800 
 41 H       -4.8830     1.8150     0.7480 H     1 <1>   0.0800 
 42 H        0.6450     1.7790     2.7330 H     1 <1>   0.1500 
 43 H        0.1190     1.4990    -1.4860 H     1 <1>   0.1500 
 44 H       -6.9030     5.2420     1.6710 H     1 <1>   0.0800 
 45 H       -6.7210     5.1040    -0.0690 H     1 <1>   0.0800 
 46 H       -7.3930     2.8720     0.4730 H     1 <1>   0.0800 
 47 H       -6.4900     2.9060     1.9750 H     1 <1>   0.0800 
 48 H        2.6440     0.3590     2.5670 H     1 <1>   0.1500 
 49 H        2.0830     0.0910    -1.6510 H     1 <1>   0.1500 
 50 H        5.0290    -1.7440    -0.4890 H     1 <1>   0.0800 
 51 H        4.4200    -0.3520    -1.3760 H     1 <1>   0.0800 
 52 H        3.4250    -1.8110    -1.2100 H     1 <1>   0.0800 
@<TRIPOS>BOND
  1   1   2  2   
  2   2   3  am  
  3   2   4  1   
  4   3   5  1   
  5   3   6  1   
  6   4   7  1   
  7   4   8  2   
  8   5   9  1   
  9   5  10  1   
 10   5  28  1   
 11   6  11  1   
 12   6  29  1   
 13   6  30  1   
 14   7  12  2   
 15   7  13  1   
 16   8  14  1   
 17   8  15  1   
 18   9  11  1   
 19   9  31  1   
 20   9  32  1   
 21  10  16  1   
 22  10  33  1   
 23  10  34  1   
 24  11  16  1   
 25  11  35  1   
 26  12  14  1   
 27  13  17  1   
 28  13  18  1   
 29  15  19  ar  
 30  15  20  ar  
 31  16  36  1   
 32  16  37  1   
 33  17  21  1   
 34  17  38  1   
 35  17  39  1   
 36  18  22  1   
 37  18  40  1   
 38  18  41  1   
 39  19  23  ar  
 40  19  42  1   
 41  20  24  ar  
 42  20  43  1   
 43  21  22  1   
 44  21  44  1   
 45  21  45  1   
 46  22  46  1   
 47  22  47  1   
 48  23  25  ar  
 49  23  48  1   
 50  24  25  ar  
 51  24  49  1   
 52  25  26  1   
 53  26  27  1   
 54  27  50  1   
 55  27  51  1   
 56  27  52  1   
@<TRIPOS>SUBSTRUCTURE
  1 ****   4 GROUP 4 **** **** 0

# MOE 2024.06 (io_trps.svl 2023.06)
