@<TRIPOS>MOLECULE
NONAME
48 49 1 0 0 
SMALL
USER_CHARGES


@<TRIPOS>ATOM
  1 S        1.0500    -0.7980     1.7730 S.o2  1 <1>   1.4470 
  2 O        0.6580    -0.1340     2.9930 O.2   1 <1>  -0.6500 
  3 O        2.3040    -1.5170     1.7310 O.2   1 <1>  -0.6500 
  4 N       -0.1390    -1.9550     1.5200 N.am  1 <1>  -0.9140 
  5 C        0.8740     0.2830     0.3170 C.ar  1 <1>  -0.0090 
  6 C        0.2100    -2.9740     0.5390 C.3   1 <1>   0.2760 
  7 C       -0.2460     1.0890     0.0870 C.ar  1 <1>  -0.1430 
  8 C        1.8860     0.2900    -0.6380 C.ar  1 <1>  -0.1500 
  9 C       -1.0610    -3.5990    -0.0160 C.3   1 <1>  -0.0800 
 10 C        0.8260    -4.1830     1.2370 C.3   1 <1>   0.1200 
 11 C       -0.3270     1.8550    -1.0650 C.ar  1 <1>  -0.1500 
 12 C       -1.4020     1.1660     1.0780 C.3   1 <1>  -0.0970 
 13 C        1.8080     1.0550    -1.7880 C.ar  1 <1>  -0.1430 
 14 C       -1.3950    -4.6850     1.0160 C.3   1 <1>   0.1200 
 15 C       -2.2080    -2.6040    -0.2850 C.3   1 <1>  -0.0550 
 16 O       -0.2560    -4.8460     1.8110 O.3   1 <1>  -0.5600 
 17 C        0.6910     1.8380    -1.9990 C.ar  1 <1>  -0.1500 
 18 C        2.9350     1.0330    -2.8050 C.3   1 <1>  -0.0970 
 19 S       -3.6000    -3.3490    -1.1280 S.o2  1 <1>   1.3330 
 20 O       -4.2460    -4.2880    -0.2380 O.2   1 <1>  -0.6500 
 21 O       -3.1340    -3.7940    -2.4210 O.2   1 <1>  -0.6500 
 22 N       -4.6520    -2.0370    -1.3580 N.am  1 <1>  -0.8490 
 23 C       -5.4750    -1.7380    -0.1820 C.3   1 <1>   0.1160 
 24 C       -5.5100    -2.2160    -2.5340 C.3   1 <1>   0.1160 
 25 H       -0.2150    -2.4450     2.4130 H     1 <1>   0.4200 
 26 H        0.8360    -2.5760    -0.2430 H     1 <1>   0.0800 
 27 H        2.7600    -0.3190    -0.4790 H     1 <1>   0.1500 
 28 H       -0.8130    -4.0930    -0.9410 H     1 <1>   0.0800 
 29 H        1.5400    -3.9250     1.9990 H     1 <1>   0.0800 
 30 H        1.2820    -4.8470     0.5230 H     1 <1>   0.0800 
 31 H       -1.1860     2.4770    -1.2470 H     1 <1>   0.1500 
 32 H       -2.2030     1.7690     0.6920 H     1 <1>   0.0800 
 33 H       -1.0680     1.6070     2.0000 H     1 <1>   0.0800 
 34 H       -1.7950     0.1870     1.2830 H     1 <1>   0.0800 
 35 H       -1.6300    -5.6260     0.5460 H     1 <1>   0.0800 
 36 H       -2.2060    -4.3930     1.6630 H     1 <1>   0.0800 
 37 H       -1.8320    -1.8010    -0.8900 H     1 <1>   0.0800 
 38 H       -2.5430    -2.1830     0.6420 H     1 <1>   0.0800 
 39 H        0.6070     2.4400    -2.8880 H     1 <1>   0.1500 
 40 H        2.9700     1.9590    -3.3510 H     1 <1>   0.0800 
 41 H        2.7830     0.2270    -3.5010 H     1 <1>   0.0800 
 42 H        3.8820     0.8950    -2.3150 H     1 <1>   0.0800 
 43 H       -6.0570    -0.8480    -0.3540 H     1 <1>   0.0800 
 44 H       -4.8490    -1.5710     0.6780 H     1 <1>   0.0800 
 45 H       -6.1420    -2.5580     0.0310 H     1 <1>   0.0800 
 46 H       -6.1520    -1.3610    -2.6620 H     1 <1>   0.0800 
 47 H       -6.1140    -3.1020    -2.4270 H     1 <1>   0.0800 
 48 H       -4.9040    -2.3160    -3.4200 H     1 <1>   0.0800 
@<TRIPOS>BOND
  1   1   2  2   
  2   1   3  2   
  3   1   4  am  
  4   1   5  1   
  5   4   6  1   
  6   4  25  1   
  7   5   7  ar  
  8   5   8  ar  
  9   6   9  1   
 10   6  10  1   
 11   6  26  1   
 12   7  11  ar  
 13   7  12  1   
 14   8  13  ar  
 15   8  27  1   
 16   9  14  1   
 17   9  15  1   
 18   9  28  1   
 19  10  16  1   
 20  10  29  1   
 21  10  30  1   
 22  11  17  ar  
 23  11  31  1   
 24  12  32  1   
 25  12  33  1   
 26  12  34  1   
 27  13  17  ar  
 28  13  18  1   
 29  14  16  1   
 30  14  35  1   
 31  14  36  1   
 32  15  19  1   
 33  15  37  1   
 34  15  38  1   
 35  17  39  1   
 36  18  40  1   
 37  18  41  1   
 38  18  42  1   
 39  19  20  2   
 40  19  21  2   
 41  19  22  am  
 42  22  23  1   
 43  22  24  1   
 44  23  43  1   
 45  23  44  1   
 46  23  45  1   
 47  24  46  1   
 48  24  47  1   
 49  24  48  1   
@<TRIPOS>SUBSTRUCTURE
  1 ****  15 GROUP 4 **** **** 0

# MOE 2024.06 (io_trps.svl 2023.06)
