@<TRIPOS>MOLECULE
NONAME
46 48 1 0 0 
SMALL
USER_CHARGES


@<TRIPOS>ATOM
  1 O       -0.6320    -0.0710    -0.8750 O.2   1 <1>  -0.5700 
  2 C       -1.6480     0.5910    -0.7800 C.2   1 <1>   0.5440 
  3 N       -1.6450     1.8880    -1.2610 N.am  1 <1>  -0.6600 
  4 C       -2.8180    -0.0060    -0.1800 C.ar  1 <1>   0.0860 
  5 C       -0.3730     2.5720    -1.6280 C.3   1 <1>   0.0600 
  6 C       -2.8760     2.6260    -1.6580 C.3   1 <1>   0.0600 
  7 C       -3.1940    -1.3040    -0.5160 C.ar  1 <1>   0.1600 
  8 C       -3.6150     0.6530     0.7510 C.ar  1 <1>  -0.1500 
  9 N       -4.2480    -1.9520    -0.0530 N.ar  1 <1>  -0.6200 
 10 C       -4.7120    -0.0080     1.2490 C.ar  1 <1>  -0.1500 
 11 C       -5.0040    -1.3050     0.8290 C.ar  1 <1>   0.4100 
 12 N       -6.1110    -1.9420     1.3380 N.pl3 1 <1>  -0.6690 
 13 C       -6.3700    -3.3920     1.2460 C.3   1 <1>   0.0740 
 14 C       -5.4440    -4.2740     2.0190 C.3   1 <1>  -0.2000 
 15 C       -6.8340    -4.0210     2.5220 C.3   1 <1>  -0.2000 
 16 C       -6.9590    -3.7870    -0.1240 C.3   1 <1>   0.0780 
 17 C       -7.3120    -5.2650    -0.2660 C.ar  1 <1>  -0.1430 
 18 C       -6.3600    -6.1670    -0.7160 C.ar  1 <1>  -0.1500 
 19 C       -8.5850    -5.7200     0.0400 C.ar  1 <1>  -0.1500 
 20 C       -6.6650    -7.5110    -0.8540 C.ar  1 <1>  -0.1430 
 21 C       -8.8980    -7.0610    -0.0970 C.ar  1 <1>  -0.1500 
 22 C       -7.9400    -7.9540    -0.5430 C.ar  1 <1>  -0.1500 
 23 C       -5.6110    -8.4860    -1.3450 C.3   1 <1>  -0.0970 
 24 H        0.4650     2.0940    -1.1490 H     1 <1>   0.0800 
 25 H       -0.4040     3.6000    -1.3130 H     1 <1>   0.0800 
 26 H       -0.2320     2.5280    -2.6940 H     1 <1>   0.0800 
 27 H       -3.7280     1.9690    -1.6820 H     1 <1>   0.0800 
 28 H       -2.7480     3.0450    -2.6410 H     1 <1>   0.0800 
 29 H       -3.0620     3.4220    -0.9590 H     1 <1>   0.0800 
 30 H       -2.5720    -1.8320    -1.2190 H     1 <1>   0.1500 
 31 H       -3.3660     1.6500     1.0680 H     1 <1>   0.1500 
 32 H       -5.3530     0.4660     1.9670 H     1 <1>   0.1500 
 33 H       -6.5680    -1.5060     2.1360 H     1 <1>   0.4000 
 34 H       -4.6010    -3.8120     2.5020 H     1 <1>   0.1000 
 35 H       -5.2140    -5.2560     1.6490 H     1 <1>   0.1000 
 36 H       -7.5170    -4.8510     2.4990 H     1 <1>   0.1000 
 37 H       -6.9500    -3.4190     3.4040 H     1 <1>   0.1000 
 38 H       -6.2510    -3.5320    -0.8910 H     1 <1>   0.0800 
 39 H       -7.8430    -3.2010    -0.2980 H     1 <1>   0.0800 
 40 H       -5.3720    -5.8140    -0.9570 H     1 <1>   0.1500 
 41 H       -9.3350    -5.0320     0.3870 H     1 <1>   0.1500 
 42 H       -9.8870    -7.4090     0.1420 H     1 <1>   0.1500 
 43 H       -8.1920    -8.9940    -0.6480 H     1 <1>   0.1500 
 44 H       -4.6330    -8.1720    -1.0230 H     1 <1>   0.0800 
 45 H       -5.6270    -8.5280    -2.4190 H     1 <1>   0.0800 
 46 H       -5.7960    -9.4700    -0.9540 H     1 <1>   0.0800 
@<TRIPOS>BOND
  1   1   2  2   
  2   2   3  am  
  3   2   4  1   
  4   3   5  1   
  5   3   6  1   
  6   4   7  ar  
  7   4   8  ar  
  8   5  24  1   
  9   5  25  1   
 10   5  26  1   
 11   6  27  1   
 12   6  28  1   
 13   6  29  1   
 14   7   9  ar  
 15   7  30  1   
 16   8  10  ar  
 17   8  31  1   
 18   9  11  ar  
 19  10  11  ar  
 20  10  32  1   
 21  11  12  1   
 22  12  13  1   
 23  12  33  1   
 24  13  14  1   
 25  13  15  1   
 26  13  16  1   
 27  14  15  1   
 28  14  34  1   
 29  14  35  1   
 30  15  36  1   
 31  15  37  1   
 32  16  17  1   
 33  16  38  1   
 34  16  39  1   
 35  17  18  ar  
 36  17  19  ar  
 37  18  20  ar  
 38  18  40  1   
 39  19  21  ar  
 40  19  41  1   
 41  20  22  ar  
 42  20  23  1   
 43  21  22  ar  
 44  21  42  1   
 45  22  43  1   
 46  23  44  1   
 47  23  45  1   
 48  23  46  1   
@<TRIPOS>SUBSTRUCTURE
  1 ****   9 GROUP 4 **** **** 0

# MOE 2024.06 (io_trps.svl 2023.06)
