@<TRIPOS>MOLECULE
NONAME
48 50 1 0 0 
SMALL
USER_CHARGES


@<TRIPOS>ATOM
  1 F       -2.1920    -3.3620     3.0730 F     1 <1>  -0.1900 
  2 C       -2.6790    -3.9080     1.9900 C.ar  1 <1>   0.1900 
  3 C       -3.9930    -4.3650     1.9670 C.ar  1 <1>   0.0830 
  4 C       -1.8580    -4.0140     0.8830 C.ar  1 <1>  -0.1500 
  5 O       -4.8090    -4.2610     3.0350 O.3   1 <1>  -0.5330 
  6 C       -4.4750    -4.9390     0.8060 C.ar  1 <1>  -0.1500 
  7 C       -2.3640    -4.5860    -0.2730 C.ar  1 <1>  -0.1500 
  8 C       -3.6810    -5.0490    -0.3350 C.ar  1 <1>   0.0860 
  9 C       -4.2210    -5.6400    -1.5410 C.2   1 <1>   0.5440 
 10 O       -3.8320    -6.7380    -1.8920 O.2   1 <1>  -0.5700 
 11 N       -5.1980    -5.0120    -2.2820 N.am  1 <1>  -0.6600 
 12 C       -6.0240    -5.7870    -3.2500 C.3   1 <1>   0.1400 
 13 C       -5.6390    -3.6060    -2.0760 C.3   1 <1>   0.1400 
 14 C       -7.1030    -6.6030    -2.5170 C.3   1 <1>   0.1400 
 15 C       -6.9170    -3.5010    -1.2280 C.3   1 <1>  -0.1600 
 16 N       -7.7180    -5.8730    -1.3540 N.am  1 <1>  -0.6600 
 17 C       -8.0700    -4.4440    -1.6080 C.3   1 <1>   0.1400 
 18 C       -7.8450    -6.4000    -0.0900 C.2   1 <1>   0.5690 
 19 O       -8.0730    -5.6880     0.8640 O.2   1 <1>  -0.5700 
 20 C       -7.6870    -7.9000     0.1720 C.3   1 <1>  -0.0190 
 21 C       -8.6740    -8.3710     1.2550 C.3   1 <1>   0.1400 
 22 C       -6.2440    -8.2610     0.5790 C.3   1 <1>  -0.1600 
 23 N       -8.4030    -9.7770     1.6470 N.am  1 <1>  -0.7300 
 24 C       -6.0890    -9.7850     0.7330 C.3   1 <1>  -0.0990 
 25 C       -7.2290   -10.4320     1.5010 C.2   1 <1>   0.5690 
 26 O       -7.0830   -11.5320     1.9650 O.2   1 <1>  -0.5700 
 27 H       -0.8440    -3.6570     0.9320 H     1 <1>   0.1500 
 28 H       -5.7140    -4.5890     2.8700 H     1 <1>   0.4500 
 29 H       -5.4800    -5.3120     0.7720 H     1 <1>   0.1500 
 30 H       -1.7390    -4.6830    -1.1450 H     1 <1>   0.1500 
 31 H       -5.3940    -6.4550    -3.8140 H     1 <1>   0.0800 
 32 H       -6.4880    -5.1190    -3.9530 H     1 <1>   0.0800 
 33 H       -5.8130    -3.1580    -3.0390 H     1 <1>   0.0800 
 34 H       -4.8520    -3.0420    -1.6040 H     1 <1>   0.0800 
 35 H       -6.6320    -7.5080    -2.1830 H     1 <1>   0.0800 
 36 H       -7.8750    -6.8780    -3.2140 H     1 <1>   0.0800 
 37 H       -7.2770    -2.4920    -1.3150 H     1 <1>   0.0800 
 38 H       -6.6800    -3.6380    -0.1910 H     1 <1>   0.0800 
 39 H       -8.3400    -4.3100    -2.6410 H     1 <1>   0.0800 
 40 H       -8.9330    -4.1920    -1.0140 H     1 <1>   0.0800 
 41 H       -7.9460    -8.4290    -0.7250 H     1 <1>   0.0800 
 42 H       -9.6830    -8.2870     0.8860 H     1 <1>   0.0800 
 43 H       -8.5850    -7.7530     2.1330 H     1 <1>   0.0800 
 44 H       -6.0120    -7.7850     1.5170 H     1 <1>   0.0800 
 45 H       -5.5420    -7.9050    -0.1540 H     1 <1>   0.0800 
 46 H       -9.1170   -10.2560     2.2010 H     1 <1>   0.3700 
 47 H       -5.1630   -10.0060     1.2330 H     1 <1>   0.0800 
 48 H       -6.0530   -10.2410    -0.2390 H     1 <1>   0.0800 
@<TRIPOS>BOND
  1   1   2  1   
  2   2   3  ar  
  3   2   4  ar  
  4   3   5  1   
  5   3   6  ar  
  6   4   7  ar  
  7   4  27  1   
  8   5  28  1   
  9   6   8  ar  
 10   6  29  1   
 11   7   8  ar  
 12   7  30  1   
 13   8   9  1   
 14   9  10  2   
 15   9  11  am  
 16  11  12  1   
 17  11  13  1   
 18  12  14  1   
 19  12  31  1   
 20  12  32  1   
 21  13  15  1   
 22  13  33  1   
 23  13  34  1   
 24  14  16  1   
 25  14  35  1   
 26  14  36  1   
 27  15  17  1   
 28  15  37  1   
 29  15  38  1   
 30  16  17  1   
 31  16  18  am  
 32  17  39  1   
 33  17  40  1   
 34  18  19  2   
 35  18  20  1   
 36  20  21  1   
 37  20  22  1   
 38  20  41  1   
 39  21  23  1   
 40  21  42  1   
 41  21  43  1   
 42  22  24  1   
 43  22  44  1   
 44  22  45  1   
 45  23  25  am  
 46  23  46  1   
 47  24  25  1   
 48  24  47  1   
 49  24  48  1   
 50  25  26  2   
@<TRIPOS>SUBSTRUCTURE
  1 ****   6 GROUP 4 **** **** 0

# MOE 2024.06 (io_trps.svl 2023.06)
