@<TRIPOS>MOLECULE
NONAME
49 53 1 0 0 
SMALL
USER_CHARGES


@<TRIPOS>ATOM
  1 O       -0.5750     0.1400     0.1180 O.2   1 <1>  -0.5700 
  2 C       -1.4630     0.7890     0.6380 C.2   1 <1>   0.5440 
  3 N       -2.6120     0.1330     1.0260 N.am  1 <1>  -0.6600 
  4 C       -1.3060     2.2210     0.8080 C.ar  1 <1>   0.0860 
  5 C       -2.6740    -1.3620     1.1090 C.3   1 <1>   0.1400 
  6 C       -3.9680     0.7560     0.9380 C.3   1 <1>   0.1400 
  7 C       -0.7190     2.9970    -0.1970 C.ar  1 <1>  -0.1500 
  8 C       -1.7310     2.8710     1.9760 C.ar  1 <1>  -0.1500 
  9 C       -3.5830    -1.9370     0.0080 C.3   1 <1>   0.3440 
 10 C       -4.8190     0.0610    -0.1460 C.3   1 <1>   0.2950 
 11 C       -0.5900     4.3610    -0.0330 C.ar  1 <1>  -0.1440 
 12 C       -1.6000     4.2400     2.1370 C.ar  1 <1>  -0.1500 
 13 O       -4.8460    -1.3210     0.0580 O.3   1 <1>  -0.5600 
 14 C       -3.7370    -3.4460     0.1750 C.ar  1 <1>  -0.1430 
 15 C       -6.2680     0.5580    -0.1240 C.3   1 <1>  -0.1950 
 16 C       -1.0260     4.9690     1.1130 C.ar  1 <1>   0.0830 
 17 C       -0.0100     5.4080    -0.9370 C.3   1 <1>  -0.0170 
 18 C       -4.7640    -3.9950     0.9320 C.ar  1 <1>  -0.1500 
 19 C       -2.8230    -4.2950    -0.4330 C.ar  1 <1>  -0.1500 
 20 C       -7.1460     0.4350    -1.3290 C.3   1 <1>  -0.2000 
 21 C       -6.6750     1.7880    -0.8740 C.3   1 <1>  -0.2000 
 22 O       -0.8280     6.2930     1.1120 O.3   1 <1>  -0.3630 
 23 C       -0.1930     6.6860    -0.0970 C.3   1 <1>   0.1200 
 24 C       -4.8730    -5.3670     1.0800 C.ar  1 <1>  -0.1500 
 25 C       -2.9300    -5.6670    -0.2860 C.ar  1 <1>  -0.1500 
 26 C       -3.9560    -6.2050     0.4710 C.ar  1 <1>  -0.1500 
 27 H       -1.6910    -1.7890     1.0170 H     1 <1>   0.0800 
 28 H       -3.0620    -1.6480     2.0700 H     1 <1>   0.0800 
 29 H       -4.4620     0.6660     1.8890 H     1 <1>   0.0800 
 30 H       -3.8940     1.8010     0.6980 H     1 <1>   0.0800 
 31 H       -0.3690     2.5190    -1.0960 H     1 <1>   0.1500 
 32 H       -2.1650     2.2860     2.7680 H     1 <1>   0.1500 
 33 H       -3.1510    -1.7310    -0.9560 H     1 <1>   0.0800 
 34 H       -4.3910     0.2470    -1.1170 H     1 <1>   0.0800 
 35 H       -1.9260     4.7410     3.0310 H     1 <1>   0.1500 
 36 H       -6.7320     0.3940     0.8330 H     1 <1>   0.1000 
 37 H       -0.5550     5.4730    -1.8620 H     1 <1>   0.0800 
 38 H        1.0300     5.2220    -1.1350 H     1 <1>   0.0800 
 39 H       -5.4850    -3.3530     1.4080 H     1 <1>   0.1500 
 40 H       -2.0180    -3.8910    -1.0240 H     1 <1>   0.1500 
 41 H       -6.7330     0.0070    -2.2260 H     1 <1>   0.1000 
 42 H       -8.1770     0.1620    -1.1820 H     1 <1>   0.1000 
 43 H       -7.3900     2.4570    -0.4260 H     1 <1>   0.1000 
 44 H       -5.9550     2.3060    -1.4840 H     1 <1>   0.1000 
 45 H       -0.8270     7.4000    -0.5920 H     1 <1>   0.0800 
 46 H        0.7530     7.1340     0.1530 H     1 <1>   0.0800 
 47 H       -5.6740    -5.7810     1.6680 H     1 <1>   0.1500 
 48 H       -2.2170    -6.3170    -0.7620 H     1 <1>   0.1500 
 49 H       -4.0410    -7.2710     0.5850 H     1 <1>   0.1500 
@<TRIPOS>BOND
  1   1   2  2   
  2   2   3  am  
  3   2   4  1   
  4   3   5  1   
  5   3   6  1   
  6   4   7  ar  
  7   4   8  ar  
  8   5   9  1   
  9   5  27  1   
 10   5  28  1   
 11   6  10  1   
 12   6  29  1   
 13   6  30  1   
 14   7  11  ar  
 15   7  31  1   
 16   8  12  ar  
 17   8  32  1   
 18   9  13  1   
 19   9  14  1   
 20   9  33  1   
 21  10  13  1   
 22  10  15  1   
 23  10  34  1   
 24  11  16  ar  
 25  11  17  1   
 26  12  16  ar  
 27  12  35  1   
 28  14  18  ar  
 29  14  19  ar  
 30  15  20  1   
 31  15  21  1   
 32  15  36  1   
 33  16  22  1   
 34  17  23  1   
 35  17  37  1   
 36  17  38  1   
 37  18  24  ar  
 38  18  39  1   
 39  19  25  ar  
 40  19  40  1   
 41  20  21  1   
 42  20  41  1   
 43  20  42  1   
 44  21  43  1   
 45  21  44  1   
 46  22  23  1   
 47  23  45  1   
 48  23  46  1   
 49  24  26  ar  
 50  24  47  1   
 51  25  26  ar  
 52  25  48  1   
 53  26  49  1   
@<TRIPOS>SUBSTRUCTURE
  1 ****   3 GROUP 4 **** **** 0

# MOE 2024.06 (io_trps.svl 2023.06)
