@<TRIPOS>MOLECULE
NONAME
48 51 1 0 0 
SMALL
USER_CHARGES


@<TRIPOS>ATOM
  1 O        0.6320     0.1760     0.0040 O.2   1 <1>  -0.5700 
  2 C        1.4190     0.9070    -0.5640 C.2   1 <1>   0.5440 
  3 N        1.2850     2.2730    -0.4330 N.am  1 <1>  -0.6600 
  4 C        2.4820     0.3190    -1.3530 C.ar  1 <1>   0.0860 
  5 C       -0.0180     2.8800     0.0190 C.3   1 <1>   0.2200 
  6 C        2.4940     3.1520    -0.3550 C.3   1 <1>   0.1400 
  7 C        3.1090    -0.8510    -0.9290 C.ar  1 <1>   0.1600 
  8 C        2.9220     0.8700    -2.5510 C.ar  1 <1>  -0.1500 
  9 C        0.0460     4.4220     0.2550 C.3   1 <1>   0.1380 
 10 C       -1.2120     2.4480    -0.8550 C.3   1 <1>  -0.1600 
 11 C        2.5080     4.0210     0.9160 C.3   1 <1>  -0.1600 
 12 N        4.1010    -1.4720    -1.5520 N.ar  1 <1>  -0.6200 
 13 C        3.9480     0.2380    -3.2200 C.ar  1 <1>  -0.1500 
 14 C        0.3780     5.3040    -0.9900 C.2   1 <1>  -0.2760 
 15 C       -1.3360     4.8660     0.8240 C.3   1 <1>   0.1200 
 16 C        1.1400     4.6030     1.3350 C.3   1 <1>  -0.1600 
 17 C       -2.3580     3.4610    -0.7720 C.3   1 <1>   0.1200 
 18 C        4.4980    -0.9130    -2.6840 C.ar  1 <1>   0.1600 
 19 C        0.4500     4.8970    -2.2660 C.2   1 <1>  -0.2880 
 20 C        0.6700     6.7840    -0.7110 C.3   1 <1>  -0.0220 
 21 O       -2.3860     3.9860     0.5170 O.3   1 <1>  -0.5600 
 22 C        0.8010     5.7980    -3.4440 C.3   1 <1>   0.2580 
 23 C        0.5970     7.6250    -1.9920 C.3   1 <1>   0.1200 
 24 O        1.3390     7.0040    -2.9940 O.3   1 <1>  -0.5600 
 25 H       -0.2200     2.4520     0.9880 H     1 <1>   0.0800 
 26 H        3.3920     2.5590    -0.3680 H     1 <1>   0.0800 
 27 H        2.5220     3.7870    -1.2220 H     1 <1>   0.0800 
 28 H        2.7610    -1.2950    -0.0100 H     1 <1>   0.1500 
 29 H        2.4670     1.7630    -2.9420 H     1 <1>   0.1500 
 30 H       -1.5760     1.5050    -0.4900 H     1 <1>   0.0800 
 31 H       -0.9310     2.3030    -1.8780 H     1 <1>   0.0800 
 32 H        2.8990     3.4320     1.7270 H     1 <1>   0.0800 
 33 H        3.2000     4.8280     0.7540 H     1 <1>   0.0800 
 34 H        4.3220     0.6300    -4.1490 H     1 <1>   0.1500 
 35 H       -1.6190     5.8320     0.4490 H     1 <1>   0.0800 
 36 H       -1.3000     4.9270     1.8970 H     1 <1>   0.0800 
 37 H        1.2480     5.6320     1.6200 H     1 <1>   0.0800 
 38 H        0.8270     4.0770     2.2210 H     1 <1>   0.0800 
 39 H       -3.3030     2.9820    -0.9610 H     1 <1>   0.0800 
 40 H       -2.2260     4.2700    -1.4710 H     1 <1>   0.0800 
 41 H        5.3010    -1.4010    -3.2110 H     1 <1>   0.1500 
 42 H        0.2800     3.8920    -2.5910 H     1 <1>   0.1500 
 43 H        1.6590     6.8840    -0.3010 H     1 <1>   0.0800 
 44 H       -0.0220     7.2000    -0.0030 H     1 <1>   0.0800 
 45 H       -0.0720     6.0110    -4.0380 H     1 <1>   0.0800 
 46 H        1.5440     5.3310    -4.0650 H     1 <1>   0.0800 
 47 H        1.0130     8.6030    -1.8280 H     1 <1>   0.0800 
 48 H       -0.4210     7.7250    -2.3310 H     1 <1>   0.0800 
@<TRIPOS>BOND
  1   1   2  2   
  2   2   3  am  
  3   2   4  1   
  4   3   5  1   
  5   3   6  1   
  6   4   7  ar  
  7   4   8  ar  
  8   5   9  1   
  9   5  10  1   
 10   5  25  1   
 11   6  11  1   
 12   6  26  1   
 13   6  27  1   
 14   7  12  ar  
 15   7  28  1   
 16   8  13  ar  
 17   8  29  1   
 18   9  14  1   
 19   9  15  1   
 20   9  16  1   
 21  10  17  1   
 22  10  30  1   
 23  10  31  1   
 24  11  16  1   
 25  11  32  1   
 26  11  33  1   
 27  12  18  ar  
 28  13  18  ar  
 29  13  34  1   
 30  14  19  2   
 31  14  20  1   
 32  15  21  1   
 33  15  35  1   
 34  15  36  1   
 35  16  37  1   
 36  16  38  1   
 37  17  21  1   
 38  17  39  1   
 39  17  40  1   
 40  18  41  1   
 41  19  22  1   
 42  19  42  1   
 43  20  23  1   
 44  20  43  1   
 45  20  44  1   
 46  22  24  1   
 47  22  45  1   
 48  22  46  1   
 49  23  24  1   
 50  23  47  1   
 51  23  48  1   
@<TRIPOS>SUBSTRUCTURE
  1 ****   3 GROUP 4 **** **** 0

# MOE 2024.06 (io_trps.svl 2023.06)
