@<TRIPOS>MOLECULE
NONAME
50 51 1 0 0 
SMALL
USER_CHARGES


@<TRIPOS>ATOM
  1 S        0.2790     0.3850    -1.4130 S.o2  1 <1>   1.4470 
  2 O        1.0130    -0.3120    -2.4460 O.2   1 <1>  -0.6500 
  3 O       -0.6810     1.4060    -1.7820 O.2   1 <1>  -0.6500 
  4 N       -0.5300    -0.7540    -0.4550 N.am  1 <1>  -0.8490 
  5 C        1.4760     1.0910    -0.2470 C.ar  1 <1>  -0.0090 
  6 C       -1.2470    -1.7620    -1.2640 C.3   1 <1>   0.1960 
  7 C       -1.4380    -0.1290     0.5100 C.3   1 <1>   0.1960 
  8 C        1.6720     2.4630    -0.1610 C.ar  1 <1>  -0.1500 
  9 C        2.2280     0.2730     0.5840 C.ar  1 <1>  -0.1500 
 10 C       -1.7480    -2.9270    -0.3840 C.3   1 <1>  -0.1060 
 11 C       -1.9970    -1.1750     1.4730 C.3   1 <1>  -0.1600 
 12 C        2.5810     3.0270     0.7320 C.ar  1 <1>   0.0820 
 13 C        3.1390     0.8090     1.4750 C.ar  1 <1>  -0.1500 
 14 C       -2.6320    -3.8490    -1.2250 C.2   1 <1>   0.9060 
 15 C       -2.6660    -2.3020     0.6880 C.3   1 <1>   0.2000 
 16 C       -0.5520    -3.7190     0.2390 C.3   1 <1>  -0.1600 
 17 O        2.7320     4.3820     0.8150 O.3   1 <1>  -0.3630 
 18 C        3.3330     2.1770     1.5620 C.ar  1 <1>   0.0820 
 19 O       -2.7120    -3.6830    -2.4470 O.co2 1 <1>  -0.9000 
 20 O       -3.2910    -4.7260    -0.6440 O.co2 1 <1>  -0.9000 
 21 O       -3.0900    -3.2650     1.5800 O.3   1 <1>  -0.6800 
 22 C        0.3980    -4.3580    -0.7900 C.3   1 <1>  -0.1600 
 23 C        1.9990     5.2820     0.0120 C.3   1 <1>   0.0400 
 24 O        4.2670     2.5520     2.4820 O.3   1 <1>  -0.3630 
 25 C        1.4690    -5.2030    -0.0960 C.3   1 <1>  -0.2400 
 26 C        4.8930     3.8150     2.4680 C.3   1 <1>   0.0400 
 27 H       -2.0830    -1.2970    -1.7630 H     1 <1>   0.0800 
 28 H       -0.6060    -2.1530    -2.0360 H     1 <1>   0.0800 
 29 H       -0.9100     0.6190     1.0780 H     1 <1>   0.0800 
 30 H       -2.2490     0.3540    -0.0120 H     1 <1>   0.0800 
 31 H        1.0840     3.0810    -0.8140 H     1 <1>   0.1500 
 32 H        2.0940    -0.7960     0.5320 H     1 <1>   0.1500 
 33 H       -2.7220    -0.7140     2.1170 H     1 <1>   0.0800 
 34 H       -1.2010    -1.5630     2.0800 H     1 <1>   0.0800 
 35 H        3.7120     0.1610     2.1130 H     1 <1>   0.1500 
 36 H       -3.5490    -1.9180     0.2030 H     1 <1>   0.0800 
 37 H        0.0220    -3.0730     0.8760 H     1 <1>   0.0800 
 38 H       -0.9510    -4.5070     0.8550 H     1 <1>   0.0800 
 39 H       -3.3340    -4.0530     1.0140 H     1 <1>   0.4000 
 40 H       -0.1640    -4.9840    -1.4640 H     1 <1>   0.0800 
 41 H        0.8840    -3.5940    -1.3710 H     1 <1>   0.0800 
 42 H        2.3010     6.2810     0.2700 H     1 <1>   0.0800 
 43 H        0.9500     5.1560     0.2120 H     1 <1>   0.0800 
 44 H        2.2220     5.0910    -1.0230 H     1 <1>   0.0800 
 45 H        1.0080    -5.9960     0.4670 H     1 <1>   0.0800 
 46 H        2.0520    -4.5940     0.5710 H     1 <1>   0.0800 
 47 H        2.1230    -5.6390    -0.8300 H     1 <1>   0.0800 
 48 H        5.7330     3.7790     3.1370 H     1 <1>   0.0800 
 49 H        4.1900     4.5550     2.8070 H     1 <1>   0.0800 
 50 H        5.2260     4.0300     1.4680 H     1 <1>   0.0800 
@<TRIPOS>BOND
  1   1   2  2   
  2   1   3  2   
  3   1   4  am  
  4   1   5  1   
  5   4   6  1   
  6   4   7  1   
  7   5   8  ar  
  8   5   9  ar  
  9   6  10  1   
 10   6  27  1   
 11   6  28  1   
 12   7  11  1   
 13   7  29  1   
 14   7  30  1   
 15   8  12  ar  
 16   8  31  1   
 17   9  13  ar  
 18   9  32  1   
 19  10  14  1   
 20  10  15  1   
 21  10  16  1   
 22  11  15  1   
 23  11  33  1   
 24  11  34  1   
 25  12  17  1   
 26  12  18  ar  
 27  13  18  ar  
 28  13  35  1   
 29  14  19  ar  
 30  14  20  ar  
 31  15  21  1   
 32  15  36  1   
 33  16  22  1   
 34  16  37  1   
 35  16  38  1   
 36  17  23  1   
 37  18  24  1   
 38  21  39  1   
 39  22  25  1   
 40  22  40  1   
 41  22  41  1   
 42  23  42  1   
 43  23  43  1   
 44  23  44  1   
 45  24  26  1   
 46  25  45  1   
 47  25  46  1   
 48  25  47  1   
 49  26  48  1   
 50  26  49  1   
 51  26  50  1   
@<TRIPOS>SUBSTRUCTURE
  1 ****   4 GROUP 4 **** **** 0

# MOE 2024.06 (io_trps.svl 2023.06)
