@<TRIPOS>MOLECULE
NONAME
51 53 1 0 0 
SMALL
USER_CHARGES


@<TRIPOS>ATOM
  1 O        0.0700    -0.0540    -2.9570 O.2   1 <1>  -0.5700 
  2 C        0.3030    -0.6460    -1.9280 C.2   1 <1>   0.5690 
  3 N        0.8220    -0.0730    -0.8080 N.am  1 <1>  -0.4930 
  4 C        0.0080    -2.1370    -1.8660 C.3   1 <1>   0.1810 
  5 C        1.3800     1.2000    -0.5380 C.2   1 <1>   0.0630 
  6 O        0.8430    -2.7570    -0.8970 O.3   1 <1>  -0.3630 
  7 C        2.4060     1.3640     0.3990 C.2   1 <1>   0.3720 
  8 C        1.1370     2.4420    -1.0110 C.2   1 <1>  -0.3320 
  9 C        0.4900    -3.9250    -0.3070 C.ar  1 <1>   0.0820 
 10 N        2.8020     2.5940     0.4930 N.2   1 <1>  -0.7070 
 11 N        2.9580     0.3020     1.1430 N.pl3 1 <1>  -0.8210 
 12 N        2.0200     3.2620    -0.3850 N.pl3 1 <1>   0.3140 
 13 C        0.1040     2.9170    -2.0230 C.3   1 <1>  -0.0600 
 14 C        0.9560    -4.1750     0.9830 C.ar  1 <1>  -0.1430 
 15 C       -0.3170    -4.8510    -0.9590 C.ar  1 <1>  -0.1500 
 16 C        4.2820    -0.0990     0.6020 C.3   1 <1>   0.2090 
 17 C        3.1240     0.6200     2.5890 C.3   1 <1>   0.2090 
 18 C        2.1750     4.7090    -0.5750 C.3   1 <1>   0.0160 
 19 C        0.5820    -5.3540     1.6250 C.ar  1 <1>  -0.1430 
 20 C        1.8550    -3.1370     1.6600 C.3   1 <1>  -0.0970 
 21 C       -0.6750    -6.0210    -0.3190 C.ar  1 <1>  -0.1500 
 22 C        5.1500    -0.4060     1.8120 C.3   1 <1>  -0.1600 
 23 C        4.6170     0.5340     2.8810 C.3   1 <1>  -0.1600 
 24 C       -0.2290    -6.2670     0.9660 C.ar  1 <1>  -0.1500 
 25 C        1.0300    -5.6850     3.0430 C.3   1 <1>  -0.0970 
 26 H        1.1090    -0.7480    -0.0900 H     1 <1>   0.3700 
 27 H        0.1990    -2.5910    -2.8200 H     1 <1>   0.0800 
 28 H       -1.0190    -2.2800    -1.5830 H     1 <1>   0.0800 
 29 H       -0.6830     2.1930    -2.1200 H     1 <1>   0.0800 
 30 H        0.5660     3.0530    -2.9850 H     1 <1>   0.0800 
 31 H       -0.3410     3.8430    -1.7080 H     1 <1>   0.0800 
 32 H       -0.6630    -4.6790    -1.9600 H     1 <1>   0.1500 
 33 H        4.7130     0.7140     0.0390 H     1 <1>   0.0800 
 34 H        4.1820    -0.9580    -0.0390 H     1 <1>   0.0800 
 35 H        2.5940    -0.1190     3.1630 H     1 <1>   0.0800 
 36 H        2.7360     1.5940     2.8380 H     1 <1>   0.0800 
 37 H        2.2570     4.9210    -1.6240 H     1 <1>   0.0800 
 38 H        3.0650     5.0360    -0.0700 H     1 <1>   0.0800 
 39 H        1.3210     5.2100    -0.1610 H     1 <1>   0.0800 
 40 H        2.5480    -2.7200     0.9520 H     1 <1>   0.0800 
 41 H        2.4370    -3.5590     2.4560 H     1 <1>   0.0800 
 42 H        1.2540    -2.3390     2.0560 H     1 <1>   0.0800 
 43 H       -1.2990    -6.7410    -0.8180 H     1 <1>   0.1500 
 44 H        6.1930    -0.2470     1.6060 H     1 <1>   0.0800 
 45 H        4.9940    -1.4290     2.1050 H     1 <1>   0.0800 
 46 H        4.8120     0.1840     3.8780 H     1 <1>   0.0800 
 47 H        5.0460     1.5120     2.7550 H     1 <1>   0.0800 
 48 H       -0.5200    -7.1810     1.4520 H     1 <1>   0.1500 
 49 H        0.7980    -4.8680     3.7030 H     1 <1>   0.0800 
 50 H        2.0890    -5.8640     3.0590 H     1 <1>   0.0800 
 51 H        0.5320    -6.5630     3.4120 H     1 <1>   0.0800 
@<TRIPOS>BOND
  1   1   2  2   
  2   2   3  am  
  3   2   4  1   
  4   3   5  1   
  5   3  26  1   
  6   4   6  1   
  7   4  27  1   
  8   4  28  1   
  9   5   7  1   
 10   5   8  2   
 11   6   9  1   
 12   7  10  2   
 13   7  11  1   
 14   8  12  1   
 15   8  13  1   
 16   9  14  ar  
 17   9  15  ar  
 18  10  12  1   
 19  11  16  1   
 20  11  17  1   
 21  12  18  1   
 22  13  29  1   
 23  13  30  1   
 24  13  31  1   
 25  14  19  ar  
 26  14  20  1   
 27  15  21  ar  
 28  15  32  1   
 29  16  22  1   
 30  16  33  1   
 31  16  34  1   
 32  17  23  1   
 33  17  35  1   
 34  17  36  1   
 35  18  37  1   
 36  18  38  1   
 37  18  39  1   
 38  19  24  ar  
 39  19  25  1   
 40  20  40  1   
 41  20  41  1   
 42  20  42  1   
 43  21  24  ar  
 44  21  43  1   
 45  22  23  1   
 46  22  44  1   
 47  22  45  1   
 48  23  46  1   
 49  23  47  1   
 50  24  48  1   
 51  25  49  1   
 52  25  50  1   
 53  25  51  1   
@<TRIPOS>SUBSTRUCTURE
  1 ****   3 GROUP 4 **** **** 0

# MOE 2024.06 (io_trps.svl 2023.06)
