@<TRIPOS>MOLECULE
NONAME
48 50 1 0 0 
SMALL
USER_CHARGES


@<TRIPOS>ATOM
  1 F       -1.5220     0.0340    -1.2070 F     1 <1>  -0.1900 
  2 C       -1.9690    -0.8350    -0.3410 C.ar  1 <1>   0.1900 
  3 C       -2.2790    -0.4210     0.9430 C.ar  1 <1>   0.1600 
  4 C       -2.1250    -2.1450    -0.7270 C.ar  1 <1>  -0.1500 
  5 N       -2.7350    -1.2410     1.8810 N.ar  1 <1>  -0.6200 
  6 C       -2.6100    -3.0240     0.2330 C.ar  1 <1>   0.0860 
  7 C       -2.8740    -2.5070     1.5050 C.ar  1 <1>   0.1600 
  8 C       -2.8310    -4.4230    -0.0590 C.2   1 <1>   0.5440 
  9 O       -2.0130    -5.0290    -0.7220 O.2   1 <1>  -0.5700 
 10 N       -3.9540    -5.0880     0.3800 N.am  1 <1>  -0.6600 
 11 C       -4.0480    -6.5830     0.3380 C.3   1 <1>   0.1400 
 12 C       -5.2910    -4.4360     0.5410 C.3   1 <1>   0.1400 
 13 C       -5.1180    -7.0410    -0.6680 C.3   1 <1>   0.3440 
 14 C       -6.3040    -5.0000    -0.4850 C.3   1 <1>   0.2000 
 15 O       -6.3370    -6.4010    -0.3900 O.3   1 <1>  -0.5600 
 16 C       -5.3060    -8.5530    -0.5990 C.ar  1 <1>  -0.1440 
 17 C       -7.7530    -4.4420    -0.3420 C.3   1 <1>   0.0000 
 18 C       -4.5410    -9.3750    -1.4150 C.ar  1 <1>  -0.1500 
 19 C       -6.2170    -9.1330     0.2750 C.ar  1 <1>  -0.1500 
 20 C       -7.7690    -2.9090    -0.4810 C.3   1 <1>  -0.2400 
 21 C       -8.3890    -4.8160     1.0110 C.3   1 <1>  -0.2400 
 22 C       -8.6370    -5.0190    -1.4640 C.3   1 <1>  -0.2400 
 23 C       -4.6830   -10.7500    -1.3590 C.ar  1 <1>  -0.1500 
 24 C       -6.3600   -10.5080     0.3320 C.ar  1 <1>  -0.1500 
 25 C       -5.5920   -11.3180    -0.4850 C.ar  1 <1>  -0.1500 
 26 H       -2.1440     0.6150     1.2010 H     1 <1>   0.1500 
 27 H       -1.8810    -2.4760    -1.7210 H     1 <1>   0.1500 
 28 H       -3.2240    -3.1930     2.2570 H     1 <1>   0.1500 
 29 H       -3.1020    -7.0190     0.0700 H     1 <1>   0.0800 
 30 H       -4.3090    -6.9500     1.3150 H     1 <1>   0.0800 
 31 H       -5.6480    -4.6140     1.5390 H     1 <1>   0.0800 
 32 H       -5.2050    -3.3750     0.4000 H     1 <1>   0.0800 
 33 H       -4.8180    -6.7650    -1.6640 H     1 <1>   0.0800 
 34 H       -5.9530    -4.7540    -1.4730 H     1 <1>   0.0800 
 35 H       -3.8280    -8.9470    -2.0990 H     1 <1>   0.1500 
 36 H       -6.8210    -8.5100     0.9130 H     1 <1>   0.1500 
 37 H       -8.7820    -2.5440    -0.4840 H     1 <1>   0.0800 
 38 H       -7.3030    -2.6070    -1.4020 H     1 <1>   0.0800 
 39 H       -7.2570    -2.4350     0.3370 H     1 <1>   0.0800 
 40 H       -9.4080    -4.4760     1.0540 H     1 <1>   0.0800 
 41 H       -7.8570    -4.3710     1.8310 H     1 <1>   0.0800 
 42 H       -8.3880    -5.8830     1.1440 H     1 <1>   0.0800 
 43 H       -9.6360    -4.6260    -1.4060 H     1 <1>   0.0800 
 44 H       -8.6960    -6.0910    -1.3850 H     1 <1>   0.0800 
 45 H       -8.2310    -4.7770    -2.4300 H     1 <1>   0.0800 
 46 H       -4.0860   -11.3790    -1.9960 H     1 <1>   0.1500 
 47 H       -7.0700   -10.9460     1.0110 H     1 <1>   0.1500 
 48 H       -5.7040   -12.3880    -0.4420 H     1 <1>   0.1500 
@<TRIPOS>BOND
  1   1   2  1   
  2   2   3  ar  
  3   2   4  ar  
  4   3   5  ar  
  5   3  26  1   
  6   4   6  ar  
  7   4  27  1   
  8   5   7  ar  
  9   6   7  ar  
 10   6   8  1   
 11   7  28  1   
 12   8   9  2   
 13   8  10  am  
 14  10  11  1   
 15  10  12  1   
 16  11  13  1   
 17  11  29  1   
 18  11  30  1   
 19  12  14  1   
 20  12  31  1   
 21  12  32  1   
 22  13  15  1   
 23  13  16  1   
 24  13  33  1   
 25  14  15  1   
 26  14  17  1   
 27  14  34  1   
 28  16  18  ar  
 29  16  19  ar  
 30  17  20  1   
 31  17  21  1   
 32  17  22  1   
 33  18  23  ar  
 34  18  35  1   
 35  19  24  ar  
 36  19  36  1   
 37  20  37  1   
 38  20  38  1   
 39  20  39  1   
 40  21  40  1   
 41  21  41  1   
 42  21  42  1   
 43  22  43  1   
 44  22  44  1   
 45  22  45  1   
 46  23  25  ar  
 47  23  46  1   
 48  24  25  ar  
 49  24  47  1   
 50  25  48  1   
@<TRIPOS>SUBSTRUCTURE
  1 ****  10 GROUP 4 **** **** 0

# MOE 2024.06 (io_trps.svl 2023.06)
