@<TRIPOS>MOLECULE
NONAME
54 57 1 0 0 
SMALL
USER_CHARGES


@<TRIPOS>ATOM
  1 O       -1.0460     0.8530     1.9420 O.2   1 <1>  -0.5700 
  2 C       -1.9360     1.2320     1.2030 C.2   1 <1>   0.5440 
  3 N       -1.8070     2.4600     0.5880 N.am  1 <1>  -0.6600 
  4 C       -3.0790     0.3750     0.9870 C.ar  1 <1>   0.0860 
  5 C       -2.3990     2.7870    -0.7450 C.3   1 <1>   0.1400 
  6 C       -0.7970     3.4660     1.0400 C.3   1 <1>   0.1400 
  7 C       -2.9110    -1.0010     0.8560 C.ar  1 <1>   0.1600 
  8 C       -4.3840     0.8540     0.9130 C.ar  1 <1>  -0.1500 
  9 C       -1.2940     3.1310    -1.7600 C.3   1 <1>   0.1200 
 10 C        0.2150     3.7560    -0.0780 C.3   1 <1>   0.1200 
 11 N       -3.8700    -1.8870     0.6420 N.ar  1 <1>  -0.6200 
 12 C       -5.3950    -0.0510     0.6980 C.ar  1 <1>  -0.1500 
 13 O       -0.4460     4.1240    -1.2570 O.3   1 <1>  -0.5600 
 14 C       -5.1050    -1.4060     0.5660 C.ar  1 <1>   0.4100 
 15 N       -6.1210    -2.3020     0.3480 N.pl3 1 <1>  -0.8690 
 16 C       -5.9430    -3.7570     0.4130 C.3   1 <1>   0.2890 
 17 C       -5.5620    -4.2650    -0.9740 C.3   1 <1>  -0.1600 
 18 C       -7.2370    -4.4070     0.8910 C.3   1 <1>  -0.1600 
 19 C       -5.4230    -5.7800    -0.9610 C.3   1 <1>   0.3430 
 20 C       -7.0930    -5.9260     0.8860 C.3   1 <1>   0.3430 
 21 N       -6.6910    -6.3940    -0.4740 N.4   1 <1>  -0.9590 
 22 C       -6.6580    -7.8800    -0.5540 C.3   1 <1>   0.5230 
 23 C       -8.0770    -8.3930    -0.4020 C.2   1 <1>  -0.0400 
 24 O       -9.0170    -7.8560    -1.1590 O.3   1 <1>  -0.2800 
 25 C       -8.6030    -9.3360     0.4100 C.2   1 <1>  -0.1500 
 26 C      -10.1570    -8.4450    -0.8540 C.2   1 <1>  -0.0100 
 27 C       -9.9710    -9.3700     0.1100 C.2   1 <1>  -0.1500 
 28 H       -3.0590     3.6300    -0.6430 H     1 <1>   0.0800 
 29 H       -2.9680     1.9570    -1.1240 H     1 <1>   0.0800 
 30 H       -0.2740     3.1180     1.9140 H     1 <1>   0.0800 
 31 H       -1.3020     4.3790     1.3040 H     1 <1>   0.0800 
 32 H       -1.9070    -1.3830     0.9340 H     1 <1>   0.1500 
 33 H       -4.5850     1.9050     1.0280 H     1 <1>   0.1500 
 34 H       -1.7280     3.5020    -2.6710 H     1 <1>   0.0800 
 35 H       -0.7040     2.2600    -1.9880 H     1 <1>   0.0800 
 36 H        0.8190     2.8870    -0.2740 H     1 <1>   0.0800 
 37 H        0.8600     4.5690     0.2050 H     1 <1>   0.0800 
 38 H       -6.4150     0.2770     0.6310 H     1 <1>   0.1500 
 39 H       -7.0790    -1.9540     0.3940 H     1 <1>   0.4000 
 40 H       -5.1550    -3.9900     1.1120 H     1 <1>   0.0800 
 41 H       -4.6200    -3.8320    -1.2600 H     1 <1>   0.0800 
 42 H       -6.3000    -3.9690    -1.6980 H     1 <1>   0.0800 
 43 H       -8.0590    -4.1230     0.2580 H     1 <1>   0.0800 
 44 H       -7.4500    -4.0790     1.8930 H     1 <1>   0.0800 
 45 H       -4.6070    -6.0580    -0.3130 H     1 <1>   0.0800 
 46 H       -5.2000    -6.1270    -1.9580 H     1 <1>   0.0800 
 47 H       -8.0340    -6.3740     1.1680 H     1 <1>   0.0800 
 48 H       -6.3480    -6.2180     1.6090 H     1 <1>   0.0800 
 49 H       -7.4550    -6.1270    -1.1150 H     1 <1>   0.4500 
 50 H       -6.0250    -8.2920     0.2150 H     1 <1>   0.0800 
 51 H       -6.2830    -8.1880    -1.5160 H     1 <1>   0.0800 
 52 H       -8.1240    -9.9610     1.1450 H     1 <1>   0.1500 
 53 H      -11.0550    -8.1500    -1.3720 H     1 <1>   0.1500 
 54 H      -10.6990   -10.0160     0.5700 H     1 <1>   0.1500 
@<TRIPOS>BOND
  1   1   2  2   
  2   2   3  am  
  3   2   4  1   
  4   3   5  1   
  5   3   6  1   
  6   4   7  ar  
  7   4   8  ar  
  8   5   9  1   
  9   5  28  1   
 10   5  29  1   
 11   6  10  1   
 12   6  30  1   
 13   6  31  1   
 14   7  11  ar  
 15   7  32  1   
 16   8  12  ar  
 17   8  33  1   
 18   9  13  1   
 19   9  34  1   
 20   9  35  1   
 21  10  13  1   
 22  10  36  1   
 23  10  37  1   
 24  11  14  ar  
 25  12  14  ar  
 26  12  38  1   
 27  14  15  1   
 28  15  16  1   
 29  15  39  1   
 30  16  17  1   
 31  16  18  1   
 32  16  40  1   
 33  17  19  1   
 34  17  41  1   
 35  17  42  1   
 36  18  20  1   
 37  18  43  1   
 38  18  44  1   
 39  19  21  1   
 40  19  45  1   
 41  19  46  1   
 42  20  21  1   
 43  20  47  1   
 44  20  48  1   
 45  21  22  1   
 46  21  49  1   
 47  22  23  1   
 48  22  50  1   
 49  22  51  1   
 50  23  24  1   
 51  23  25  2   
 52  24  26  1   
 53  25  27  1   
 54  25  52  1   
 55  26  27  2   
 56  26  53  1   
 57  27  54  1   
@<TRIPOS>SUBSTRUCTURE
  1 ****  14 GROUP 4 **** **** 0

# MOE 2024.06 (io_trps.svl 2023.06)
