@<TRIPOS>MOLECULE
NONAME
56 58 1 0 0 
SMALL
USER_CHARGES


@<TRIPOS>ATOM
  1 O       -0.4700     1.0250     0.3330 O.3   1 <1>  -0.3630 
  2 C        0.8090     1.2220    -0.0760 C.ar  1 <1>   0.0830 
  3 C       -1.5540     1.6080    -0.3450 C.3   1 <1>   0.1200 
  4 C        1.8040     0.6480     0.6970 C.ar  1 <1>  -0.1500 
  5 C        1.1570     1.9560    -1.2070 C.ar  1 <1>  -0.1500 
  6 C       -2.8280     1.1980     0.4010 C.3   1 <1>   0.3430 
  7 C        3.1390     0.7970     0.3610 C.ar  1 <1>   0.0830 
  8 C        2.4910     2.1080    -1.5480 C.ar  1 <1>  -0.1500 
  9 N       -4.0740     1.7350    -0.2360 N.4   1 <1>  -0.9590 
 10 O        4.0430     0.2000     1.1770 O.3   1 <1>  -0.3630 
 11 C        3.4810     1.5330    -0.7710 C.ar  1 <1>  -0.1500 
 12 C       -5.2720     1.0770     0.3830 C.3   1 <1>   0.3430 
 13 C       -4.1780     3.2210    -0.1250 C.3   1 <1>   0.3430 
 14 C        5.4270     0.2860     0.9260 C.3   1 <1>   0.1200 
 15 C       -6.5840     1.5030    -0.3110 C.3   1 <1>   0.0000 
 16 C       -5.4360     3.7110    -0.8460 C.3   1 <1>  -0.1600 
 17 C        6.1530    -0.4880     2.0220 C.3   1 <1>  -0.2400 
 18 C       -7.7700     0.8340     0.4020 C.3   1 <1>   0.2000 
 19 C       -6.7050     3.0410    -0.2960 C.3   1 <1>  -0.1600 
 20 C       -6.6730     0.9150    -1.7290 C.3   1 <1>  -0.1600 
 21 O       -7.5120     0.7480     1.7700 O.3   1 <1>  -0.5600 
 22 C       -7.9080    -0.5610    -0.2210 C.3   1 <1>  -0.1600 
 23 C       -7.1080    -0.5380    -1.5300 C.3   1 <1>  -0.1600 
 24 C       -8.6310     0.4800     2.5600 C.3   1 <1>   0.0400 
 25 H       -1.4160     2.6740    -0.3300 H     1 <1>   0.0800 
 26 H       -1.5590     1.2300    -1.3520 H     1 <1>   0.0800 
 27 H        1.5450     0.0790     1.5700 H     1 <1>   0.1500 
 28 H        0.4190     2.4150    -1.8350 H     1 <1>   0.1500 
 29 H       -2.7640     1.5460     1.4190 H     1 <1>   0.0800 
 30 H       -2.8720     0.1220     0.4150 H     1 <1>   0.0800 
 31 H        2.7620     2.6750    -2.4220 H     1 <1>   0.1500 
 32 H       -4.0840     1.4840    -1.2320 H     1 <1>   0.4500 
 33 H        4.5060     1.6670    -1.0600 H     1 <1>   0.1500 
 34 H       -5.1790     0.0050     0.3270 H     1 <1>   0.0800 
 35 H       -5.3280     1.3470     1.4250 H     1 <1>   0.0800 
 36 H       -4.2290     3.5050     0.9150 H     1 <1>   0.0800 
 37 H       -3.3120     3.6920    -0.5620 H     1 <1>   0.0800 
 38 H        5.6260    -0.1450    -0.0400 H     1 <1>   0.0800 
 39 H        5.7120     1.3240     0.9400 H     1 <1>   0.0800 
 40 H       -5.5180     4.7770    -0.7160 H     1 <1>   0.0800 
 41 H       -5.3430     3.5250    -1.9010 H     1 <1>   0.0800 
 42 H        5.8480    -1.5190     2.0090 H     1 <1>   0.0800 
 43 H        5.9340    -0.0590     2.9830 H     1 <1>   0.0800 
 44 H        7.2140    -0.4410     1.8580 H     1 <1>   0.0800 
 45 H       -8.6690     1.4080     0.2390 H     1 <1>   0.0800 
 46 H       -7.5620     3.3560    -0.8680 H     1 <1>   0.0800 
 47 H       -6.8600     3.3680     0.7190 H     1 <1>   0.0800 
 48 H       -7.4460     1.4250    -2.2810 H     1 <1>   0.0800 
 49 H       -5.7590     0.9840    -2.2900 H     1 <1>   0.0800 
 50 H       -7.5180    -1.3210     0.4350 H     1 <1>   0.0800 
 51 H       -8.9440    -0.7670    -0.4230 H     1 <1>   0.0800 
 52 H       -6.2440    -1.1750    -1.4360 H     1 <1>   0.0800 
 53 H       -7.7000    -0.8860    -2.3610 H     1 <1>   0.0800 
 54 H       -8.3150     0.4400     3.5870 H     1 <1>   0.0800 
 55 H       -9.0550    -0.4680     2.2770 H     1 <1>   0.0800 
 56 H       -9.3530     1.2680     2.4360 H     1 <1>   0.0800 
@<TRIPOS>BOND
  1   1   2  1   
  2   1   3  1   
  3   2   4  ar  
  4   2   5  ar  
  5   3   6  1   
  6   3  25  1   
  7   3  26  1   
  8   4   7  ar  
  9   4  27  1   
 10   5   8  ar  
 11   5  28  1   
 12   6   9  1   
 13   6  29  1   
 14   6  30  1   
 15   7  10  1   
 16   7  11  ar  
 17   8  11  ar  
 18   8  31  1   
 19   9  12  1   
 20   9  13  1   
 21   9  32  1   
 22  10  14  1   
 23  11  33  1   
 24  12  15  1   
 25  12  34  1   
 26  12  35  1   
 27  13  16  1   
 28  13  36  1   
 29  13  37  1   
 30  14  17  1   
 31  14  38  1   
 32  14  39  1   
 33  15  18  1   
 34  15  19  1   
 35  15  20  1   
 36  16  19  1   
 37  16  40  1   
 38  16  41  1   
 39  17  42  1   
 40  17  43  1   
 41  17  44  1   
 42  18  21  1   
 43  18  22  1   
 44  18  45  1   
 45  19  46  1   
 46  19  47  1   
 47  20  23  1   
 48  20  48  1   
 49  20  49  1   
 50  21  24  1   
 51  22  23  1   
 52  22  50  1   
 53  22  51  1   
 54  23  52  1   
 55  23  53  1   
 56  24  54  1   
 57  24  55  1   
 58  24  56  1   
@<TRIPOS>SUBSTRUCTURE
  1 ****   6 GROUP 4 **** **** 0

# MOE 2024.06 (io_trps.svl 2023.06)
