@<TRIPOS>MOLECULE
NONAME
50 53 1 0 0 
SMALL
USER_CHARGES


@<TRIPOS>ATOM
  1 O       -0.7830     0.4960    -1.4640 O.2   1 <1>  -0.5700 
  2 C       -1.7940     1.0760    -1.1100 C.2   1 <1>   0.7150 
  3 N       -3.0150     0.4820    -1.3400 N.am  1 <1>  -0.6600 
  4 C       -1.6920     2.3590    -0.4580 C.2   1 <1>  -0.2370 
  5 C       -3.1820    -0.5990    -2.3510 C.3   1 <1>   0.1400 
  6 C       -4.2230     0.7280    -0.5090 C.3   1 <1>   0.1400 
  7 N       -0.7010     2.6940     0.4310 N.pl3 1 <1>   0.0480 
  8 C       -2.5020     3.4580    -0.5950 C.2   1 <1>  -0.1500 
  9 C       -3.5690    -1.9020    -1.6480 C.3   1 <1>  -0.1600 
 10 C       -4.6150    -0.5660     0.2090 C.3   1 <1>  -0.1600 
 11 C       -0.9120     3.9670     0.8350 C.2   1 <1>  -0.3020 
 12 C        0.4140     1.8360     0.8800 C.3   1 <1>   0.0160 
 13 C       -2.0190     4.4820     0.2230 C.2   1 <1>   0.0190 
 14 C       -4.8200    -1.7310    -0.7740 C.3   1 <1>   0.4240 
 15 C       -2.5950     5.7900     0.3600 C.1   1 <1>   0.5380 
 16 O       -5.8500    -1.3710    -1.6660 O.3   1 <1>  -0.5600 
 17 C       -5.1390    -3.0450    -0.0270 C.ar  1 <1>  -0.1430 
 18 N       -3.0620     6.8250     0.4700 N.1   1 <1>  -0.5570 
 19 C       -7.1640    -1.5900    -1.2560 C.3   1 <1>   0.1200 
 20 C       -6.3600    -3.6910    -0.1950 C.ar  1 <1>  -0.1430 
 21 C       -4.2070    -3.6080     0.8380 C.ar  1 <1>  -0.1500 
 22 C       -7.3960    -3.0910    -1.1250 C.3   1 <1>  -0.0170 
 23 C       -6.6370    -4.8710     0.4770 C.ar  1 <1>  -0.1500 
 24 C       -4.4820    -4.7840     1.5120 C.ar  1 <1>  -0.1500 
 25 C       -5.6950    -5.4250     1.3370 C.ar  1 <1>   0.0830 
 26 O       -5.8850    -6.5750     2.0320 O.3   1 <1>  -0.3620 
 27 C       -7.0780    -7.3170     1.9090 C.3   1 <1>   0.0400 
 28 H       -2.2730    -0.7430    -2.9100 H     1 <1>   0.0800 
 29 H       -3.9540    -0.3140    -3.0450 H     1 <1>   0.0800 
 30 H       -5.0280     1.0570    -1.1450 H     1 <1>   0.0800 
 31 H       -4.0370     1.4910     0.2260 H     1 <1>   0.0800 
 32 H       -3.3680     3.5390    -1.2300 H     1 <1>   0.1500 
 33 H       -2.7350    -2.2160    -1.0490 H     1 <1>   0.0800 
 34 H       -3.7500    -2.6700    -2.3760 H     1 <1>   0.0800 
 35 H       -5.5050    -0.4120     0.7880 H     1 <1>   0.0800 
 36 H       -3.8310    -0.8150     0.8990 H     1 <1>   0.0800 
 37 H       -0.2670     4.4640     1.5390 H     1 <1>   0.1500 
 38 H        0.0250     0.8920     1.2150 H     1 <1>   0.0800 
 39 H        0.9420     2.3140     1.6840 H     1 <1>   0.0800 
 40 H        1.0850     1.6710     0.0570 H     1 <1>   0.0800 
 41 H       -7.8160    -1.1720    -2.0030 H     1 <1>   0.0800 
 42 H       -7.3320    -1.0880    -0.3190 H     1 <1>   0.0800 
 43 H       -3.2540    -3.1370     0.9980 H     1 <1>   0.1500 
 44 H       -7.3230    -3.5510    -2.0940 H     1 <1>   0.0800 
 45 H       -8.3860    -3.2640    -0.7410 H     1 <1>   0.0800 
 46 H       -7.5850    -5.3470     0.3220 H     1 <1>   0.1500 
 47 H       -3.7560    -5.2130     2.1780 H     1 <1>   0.1500 
 48 H       -6.9980    -8.1830     2.5400 H     1 <1>   0.0800 
 49 H       -7.1950    -7.6210     0.8840 H     1 <1>   0.0800 
 50 H       -7.9030    -6.7060     2.2290 H     1 <1>   0.0800 
@<TRIPOS>BOND
  1   1   2  2   
  2   2   3  am  
  3   2   4  1   
  4   3   5  1   
  5   3   6  1   
  6   4   7  1   
  7   4   8  2   
  8   5   9  1   
  9   5  28  1   
 10   5  29  1   
 11   6  10  1   
 12   6  30  1   
 13   6  31  1   
 14   7  11  1   
 15   7  12  1   
 16   8  13  1   
 17   8  32  1   
 18   9  14  1   
 19   9  33  1   
 20   9  34  1   
 21  10  14  1   
 22  10  35  1   
 23  10  36  1   
 24  11  13  2   
 25  11  37  1   
 26  12  38  1   
 27  12  39  1   
 28  12  40  1   
 29  13  15  1   
 30  14  16  1   
 31  14  17  1   
 32  15  18  3   
 33  16  19  1   
 34  17  20  ar  
 35  17  21  ar  
 36  19  22  1   
 37  19  41  1   
 38  19  42  1   
 39  20  22  1   
 40  20  23  ar  
 41  21  24  ar  
 42  21  43  1   
 43  22  44  1   
 44  22  45  1   
 45  23  25  ar  
 46  23  46  1   
 47  24  25  ar  
 48  24  47  1   
 49  25  26  1   
 50  26  27  1   
 51  27  48  1   
 52  27  49  1   
 53  27  50  1   
@<TRIPOS>SUBSTRUCTURE
  1 ****  10 GROUP 4 **** **** 0

# MOE 2024.06 (io_trps.svl 2023.06)
