@<TRIPOS>MOLECULE
NONAME
66 70 1 0 0 
SMALL
USER_CHARGES


@<TRIPOS>ATOM
  1 O       -1.2640     1.9000     1.3250 O.3   1 <1>  -0.5600 
  2 C       -1.5970     0.7470     0.5940 C.3   1 <1>   0.2800 
  3 C       -2.2610     2.8640     1.5650 C.3   1 <1>   0.1200 
  4 C       -2.1020     1.0960    -0.8210 C.3   1 <1>  -0.1600 
  5 C       -0.2870    -0.0520     0.4730 C.3   1 <1>  -0.1600 
  6 C       -2.6410    -0.1110     1.3370 C.3   1 <1>  -0.1600 
  7 C       -1.6940     3.9990     2.4330 C.3   1 <1>   0.2090 
  8 C       -2.3590    -0.2000    -1.6200 C.3   1 <1>   0.0000 
  9 C       -0.5160    -1.3580    -0.3120 C.3   1 <1>   0.0000 
 10 C       -2.8950    -1.4090     0.5460 C.3   1 <1>  -0.0800 
 11 N       -0.6510     4.8240     1.7470 N.pl3 1 <1>  -0.8690 
 12 C       -1.0450    -1.0020    -1.7170 C.3   1 <1>  -0.1600 
 13 C       -3.4020    -1.0520    -0.8660 C.3   1 <1>  -0.1600 
 14 C       -2.8720     0.1410    -3.0250 C.3   1 <1>  -0.2400 
 15 C       -1.5800    -2.1980     0.4230 C.3   1 <1>  -0.1600 
 16 C        0.7930    -2.1480    -0.4260 C.3   1 <1>  -0.2400 
 17 C        0.5910     4.5380     1.3420 C.ar  1 <1>   0.7710 
 18 N        1.3470     5.5630     1.0050 N.ar  1 <1>  -0.6200 
 19 N        1.0200     3.2700     1.2930 N.ar  1 <1>  -0.1790 
 20 C        2.5920     5.3170     0.6340 C.ar  1 <1>   0.4100 
 21 C        2.2750     2.9670     0.8960 C.ar  1 <1>   0.2110 
 22 N        3.3810     6.3810     0.3260 N.pl3 1 <1>  -0.8380 
 23 C        3.0850     3.9980     0.5580 C.ar  1 <1>  -0.1500 
 24 C        4.8680     6.4240     0.5210 C.3   1 <1>   0.2090 
 25 C        2.8260     7.6830    -0.1600 C.3   1 <1>   0.2090 
 26 C        5.5660     6.7910    -0.7980 C.3   1 <1>   0.2000 
 27 C        3.5010     8.0660    -1.4840 C.3   1 <1>  -0.1600 
 28 O        6.9270     6.9230    -0.5850 O.3   1 <1>  -0.6800 
 29 C        5.0350     8.1100    -1.3700 C.3   1 <1>  -0.1600 
 30 H       -3.0780     2.4020     2.0880 H     1 <1>   0.0800 
 31 H       -2.6140     3.2670     0.6320 H     1 <1>   0.0800 
 32 H       -1.3750     1.6990    -1.3330 H     1 <1>   0.0800 
 33 H       -3.0260     1.6410    -0.7670 H     1 <1>   0.0800 
 34 H        0.0810    -0.2910     1.4550 H     1 <1>   0.0800 
 35 H        0.4500     0.5360    -0.0420 H     1 <1>   0.0800 
 36 H       -3.5760     0.4100     1.4240 H     1 <1>   0.0800 
 37 H       -2.2870    -0.3540     2.3230 H     1 <1>   0.0800 
 38 H       -1.2960     3.5880     3.3460 H     1 <1>   0.0800 
 39 H       -2.5080     4.6490     2.7070 H     1 <1>   0.0800 
 40 H       -3.6310    -2.0080     1.0550 H     1 <1>   0.0800 
 41 H       -0.8630     5.8280     1.7150 H     1 <1>   0.4000 
 42 H       -0.3080    -0.4280    -2.2510 H     1 <1>   0.0800 
 43 H       -1.2160    -1.9060    -2.2760 H     1 <1>   0.0800 
 44 H       -3.5970    -1.9590    -1.4130 H     1 <1>   0.0800 
 45 H       -4.3330    -0.5160    -0.7910 H     1 <1>   0.0800 
 46 H       -2.1520     0.7350    -3.5580 H     1 <1>   0.0800 
 47 H       -3.7940     0.6920    -2.9690 H     1 <1>   0.0800 
 48 H       -3.0510    -0.7590    -3.5880 H     1 <1>   0.0800 
 49 H       -1.2270    -2.4660     1.4040 H     1 <1>   0.0800 
 50 H       -1.7610    -3.1120    -0.1160 H     1 <1>   0.0800 
 51 H        1.5410    -1.5740    -0.9430 H     1 <1>   0.0800 
 52 H        0.6320    -3.0610    -0.9720 H     1 <1>   0.0800 
 53 H        1.1690    -2.4020     0.5500 H     1 <1>   0.0800 
 54 H        0.2940     2.5700     1.4890 H     1 <1>   0.4570 
 55 H        2.5790     1.9330     0.8520 H     1 <1>   0.1500 
 56 H        4.0870     3.8260     0.2150 H     1 <1>   0.1500 
 57 H        5.2440     5.4840     0.8800 H     1 <1>   0.0800 
 58 H        5.0900     7.1740     1.2600 H     1 <1>   0.0800 
 59 H        3.0050     8.4430     0.5820 H     1 <1>   0.0800 
 60 H        1.7630     7.6150    -0.3160 H     1 <1>   0.0800 
 61 H        5.4270     5.9920    -1.5060 H     1 <1>   0.0800 
 62 H        3.1360     9.0270    -1.7990 H     1 <1>   0.0800 
 63 H        3.2140     7.3490    -2.2330 H     1 <1>   0.0800 
 64 H        7.1230     7.7700    -0.1400 H     1 <1>   0.4000 
 65 H        5.4620     8.2800    -2.3440 H     1 <1>   0.0800 
 66 H        5.3090     8.9250    -0.7230 H     1 <1>   0.0800 
@<TRIPOS>BOND
  1   1   2  1   
  2   1   3  1   
  3   2   4  1   
  4   2   5  1   
  5   2   6  1   
  6   3   7  1   
  7   3  30  1   
  8   3  31  1   
  9   4   8  1   
 10   4  32  1   
 11   4  33  1   
 12   5   9  1   
 13   5  34  1   
 14   5  35  1   
 15   6  10  1   
 16   6  36  1   
 17   6  37  1   
 18   7  11  1   
 19   7  38  1   
 20   7  39  1   
 21   8  12  1   
 22   8  13  1   
 23   8  14  1   
 24   9  12  1   
 25   9  15  1   
 26   9  16  1   
 27  10  13  1   
 28  10  15  1   
 29  10  40  1   
 30  11  17  1   
 31  11  41  1   
 32  12  42  1   
 33  12  43  1   
 34  13  44  1   
 35  13  45  1   
 36  14  46  1   
 37  14  47  1   
 38  14  48  1   
 39  15  49  1   
 40  15  50  1   
 41  16  51  1   
 42  16  52  1   
 43  16  53  1   
 44  17  18  ar  
 45  17  19  ar  
 46  18  20  ar  
 47  19  21  ar  
 48  19  54  1   
 49  20  22  1   
 50  20  23  ar  
 51  21  23  ar  
 52  21  55  1   
 53  22  24  1   
 54  22  25  1   
 55  23  56  1   
 56  24  26  1   
 57  24  57  1   
 58  24  58  1   
 59  25  27  1   
 60  25  59  1   
 61  25  60  1   
 62  26  28  1   
 63  26  29  1   
 64  26  61  1   
 65  27  29  1   
 66  27  62  1   
 67  27  63  1   
 68  28  64  1   
 69  29  65  1   
 70  29  66  1   
@<TRIPOS>SUBSTRUCTURE
  1 ****  19 GROUP 4 **** **** 0

# MOE 2024.06 (io_trps.svl 2023.06)
