@<TRIPOS>MOLECULE
NONAME
57 59 1 0 0 
SMALL
USER_CHARGES


@<TRIPOS>ATOM
  1 O       -1.3820     0.4920    -1.5880 O.2   1 <1>  -0.5700 
  2 C       -2.5030     0.7960    -1.2570 C.2   1 <1>   0.5690 
  3 N       -3.5330    -0.0820    -1.3440 N.am  1 <1>  -0.7300 
  4 C       -2.8020     2.1920    -0.7070 C.3   1 <1>  -0.0190 
  5 C       -3.4180    -1.5160    -1.7130 C.3   1 <1>   0.1400 
  6 C       -1.5920     3.1480    -0.7730 C.3   1 <1>  -0.1600 
  7 C       -3.3550     2.1130     0.7380 C.3   1 <1>  -0.1600 
  8 C       -3.7530    -2.4320    -0.5120 C.3   1 <1>   0.1430 
  9 C       -1.9560     4.5880    -0.3530 C.3   1 <1>   0.2000 
 10 C       -3.2210     3.4260     1.5340 C.3   1 <1>  -0.1600 
 11 C       -5.1220    -2.0170     0.0670 C.ar  1 <1>  -0.1440 
 12 C       -2.6090    -2.4170     0.5180 C.3   1 <1>  -0.1600 
 13 C       -3.7330    -3.9030    -0.9550 C.3   1 <1>  -0.1600 
 14 O       -0.8420     5.1650     0.2830 O.3   1 <1>  -0.5600 
 15 C       -3.1730     4.6440     0.6080 C.3   1 <1>   0.2000 
 16 C       -5.2250    -1.2190     1.2020 C.ar  1 <1>  -0.1500 
 17 C       -6.2950    -2.4090    -0.5680 C.ar  1 <1>  -0.1500 
 18 C       -1.5340    -3.3610    -0.0250 C.3   1 <1>  -0.1600 
 19 C       -2.2640    -4.3410    -0.9470 C.3   1 <1>  -0.1600 
 20 C        0.1790     5.5840    -0.5700 C.3   1 <1>   0.0400 
 21 O       -3.0820     5.7740     1.3930 O.3   1 <1>  -0.6800 
 22 C       -6.4590    -0.8340     1.6970 C.ar  1 <1>  -0.1500 
 23 C       -7.5300    -2.0260    -0.0780 C.ar  1 <1>  -0.1500 
 24 C       -7.6240    -1.2390     1.0560 C.ar  1 <1>   0.0820 
 25 O       -8.8720    -0.9100     1.4720 O.3   1 <1>  -0.3620 
 26 C       -9.0790    -0.1710     2.6550 C.3   1 <1>   0.0400 
 27 H       -4.4490     0.1710    -0.9640 H     1 <1>   0.3700 
 28 H       -3.5680     2.6060    -1.3390 H     1 <1>   0.0800 
 29 H       -4.1070    -1.7130    -2.5150 H     1 <1>   0.0800 
 30 H       -2.4260    -1.7210    -2.0770 H     1 <1>   0.0800 
 31 H       -1.2000     3.1620    -1.7740 H     1 <1>   0.0800 
 32 H       -0.8260     2.7650    -0.1190 H     1 <1>   0.0800 
 33 H       -4.3930     1.8300     0.6940 H     1 <1>   0.0800 
 34 H       -2.8350     1.3400     1.2780 H     1 <1>   0.0800 
 35 H       -2.1990     5.1760    -1.2220 H     1 <1>   0.0800 
 36 H       -2.3060     3.3970     2.1010 H     1 <1>   0.0800 
 37 H       -4.0430     3.5200     2.2220 H     1 <1>   0.0800 
 38 H       -2.2160    -1.4310     0.6890 H     1 <1>   0.0800 
 39 H       -2.9670    -2.8170     1.4510 H     1 <1>   0.0800 
 40 H       -4.2700    -4.4920    -0.2300 H     1 <1>   0.0800 
 41 H       -4.1830    -4.0540    -1.9200 H     1 <1>   0.0800 
 42 H       -4.0910     4.7040     0.0480 H     1 <1>   0.0800 
 43 H       -4.3450    -0.8820     1.7180 H     1 <1>   0.1500 
 44 H       -6.2620    -3.0170    -1.4550 H     1 <1>   0.1500 
 45 H       -0.8090    -2.7990    -0.5910 H     1 <1>   0.0800 
 46 H       -1.0270    -3.8720     0.7760 H     1 <1>   0.0800 
 47 H       -2.1700    -5.3540    -0.5950 H     1 <1>   0.0800 
 48 H       -1.8510    -4.2790    -1.9400 H     1 <1>   0.0800 
 49 H        0.9530     6.0290     0.0300 H     1 <1>   0.0800 
 50 H       -0.2090     6.3140    -1.2590 H     1 <1>   0.0800 
 51 H        0.5790     4.7360    -1.0980 H     1 <1>   0.0800 
 52 H       -2.1170     5.9480     1.4940 H     1 <1>   0.4000 
 53 H       -6.4930    -0.2210     2.5770 H     1 <1>   0.1500 
 54 H       -8.4320    -2.3370    -0.5730 H     1 <1>   0.1500 
 55 H      -10.1390    -0.0610     2.7990 H     1 <1>   0.0800 
 56 H       -8.6220     0.7960     2.5470 H     1 <1>   0.0800 
 57 H       -8.6530    -0.7110     3.4820 H     1 <1>   0.0800 
@<TRIPOS>BOND
  1   1   2  2   
  2   2   3  am  
  3   2   4  1   
  4   3   5  1   
  5   3  27  1   
  6   4   6  1   
  7   4   7  1   
  8   4  28  1   
  9   5   8  1   
 10   5  29  1   
 11   5  30  1   
 12   6   9  1   
 13   6  31  1   
 14   6  32  1   
 15   7  10  1   
 16   7  33  1   
 17   7  34  1   
 18   8  11  1   
 19   8  12  1   
 20   8  13  1   
 21   9  14  1   
 22   9  15  1   
 23   9  35  1   
 24  10  15  1   
 25  10  36  1   
 26  10  37  1   
 27  11  16  ar  
 28  11  17  ar  
 29  12  18  1   
 30  12  38  1   
 31  12  39  1   
 32  13  19  1   
 33  13  40  1   
 34  13  41  1   
 35  14  20  1   
 36  15  21  1   
 37  15  42  1   
 38  16  22  ar  
 39  16  43  1   
 40  17  23  ar  
 41  17  44  1   
 42  18  19  1   
 43  18  45  1   
 44  18  46  1   
 45  19  47  1   
 46  19  48  1   
 47  20  49  1   
 48  20  50  1   
 49  20  51  1   
 50  21  52  1   
 51  22  24  ar  
 52  22  53  1   
 53  23  24  ar  
 54  23  54  1   
 55  24  25  1   
 56  25  26  1   
 57  26  55  1   
 58  26  56  1   
 59  26  57  1   
@<TRIPOS>SUBSTRUCTURE
  1 ****   3 GROUP 4 **** **** 0

# MOE 2024.06 (io_trps.svl 2023.06)
