@<TRIPOS>MOLECULE
NONAME
56 58 1 0 0 
SMALL
USER_CHARGES


@<TRIPOS>ATOM
  1 S        0.4800    -0.1420    -0.0010 S.3   1 <1>  -0.4600 
  2 C       -1.2260    -0.7560    -0.0470 C.3   1 <1>   0.2140 
  3 C        0.2930     1.5350     0.6600 C.3   1 <1>   0.0700 
  4 C       -1.2140    -2.1690    -0.6040 C.ar  1 <1>  -0.1440 
  5 C        1.6850     2.1650     0.7360 C.3   1 <1>  -0.0990 
  6 C       -0.9940    -3.2490     0.2370 C.ar  1 <1>  -0.1500 
  7 C       -1.4260    -2.3910    -1.9560 C.ar  1 <1>  -0.1500 
  8 C        1.6630     3.5860     1.2750 C.2   1 <1>   0.5690 
  9 C       -0.9930    -4.5390    -0.2670 C.ar  1 <1>  -0.1500 
 10 C       -1.4260    -3.6800    -2.4610 C.ar  1 <1>  -0.1500 
 11 O        0.5940     4.0590     1.5870 O.2   1 <1>  -0.5700 
 12 N        2.8300     4.3000     1.3980 N.am  1 <1>  -0.6600 
 13 C       -1.2110    -4.7550    -1.6160 C.ar  1 <1>  -0.1500 
 14 C        2.8220     5.7020     1.8990 C.3   1 <1>   0.1400 
 15 C        4.1880     3.7910     1.0590 C.3   1 <1>   0.1400 
 16 C        3.4730     6.6230     0.8600 C.3   1 <1>  -0.1600 
 17 C        4.8330     4.7060     0.0110 C.3   1 <1>  -0.1600 
 18 C        4.9010     6.1940     0.4420 C.3   1 <1>   0.0000 
 19 C        5.3000     7.0800    -0.7660 C.3   1 <1>  -0.1600 
 20 C        5.8570     6.4110     1.6480 C.3   1 <1>  -0.1600 
 21 C        6.6900     6.8410    -1.3710 C.3   1 <1>   0.1400 
 22 C        7.3520     6.1250     1.4110 C.3   1 <1>  -0.0990 
 23 N        7.7310     7.5630    -0.6030 N.am  1 <1>  -0.6600 
 24 C        8.0640     7.2520     0.6880 C.2   1 <1>   0.5690 
 25 C        8.3890     8.6880    -1.3270 C.3   1 <1>   0.0600 
 26 O        8.9190     7.8500     1.2960 O.2   1 <1>  -0.5700 
 27 H       -1.7930    -0.0890    -0.6710 H     1 <1>   0.0800 
 28 H       -1.6050    -0.7320     0.9590 H     1 <1>   0.0800 
 29 H       -0.1580     1.4570     1.6340 H     1 <1>   0.0800 
 30 H       -0.3510     2.0820    -0.0050 H     1 <1>   0.0800 
 31 H        2.1110     2.1780    -0.2500 H     1 <1>   0.0800 
 32 H        2.3010     1.5630     1.3770 H     1 <1>   0.0800 
 33 H       -0.8170    -3.0890     1.2860 H     1 <1>   0.1500 
 34 H       -1.5870    -1.5620    -2.6210 H     1 <1>   0.1500 
 35 H       -0.8210    -5.3730     0.3910 H     1 <1>   0.1500 
 36 H       -1.5900    -3.8460    -3.5110 H     1 <1>   0.1500 
 37 H       -1.2100    -5.7570    -2.0080 H     1 <1>   0.1500 
 38 H        3.3500     5.7470     2.8340 H     1 <1>   0.0800 
 39 H        1.8140     6.0350     2.0810 H     1 <1>   0.0800 
 40 H        4.1460     2.7900     0.6710 H     1 <1>   0.0800 
 41 H        4.7860     3.7650     1.9530 H     1 <1>   0.0800 
 42 H        3.4900     7.6250     1.2510 H     1 <1>   0.0800 
 43 H        2.8290     6.6340    -0.0020 H     1 <1>   0.0800 
 44 H        4.2500     4.6230    -0.8900 H     1 <1>   0.0800 
 45 H        5.8080     4.3210    -0.2150 H     1 <1>   0.0800 
 46 H        5.2190     8.1200    -0.5000 H     1 <1>   0.0800 
 47 H        4.5850     6.9100    -1.5520 H     1 <1>   0.0800 
 48 H        5.5440     5.7960     2.4710 H     1 <1>   0.0800 
 49 H        5.7700     7.4310     1.9840 H     1 <1>   0.0800 
 50 H        6.6900     7.2070    -2.3840 H     1 <1>   0.0800 
 51 H        6.9290     5.7940    -1.4130 H     1 <1>   0.0800 
 52 H        7.5100     5.2050     0.8850 H     1 <1>   0.0800 
 53 H        7.8250     6.0160     2.3710 H     1 <1>   0.0800 
 54 H        7.6490     9.4080    -1.6290 H     1 <1>   0.0800 
 55 H        8.8970     8.3110    -2.1970 H     1 <1>   0.0800 
 56 H        9.1090     9.1820    -0.6980 H     1 <1>   0.0800 
@<TRIPOS>BOND
  1   1   2  1   
  2   1   3  1   
  3   2   4  1   
  4   2  27  1   
  5   2  28  1   
  6   3   5  1   
  7   3  29  1   
  8   3  30  1   
  9   4   6  ar  
 10   4   7  ar  
 11   5   8  1   
 12   5  31  1   
 13   5  32  1   
 14   6   9  ar  
 15   6  33  1   
 16   7  10  ar  
 17   7  34  1   
 18   8  11  2   
 19   8  12  am  
 20   9  13  ar  
 21   9  35  1   
 22  10  13  ar  
 23  10  36  1   
 24  12  14  1   
 25  12  15  1   
 26  13  37  1   
 27  14  16  1   
 28  14  38  1   
 29  14  39  1   
 30  15  17  1   
 31  15  40  1   
 32  15  41  1   
 33  16  18  1   
 34  16  42  1   
 35  16  43  1   
 36  17  18  1   
 37  17  44  1   
 38  17  45  1   
 39  18  19  1   
 40  18  20  1   
 41  19  21  1   
 42  19  46  1   
 43  19  47  1   
 44  20  22  1   
 45  20  48  1   
 46  20  49  1   
 47  21  23  1   
 48  21  50  1   
 49  21  51  1   
 50  22  24  1   
 51  22  52  1   
 52  22  53  1   
 53  23  24  am  
 54  23  25  1   
 55  24  26  2   
 56  25  54  1   
 57  25  55  1   
 58  25  56  1   
@<TRIPOS>SUBSTRUCTURE
  1 ****   5 GROUP 4 **** **** 0

# MOE 2024.06 (io_trps.svl 2023.06)
