@<TRIPOS>MOLECULE
NONAME
56 59 1 0 0 
SMALL
USER_CHARGES


@<TRIPOS>ATOM
  1 S        0.0400     0.0690     2.0780 S.o2  1 <1>   1.4470 
  2 O        0.2260     1.3530     2.7190 O.2   1 <1>  -0.6500 
  3 O       -0.2770    -1.0690     2.9150 O.2   1 <1>  -0.6500 
  4 N       -1.2650     0.2490     1.0090 N.am  1 <1>  -0.8490 
  5 C        1.4060    -0.4060     0.9590 C.ar  1 <1>  -0.0090 
  6 C       -1.1040     1.4080     0.1260 C.3   1 <1>   0.1960 
  7 C       -2.5350     0.3370     1.7370 C.3   1 <1>   0.1960 
  8 C        2.4740     0.4140     0.5590 C.ar  1 <1>  -0.1440 
  9 C        1.3570    -1.6980     0.4480 C.ar  1 <1>  -0.1500 
 10 C       -2.2120     1.4130    -0.9250 C.3   1 <1>  -0.1600 
 11 C       -3.7040     0.3180     0.7520 C.3   1 <1>  -0.1600 
 12 C        3.4660    -0.0850    -0.2910 C.ar  1 <1>  -0.1440 
 13 C        2.5630     1.8590     1.0690 C.3   1 <1>  -0.0170 
 14 C        2.3160    -2.1890    -0.4110 C.ar  1 <1>  -0.1500 
 15 C       -3.5930     1.4530    -0.2640 C.3   1 <1>   0.4180 
 16 C        3.3790    -1.3840    -0.7870 C.ar  1 <1>   0.0820 
 17 C        4.6700     0.7600    -0.7180 C.3   1 <1>  -0.0160 
 18 C        3.5830     2.7360     0.3380 C.3   1 <1>  -0.1600 
 19 O       -3.7250     2.6470     0.4680 O.3   1 <1>  -0.5600 
 20 C       -4.7070     1.3350    -1.3000 C.2   1 <1>  -0.2880 
 21 O        4.3490    -1.8160    -1.6370 O.3   1 <1>  -0.3630 
 22 C        4.8970     1.9840     0.1670 C.3   1 <1>  -0.1600 
 23 C       -4.0850     3.8020    -0.2370 C.3   1 <1>   0.1200 
 24 C       -5.5790     2.3080    -1.5770 C.2   1 <1>  -0.2760 
 25 C        4.3640    -3.1270    -2.1570 C.3   1 <1>   0.0400 
 26 C       -5.4770     3.6430    -0.8620 C.3   1 <1>  -0.0220 
 27 C       -6.7160     2.1880    -2.5760 C.3   1 <1>  -0.1020 
 28 H       -0.1540     1.3540    -0.3790 H     1 <1>   0.0800 
 29 H       -1.1330     2.3200     0.7010 H     1 <1>   0.0800 
 30 H       -2.5590     1.2400     2.3280 H     1 <1>   0.0800 
 31 H       -2.6340    -0.5020     2.4050 H     1 <1>   0.0800 
 32 H        0.5380    -2.3380     0.7340 H     1 <1>   0.1500 
 33 H       -2.1270     0.5200    -1.5160 H     1 <1>   0.0800 
 34 H       -2.0920     2.2480    -1.5890 H     1 <1>   0.0800 
 35 H       -4.6340     0.4070     1.2820 H     1 <1>   0.0800 
 36 H       -3.7060    -0.6280     0.2420 H     1 <1>   0.0800 
 37 H        2.8170     1.8340     2.1150 H     1 <1>   0.0800 
 38 H        1.6130     2.3480     0.9690 H     1 <1>   0.0800 
 39 H        2.2140    -3.1940    -0.7700 H     1 <1>   0.1500 
 40 H        4.5150     1.0780    -1.7340 H     1 <1>   0.0800 
 41 H        5.5640     0.1620    -0.6970 H     1 <1>   0.0800 
 42 H        3.7450     3.6410     0.8980 H     1 <1>   0.0800 
 43 H        3.1960     3.0060    -0.6300 H     1 <1>   0.0800 
 44 H       -4.7250     0.3760    -1.7850 H     1 <1>   0.1500 
 45 H        5.6360     2.6240    -0.2830 H     1 <1>   0.0800 
 46 H        5.2640     1.6690     1.1300 H     1 <1>   0.0800 
 47 H       -3.3490     3.9850    -1.0000 H     1 <1>   0.0800 
 48 H       -4.0780     4.6260     0.4540 H     1 <1>   0.0800 
 49 H        5.2330    -3.2280    -2.7810 H     1 <1>   0.0800 
 50 H        3.4740    -3.2810    -2.7410 H     1 <1>   0.0800 
 51 H        4.4170    -3.8250    -1.3400 H     1 <1>   0.0800 
 52 H       -5.6360     4.4500    -1.5540 H     1 <1>   0.0800 
 53 H       -6.2290     3.7040    -0.0960 H     1 <1>   0.0800 
 54 H       -6.6040     2.9180    -3.3580 H     1 <1>   0.0800 
 55 H       -7.6590     2.3460    -2.0840 H     1 <1>   0.0800 
 56 H       -6.7240     1.2090    -3.0220 H     1 <1>   0.0800 
@<TRIPOS>BOND
  1   1   2  2   
  2   1   3  2   
  3   1   4  am  
  4   1   5  1   
  5   4   6  1   
  6   4   7  1   
  7   5   8  ar  
  8   5   9  ar  
  9   6  10  1   
 10   6  28  1   
 11   6  29  1   
 12   7  11  1   
 13   7  30  1   
 14   7  31  1   
 15   8  12  ar  
 16   8  13  1   
 17   9  14  ar  
 18   9  32  1   
 19  10  15  1   
 20  10  33  1   
 21  10  34  1   
 22  11  15  1   
 23  11  35  1   
 24  11  36  1   
 25  12  16  ar  
 26  12  17  1   
 27  13  18  1   
 28  13  37  1   
 29  13  38  1   
 30  14  16  ar  
 31  14  39  1   
 32  15  19  1   
 33  15  20  1   
 34  16  21  1   
 35  17  22  1   
 36  17  40  1   
 37  17  41  1   
 38  18  22  1   
 39  18  42  1   
 40  18  43  1   
 41  19  23  1   
 42  20  24  2   
 43  20  44  1   
 44  21  25  1   
 45  22  45  1   
 46  22  46  1   
 47  23  26  1   
 48  23  47  1   
 49  23  48  1   
 50  24  26  1   
 51  24  27  1   
 52  25  49  1   
 53  25  50  1   
 54  25  51  1   
 55  26  52  1   
 56  26  53  1   
 57  27  54  1   
 58  27  55  1   
 59  27  56  1   
@<TRIPOS>SUBSTRUCTURE
  1 ****   6 GROUP 4 **** **** 0

# MOE 2024.06 (io_trps.svl 2023.06)
