@<TRIPOS>MOLECULE
NONAME
43 45 1 0 0 
SMALL
USER_CHARGES


@<TRIPOS>ATOM
  1 CL      -0.4080     0.1450    -0.0870 Cl    1 <1>  -0.1770 
  2 C        0.7470    -1.0220    -0.6920 C.ar  1 <1>   0.1770 
  3 C        1.1790    -2.0850     0.1000 C.ar  1 <1>  -0.1440 
  4 C        1.2060    -0.8470    -1.9840 C.ar  1 <1>  -0.1500 
  5 C        2.0990    -2.9830    -0.4310 C.ar  1 <1>  -0.1500 
  6 C        0.6860    -2.3010     1.5350 C.3   1 <1>   0.0450 
  7 C        2.1150    -1.7610    -2.4760 C.ar  1 <1>   0.1900 
  8 C        2.5720    -2.8270    -1.7240 C.ar  1 <1>  -0.1500 
  9 C        0.1370    -3.7040     1.7680 C.2   1 <1>   0.5690 
 10 F        2.5580    -1.6140    -3.6950 F     1 <1>  -0.1900 
 11 O        0.8690    -4.4800     2.3390 O.2   1 <1>  -0.5700 
 12 N       -1.1280    -4.0740     1.3660 N.am  1 <1>  -0.6600 
 13 C       -2.0130    -3.1940     0.5440 C.3   1 <1>   0.2200 
 14 C       -1.6480    -5.4270     1.7390 C.3   1 <1>   0.0600 
 15 C       -2.7160    -3.8930    -0.6170 C.3   1 <1>  -0.1600 
 16 C       -3.1440    -2.5780     1.3580 C.3   1 <1>  -0.1600 
 17 C       -3.8580    -2.9360    -0.9850 C.3   1 <1>  -0.0800 
 18 C       -4.1800    -2.1470     0.3100 C.3   1 <1>  -0.0800 
 19 C       -5.0490    -3.6520    -1.6540 C.3   1 <1>   0.1400 
 20 C       -5.6320    -2.3050     0.8010 C.3   1 <1>  -0.0990 
 21 N       -6.2750    -2.8420    -1.5010 N.am  1 <1>  -0.7300 
 22 C       -6.5970    -2.1980    -0.3600 C.2   1 <1>   0.5690 
 23 O       -7.6170    -1.5670    -0.2580 O.2   1 <1>  -0.5700 
 24 H        0.8690    -0.0260    -2.5880 H     1 <1>   0.1500 
 25 H        2.4520    -3.8120     0.1630 H     1 <1>   0.1500 
 26 H       -0.0630    -1.5910     1.8220 H     1 <1>   0.0800 
 27 H        1.5180    -2.1530     2.2000 H     1 <1>   0.0800 
 28 H        3.2820    -3.5170    -2.1420 H     1 <1>   0.1500 
 29 H       -1.4440    -2.3920     0.1170 H     1 <1>   0.0800 
 30 H       -2.6940    -5.3800     1.9780 H     1 <1>   0.0800 
 31 H       -1.1270    -5.8100     2.6000 H     1 <1>   0.0800 
 32 H       -1.4990    -6.1090     0.9200 H     1 <1>   0.0800 
 33 H       -2.0460    -4.0500    -1.4440 H     1 <1>   0.0800 
 34 H       -3.1320    -4.8320    -0.3040 H     1 <1>   0.0800 
 35 H       -3.5660    -3.3150     2.0170 H     1 <1>   0.0800 
 36 H       -2.7990    -1.7400     1.9360 H     1 <1>   0.0800 
 37 H       -3.4700    -2.2270    -1.6990 H     1 <1>   0.0800 
 38 H       -4.0250    -1.1030     0.0910 H     1 <1>   0.0800 
 39 H       -5.2200    -4.6090    -1.1900 H     1 <1>   0.0800 
 40 H       -4.8440    -3.8120    -2.6990 H     1 <1>   0.0800 
 41 H       -5.8620    -1.5490     1.5300 H     1 <1>   0.0800 
 42 H       -5.7760    -3.2680     1.2540 H     1 <1>   0.0800 
 43 H       -6.9440    -2.7990    -2.2730 H     1 <1>   0.3700 
@<TRIPOS>BOND
  1   1   2  1   
  2   2   3  ar  
  3   2   4  ar  
  4   3   5  ar  
  5   3   6  1   
  6   4   7  ar  
  7   4  24  1   
  8   5   8  ar  
  9   5  25  1   
 10   6   9  1   
 11   6  26  1   
 12   6  27  1   
 13   7   8  ar  
 14   7  10  1   
 15   8  28  1   
 16   9  11  2   
 17   9  12  am  
 18  12  13  1   
 19  12  14  1   
 20  13  15  1   
 21  13  16  1   
 22  13  29  1   
 23  14  30  1   
 24  14  31  1   
 25  14  32  1   
 26  15  17  1   
 27  15  33  1   
 28  15  34  1   
 29  16  18  1   
 30  16  35  1   
 31  16  36  1   
 32  17  18  1   
 33  17  19  1   
 34  17  37  1   
 35  18  20  1   
 36  18  38  1   
 37  19  21  1   
 38  19  39  1   
 39  19  40  1   
 40  20  22  1   
 41  20  41  1   
 42  20  42  1   
 43  21  22  am  
 44  21  43  1   
 45  22  23  2   
@<TRIPOS>SUBSTRUCTURE
  1 ****  13 GROUP 4 **** **** 0

# MOE 2024.06 (io_trps.svl 2023.06)
