@<TRIPOS>MOLECULE
NONAME
54 57 1 0 0 
SMALL
USER_CHARGES


@<TRIPOS>ATOM
  1 O        0.4710    -0.9460    -1.5830 O.3   1 <1>  -0.5600 
  2 C        0.7640    -1.9770    -0.6780 C.3   1 <1>   0.1200 
  3 C        1.5800    -0.3840    -2.2290 C.3   1 <1>   0.1200 
  4 C        1.7350    -1.4830     0.4180 C.3   1 <1>   0.5180 
  5 C        2.5920     0.1740    -1.2020 C.3   1 <1>   0.4230 
  6 N        2.9640    -0.8720    -0.1750 N.4   1 <1>  -0.9590 
  7 C        2.1230    -2.5990     1.3950 C.3   1 <1>  -0.1950 
  8 C        3.8470     0.7580    -1.9020 C.3   1 <1>   0.1100 
  9 C        3.9730    -1.8400    -0.7230 C.3   1 <1>   0.3430 
 10 C        1.3600    -2.7770     2.6720 C.3   1 <1>  -0.2000 
 11 C        2.7840    -2.3010     2.7070 C.3   1 <1>  -0.2000 
 12 N        5.1120     0.3610    -1.2280 N.3   1 <1>  -0.8100 
 13 C        5.2480    -1.1150    -1.2220 C.3   1 <1>   0.1100 
 14 C        6.2860     0.9940    -1.8570 C.3   1 <1>   0.2900 
 15 C        6.1750     2.4940    -1.7150 C.2   1 <1>  -0.3320 
 16 N        6.1660     3.1330    -0.5310 N.pl3 1 <1>   0.0330 
 17 C        6.0620     3.4520    -2.6610 C.2   1 <1>   0.0770 
 18 C        6.0370     4.4430    -0.8320 C.2   1 <1>   0.0060 
 19 N        5.9660     4.6720    -2.1030 N.2   1 <1>  -0.5650 
 20 C        5.9830     5.5300     0.2250 C.3   1 <1>   0.0200 
 21 C        7.3320     5.6840     0.9400 C.3   1 <1>  -0.1600 
 22 C        7.2900     6.8040     1.9870 C.3   1 <1>  -0.1600 
 23 C        8.6430     6.9510     2.6900 C.3   1 <1>  -0.2400 
 24 H       -0.1630    -2.2910    -0.2300 H     1 <1>   0.0800 
 25 H        1.1780    -2.8080    -1.2210 H     1 <1>   0.0800 
 26 H        2.0300    -1.1360    -2.8540 H     1 <1>   0.0800 
 27 H        1.2180     0.4100    -2.8590 H     1 <1>   0.0800 
 28 H        1.2180    -0.7230     0.9800 H     1 <1>   0.0800 
 29 H        2.1040     0.9900    -0.6960 H     1 <1>   0.0800 
 30 H        3.4670    -0.3580     0.5580 H     1 <1>   0.4500 
 31 H        2.3880    -3.5160     0.8960 H     1 <1>   0.1000 
 32 H        3.7470     1.8310    -1.9060 H     1 <1>   0.0800 
 33 H        3.8770     0.4420    -2.9320 H     1 <1>   0.0800 
 34 H        4.2580    -2.5490     0.0370 H     1 <1>   0.0800 
 35 H        3.5420    -2.3930    -1.5390 H     1 <1>   0.0800 
 36 H        0.5870    -2.0790     2.9470 H     1 <1>   0.1000 
 37 H        1.1490    -3.7740     3.0240 H     1 <1>   0.1000 
 38 H        3.5300    -2.9780     3.0900 H     1 <1>   0.1000 
 39 H        2.9600    -1.2850     3.0180 H     1 <1>   0.1000 
 40 H        5.4800    -1.4690    -2.2130 H     1 <1>   0.0800 
 41 H        6.0730    -1.3870    -0.5850 H     1 <1>   0.0800 
 42 H        7.1880     0.6600    -1.3720 H     1 <1>   0.0800 
 43 H        6.3420     0.7290    -2.9000 H     1 <1>   0.0800 
 44 H        6.2390     2.7180     0.4010 H     1 <1>   0.2700 
 45 H        6.0390     3.3340    -3.7320 H     1 <1>   0.1500 
 46 H        5.7240     6.4600    -0.2520 H     1 <1>   0.0800 
 47 H        5.2090     5.2980     0.9350 H     1 <1>   0.0800 
 48 H        7.5970     4.7570     1.4170 H     1 <1>   0.0800 
 49 H        8.0870     5.9070     0.2050 H     1 <1>   0.0800 
 50 H        7.0390     7.7360     1.5090 H     1 <1>   0.0800 
 51 H        6.5320     6.5890     2.7210 H     1 <1>   0.0800 
 52 H        9.4130     7.1860     1.9750 H     1 <1>   0.0800 
 53 H        8.9070     6.0400     3.1970 H     1 <1>   0.0800 
 54 H        8.5970     7.7450     3.4140 H     1 <1>   0.0800 
@<TRIPOS>BOND
  1   1   2  1   
  2   1   3  1   
  3   2   4  1   
  4   2  24  1   
  5   2  25  1   
  6   3   5  1   
  7   3  26  1   
  8   3  27  1   
  9   4   6  1   
 10   4   7  1   
 11   4  28  1   
 12   5   6  1   
 13   5   8  1   
 14   5  29  1   
 15   6   9  1   
 16   6  30  1   
 17   7  10  1   
 18   7  11  1   
 19   7  31  1   
 20   8  12  1   
 21   8  32  1   
 22   8  33  1   
 23   9  13  1   
 24   9  34  1   
 25   9  35  1   
 26  10  11  1   
 27  10  36  1   
 28  10  37  1   
 29  11  38  1   
 30  11  39  1   
 31  12  13  1   
 32  12  14  1   
 33  13  40  1   
 34  13  41  1   
 35  14  15  1   
 36  14  42  1   
 37  14  43  1   
 38  15  16  1   
 39  15  17  2   
 40  16  18  1   
 41  16  44  1   
 42  17  19  1   
 43  17  45  1   
 44  18  19  2   
 45  18  20  1   
 46  20  21  1   
 47  20  46  1   
 48  20  47  1   
 49  21  22  1   
 50  21  48  1   
 51  21  49  1   
 52  22  23  1   
 53  22  50  1   
 54  22  51  1   
 55  23  52  1   
 56  23  53  1   
 57  23  54  1   
@<TRIPOS>SUBSTRUCTURE
  1 ****  12 GROUP 4 **** **** 0

# MOE 2024.06 (io_trps.svl 2023.06)
