@<TRIPOS>MOLECULE
NONAME
46 49 1 0 0 
SMALL
USER_CHARGES


@<TRIPOS>ATOM
  1 O       -0.6430    -0.0660     0.4150 O.3   1 <1>  -0.2800 
  2 C       -0.9550     1.2240     0.4770 C.2   1 <1>   0.1410 
  3 C       -1.6440    -0.7760     0.8890 C.2   1 <1>  -0.0400 
  4 C       -0.0230     2.2290     0.0120 C.2   1 <1>   0.2880 
  5 C       -2.1990     1.3380     1.0130 C.2   1 <1>  -0.1500 
  6 C       -2.6470     0.0410     1.2810 C.2   1 <1>  -0.1500 
  7 C       -1.4670    -2.2840     0.8930 C.3   1 <1>   0.5230 
  8 N        1.1430     1.9760    -0.5360 N.2   1 <1>  -0.7070 
  9 C       -0.2410     3.6100     0.0810 C.2   1 <1>  -0.1500 
 10 N       -2.7870    -2.9700     0.9170 N.4   1 <1>  -0.9590 
 11 N        1.6740     3.1780    -0.8170 N.pl3 1 <1>   0.3000 
 12 C        0.8550     4.1820    -0.4540 C.2   1 <1>  -0.3020 
 13 C       -3.6270    -2.7150    -0.2820 C.3   1 <1>   0.3430 
 14 C       -2.6930    -4.4510     1.0380 C.3   1 <1>   0.3430 
 15 C       -4.6760    -3.8230    -0.2210 C.3   1 <1>   0.2000 
 16 C       -3.8750    -5.0400     0.2450 C.3   1 <1>  -0.0800 
 17 O       -5.5820    -3.4950     0.7820 O.3   1 <1>  -0.6800 
 18 C       -3.3850    -5.8830    -0.9480 C.3   1 <1>   0.0210 
 19 C       -2.5570    -7.0670    -0.4870 C.2   1 <1>   0.1080 
 20 N       -1.3700    -6.9390     0.0200 N.2   1 <1>  -0.7070 
 21 C       -2.9620    -8.3950    -0.5550 C.2   1 <1>  -0.1500 
 22 N       -0.9740    -8.2040     0.2800 N.pl3 1 <1>   0.3000 
 23 C       -1.9260    -9.0990    -0.0550 C.2   1 <1>  -0.3320 
 24 C       -1.7810   -10.6010     0.1200 C.3   1 <1>  -0.0600 
 25 H       -2.7520     2.2410     1.2050 H     1 <1>   0.1500 
 26 H       -3.6040    -0.1940     1.7150 H     1 <1>   0.1500 
 27 H       -0.8800    -2.5670     1.7510 H     1 <1>   0.0800 
 28 H       -0.9260    -2.5720     0.0070 H     1 <1>   0.0800 
 29 H       -1.1150     4.0870     0.4840 H     1 <1>   0.1500 
 30 H       -3.3340    -2.6310     1.7200 H     1 <1>   0.4500 
 31 H        2.5980     3.2780    -1.2570 H     1 <1>   0.2700 
 32 H        1.0970     5.2200    -0.5940 H     1 <1>   0.1500 
 33 H       -4.0840    -1.7380    -0.2610 H     1 <1>   0.0800 
 34 H       -3.0360    -2.8190    -1.1770 H     1 <1>   0.0800 
 35 H       -1.7600    -4.7900     0.6200 H     1 <1>   0.0800 
 36 H       -2.7390    -4.7550     2.0720 H     1 <1>   0.0800 
 37 H       -5.2080    -3.9570    -1.1480 H     1 <1>   0.0800 
 38 H       -4.4650    -5.6770     0.8820 H     1 <1>   0.0800 
 39 H       -6.3470    -4.1100     0.7880 H     1 <1>   0.4000 
 40 H       -2.7820    -5.2900    -1.6130 H     1 <1>   0.0800 
 41 H       -4.2280    -6.2500    -1.5060 H     1 <1>   0.0800 
 42 H       -3.9000    -8.7630    -0.9320 H     1 <1>   0.1500 
 43 H       -0.0530    -8.4280     0.6780 H     1 <1>   0.2700 
 44 H       -2.6700   -11.1010    -0.2230 H     1 <1>   0.0800 
 45 H       -1.6300   -10.8440     1.1570 H     1 <1>   0.0800 
 46 H       -0.9450   -10.9640    -0.4510 H     1 <1>   0.0800 
@<TRIPOS>BOND
  1   1   2  1   
  2   1   3  1   
  3   2   4  1   
  4   2   5  2   
  5   3   6  2   
  6   3   7  1   
  7   4   8  2   
  8   4   9  1   
  9   5   6  1   
 10   5  25  1   
 11   6  26  1   
 12   7  10  1   
 13   7  27  1   
 14   7  28  1   
 15   8  11  1   
 16   9  12  2   
 17   9  29  1   
 18  10  13  1   
 19  10  14  1   
 20  10  30  1   
 21  11  12  1   
 22  11  31  1   
 23  12  32  1   
 24  13  15  1   
 25  13  33  1   
 26  13  34  1   
 27  14  16  1   
 28  14  35  1   
 29  14  36  1   
 30  15  16  1   
 31  15  17  1   
 32  15  37  1   
 33  16  18  1   
 34  16  38  1   
 35  17  39  1   
 36  18  19  1   
 37  18  40  1   
 38  18  41  1   
 39  19  20  2   
 40  19  21  1   
 41  20  22  1   
 42  21  23  2   
 43  21  42  1   
 44  22  23  1   
 45  22  43  1   
 46  23  24  1   
 47  24  44  1   
 48  24  45  1   
 49  24  46  1   
@<TRIPOS>SUBSTRUCTURE
  1 ****   7 GROUP 4 **** **** 0

# MOE 2024.06 (io_trps.svl 2023.06)
