@<TRIPOS>MOLECULE
NONAME
59 61 1 0 0 
SMALL
USER_CHARGES


@<TRIPOS>ATOM
  1 S        0.6050    -0.1540     1.0500 S.o2  1 <1>   1.3330 
  2 O        1.9860     0.2710     1.1300 O.2   1 <1>  -0.6500 
  3 O        0.0800    -1.1390     1.9620 O.2   1 <1>  -0.6500 
  4 N        0.3260    -0.6810    -0.5380 N.am  1 <1>  -0.8490 
  5 C       -0.3900     1.3410     1.1490 C.3   1 <1>  -0.0550 
  6 C       -0.9510    -1.3950    -0.6890 C.3   1 <1>   0.1160 
  7 C        1.4060    -1.5540    -1.0160 C.3   1 <1>   0.1160 
  8 C       -0.0200     2.3980     0.0790 C.3   1 <1>  -0.0800 
  9 C       -0.8290     3.6980     0.1060 C.3   1 <1>   0.2000 
 10 C        1.4440     2.8590     0.1670 C.3   1 <1>   0.3430 
 11 O       -1.0070     4.0970     1.4280 O.3   1 <1>  -0.6800 
 12 C        0.1380     4.6940    -0.5340 C.3   1 <1>   0.3430 
 13 N        1.4390     4.3540     0.1150 N.4   1 <1>  -0.9590 
 14 C        2.6760     4.9800    -0.4260 C.3   1 <1>   0.4230 
 15 C        3.8870     4.5310     0.4050 C.3   1 <1>  -0.1600 
 16 C        2.5500     6.5070    -0.3910 C.3   1 <1>  -0.1600 
 17 C        5.1700     5.2340    -0.0350 C.3   1 <1>   0.3430 
 18 C        3.8480     7.1890    -0.8220 C.3   1 <1>   0.3430 
 19 N        4.9800     6.7070     0.0210 N.4   1 <1>  -0.9590 
 20 C        6.2470     7.4220    -0.3220 C.3   1 <1>   0.4860 
 21 C        6.0580     8.8920    -0.0110 C.ar  1 <1>  -0.1430 
 22 C        6.0260     9.3310     1.3060 C.ar  1 <1>  -0.1500 
 23 C        5.9040     9.8090    -1.0410 C.ar  1 <1>  -0.1500 
 24 C        5.8230    10.6700     1.5870 C.ar  1 <1>  -0.1500 
 25 C        5.7020    11.1480    -0.7560 C.ar  1 <1>  -0.1500 
 26 C        5.6580    11.5780     0.5570 C.ar  1 <1>  -0.1500 
 27 H       -1.4240     1.0780     1.0410 H     1 <1>   0.0800 
 28 H       -0.2660     1.7600     2.1300 H     1 <1>   0.0800 
 29 H       -1.1100    -1.6550    -1.7220 H     1 <1>   0.0800 
 30 H       -1.7700    -0.7760    -0.3670 H     1 <1>   0.0800 
 31 H       -0.9510    -2.2980    -0.1000 H     1 <1>   0.0800 
 32 H        1.2140    -1.8700    -2.0280 H     1 <1>   0.0800 
 33 H        1.4910    -2.4260    -0.3860 H     1 <1>   0.0800 
 34 H        2.3460    -1.0290    -1.0010 H     1 <1>   0.0800 
 35 H       -0.1520     1.9500    -0.8920 H     1 <1>   0.0800 
 36 H       -1.7830     3.6460    -0.3910 H     1 <1>   0.0800 
 37 H        2.0020     2.4420    -0.6570 H     1 <1>   0.0800 
 38 H        1.8940     2.5310     1.0900 H     1 <1>   0.0800 
 39 H       -1.8450     3.7440     1.8010 H     1 <1>   0.4000 
 40 H       -0.1670     5.7080    -0.3360 H     1 <1>   0.0800 
 41 H        0.1910     4.5250    -1.5980 H     1 <1>   0.0800 
 42 H        1.2930     4.6500     1.0950 H     1 <1>   0.4500 
 43 H        2.8160     4.6630    -1.4490 H     1 <1>   0.0800 
 44 H        3.7220     4.7310     1.4490 H     1 <1>   0.0800 
 45 H        4.0460     3.4730     0.2890 H     1 <1>   0.0800 
 46 H        1.7760     6.8300    -1.0630 H     1 <1>   0.0800 
 47 H        2.2950     6.8420     0.6000 H     1 <1>   0.0800 
 48 H        5.4220     4.9360    -1.0410 H     1 <1>   0.0800 
 49 H        5.9810     4.9400     0.6150 H     1 <1>   0.0800 
 50 H        3.7390     8.2590    -0.7170 H     1 <1>   0.0800 
 51 H        4.0490     6.9760    -1.8600 H     1 <1>   0.0800 
 52 H        4.7860     6.9950     0.9910 H     1 <1>   0.4500 
 53 H        7.0660     7.0390     0.2670 H     1 <1>   0.0800 
 54 H        6.4860     7.2920    -1.3660 H     1 <1>   0.0800 
 55 H        6.1630     8.6500     2.1280 H     1 <1>   0.1500 
 56 H        5.9420     9.5040    -2.0740 H     1 <1>   0.1500 
 57 H        5.7980    11.0130     2.6090 H     1 <1>   0.1500 
 58 H        5.5820    11.8620    -1.5550 H     1 <1>   0.1500 
 59 H        5.5020    12.6210     0.7780 H     1 <1>   0.1500 
@<TRIPOS>BOND
  1   1   2  2   
  2   1   3  2   
  3   1   4  am  
  4   1   5  1   
  5   4   6  1   
  6   4   7  1   
  7   5   8  1   
  8   5  27  1   
  9   5  28  1   
 10   6  29  1   
 11   6  30  1   
 12   6  31  1   
 13   7  32  1   
 14   7  33  1   
 15   7  34  1   
 16   8   9  1   
 17   8  10  1   
 18   8  35  1   
 19   9  11  1   
 20   9  12  1   
 21   9  36  1   
 22  10  13  1   
 23  10  37  1   
 24  10  38  1   
 25  11  39  1   
 26  12  13  1   
 27  12  40  1   
 28  12  41  1   
 29  13  14  1   
 30  13  42  1   
 31  14  15  1   
 32  14  16  1   
 33  14  43  1   
 34  15  17  1   
 35  15  44  1   
 36  15  45  1   
 37  16  18  1   
 38  16  46  1   
 39  16  47  1   
 40  17  19  1   
 41  17  48  1   
 42  17  49  1   
 43  18  19  1   
 44  18  50  1   
 45  18  51  1   
 46  19  20  1   
 47  19  52  1   
 48  20  21  1   
 49  20  53  1   
 50  20  54  1   
 51  21  22  ar  
 52  21  23  ar  
 53  22  24  ar  
 54  22  55  1   
 55  23  25  ar  
 56  23  56  1   
 57  24  26  ar  
 58  24  57  1   
 59  25  26  ar  
 60  25  58  1   
 61  26  59  1   
@<TRIPOS>SUBSTRUCTURE
  1 ****  14 GROUP 4 **** **** 0

# MOE 2024.06 (io_trps.svl 2023.06)
