@<TRIPOS>MOLECULE
NONAME
16 17 1 0 0 
SMALL
USER_CHARGES


@<TRIPOS>ATOM
  1 N        4.3640     2.1890    -1.0680 N.2   1 <1>  -0.2500 
  2 N        5.6680     2.1880    -1.0450 N.2   1 <1>  -0.2500 
  3 N        3.9440     1.1540    -0.4340 N.2   1 <1>  -0.6190 
  4 N        6.0920     1.1520    -0.3970 N.2   1 <1>  -0.6190 
  5 C        5.0080     0.5630    -0.0480 C.2   1 <1>   0.5880 
  6 C        4.9940    -0.7430     0.6520 C.3   1 <1>   0.1490 
  7 C        6.0490    -1.6550     0.0220 C.3   1 <1>   0.4720 
  8 C        3.9550    -1.6500    -0.0120 C.3   1 <1>   0.4720 
  9 N        5.0010    -2.7290    -0.0660 N.4   1 <1>  -0.8440 
 10 H        4.9770    -0.7280     1.7280 H     1 <1>   0.0000 
 11 H        6.8530    -1.9250     0.6810 H     1 <1>   0.0000 
 12 H        6.3590    -1.3430    -0.9600 H     1 <1>   0.0000 
 13 H        3.6780    -1.3380    -1.0030 H     1 <1>   0.0000 
 14 H        3.1290    -1.9170     0.6220 H     1 <1>   0.0000 
 15 H        4.9860    -3.3430     0.7520 H     1 <1>   0.4500 
 16 H        5.0140    -3.2190    -0.9670 H     1 <1>   0.4500 
@<TRIPOS>BOND
  1   1   2  2   
  2   1   3  1   
  3   2   4  1   
  4   3   5  1   
  5   4   5  2   
  6   5   6  1   
  7   6   7  1   
  8   6   8  1   
  9   6  10  1   
 10   7   9  1   
 11   7  11  1   
 12   7  12  1   
 13   8   9  1   
 14   8  13  1   
 15   8  14  1   
 16   9  15  1   
 17   9  16  1   
@<TRIPOS>SUBSTRUCTURE
  1 ****   5 GROUP 4 **** **** 0

# MOE 2024.06 (io_trps.svl 2023.06)
