@<TRIPOS>MOLECULE
NONAME
53 56 1 0 0 
SMALL
USER_CHARGES


@<TRIPOS>ATOM
  1 S        1.5670    -0.1080     1.0260 S.3   1 <1>  -0.0800 
  2 C        0.9880    -1.2980    -0.1190 C.2   1 <1>   0.1980 
  3 C        0.6750    -0.9130     2.2730 C.2   1 <1>  -0.1100 
  4 N        0.2200    -2.1730     0.3930 N.2   1 <1>  -0.5650 
  5 C        1.4350    -1.1910    -1.5740 C.3   1 <1>   0.1000 
  6 C        0.0130    -1.9810     1.7730 C.2   1 <1>   0.1410 
  7 C        2.9560    -1.3440    -1.7080 C.3   1 <1>  -0.2400 
  8 C        0.9650     0.1220    -2.2140 C.3   1 <1>  -0.2400 
  9 C       -0.8120    -2.8790     2.5830 C.2   1 <1>   0.7160 
 10 O       -0.5540    -2.9830     3.7710 O.2   1 <1>  -0.5700 
 11 N       -1.8810    -3.6070     2.0890 N.am  1 <1>  -0.6600 
 12 C       -2.6070    -3.2960     0.8300 C.3   1 <1>   0.1400 
 13 C       -2.3750    -4.8380     2.7610 C.3   1 <1>   0.1400 
 14 C       -2.4050    -4.4490    -0.1550 C.3   1 <1>  -0.1600 
 15 C       -2.1870    -6.0280     1.8150 C.3   1 <1>  -0.1600 
 16 C       -2.8530    -5.7990     0.4440 C.3   1 <1>   0.4240 
 17 O       -4.2230    -5.6680     0.7600 O.3   1 <1>  -0.5600 
 18 C       -2.5990    -6.9930    -0.5220 C.ar  1 <1>  -0.1430 
 19 C       -5.1480    -5.8900    -0.2530 C.3   1 <1>   0.1200 
 20 C       -1.3100    -7.3590    -0.9330 C.ar  1 <1>   0.0830 
 21 C       -3.6760    -7.7310    -1.0120 C.ar  1 <1>  -0.1430 
 22 C       -5.0940    -7.3630    -0.6260 C.3   1 <1>  -0.0170 
 23 O       -0.2490    -6.6360    -0.4870 O.3   1 <1>  -0.3630 
 24 C       -1.1260    -8.4430    -1.7890 C.ar  1 <1>  -0.1500 
 25 C       -3.4810    -8.8070    -1.8620 C.ar  1 <1>  -0.1500 
 26 C        1.0760    -6.8690    -0.9100 C.3   1 <1>   0.0400 
 27 C       -2.2070    -9.1650    -2.2500 C.ar  1 <1>  -0.1500 
 28 H        0.7260    -0.5230     3.2730 H     1 <1>   0.1500 
 29 H        0.9720    -2.0040    -2.1060 H     1 <1>   0.0800 
 30 H        3.4660    -0.5330    -1.2200 H     1 <1>   0.0800 
 31 H        3.2400    -1.3560    -2.7450 H     1 <1>   0.0800 
 32 H        3.2700    -2.2690    -1.2560 H     1 <1>   0.0800 
 33 H        1.4300     0.9670    -1.7390 H     1 <1>   0.0800 
 34 H       -0.1020     0.2150    -2.1140 H     1 <1>   0.0800 
 35 H        1.2120     0.1360    -3.2600 H     1 <1>   0.0800 
 36 H       -2.2670    -2.3710     0.4020 H     1 <1>   0.0800 
 37 H       -3.6550    -3.1850     1.0510 H     1 <1>   0.0800 
 38 H       -3.4170    -4.7160     3.0040 H     1 <1>   0.0800 
 39 H       -1.8370    -5.0180     3.6760 H     1 <1>   0.0800 
 40 H       -1.3630    -4.4780    -0.4050 H     1 <1>   0.0800 
 41 H       -2.9350    -4.2540    -1.0670 H     1 <1>   0.0800 
 42 H       -2.5970    -6.9160     2.2590 H     1 <1>   0.0800 
 43 H       -1.1330    -6.1880     1.7070 H     1 <1>   0.0800 
 44 H       -4.9150    -5.2640    -1.0960 H     1 <1>   0.0800 
 45 H       -6.1210    -5.6310     0.1250 H     1 <1>   0.0800 
 46 H       -5.7640    -7.5430    -1.4470 H     1 <1>   0.0800 
 47 H       -5.4100    -7.9580     0.2110 H     1 <1>   0.0800 
 48 H       -0.1480    -8.7440    -2.1090 H     1 <1>   0.1500 
 49 H       -4.3220    -9.3710    -2.2260 H     1 <1>   0.1500 
 50 H        1.7070    -6.1360    -0.4410 H     1 <1>   0.0800 
 51 H        1.1250    -6.7630    -1.9790 H     1 <1>   0.0800 
 52 H        1.3720    -7.8560    -0.6030 H     1 <1>   0.0800 
 53 H       -2.0590   -10.0020    -2.9090 H     1 <1>   0.1500 
@<TRIPOS>BOND
  1   1   2  1   
  2   1   3  1   
  3   2   4  2   
  4   2   5  1   
  5   3   6  2   
  6   3  28  1   
  7   4   6  1   
  8   5   7  1   
  9   5   8  1   
 10   5  29  1   
 11   6   9  1   
 12   7  30  1   
 13   7  31  1   
 14   7  32  1   
 15   8  33  1   
 16   8  34  1   
 17   8  35  1   
 18   9  10  2   
 19   9  11  am  
 20  11  12  1   
 21  11  13  1   
 22  12  14  1   
 23  12  36  1   
 24  12  37  1   
 25  13  15  1   
 26  13  38  1   
 27  13  39  1   
 28  14  16  1   
 29  14  40  1   
 30  14  41  1   
 31  15  16  1   
 32  15  42  1   
 33  15  43  1   
 34  16  17  1   
 35  16  18  1   
 36  17  19  1   
 37  18  20  ar  
 38  18  21  ar  
 39  19  22  1   
 40  19  44  1   
 41  19  45  1   
 42  20  23  1   
 43  20  24  ar  
 44  21  22  1   
 45  21  25  ar  
 46  22  46  1   
 47  22  47  1   
 48  23  26  1   
 49  24  27  ar  
 50  24  48  1   
 51  25  27  ar  
 52  25  49  1   
 53  26  50  1   
 54  26  51  1   
 55  26  52  1   
 56  27  53  1   
@<TRIPOS>SUBSTRUCTURE
  1 ****  14 GROUP 4 **** **** 0

# MOE 2024.06 (io_trps.svl 2023.06)
