@<TRIPOS>MOLECULE
NONAME
39 40 1 0 0 
SMALL
USER_CHARGES


@<TRIPOS>ATOM
  1 S       -0.2960    -0.3650     0.9700 S.3   1 <1>  -0.4600 
  2 C       -1.6040    -0.6840    -0.2380 C.3   1 <1>   0.0700 
  3 C        0.6750     1.0760     0.3840 C.3   1 <1>   0.0700 
  4 C       -2.8090     0.1900     0.1560 C.3   1 <1>   0.4230 
  5 C       -0.0150     1.9220    -0.6960 C.3   1 <1>   0.0700 
  6 N       -4.0900    -0.5670     0.0630 N.4   1 <1>  -0.9060 
  7 C       -2.8640     1.4710    -0.6870 C.3   1 <1>   0.0700 
  8 S       -1.5870     2.6050    -0.0820 S.3   1 <1>  -0.4600 
  9 C       -4.2450    -1.5810     1.1270 C.3   1 <1>   0.5240 
 10 C       -5.5540    -2.2660     0.8440 C.2   1 <1>  -0.1810 
 11 C       -6.7850    -1.9250     1.3920 C.2   1 <1>   0.1390 
 12 C       -5.8190    -3.3090     0.0250 C.2   1 <1>  -0.3020 
 13 N       -7.7360    -2.6790     0.9440 N.2   1 <1>  -0.7070 
 14 N       -7.1450    -3.5480     0.1060 N.pl3 1 <1>   0.3140 
 15 C       -7.9080    -4.6050    -0.5900 C.3   1 <1>   0.0960 
 16 C       -7.7290    -5.9620     0.1070 C.3   1 <1>  -0.1600 
 17 C       -8.5140    -7.0640    -0.6120 C.3   1 <1>  -0.2400 
 18 H       -1.8180    -1.7340    -0.1550 H     1 <1>   0.0800 
 19 H       -1.2200    -0.4760    -1.2200 H     1 <1>   0.0800 
 20 H        1.6030     0.6820     0.0080 H     1 <1>   0.0800 
 21 H        0.8840     1.6770     1.2520 H     1 <1>   0.0800 
 22 H       -2.6780     0.4930     1.1830 H     1 <1>   0.0800 
 23 H       -0.2030     1.3710    -1.5990 H     1 <1>   0.0800 
 24 H        0.6020     2.7700    -0.9370 H     1 <1>   0.0800 
 25 H       -4.1960    -1.0430    -0.8400 H     1 <1>   0.4500 
 26 H       -4.8900     0.0700     0.1440 H     1 <1>   0.4500 
 27 H       -3.7960     1.9900    -0.5530 H     1 <1>   0.0800 
 28 H       -2.6810     1.2970    -1.7330 H     1 <1>   0.0800 
 29 H       -4.2630    -1.1200     2.1020 H     1 <1>   0.0800 
 30 H       -3.4420    -2.3010     1.0930 H     1 <1>   0.0800 
 31 H       -6.9620    -1.1360     2.1050 H     1 <1>   0.1500 
 32 H       -5.1700    -3.9010    -0.5960 H     1 <1>   0.1500 
 33 H       -7.5700    -4.6600    -1.6080 H     1 <1>   0.0800 
 34 H       -8.9470    -4.3270    -0.5880 H     1 <1>   0.0800 
 35 H       -8.0790    -5.8850     1.1230 H     1 <1>   0.0800 
 36 H       -6.6860    -6.2280     0.1240 H     1 <1>   0.0800 
 37 H       -9.5650    -6.8330    -0.6210 H     1 <1>   0.0800 
 38 H       -8.3790    -8.0020    -0.1020 H     1 <1>   0.0800 
 39 H       -8.1730    -7.1760    -1.6260 H     1 <1>   0.0800 
@<TRIPOS>BOND
  1   1   2  1   
  2   1   3  1   
  3   2   4  1   
  4   2  18  1   
  5   2  19  1   
  6   3   5  1   
  7   3  20  1   
  8   3  21  1   
  9   4   6  1   
 10   4   7  1   
 11   4  22  1   
 12   5   8  1   
 13   5  23  1   
 14   5  24  1   
 15   6   9  1   
 16   6  25  1   
 17   6  26  1   
 18   7   8  1   
 19   7  27  1   
 20   7  28  1   
 21   9  10  1   
 22   9  29  1   
 23   9  30  1   
 24  10  11  1   
 25  10  12  2   
 26  11  13  2   
 27  11  31  1   
 28  12  14  1   
 29  12  32  1   
 30  13  14  1   
 31  14  15  1   
 32  15  16  1   
 33  15  33  1   
 34  15  34  1   
 35  16  17  1   
 36  16  35  1   
 37  16  36  1   
 38  17  37  1   
 39  17  38  1   
 40  17  39  1   
@<TRIPOS>SUBSTRUCTURE
  1 ****   9 GROUP 4 **** **** 0

# MOE 2024.06 (io_trps.svl 2023.06)
