@<TRIPOS>MOLECULE
NONAME
44 46 1 0 0 
SMALL
USER_CHARGES


@<TRIPOS>ATOM
  1 CL       0.1510    -2.2010     3.5880 Cl    1 <1>  -0.1770 
  2 C       -0.8730    -3.0550     2.4650 C.ar  1 <1>   0.1770 
  3 C       -1.1390    -2.5000     1.2280 C.ar  1 <1>  -0.1500 
  4 C       -1.4070    -4.2780     2.8220 C.ar  1 <1>  -0.1500 
  5 C       -1.9530    -3.1820     0.3420 C.ar  1 <1>  -0.1500 
  6 C       -2.2170    -4.9510     1.9260 C.ar  1 <1>  -0.1500 
  7 C       -2.5140    -4.4200     0.6690 C.ar  1 <1>   0.0530 
  8 C       -3.3620    -5.1110    -0.2720 C.2   1 <1>   0.0870 
  9 O       -3.1930    -4.9370    -1.5610 O.3   1 <1>  -0.0190 
 10 C       -4.4000    -5.9720    -0.1310 C.2   1 <1>  -0.2330 
 11 N       -4.0410    -5.6250    -2.2820 N.2   1 <1>  -0.4100 
 12 C       -4.7740    -6.2660    -1.4430 C.2   1 <1>   0.3720 
 13 C       -5.0280    -6.4910     1.0320 C.2   1 <1>   1.0330 
 14 N       -5.8120    -7.1050    -1.8760 N.pl3 1 <1>  -0.8210 
 15 O       -4.5060    -7.4020     1.6950 O.co2 1 <1>  -0.9000 
 16 O       -6.1930    -6.1940     1.3460 O.co2 1 <1>  -0.9000 
 17 C       -5.9420    -8.4480    -1.2590 C.3   1 <1>   0.2090 
 18 C       -7.1310    -6.4400    -1.9460 C.3   1 <1>   0.2090 
 19 C       -7.4300    -8.6410    -0.9580 C.3   1 <1>  -0.0800 
 20 C       -8.0680    -7.2520    -1.0620 C.3   1 <1>  -0.1600 
 21 C       -7.7100    -9.4120     0.3460 C.3   1 <1>   0.3430 
 22 N       -7.3250    -8.6710     1.5790 N.4   1 <1>  -0.9590 
 23 C       -6.3620    -9.4110     2.4400 C.3   1 <1>   0.2630 
 24 C       -8.4690    -8.1450     2.3640 C.3   1 <1>   0.2630 
 25 H       -0.7130    -1.5480     0.9670 H     1 <1>   0.1500 
 26 H       -1.1890    -4.6970     3.7880 H     1 <1>   0.1500 
 27 H       -2.1640    -2.7510    -0.6220 H     1 <1>   0.1500 
 28 H       -2.6210    -5.9080     2.2080 H     1 <1>   0.1500 
 29 H       -5.3370    -8.5340    -0.3760 H     1 <1>   0.0800 
 30 H       -5.6020    -9.1890    -1.9620 H     1 <1>   0.0800 
 31 H       -7.4670    -6.4540    -2.9690 H     1 <1>   0.0800 
 32 H       -7.0710    -5.4170    -1.6100 H     1 <1>   0.0800 
 33 H       -7.8200    -9.2340    -1.7660 H     1 <1>   0.0800 
 34 H       -9.0570    -7.2880    -1.4820 H     1 <1>   0.0800 
 35 H       -8.1250    -6.7600    -0.1100 H     1 <1>   0.0800 
 36 H       -7.1700   -10.3440     0.3100 H     1 <1>   0.0800 
 37 H       -8.7600    -9.6470     0.3900 H     1 <1>   0.0800 
 38 H       -6.7910    -7.7970     1.3090 H     1 <1>   0.4500 
 39 H       -6.8100   -10.3030     2.8420 H     1 <1>   0.0800 
 40 H       -6.0390    -8.7740     3.2490 H     1 <1>   0.0800 
 41 H       -5.4850    -9.6710     1.8690 H     1 <1>   0.0800 
 42 H       -9.0490    -8.9520     2.7780 H     1 <1>   0.0800 
 43 H       -9.0990    -7.5380     1.7360 H     1 <1>   0.0800 
 44 H       -8.0990    -7.5250     3.1650 H     1 <1>   0.0800 
@<TRIPOS>BOND
  1   1   2  1   
  2   2   3  ar  
  3   2   4  ar  
  4   3   5  ar  
  5   3  25  1   
  6   4   6  ar  
  7   4  26  1   
  8   5   7  ar  
  9   5  27  1   
 10   6   7  ar  
 11   6  28  1   
 12   7   8  1   
 13   8   9  1   
 14   8  10  2   
 15   9  11  1   
 16  10  12  1   
 17  10  13  1   
 18  11  12  2   
 19  12  14  1   
 20  13  15  ar  
 21  13  16  ar  
 22  14  17  1   
 23  14  18  1   
 24  17  19  1   
 25  17  29  1   
 26  17  30  1   
 27  18  20  1   
 28  18  31  1   
 29  18  32  1   
 30  19  20  1   
 31  19  21  1   
 32  19  33  1   
 33  20  34  1   
 34  20  35  1   
 35  21  22  1   
 36  21  36  1   
 37  21  37  1   
 38  22  23  1   
 39  22  24  1   
 40  22  38  1   
 41  23  39  1   
 42  23  40  1   
 43  23  41  1   
 44  24  42  1   
 45  24  43  1   
 46  24  44  1   
@<TRIPOS>SUBSTRUCTURE
  1 ****  10 GROUP 4 **** **** 0

# MOE 2024.06 (io_trps.svl 2023.06)
