@<TRIPOS>MOLECULE
NONAME
46 49 1 0 0 
SMALL
USER_CHARGES


@<TRIPOS>ATOM
  1 O        0.2800    -0.2330    -1.3520 O.2   1 <1>  -0.5700 
  2 C        1.1490    -0.7200    -0.6540 C.2   1 <1>   0.5440 
  3 N        2.0850     0.0920    -0.0550 N.am  1 <1>  -0.4940 
  4 C        1.2030    -2.1520    -0.4380 C.ar  1 <1>   0.0860 
  5 C        2.2080     1.5020    -0.0890 C.2   1 <1>  -0.0880 
  6 C        0.0410    -2.9070    -0.3980 C.ar  1 <1>  -0.1500 
  7 C        2.4350    -2.8230    -0.2570 C.ar  1 <1>  -0.1500 
  8 N        3.3740     2.1660    -0.3140 N.pl3 1 <1>   0.3140 
  9 C        1.2630     2.4550     0.0950 C.2   1 <1>  -0.1810 
 10 C        0.0870    -4.2810    -0.1630 C.ar  1 <1>   0.0000 
 11 C        2.4990    -4.1760    -0.0260 C.ar  1 <1>  -0.1500 
 12 N        3.2030     3.5060    -0.2700 N.2   1 <1>  -0.7070 
 13 C        4.6860     1.5770    -0.6500 C.3   1 <1>   0.0960 
 14 C        1.9380     3.6630    -0.0310 C.2   1 <1>   0.1390 
 15 C       -0.2190     2.2950     0.3810 C.3   1 <1>  -0.0590 
 16 C        1.3130    -4.9100     0.0250 C.ar  1 <1>  -0.1520 
 17 C       -0.8910    -5.2930    -0.0580 C.2   1 <1>  -0.1810 
 18 C        5.4530     1.1640     0.6130 C.3   1 <1>  -0.2400 
 19 N        1.0900    -6.2470     0.2360 N.pl3 1 <1>   0.0330 
 20 C       -0.2580    -6.4620     0.1760 C.2   1 <1>  -0.3320 
 21 C       -2.3950    -5.1520    -0.1830 C.3   1 <1>   0.0210 
 22 C       -0.9440    -7.8030     0.3520 C.3   1 <1>   0.0200 
 23 C       -3.0930    -6.4140     0.3590 C.3   1 <1>  -0.1600 
 24 C       -2.4060    -7.7080    -0.1240 C.3   1 <1>  -0.1600 
 25 H        2.7420    -0.3910     0.5550 H     1 <1>   0.3700 
 26 H       -0.9140    -2.4380    -0.5480 H     1 <1>   0.1500 
 27 H        3.3490    -2.2620    -0.3150 H     1 <1>   0.1500 
 28 H        3.4420    -4.6770     0.1100 H     1 <1>   0.1500 
 29 H        5.2490     2.3120    -1.1970 H     1 <1>   0.0800 
 30 H        4.5250     0.7290    -1.2900 H     1 <1>   0.0800 
 31 H        1.4720     4.6300     0.0600 H     1 <1>   0.1500 
 32 H       -0.4110     1.3330     0.8210 H     1 <1>   0.0800 
 33 H       -0.7720     2.3670    -0.5380 H     1 <1>   0.0800 
 34 H       -0.5540     3.0590     1.0580 H     1 <1>   0.0800 
 35 H        5.6150     2.0260     1.2380 H     1 <1>   0.0800 
 36 H        6.4100     0.7570     0.3410 H     1 <1>   0.0800 
 37 H        4.9070     0.4230     1.1660 H     1 <1>   0.0800 
 38 H        1.8110    -6.9550     0.3990 H     1 <1>   0.2700 
 39 H       -2.6400    -5.0140    -1.2210 H     1 <1>   0.0800 
 40 H       -2.7290    -4.2880     0.3640 H     1 <1>   0.0800 
 41 H       -0.9180    -8.0740     1.3930 H     1 <1>   0.0800 
 42 H       -0.4310    -8.5620    -0.2130 H     1 <1>   0.0800 
 43 H       -4.1250    -6.4100     0.0540 H     1 <1>   0.0800 
 44 H       -3.0660    -6.3890     1.4350 H     1 <1>   0.0800 
 45 H       -2.9510    -8.5660     0.2260 H     1 <1>   0.0800 
 46 H       -2.4200    -7.7230    -1.2010 H     1 <1>   0.0800 
@<TRIPOS>BOND
  1   1   2  2   
  2   2   3  am  
  3   2   4  1   
  4   3   5  1   
  5   3  25  1   
  6   4   6  ar  
  7   4   7  ar  
  8   5   8  1   
  9   5   9  2   
 10   6  10  ar  
 11   6  26  1   
 12   7  11  ar  
 13   7  27  1   
 14   8  12  1   
 15   8  13  1   
 16   9  14  1   
 17   9  15  1   
 18  10  16  ar  
 19  10  17  1   
 20  11  16  ar  
 21  11  28  1   
 22  12  14  2   
 23  13  18  1   
 24  13  29  1   
 25  13  30  1   
 26  14  31  1   
 27  15  32  1   
 28  15  33  1   
 29  15  34  1   
 30  16  19  1   
 31  17  20  2   
 32  17  21  1   
 33  18  35  1   
 34  18  36  1   
 35  18  37  1   
 36  19  20  1   
 37  19  38  1   
 38  20  22  1   
 39  21  23  1   
 40  21  39  1   
 41  21  40  1   
 42  22  24  1   
 43  22  41  1   
 44  22  42  1   
 45  23  24  1   
 46  23  43  1   
 47  23  44  1   
 48  24  45  1   
 49  24  46  1   
@<TRIPOS>SUBSTRUCTURE
  1 ****   4 GROUP 4 **** **** 0

# MOE 2024.06 (io_trps.svl 2023.06)
