@<TRIPOS>MOLECULE
NONAME
48 50 1 0 0 
SMALL
USER_CHARGES


@<TRIPOS>ATOM
  1 CL      -1.8790     0.0300     2.1050 Cl    1 <1>  -0.1770 
  2 C       -1.9770     1.1970     0.7970 C.ar  1 <1>   0.1770 
  3 C       -1.3140     2.4140     0.9050 C.ar  1 <1>   0.0830 
  4 C       -2.7280     0.8880    -0.3270 C.ar  1 <1>  -0.1440 
  5 O       -0.5960     2.7100     2.0040 O.3   1 <1>  -0.5320 
  6 C       -1.3980     3.3320    -0.1280 C.ar  1 <1>  -0.1500 
  7 C       -2.8040     1.8150    -1.3580 C.ar  1 <1>  -0.1500 
  8 C       -3.4520    -0.4410    -0.4250 C.3   1 <1>   0.4860 
  9 C       -2.1420     3.0290    -1.2560 C.ar  1 <1>  -0.1500 
 10 N       -4.5240    -0.4970     0.6060 N.4   1 <1>  -0.9590 
 11 C       -5.0110    -1.9130     0.7610 C.3   1 <1>   0.3430 
 12 C       -5.5880     0.5210     0.3220 C.3   1 <1>   0.3430 
 13 C       -6.1380    -2.1030     1.7970 C.3   1 <1>   0.1400 
 14 C       -6.3550     0.8630     1.6010 C.3   1 <1>  -0.1600 
 15 N       -7.3790    -1.4120     1.3490 N.am  1 <1>  -0.6600 
 16 C       -7.5830    -0.0230     1.8390 C.3   1 <1>   0.1400 
 17 C       -8.0360    -1.8460     0.2190 C.2   1 <1>   0.5440 
 18 O       -8.1700    -1.0530    -0.6910 O.2   1 <1>  -0.5700 
 19 C       -8.4670    -3.2210     0.0700 C.ar  1 <1>   0.0860 
 20 C       -8.5040    -3.8160    -1.1900 C.ar  1 <1>   0.1600 
 21 C       -8.8480    -4.0110     1.1470 C.ar  1 <1>  -0.1500 
 22 N       -8.8270    -5.0730    -1.4430 N.ar  1 <1>  -0.6200 
 23 C       -9.2040    -5.3190     0.9000 C.ar  1 <1>  -0.1500 
 24 C       -9.1740    -5.8030    -0.3980 C.ar  1 <1>   0.1670 
 25 C       -9.5550    -7.2390    -0.6910 C.3   1 <1>  -0.0970 
 26 H       -0.1400     3.5710     1.9630 H     1 <1>   0.4500 
 27 H       -0.8900     4.2780    -0.0620 H     1 <1>   0.1500 
 28 H       -3.3730     1.6080    -2.2510 H     1 <1>   0.1500 
 29 H       -2.7400    -1.2350    -0.2600 H     1 <1>   0.0800 
 30 H       -3.8750    -0.5620    -1.4080 H     1 <1>   0.0800 
 31 H       -2.2040     3.7440    -2.0610 H     1 <1>   0.1500 
 32 H       -4.0680    -0.2150     1.4860 H     1 <1>   0.4500 
 33 H       -4.1810    -2.5350     1.0540 H     1 <1>   0.0800 
 34 H       -5.3670    -2.2740    -0.1900 H     1 <1>   0.0800 
 35 H       -6.2630     0.1710    -0.4430 H     1 <1>   0.0800 
 36 H       -5.1270     1.4280    -0.0360 H     1 <1>   0.0800 
 37 H       -5.8310    -1.7370     2.7610 H     1 <1>   0.0800 
 38 H       -6.3380    -3.1560     1.9000 H     1 <1>   0.0800 
 39 H       -6.7090     1.8750     1.5190 H     1 <1>   0.0800 
 40 H       -5.7020     0.8370     2.4550 H     1 <1>   0.0800 
 41 H       -8.4300     0.4060     1.3260 H     1 <1>   0.0800 
 42 H       -7.8250    -0.0440     2.8890 H     1 <1>   0.0800 
 43 H       -8.2440    -3.2100    -2.0410 H     1 <1>   0.1500 
 44 H       -8.8720    -3.6120     2.1460 H     1 <1>   0.1500 
 45 H       -9.5050    -5.9600     1.7100 H     1 <1>   0.1500 
 46 H       -8.7280    -7.7420    -1.1570 H     1 <1>   0.0800 
 47 H      -10.3930    -7.2560    -1.3640 H     1 <1>   0.0800 
 48 H       -9.8200    -7.7630     0.2080 H     1 <1>   0.0800 
@<TRIPOS>BOND
  1   1   2  1   
  2   2   3  ar  
  3   2   4  ar  
  4   3   5  1   
  5   3   6  ar  
  6   4   7  ar  
  7   4   8  1   
  8   5  26  1   
  9   6   9  ar  
 10   6  27  1   
 11   7   9  ar  
 12   7  28  1   
 13   8  10  1   
 14   8  29  1   
 15   8  30  1   
 16   9  31  1   
 17  10  11  1   
 18  10  12  1   
 19  10  32  1   
 20  11  13  1   
 21  11  33  1   
 22  11  34  1   
 23  12  14  1   
 24  12  35  1   
 25  12  36  1   
 26  13  15  1   
 27  13  37  1   
 28  13  38  1   
 29  14  16  1   
 30  14  39  1   
 31  14  40  1   
 32  15  16  1   
 33  15  17  am  
 34  16  41  1   
 35  16  42  1   
 36  17  18  2   
 37  17  19  1   
 38  19  20  ar  
 39  19  21  ar  
 40  20  22  ar  
 41  20  43  1   
 42  21  23  ar  
 43  21  44  1   
 44  22  24  ar  
 45  23  24  ar  
 46  23  45  1   
 47  24  25  1   
 48  25  46  1   
 49  25  47  1   
 50  25  48  1   
@<TRIPOS>SUBSTRUCTURE
  1 ****  11 GROUP 4 **** **** 0

# MOE 2024.06 (io_trps.svl 2023.06)
