@<TRIPOS>MOLECULE
NONAME
46 47 1 0 0 
SMALL
USER_CHARGES


@<TRIPOS>ATOM
  1 S        1.1250     1.6030    -0.3450 S.o2  1 <1>   1.3330 
  2 O        2.3310     2.2650     0.1000 O.2   1 <1>  -0.6500 
  3 O        0.3640     2.2140    -1.4080 O.2   1 <1>  -0.6500 
  4 N        1.4700    -0.0050    -0.7390 N.am  1 <1>  -0.8490 
  5 C        0.0590     1.4800     1.0970 C.3   1 <1>  -0.0550 
  6 C        0.4350    -0.6420    -1.5640 C.3   1 <1>   0.1160 
  7 C        2.7790    -0.1610    -1.3820 C.3   1 <1>   0.1160 
  8 C       -0.3770     2.8220     1.7430 C.3   1 <1>  -0.0800 
  9 C       -1.1600     3.7320     0.7890 C.3   1 <1>   0.2000 
 10 C        0.7970     3.6960     2.1980 C.3   1 <1>   0.3430 
 11 O       -2.1070     4.4270     1.5300 O.3   1 <1>  -0.6800 
 12 C       -0.1380     4.7250     0.2110 C.3   1 <1>   0.3430 
 13 N        1.0900     4.6100     1.0640 N.4   1 <1>  -0.9590 
 14 C        1.7100     5.9080     1.4410 C.3   1 <1>   0.4860 
 15 C        1.9890     6.7170     0.1920 C.ar  1 <1>  -0.1440 
 16 C        2.9340     6.2580    -0.7200 C.ar  1 <1>   0.3920 
 17 C        1.3240     7.8990    -0.0640 C.ar  1 <1>  -0.1500 
 18 O        3.5540     5.0930    -0.4290 O.3   1 <1>  -0.3620 
 19 N        3.2440     6.8780    -1.8500 N.ar  1 <1>  -0.6200 
 20 C        1.6470     8.5540    -1.2340 C.ar  1 <1>  -0.1500 
 21 C        4.4770     4.5100    -1.3320 C.3   1 <1>   0.0400 
 22 C        2.5980     8.0090    -2.0790 C.ar  1 <1>   0.1600 
 23 H       -0.8240     0.9340     0.8230 H     1 <1>   0.0800 
 24 H        0.5670     0.8950     1.8390 H     1 <1>   0.0800 
 25 H        0.6680    -1.6840    -1.7100 H     1 <1>   0.0800 
 26 H        0.3700    -0.1610    -2.5260 H     1 <1>   0.0800 
 27 H       -0.5230    -0.5760    -1.0790 H     1 <1>   0.0800 
 28 H        2.9730    -1.2010    -1.5880 H     1 <1>   0.0800 
 29 H        3.5580     0.2010    -0.7320 H     1 <1>   0.0800 
 30 H        2.8130     0.3930    -2.3060 H     1 <1>   0.0800 
 31 H       -0.9840     2.5670     2.5960 H     1 <1>   0.0800 
 32 H       -1.6840     3.1980     0.0130 H     1 <1>   0.0800 
 33 H        1.6620     3.1030     2.4550 H     1 <1>   0.0800 
 34 H        0.4970     4.2720     3.0580 H     1 <1>   0.0800 
 35 H       -1.7300     4.9060     2.2930 H     1 <1>   0.4000 
 36 H       -0.5430     5.7230     0.2220 H     1 <1>   0.0800 
 37 H        0.1030     4.4580    -0.8050 H     1 <1>   0.0800 
 38 H        1.8160     4.1330     0.4790 H     1 <1>   0.4500 
 39 H        1.0520     6.4600     2.0910 H     1 <1>   0.0800 
 40 H        2.6390     5.7320     1.9600 H     1 <1>   0.0800 
 41 H        0.5870     8.3100     0.6060 H     1 <1>   0.1500 
 42 H        1.1680     9.4820    -1.4950 H     1 <1>   0.1500 
 43 H        4.8250     3.5840    -0.9100 H     1 <1>   0.0800 
 44 H        5.3010     5.1870    -1.4740 H     1 <1>   0.0800 
 45 H        3.9790     4.3250    -2.2680 H     1 <1>   0.0800 
 46 H        2.8410     8.5300    -2.9900 H     1 <1>   0.1500 
@<TRIPOS>BOND
  1   1   2  2   
  2   1   3  2   
  3   1   4  am  
  4   1   5  1   
  5   4   6  1   
  6   4   7  1   
  7   5   8  1   
  8   5  23  1   
  9   5  24  1   
 10   6  25  1   
 11   6  26  1   
 12   6  27  1   
 13   7  28  1   
 14   7  29  1   
 15   7  30  1   
 16   8   9  1   
 17   8  10  1   
 18   8  31  1   
 19   9  11  1   
 20   9  12  1   
 21   9  32  1   
 22  10  13  1   
 23  10  33  1   
 24  10  34  1   
 25  11  35  1   
 26  12  13  1   
 27  12  36  1   
 28  12  37  1   
 29  13  14  1   
 30  13  38  1   
 31  14  15  1   
 32  14  39  1   
 33  14  40  1   
 34  15  16  ar  
 35  15  17  ar  
 36  16  18  1   
 37  16  19  ar  
 38  17  20  ar  
 39  17  41  1   
 40  18  21  1   
 41  19  22  ar  
 42  20  22  ar  
 43  20  42  1   
 44  21  43  1   
 45  21  44  1   
 46  21  45  1   
 47  22  46  1   
@<TRIPOS>SUBSTRUCTURE
  1 ****  13 GROUP 4 **** **** 0

# MOE 2024.06 (io_trps.svl 2023.06)
