@<TRIPOS>MOLECULE
NONAME
47 50 1 0 0 
SMALL
USER_CHARGES


@<TRIPOS>ATOM
  1 S       -0.0900     0.2460     1.6350 S.3   1 <1>  -0.0800 
  2 C        0.6790     1.6860     1.0350 C.2   1 <1>   0.1240 
  3 C        1.1250    -0.7920     0.8590 C.2   1 <1>  -0.0450 
  4 N        0.2500     2.9480     1.2610 N.pl3 1 <1>  -0.5340 
  5 C        1.7810     1.4090     0.2960 C.2   1 <1>  -0.0860 
  6 C        2.0300    -0.0040     0.2100 C.2   1 <1>  -0.1810 
  7 C        1.0040    -2.2180     1.0370 C.2   1 <1>   0.7150 
  8 C        0.9600     3.9790     0.7180 C.2   1 <1>   0.4400 
  9 C        2.4660     2.5470    -0.2450 C.2   1 <1>   0.8670 
 10 C        3.2330    -0.5330    -0.5590 C.3   1 <1>  -0.0590 
 11 O        1.9840    -2.8790     1.3350 O.2   1 <1>  -0.5700 
 12 N       -0.1930    -2.8700     0.8410 N.am  1 <1>  -0.6600 
 13 N        2.0110     3.8250    -0.0010 N.2   1 <1>  -0.6610 
 14 O        3.4630     2.4290    -0.9410 O.2   1 <1>  -0.5700 
 15 C       -1.2660    -2.3740    -0.0610 C.3   1 <1>   0.1400 
 16 C       -0.3780    -4.3210     1.0760 C.3   1 <1>   0.1400 
 17 C       -2.1460    -3.5900    -0.3840 C.3   1 <1>   0.2000 
 18 C       -1.2410    -4.7920    -0.0940 C.3   1 <1>  -0.0800 
 19 O       -3.2350    -3.6260     0.4920 O.3   1 <1>  -0.5600 
 20 C       -1.9890    -6.1090     0.1850 C.3   1 <1>   0.0200 
 21 C       -4.3470    -2.8890     0.0910 C.3   1 <1>   0.0400 
 22 C       -1.0620    -7.3090     0.2980 C.2   1 <1>  -0.0400 
 23 O       -1.5720    -8.4650     0.6290 O.3   1 <1>  -0.0190 
 24 C        0.2580    -7.4810     0.1210 C.2   1 <1>  -0.1500 
 25 N       -0.6670    -9.3990     0.6860 N.2   1 <1>  -0.4100 
 26 C        0.4470    -8.8350     0.3860 C.2   1 <1>   0.1080 
 27 C        1.7770    -9.5510     0.3300 C.3   1 <1>  -0.0590 
 28 H       -0.5770     3.1250     1.8350 H     1 <1>   0.4000 
 29 H        0.5950     4.9730     0.9190 H     1 <1>   0.0600 
 30 H        3.1890    -0.2110    -1.5840 H     1 <1>   0.0800 
 31 H        3.2700    -1.6070    -0.5430 H     1 <1>   0.0800 
 32 H        4.1410    -0.1580    -0.1200 H     1 <1>   0.0800 
 33 H       -1.8400    -1.5990     0.4150 H     1 <1>   0.0800 
 34 H       -0.8190    -1.9940    -0.9630 H     1 <1>   0.0800 
 35 H        0.5620    -4.8440     1.1160 H     1 <1>   0.0800 
 36 H       -0.9010    -4.4550     2.0080 H     1 <1>   0.0800 
 37 H       -2.5040    -3.5910    -1.4000 H     1 <1>   0.0800 
 38 H       -0.5980    -4.9310    -0.9450 H     1 <1>   0.0800 
 39 H       -2.6890    -6.2960    -0.6100 H     1 <1>   0.0800 
 40 H       -2.5500    -6.0230     1.0990 H     1 <1>   0.0800 
 41 H       -5.1020    -2.9840     0.8520 H     1 <1>   0.0800 
 42 H       -4.7210    -3.2850    -0.8370 H     1 <1>   0.0800 
 43 H       -4.0760    -1.8540    -0.0190 H     1 <1>   0.0800 
 44 H        1.0230    -6.7820    -0.1580 H     1 <1>   0.1500 
 45 H        2.4710    -9.0840     1.0050 H     1 <1>   0.0800 
 46 H        2.1700    -9.5120    -0.6690 H     1 <1>   0.0800 
 47 H        1.6520   -10.5800     0.6160 H     1 <1>   0.0800 
@<TRIPOS>BOND
  1   1   2  1   
  2   1   3  1   
  3   2   4  1   
  4   2   5  2   
  5   3   6  2   
  6   3   7  1   
  7   4   8  1   
  8   4  28  1   
  9   5   6  1   
 10   5   9  1   
 11   6  10  1   
 12   7  11  2   
 13   7  12  am  
 14   8  13  2   
 15   8  29  1   
 16   9  13  1   
 17   9  14  2   
 18  10  30  1   
 19  10  31  1   
 20  10  32  1   
 21  12  15  1   
 22  12  16  1   
 23  15  17  1   
 24  15  33  1   
 25  15  34  1   
 26  16  18  1   
 27  16  35  1   
 28  16  36  1   
 29  17  18  1   
 30  17  19  1   
 31  17  37  1   
 32  18  20  1   
 33  18  38  1   
 34  19  21  1   
 35  20  22  1   
 36  20  39  1   
 37  20  40  1   
 38  21  41  1   
 39  21  42  1   
 40  21  43  1   
 41  22  23  1   
 42  22  24  2   
 43  23  25  1   
 44  24  26  1   
 45  24  44  1   
 46  25  26  2   
 47  26  27  1   
 48  27  45  1   
 49  27  46  1   
 50  27  47  1   
@<TRIPOS>SUBSTRUCTURE
  1 ****  12 GROUP 4 **** **** 0

# MOE 2024.06 (io_trps.svl 2023.06)
