@<TRIPOS>MOLECULE
NONAME
25 25 1 0 0 
SMALL
USER_CHARGES


@<TRIPOS>ATOM
  1 O       -0.3100    -0.8820    -0.8790 O.3   1 <1>  -0.3630 
  2 C       -0.1080    -1.9580    -0.0880 C.ar  1 <1>   0.3920 
  3 C        0.7130     0.0320    -1.2060 C.3   1 <1>   0.0400 
  4 N       -1.1940    -2.6880     0.1150 N.ar  1 <1>  -0.6200 
  5 C        1.1390    -2.2580     0.4590 C.ar  1 <1>  -0.1500 
  6 C       -1.0490    -3.7540     0.8830 C.ar  1 <1>   0.1660 
  7 C        1.2790    -3.3710     1.2580 C.ar  1 <1>  -0.1500 
  8 C        0.1490    -4.1320     1.4690 C.ar  1 <1>  -0.1500 
  9 C       -2.2980    -4.5880     1.1110 C.3   1 <1>  -0.0160 
 10 C       -2.5880    -5.4890    -0.0980 C.3   1 <1>  -0.1600 
 11 C       -3.8770    -6.2830     0.1030 C.3   1 <1>   0.1200 
 12 O       -4.0510    -7.1090    -0.9890 O.3   1 <1>  -0.6800 
 13 H        0.2890     0.7920    -1.8380 H     1 <1>   0.0800 
 14 H        1.4910    -0.4890    -1.7350 H     1 <1>   0.0800 
 15 H        1.0880     0.4770    -0.3020 H     1 <1>   0.0800 
 16 H        1.9940    -1.6410     0.2700 H     1 <1>   0.1500 
 17 H        2.2250    -3.6360     1.6970 H     1 <1>   0.1500 
 18 H        0.2020    -5.0130     2.0820 H     1 <1>   0.1500 
 19 H       -3.1270    -3.9220     1.2770 H     1 <1>   0.0800 
 20 H       -2.1790    -5.1910     1.9930 H     1 <1>   0.0800 
 21 H       -1.7640    -6.1670    -0.2350 H     1 <1>   0.0800 
 22 H       -2.6780    -4.8710    -0.9750 H     1 <1>   0.0800 
 23 H       -4.7310    -5.6320     0.1760 H     1 <1>   0.0800 
 24 H       -3.8200    -6.9040     0.9810 H     1 <1>   0.0800 
 25 H       -4.0560    -6.5840    -1.8130 H     1 <1>   0.4000 
@<TRIPOS>BOND
  1   1   2  1   
  2   1   3  1   
  3   2   4  ar  
  4   2   5  ar  
  5   3  13  1   
  6   3  14  1   
  7   3  15  1   
  8   4   6  ar  
  9   5   7  ar  
 10   5  16  1   
 11   6   8  ar  
 12   6   9  1   
 13   7   8  ar  
 14   7  17  1   
 15   8  18  1   
 16   9  10  1   
 17   9  19  1   
 18   9  20  1   
 19  10  11  1   
 20  10  21  1   
 21  10  22  1   
 22  11  12  1   
 23  11  23  1   
 24  11  24  1   
 25  12  25  1   
@<TRIPOS>SUBSTRUCTURE
  1 ****   6 GROUP 4 **** **** 0

# MOE 2024.06 (io_trps.svl 2023.06)
