@<TRIPOS>MOLECULE
NONAME
60 63 1 0 0 
SMALL
USER_CHARGES


@<TRIPOS>ATOM
  1 O        1.4330    -0.3830     2.5090 O.co2 1 <1>  -0.9000 
  2 C        1.5900    -0.3650     1.2870 C.2   1 <1>   0.9060 
  3 O        1.1420    -1.2550     0.5520 O.co2 1 <1>  -0.9000 
  4 C        2.3990     0.7910     0.6790 C.3   1 <1>  -0.1060 
  5 C        2.6520     0.5510    -0.8380 C.3   1 <1>   0.2000 
  6 C        3.7610     0.8680     1.4380 C.3   1 <1>  -0.1600 
  7 C        1.5200     2.0510     0.9220 C.3   1 <1>  -0.0160 
  8 O        3.0970    -0.7560    -1.0250 O.3   1 <1>  -0.6800 
  9 C        3.7650     1.4470    -1.4050 C.3   1 <1>   0.3430 
 10 C        4.8870     1.6230     0.7270 C.3   1 <1>   0.3430 
 11 C        1.9850     3.3440     0.2660 C.ar  1 <1>  -0.1440 
 12 N        5.0140     1.1230    -0.6640 N.4   1 <1>  -0.9590 
 13 C        1.5130     3.6950    -0.9910 C.ar  1 <1>  -0.1500 
 14 C        2.8680     4.1880     0.9200 C.ar  1 <1>  -0.1500 
 15 C        6.2470     1.5570    -1.3660 C.3   1 <1>   0.4860 
 16 C        1.9570     4.8520    -1.6060 C.ar  1 <1>  -0.1500 
 17 C        3.3140     5.3450     0.3060 C.ar  1 <1>  -0.1500 
 18 C        6.2640     3.0600    -1.6030 C.ar  1 <1>  -0.1430 
 19 C        2.8640     5.6730    -0.9610 C.ar  1 <1>  -0.1500 
 20 C        6.6610     3.9220    -0.5930 C.ar  1 <1>  -0.1500 
 21 C        5.9170     3.5840    -2.8390 C.ar  1 <1>  -0.1500 
 22 C        6.7230     5.3020    -0.7800 C.ar  1 <1>  -0.0230 
 23 C        5.9870     4.9490    -3.0550 C.ar  1 <1>  -0.1500 
 24 N        7.1340     6.1430     0.3070 N.pl3 1 <1>   0.5930 
 25 C        6.3950     5.7960    -2.0410 C.ar  1 <1>  -0.1500 
 26 N        7.9390     5.6500     1.2890 N.2   1 <1>  -0.7070 
 27 C        6.7620     7.4210     0.6350 C.2   1 <1>  -0.3320 
 28 C        8.0640     6.5930     2.1620 C.2   1 <1>   0.1080 
 29 C        7.3470     7.7260     1.8110 C.2   1 <1>  -0.1500 
 30 C        5.8520     8.3510    -0.1540 C.3   1 <1>  -0.0600 
 31 C        8.9010     6.4420     3.4100 C.3   1 <1>  -0.0590 
 32 H        1.7370     0.6650    -1.3950 H     1 <1>   0.0800 
 33 H        4.1090    -0.1370     1.6090 H     1 <1>   0.0800 
 34 H        3.6060     1.2960     2.4130 H     1 <1>   0.0800 
 35 H        0.5230     1.8400     0.5740 H     1 <1>   0.0800 
 36 H        1.4250     2.2150     1.9830 H     1 <1>   0.0800 
 37 H        2.4010    -1.3270    -0.5680 H     1 <1>   0.4000 
 38 H        3.5330     2.4910    -1.3000 H     1 <1>   0.0800 
 39 H        3.8810     1.2280    -2.4520 H     1 <1>   0.0800 
 40 H        5.8090     1.4680     1.2620 H     1 <1>   0.0800 
 41 H        4.6790     2.6780     0.7120 H     1 <1>   0.0800 
 42 H        4.9710     0.0890    -0.6170 H     1 <1>   0.4500 
 43 H        0.7960     3.0700    -1.4960 H     1 <1>   0.1500 
 44 H        3.2100     3.9500     1.9120 H     1 <1>   0.1500 
 45 H        7.1100     1.2810    -0.7830 H     1 <1>   0.0800 
 46 H        6.3150     1.0510    -2.3150 H     1 <1>   0.0800 
 47 H        1.5930     5.1170    -2.5830 H     1 <1>   0.1500 
 48 H        4.0060     5.9890     0.8210 H     1 <1>   0.1500 
 49 H        3.2070     6.5700    -1.4430 H     1 <1>   0.1500 
 50 H        6.9440     3.5230     0.3660 H     1 <1>   0.1500 
 51 H        5.6050     2.9420    -3.6450 H     1 <1>   0.1500 
 52 H        5.7320     5.3540    -4.0200 H     1 <1>   0.1500 
 53 H        6.4670     6.8460    -2.2510 H     1 <1>   0.1500 
 54 H        7.2910     8.6370     2.3800 H     1 <1>   0.1500 
 55 H        5.5630     9.1880     0.4580 H     1 <1>   0.0800 
 56 H        4.9610     7.8420    -0.4670 H     1 <1>   0.0800 
 57 H        6.3670     8.7350    -1.0160 H     1 <1>   0.0800 
 58 H        8.8580     7.3370     4.0030 H     1 <1>   0.0800 
 59 H        9.9220     6.2500     3.1360 H     1 <1>   0.0800 
 60 H        8.5340     5.6160     3.9920 H     1 <1>   0.0800 
@<TRIPOS>BOND
  1   1   2  ar  
  2   2   3  ar  
  3   2   4  1   
  4   4   5  1   
  5   4   6  1   
  6   4   7  1   
  7   5   8  1   
  8   5   9  1   
  9   5  32  1   
 10   6  10  1   
 11   6  33  1   
 12   6  34  1   
 13   7  11  1   
 14   7  35  1   
 15   7  36  1   
 16   8  37  1   
 17   9  12  1   
 18   9  38  1   
 19   9  39  1   
 20  10  12  1   
 21  10  40  1   
 22  10  41  1   
 23  11  13  ar  
 24  11  14  ar  
 25  12  15  1   
 26  12  42  1   
 27  13  16  ar  
 28  13  43  1   
 29  14  17  ar  
 30  14  44  1   
 31  15  18  1   
 32  15  45  1   
 33  15  46  1   
 34  16  19  ar  
 35  16  47  1   
 36  17  19  ar  
 37  17  48  1   
 38  18  20  ar  
 39  18  21  ar  
 40  19  49  1   
 41  20  22  ar  
 42  20  50  1   
 43  21  23  ar  
 44  21  51  1   
 45  22  24  1   
 46  22  25  ar  
 47  23  25  ar  
 48  23  52  1   
 49  24  26  1   
 50  24  27  1   
 51  25  53  1   
 52  26  28  2   
 53  27  29  2   
 54  27  30  1   
 55  28  29  1   
 56  28  31  1   
 57  29  54  1   
 58  30  55  1   
 59  30  56  1   
 60  30  57  1   
 61  31  58  1   
 62  31  59  1   
 63  31  60  1   
@<TRIPOS>SUBSTRUCTURE
  1 ****  14 GROUP 4 **** **** 0

# MOE 2024.06 (io_trps.svl 2023.06)
