@<TRIPOS>MOLECULE
NONAME
38 41 1 0 0 
SMALL
USER_CHARGES


@<TRIPOS>ATOM
  1 CL      -0.3410    -0.9510    -1.8180 Cl    1 <1>  -0.1770 
  2 C       -1.8940    -1.3010    -1.0950 C.ar  1 <1>   0.1770 
  3 C       -2.2120    -2.5960    -0.7250 C.ar  1 <1>   0.1600 
  4 C       -2.7930    -0.2760    -0.8960 C.ar  1 <1>  -0.1500 
  5 N       -3.3620    -2.9610    -0.1700 N.ar  1 <1>  -0.6200 
  6 C       -3.9830    -0.6540    -0.3230 C.ar  1 <1>   0.1900 
  7 C       -4.2570    -1.9910     0.0300 C.ar  1 <1>   0.4100 
  8 F       -4.8700     0.2890    -0.1030 F     1 <1>  -0.1900 
  9 N       -5.4680    -2.3850     0.5970 N.pl3 1 <1>  -0.8380 
 10 C       -6.7390    -2.1450    -0.1340 C.3   1 <1>   0.2090 
 11 C       -5.5250    -3.5070     1.5760 C.3   1 <1>   0.2090 
 12 C       -7.1510    -3.4220    -0.8630 C.3   1 <1>  -0.1600 
 13 C       -5.9500    -4.7940     0.8700 C.3   1 <1>  -0.1600 
 14 C       -7.2590    -4.6090     0.1010 C.3   1 <1>   0.4600 
 15 O       -8.2560    -4.3330     1.0690 O.3   1 <1>  -0.5600 
 16 C       -7.6430    -5.8890    -0.6330 C.2   1 <1>  -0.1400 
 17 C       -9.6010    -4.5620     0.7210 C.3   1 <1>   0.1200 
 18 S       -6.5830    -6.6760    -1.7930 S.3   1 <1>  -0.0800 
 19 C       -8.7930    -6.5660    -0.5080 C.2   1 <1>  -0.1810 
 20 C       -9.8610    -6.0530     0.4300 C.3   1 <1>   0.0210 
 21 C       -7.7680    -7.9470    -2.0630 C.2   1 <1>  -0.1100 
 22 C       -8.8700    -7.7450    -1.3150 C.2   1 <1>  -0.1500 
 23 H       -1.4830    -3.3690    -0.8940 H     1 <1>   0.1500 
 24 H       -2.5780     0.7400    -1.1670 H     1 <1>   0.1500 
 25 H       -6.6190    -1.3480    -0.8460 H     1 <1>   0.0800 
 26 H       -7.5010    -1.8560     0.5710 H     1 <1>   0.0800 
 27 H       -6.2340    -3.2610     2.3480 H     1 <1>   0.0800 
 28 H       -4.5620    -3.6420     2.0390 H     1 <1>   0.0800 
 29 H       -6.4060    -3.6410    -1.6060 H     1 <1>   0.0800 
 30 H       -8.0800    -3.2730    -1.3770 H     1 <1>   0.0800 
 31 H       -6.0640    -5.5860     1.5870 H     1 <1>   0.0800 
 32 H       -5.1680    -5.0800     0.1910 H     1 <1>   0.0800 
 33 H       -9.8360    -3.9660    -0.1430 H     1 <1>   0.0800 
 34 H      -10.2120    -4.2320     1.5430 H     1 <1>   0.0800 
 35 H      -10.8320    -6.1650    -0.0170 H     1 <1>   0.0800 
 36 H       -9.8400    -6.6140     1.3470 H     1 <1>   0.0800 
 37 H       -7.5100    -8.7210    -2.7620 H     1 <1>   0.1500 
 38 H       -9.7390    -8.3790    -1.2950 H     1 <1>   0.1500 
@<TRIPOS>BOND
  1   1   2  1   
  2   2   3  ar  
  3   2   4  ar  
  4   3   5  ar  
  5   3  23  1   
  6   4   6  ar  
  7   4  24  1   
  8   5   7  ar  
  9   6   7  ar  
 10   6   8  1   
 11   7   9  1   
 12   9  10  1   
 13   9  11  1   
 14  10  12  1   
 15  10  25  1   
 16  10  26  1   
 17  11  13  1   
 18  11  27  1   
 19  11  28  1   
 20  12  14  1   
 21  12  29  1   
 22  12  30  1   
 23  13  14  1   
 24  13  31  1   
 25  13  32  1   
 26  14  15  1   
 27  14  16  1   
 28  15  17  1   
 29  16  18  1   
 30  16  19  2   
 31  17  20  1   
 32  17  33  1   
 33  17  34  1   
 34  18  21  1   
 35  19  20  1   
 36  19  22  1   
 37  20  35  1   
 38  20  36  1   
 39  21  22  2   
 40  21  37  1   
 41  22  38  1   
@<TRIPOS>SUBSTRUCTURE
  1 ****  12 GROUP 4 **** **** 0

# MOE 2024.06 (io_trps.svl 2023.06)
