@<TRIPOS>MOLECULE
NONAME
49 51 1 0 0 
SMALL
USER_CHARGES


@<TRIPOS>ATOM
  1 O       -0.2840     0.4630     0.4760 O.3   1 <1>  -0.5600 
  2 C        0.0340     1.2830    -0.5980 C.3   1 <1>   0.1200 
  3 C       -1.6700     0.4620     0.6590 C.3   1 <1>   0.1200 
  4 C       -0.8970     2.4730    -0.3970 C.3   1 <1>   0.4230 
  5 C       -2.1840     1.7610     0.0080 C.3   1 <1>  -0.0800 
  6 N       -0.4130     3.2570     0.7690 N.4   1 <1>  -0.9060 
  7 C       -3.0910     1.4770    -1.2090 C.3   1 <1>  -0.0170 
  8 C        0.7260     4.1460     0.4850 C.3   1 <1>   0.4230 
  9 C       -4.3910     0.8110    -0.7720 C.ar  1 <1>  -0.1440 
 10 C        1.6960     4.0400     1.6700 C.3   1 <1>  -0.1600 
 11 C        0.2120     5.5800     0.2690 C.3   1 <1>  -0.1600 
 12 C       -5.4430     1.5300    -0.1550 C.ar  1 <1>   0.0000 
 13 C       -4.5710    -0.5290    -0.9620 C.ar  1 <1>  -0.1500 
 14 C        3.0230     4.7800     1.4390 C.3   1 <1>  -0.2400 
 15 C       -0.8320     5.7350    -0.8510 C.3   1 <1>  -0.2400 
 16 C       -6.5820     0.7990     0.2640 C.ar  1 <1>   0.3100 
 17 C       -5.4390     2.9280     0.0670 C.ar  1 <1>  -0.1500 
 18 C       -5.7460    -1.1520    -0.5270 C.ar  1 <1>   0.1600 
 19 N       -6.7150    -0.5370     0.0710 N.ar  1 <1>  -0.6200 
 20 C       -7.6280     1.4770     0.9080 C.ar  1 <1>  -0.1500 
 21 C       -6.4800     3.5600     0.6930 C.ar  1 <1>  -0.1500 
 22 C       -7.5870     2.8270     1.1240 C.ar  1 <1>  -0.1500 
 23 H        1.0790     1.5350    -0.5660 H     1 <1>   0.0800 
 24 H       -0.1870     0.7520    -1.5080 H     1 <1>   0.0800 
 25 H       -2.0690    -0.4230     0.1940 H     1 <1>   0.0800 
 26 H       -1.8740     0.4290     1.7160 H     1 <1>   0.0800 
 27 H       -1.0080     3.0860    -1.2770 H     1 <1>   0.0800 
 28 H       -2.7450     2.3350     0.7240 H     1 <1>   0.0800 
 29 H       -1.1670     3.8050     1.1900 H     1 <1>   0.4500 
 30 H       -0.1180     2.5500     1.4600 H     1 <1>   0.4500 
 31 H       -2.5820     0.8350    -1.9080 H     1 <1>   0.0800 
 32 H       -3.3200     2.3880    -1.7340 H     1 <1>   0.0800 
 33 H        1.2360     3.8110    -0.4050 H     1 <1>   0.0800 
 34 H        1.2360     4.4300     2.5630 H     1 <1>   0.0800 
 35 H        1.9340     3.0040     1.8390 H     1 <1>   0.0800 
 36 H       -0.1890     5.9690     1.1890 H     1 <1>   0.0800 
 37 H        1.0510     6.2030     0.0100 H     1 <1>   0.0800 
 38 H       -3.8290    -1.1440    -1.4390 H     1 <1>   0.1500 
 39 H        2.8770     5.8440     1.3820 H     1 <1>   0.0800 
 40 H        3.4990     4.4440     0.5330 H     1 <1>   0.0800 
 41 H        3.6950     4.5870     2.2580 H     1 <1>   0.0800 
 42 H       -1.7590     5.2490    -0.6040 H     1 <1>   0.0800 
 43 H       -0.4580     5.3430    -1.7810 H     1 <1>   0.0800 
 44 H       -1.0440     6.7810    -0.9980 H     1 <1>   0.0800 
 45 H       -4.6100     3.5180    -0.2680 H     1 <1>   0.1500 
 46 H       -5.8490    -2.2110    -0.6950 H     1 <1>   0.1500 
 47 H       -8.4730     0.8940     1.2250 H     1 <1>   0.1500 
 48 H       -6.4680     4.6250     0.8570 H     1 <1>   0.1500 
 49 H       -8.3990     3.3330     1.6180 H     1 <1>   0.1500 
@<TRIPOS>BOND
  1   1   2  1   
  2   1   3  1   
  3   2   4  1   
  4   2  23  1   
  5   2  24  1   
  6   3   5  1   
  7   3  25  1   
  8   3  26  1   
  9   4   5  1   
 10   4   6  1   
 11   4  27  1   
 12   5   7  1   
 13   5  28  1   
 14   6   8  1   
 15   6  29  1   
 16   6  30  1   
 17   7   9  1   
 18   7  31  1   
 19   7  32  1   
 20   8  10  1   
 21   8  11  1   
 22   8  33  1   
 23   9  12  ar  
 24   9  13  ar  
 25  10  14  1   
 26  10  34  1   
 27  10  35  1   
 28  11  15  1   
 29  11  36  1   
 30  11  37  1   
 31  12  16  ar  
 32  12  17  ar  
 33  13  18  ar  
 34  13  38  1   
 35  14  39  1   
 36  14  40  1   
 37  14  41  1   
 38  15  42  1   
 39  15  43  1   
 40  15  44  1   
 41  16  19  ar  
 42  16  20  ar  
 43  17  21  ar  
 44  17  45  1   
 45  18  19  ar  
 46  18  46  1   
 47  20  22  ar  
 48  20  47  1   
 49  21  22  ar  
 50  21  48  1   
 51  22  49  1   
@<TRIPOS>SUBSTRUCTURE
  1 ****   5 GROUP 4 **** **** 0

# MOE 2024.06 (io_trps.svl 2023.06)
