@<TRIPOS>MOLECULE
NONAME
54 58 1 0 0 
SMALL
USER_CHARGES


@<TRIPOS>ATOM
  1 O        0.0840     0.3440     0.0860 O.2   1 <1>  -0.5700 
  2 C       -0.3180     1.4960     0.0030 C.2   1 <1>   0.7160 
  3 N       -1.6900     1.6710    -0.1250 N.am  1 <1>  -0.6600 
  4 C        0.6690     2.5790     0.0310 C.2   1 <1>   0.2030 
  5 C       -2.3600     2.9560    -0.4910 C.3   1 <1>   0.1400 
  6 C       -2.6160     0.5050     0.0260 C.3   1 <1>   0.1400 
  7 N        0.5030     3.8450     0.3920 N.2   1 <1>  -0.7070 
  8 C        2.0050     2.3720    -0.3270 C.2   1 <1>  -0.1500 
  9 C       -3.3840     3.3740     0.5880 C.3   1 <1>   0.1430 
 10 C       -4.0840     0.9390     0.1950 C.3   1 <1>  -0.1600 
 11 N        1.7100     4.4110     0.2570 N.pl3 1 <1>   0.3000 
 12 C        2.6530     3.5520    -0.1830 C.2   1 <1>  -0.2050 
 13 C       -4.2560     4.4580    -0.0250 C.ar  1 <1>   0.1670 
 14 C       -4.1990     2.1630     1.1180 C.3   1 <1>  -0.1600 
 15 C       -2.7050     4.1380     1.7530 C.3   1 <1>  -0.1600 
 16 C        4.0330     3.9000    -0.4070 C.ar  1 <1>   0.0530 
 17 N       -5.2290     4.2640    -0.8890 N.ar  1 <1>  -0.6200 
 18 C       -3.8970     5.6960     0.4170 C.ar  1 <1>  -0.1440 
 19 C       -2.7430     5.6300     1.3860 C.3   1 <1>  -0.0170 
 20 C        5.0490     3.0090    -0.0790 C.ar  1 <1>  -0.1500 
 21 C        4.3980     5.1280    -0.9540 C.ar  1 <1>  -0.1500 
 22 C       -5.8380     5.3720    -1.2860 C.ar  1 <1>   0.4770 
 23 C       -4.5970     6.7760    -0.0600 C.ar  1 <1>   0.1600 
 24 C        6.3790     3.3320    -0.2770 C.ar  1 <1>  -0.1500 
 25 C        5.7270     5.4560    -1.1520 C.ar  1 <1>  -0.1500 
 26 N       -5.5820     6.6220    -0.9210 N.ar  1 <1>  -0.6200 
 27 C       -6.9670     5.1940    -2.2710 C.3   1 <1>  -0.0970 
 28 C        6.7280     4.5600    -0.8130 C.ar  1 <1>  -0.1440 
 29 C        8.1870     4.9170    -1.0310 C.3   1 <1>  -0.0970 
 30 H       -2.8810     2.8030    -1.4210 H     1 <1>   0.0800 
 31 H       -1.6580     3.7470    -0.6670 H     1 <1>   0.0800 
 32 H       -2.3160    -0.0560     0.8960 H     1 <1>   0.0800 
 33 H       -2.5200    -0.1390    -0.8310 H     1 <1>   0.0800 
 34 H        2.4120     1.4310    -0.6540 H     1 <1>   0.1500 
 35 H       -4.6500     0.1190     0.5990 H     1 <1>   0.0800 
 36 H       -4.5030     1.1720    -0.7690 H     1 <1>   0.0800 
 37 H        1.8910     5.3950     0.4860 H     1 <1>   0.2700 
 38 H       -5.2320     2.4370     1.2380 H     1 <1>   0.0800 
 39 H       -3.8260     1.8710     2.0840 H     1 <1>   0.0800 
 40 H       -1.7050     3.7900     1.9440 H     1 <1>   0.0800 
 41 H       -3.2840     4.0110     2.6510 H     1 <1>   0.0800 
 42 H       -1.8320     5.9190     0.8890 H     1 <1>   0.0800 
 43 H       -2.9040     6.2490     2.2510 H     1 <1>   0.0800 
 44 H        4.7920     2.0530     0.3410 H     1 <1>   0.1500 
 45 H        3.6390     5.8330    -1.2380 H     1 <1>   0.1500 
 46 H       -4.3510     7.7730     0.2620 H     1 <1>   0.1500 
 47 H        7.1430     2.6220    -0.0120 H     1 <1>   0.1500 
 48 H        5.9830     6.4110    -1.5780 H     1 <1>   0.1500 
 49 H       -6.8960     4.2360    -2.7520 H     1 <1>   0.0800 
 50 H       -6.9220     5.9640    -3.0180 H     1 <1>   0.0800 
 51 H       -7.9030     5.2610    -1.7510 H     1 <1>   0.0800 
 52 H        8.8070     4.4290    -0.3010 H     1 <1>   0.0800 
 53 H        8.3320     5.9790    -0.9440 H     1 <1>   0.0800 
 54 H        8.4940     4.6040    -2.0130 H     1 <1>   0.0800 
@<TRIPOS>BOND
  1   1   2  2   
  2   2   3  am  
  3   2   4  1   
  4   3   5  1   
  5   3   6  1   
  6   4   7  2   
  7   4   8  1   
  8   5   9  1   
  9   5  30  1   
 10   5  31  1   
 11   6  10  1   
 12   6  32  1   
 13   6  33  1   
 14   7  11  1   
 15   8  12  2   
 16   8  34  1   
 17   9  13  1   
 18   9  14  1   
 19   9  15  1   
 20  10  14  1   
 21  10  35  1   
 22  10  36  1   
 23  11  12  1   
 24  11  37  1   
 25  12  16  1   
 26  13  17  ar  
 27  13  18  ar  
 28  14  38  1   
 29  14  39  1   
 30  15  19  1   
 31  15  40  1   
 32  15  41  1   
 33  16  20  ar  
 34  16  21  ar  
 35  17  22  ar  
 36  18  19  1   
 37  18  23  ar  
 38  19  42  1   
 39  19  43  1   
 40  20  24  ar  
 41  20  44  1   
 42  21  25  ar  
 43  21  45  1   
 44  22  26  ar  
 45  22  27  1   
 46  23  26  ar  
 47  23  46  1   
 48  24  28  ar  
 49  24  47  1   
 50  25  28  ar  
 51  25  48  1   
 52  27  49  1   
 53  27  50  1   
 54  27  51  1   
 55  28  29  1   
 56  29  52  1   
 57  29  53  1   
 58  29  54  1   
@<TRIPOS>SUBSTRUCTURE
  1 ****   7 GROUP 4 **** **** 0

# MOE 2024.06 (io_trps.svl 2023.06)
