@<TRIPOS>MOLECULE
NONAME
53 55 1 0 0 
SMALL
USER_CHARGES


@<TRIPOS>ATOM
  1 O        0.3130    -0.5080    -0.2210 O.3   1 <1>  -0.3630 
  2 C        0.1610    -1.8530    -0.2620 C.ar  1 <1>   0.0830 
  3 C        1.3630     0.0930     0.5030 C.3   1 <1>   0.0400 
  4 C       -0.8960    -2.3430    -1.0090 C.ar  1 <1>  -0.1500 
  5 C        0.9960    -2.7510     0.3940 C.ar  1 <1>  -0.1500 
  6 C       -1.1220    -3.7040    -1.1030 C.ar  1 <1>  -0.1500 
  7 C        0.7630    -4.1110     0.2960 C.ar  1 <1>  -0.1500 
  8 C       -0.2990    -4.6200    -0.4490 C.ar  1 <1>   0.0280 
  9 C       -0.5130    -6.0490    -0.5210 C.2   1 <1>  -0.1780 
 10 C       -1.5860    -6.7000    -1.0040 C.2   1 <1>  -0.2880 
 11 C       -1.7390    -8.2010    -1.0450 C.3   1 <1>   0.4810 
 12 N       -2.7100    -8.5690     0.0060 N.4   1 <1>  -0.9590 
 13 C       -4.1010    -8.1570    -0.3120 C.3   1 <1>   0.3430 
 14 C       -2.7560   -10.0290     0.2850 C.3   1 <1>   0.3430 
 15 C       -4.9740    -9.0230     0.5860 C.3   1 <1>  -0.0800 
 16 C       -4.1980   -10.3530     0.6900 C.3   1 <1>  -0.0800 
 17 C       -6.4440    -9.1390     0.1040 C.3   1 <1>   0.2800 
 18 C       -4.7790   -11.4520    -0.2140 C.3   1 <1>  -0.1600 
 19 O       -6.4570    -9.1250    -1.2780 O.3   1 <1>  -0.6800 
 20 C       -7.0400   -10.4820     0.5620 C.3   1 <1>  -0.1600 
 21 C       -7.3390    -7.9760     0.5840 C.3   1 <1>  -0.1600 
 22 C       -6.2630   -11.7250     0.0810 C.3   1 <1>  -0.1600 
 23 C       -6.9160    -6.5620     0.1490 C.3   1 <1>  -0.2400 
 24 H        1.2810     1.1590     0.3860 H     1 <1>   0.0800 
 25 H        2.3020    -0.2470     0.1040 H     1 <1>   0.0800 
 26 H        1.2660    -0.1680     1.5420 H     1 <1>   0.0800 
 27 H       -1.5380    -1.6460    -1.5180 H     1 <1>   0.1500 
 28 H        1.8270    -2.4090     0.9800 H     1 <1>   0.1500 
 29 H       -1.9460    -4.0440    -1.6990 H     1 <1>   0.1500 
 30 H        1.4220    -4.7870     0.8120 H     1 <1>   0.1500 
 31 H        0.3160    -6.6130    -0.1260 H     1 <1>   0.1500 
 32 H       -2.4380    -6.1880    -1.4110 H     1 <1>   0.1500 
 33 H       -0.7860    -8.6620    -0.8380 H     1 <1>   0.0800 
 34 H       -2.0780    -8.5250    -2.0160 H     1 <1>   0.0800 
 35 H       -2.4310    -8.0730     0.8610 H     1 <1>   0.4500 
 36 H       -4.2570    -7.1070    -0.1340 H     1 <1>   0.0800 
 37 H       -4.3160    -8.3780    -1.3450 H     1 <1>   0.0800 
 38 H       -2.5050   -10.5830    -0.6050 H     1 <1>   0.0800 
 39 H       -2.0650   -10.2940     1.0690 H     1 <1>   0.0800 
 40 H       -4.9810    -8.5810     1.5670 H     1 <1>   0.0800 
 41 H       -4.2150   -10.7060     1.7080 H     1 <1>   0.0800 
 42 H       -4.6900   -11.1470    -1.2440 H     1 <1>   0.0800 
 43 H       -4.2230   -12.3680    -0.1010 H     1 <1>   0.0800 
 44 H       -7.3680    -9.2910    -1.5910 H     1 <1>   0.4000 
 45 H       -7.0400   -10.4890     1.6380 H     1 <1>   0.0800 
 46 H       -8.0690   -10.5620     0.2560 H     1 <1>   0.0800 
 47 H       -8.3430    -8.1490     0.2340 H     1 <1>   0.0800 
 48 H       -7.3860    -7.9950     1.6590 H     1 <1>   0.0800 
 49 H       -6.3470   -12.4940     0.8300 H     1 <1>   0.0800 
 50 H       -6.7220   -12.1060    -0.8160 H     1 <1>   0.0800 
 51 H       -6.7880    -6.5080    -0.9190 H     1 <1>   0.0800 
 52 H       -6.0060    -6.2600     0.6340 H     1 <1>   0.0800 
 53 H       -7.6810    -5.8580     0.4270 H     1 <1>   0.0800 
@<TRIPOS>BOND
  1   1   2  1   
  2   1   3  1   
  3   2   4  ar  
  4   2   5  ar  
  5   3  24  1   
  6   3  25  1   
  7   3  26  1   
  8   4   6  ar  
  9   4  27  1   
 10   5   7  ar  
 11   5  28  1   
 12   6   8  ar  
 13   6  29  1   
 14   7   8  ar  
 15   7  30  1   
 16   8   9  1   
 17   9  10  2   
 18   9  31  1   
 19  10  11  1   
 20  10  32  1   
 21  11  12  1   
 22  11  33  1   
 23  11  34  1   
 24  12  13  1   
 25  12  14  1   
 26  12  35  1   
 27  13  15  1   
 28  13  36  1   
 29  13  37  1   
 30  14  16  1   
 31  14  38  1   
 32  14  39  1   
 33  15  16  1   
 34  15  17  1   
 35  15  40  1   
 36  16  18  1   
 37  16  41  1   
 38  17  19  1   
 39  17  20  1   
 40  17  21  1   
 41  18  22  1   
 42  18  42  1   
 43  18  43  1   
 44  19  44  1   
 45  20  22  1   
 46  20  45  1   
 47  20  46  1   
 48  21  23  1   
 49  21  47  1   
 50  21  48  1   
 51  22  49  1   
 52  22  50  1   
 53  23  51  1   
 54  23  52  1   
 55  23  53  1   
@<TRIPOS>SUBSTRUCTURE
  1 ****  10 GROUP 4 **** **** 0

# MOE 2024.06 (io_trps.svl 2023.06)
