@<TRIPOS>MOLECULE
NONAME
55 58 1 0 0 
SMALL
USER_CHARGES


@<TRIPOS>ATOM
  1 O        0.3300     0.1210    -0.7620 O.3   1 <1>  -0.5600 
  2 C        1.5720    -0.5170    -0.9450 C.3   1 <1>   0.2000 
  3 C        0.3520     1.5150    -0.8370 C.3   1 <1>   0.1200 
  4 C        2.6310     0.0160     0.0590 C.3   1 <1>   0.5660 
  5 C        1.3760    -2.0310    -0.7640 C.3   1 <1>   0.1200 
  6 C        1.2740     2.0880     0.2530 C.3   1 <1>   0.3430 
  7 N        2.6540     1.5100     0.1620 N.4   1 <1>  -0.9590 
  8 C        4.0340    -0.4400    -0.3210 C.ar  1 <1>  -0.1430 
  9 O        1.2350    -2.3390     0.5870 O.3   1 <1>  -0.6800 
 10 C        3.5280     1.9650     1.2740 C.3   1 <1>   0.4870 
 11 C        4.7220    -1.2790     0.5430 C.ar  1 <1>  -0.1500 
 12 C        4.6460    -0.0310    -1.5020 C.ar  1 <1>  -0.1500 
 13 C        3.8300     3.4270     1.0330 C.ar  1 <1>  -0.1430 
 14 C        6.0070    -1.6990     0.2500 C.ar  1 <1>   0.0820 
 15 C        5.9350    -0.4390    -1.7960 C.ar  1 <1>  -0.1500 
 16 C        4.7790     3.7860     0.1000 C.ar  1 <1>  -0.1500 
 17 C        3.1370     4.4160     1.7510 C.ar  1 <1>  -0.1500 
 18 O        6.5970    -2.5360     1.1370 O.3   1 <1>  -0.3620 
 19 C        6.6310    -1.2550    -0.9210 C.ar  1 <1>   0.0820 
 20 C        5.0330     5.1380    -0.1420 C.ar  1 <1>   0.0000 
 21 C        3.3810     5.7500     1.5220 C.ar  1 <1>  -0.1500 
 22 C        6.9190    -3.8310     0.6750 C.3   1 <1>   0.0400 
 23 O        7.9010    -1.5840    -1.2560 O.3   1 <1>  -0.3630 
 24 C        4.3330     6.1080     0.5650 C.ar  1 <1>  -0.1520 
 25 C        5.9070     5.8270    -1.0090 C.2   1 <1>  -0.1500 
 26 C        8.9270    -1.1020    -0.4140 C.3   1 <1>   0.0400 
 27 N        4.7650     7.3420     0.1470 N.pl3 1 <1>   0.0330 
 28 C        5.7200     7.1530    -0.8110 C.2   1 <1>  -0.3020 
 29 H        1.8830    -0.3280    -1.9570 H     1 <1>   0.0800 
 30 H        0.6760     1.8100    -1.8210 H     1 <1>   0.0800 
 31 H       -0.6550     1.8650    -0.6890 H     1 <1>   0.0800 
 32 H        2.3880    -0.3920     1.0260 H     1 <1>   0.0800 
 33 H        2.2290    -2.5720    -1.1370 H     1 <1>   0.0800 
 34 H        0.4940    -2.3560    -1.2900 H     1 <1>   0.0800 
 35 H        0.8440     1.8590     1.2140 H     1 <1>   0.0800 
 36 H        1.3190     3.1610     0.1550 H     1 <1>   0.0800 
 37 H        3.0940     1.8620    -0.6930 H     1 <1>   0.4500 
 38 H        0.8760    -3.2450     0.6990 H     1 <1>   0.4000 
 39 H        3.0410     1.8260     2.2260 H     1 <1>   0.0800 
 40 H        4.4550     1.4130     1.2760 H     1 <1>   0.0800 
 41 H        4.2710    -1.6310     1.4560 H     1 <1>   0.1500 
 42 H        4.1400     0.6040    -2.2100 H     1 <1>   0.1500 
 43 H        6.4180    -0.1250    -2.7060 H     1 <1>   0.1500 
 44 H        5.3460     3.0600    -0.4560 H     1 <1>   0.1500 
 45 H        2.4090     4.1370     2.4940 H     1 <1>   0.1500 
 46 H        2.8580     6.5160     2.0680 H     1 <1>   0.1500 
 47 H        7.2630    -4.4100     1.5130 H     1 <1>   0.0800 
 48 H        7.6940    -3.7670    -0.0660 H     1 <1>   0.0800 
 49 H        6.0370    -4.2810     0.2550 H     1 <1>   0.0800 
 50 H        6.5890     5.3490    -1.6910 H     1 <1>   0.1500 
 51 H        9.8720    -1.3680    -0.8520 H     1 <1>   0.0800 
 52 H        8.8360    -1.5530     0.5570 H     1 <1>   0.0800 
 53 H        8.8430    -0.0330    -0.3400 H     1 <1>   0.0800 
 54 H        4.4330     8.2440     0.5040 H     1 <1>   0.2700 
 55 H        6.2140     7.9790    -1.2940 H     1 <1>   0.1500 
@<TRIPOS>BOND
  1   1   2  1   
  2   1   3  1   
  3   2   4  1   
  4   2   5  1   
  5   2  29  1   
  6   3   6  1   
  7   3  30  1   
  8   3  31  1   
  9   4   7  1   
 10   4   8  1   
 11   4  32  1   
 12   5   9  1   
 13   5  33  1   
 14   5  34  1   
 15   6   7  1   
 16   6  35  1   
 17   6  36  1   
 18   7  10  1   
 19   7  37  1   
 20   8  11  ar  
 21   8  12  ar  
 22   9  38  1   
 23  10  13  1   
 24  10  39  1   
 25  10  40  1   
 26  11  14  ar  
 27  11  41  1   
 28  12  15  ar  
 29  12  42  1   
 30  13  16  ar  
 31  13  17  ar  
 32  14  18  1   
 33  14  19  ar  
 34  15  19  ar  
 35  15  43  1   
 36  16  20  ar  
 37  16  44  1   
 38  17  21  ar  
 39  17  45  1   
 40  18  22  1   
 41  19  23  1   
 42  20  24  ar  
 43  20  25  1   
 44  21  24  ar  
 45  21  46  1   
 46  22  47  1   
 47  22  48  1   
 48  22  49  1   
 49  23  26  1   
 50  24  27  1   
 51  25  28  2   
 52  25  50  1   
 53  26  51  1   
 54  26  52  1   
 55  26  53  1   
 56  27  28  1   
 57  27  54  1   
 58  28  55  1   
@<TRIPOS>SUBSTRUCTURE
  1 ****   7 GROUP 4 **** **** 0

# MOE 2024.06 (io_trps.svl 2023.06)
