@<TRIPOS>MOLECULE
NONAME
51 53 1 0 0 
SMALL
USER_CHARGES


@<TRIPOS>ATOM
  1 O        0.6010     1.1160    -0.3610 O.2   1 <1>  -0.5700 
  2 C       -0.5260     1.3700    -0.0080 C.2   1 <1>   0.5690 
  3 N       -1.2140     2.4410    -0.5070 N.am  1 <1>  -0.6600 
  4 C       -1.1610     0.4530     1.0230 C.3   1 <1>  -0.0990 
  5 C       -2.6000     2.7930    -0.0990 C.3   1 <1>   0.1400 
  6 C       -0.6270     3.3100    -1.5900 C.3   1 <1>   0.2010 
  7 C       -2.3660    -0.3280     0.4720 C.3   1 <1>  -0.1600 
  8 C       -3.5910     1.7110    -0.5390 C.3   1 <1>  -0.1600 
  9 C       -0.4960     4.7910    -1.2070 C.2   1 <1>   0.5690 
 10 C       -3.6560     0.5010     0.4070 C.3   1 <1>  -0.1600 
 11 O       -1.3290     5.5440    -1.6600 O.2   1 <1>  -0.5700 
 12 N        0.5140     5.2520    -0.3910 N.am  1 <1>  -0.6600 
 13 C        1.5460     4.3900     0.2470 C.3   1 <1>   0.1400 
 14 C        0.6370     6.6970    -0.0560 C.3   1 <1>   0.1400 
 15 C        2.9360     4.8730    -0.1710 C.3   1 <1>  -0.1600 
 16 C        2.0270     7.2020    -0.4540 C.3   1 <1>  -0.1600 
 17 C        3.1440     6.3560     0.1790 C.3   1 <1>   0.0580 
 18 C        4.5170     6.8860    -0.2390 C.2   1 <1>  -0.0380 
 19 N        4.9180     8.0880     0.2860 N.pl3 1 <1>  -0.5500 
 20 C        5.3910     6.2860    -1.0830 C.2   1 <1>  -0.1360 
 21 C        6.1250     8.6420    -0.0280 C.2   1 <1>   0.4390 
 22 C        6.6360     6.8980    -1.3800 C.2   1 <1>   0.7670 
 23 N        6.9710     8.1010    -0.8200 N.2   1 <1>  -0.6610 
 24 C        6.4450     9.9680     0.6150 C.3   1 <1>  -0.1790 
 25 O        7.4260     6.3620    -2.1390 O.2   1 <1>  -0.5700 
 26 H       -1.4410     1.0230     1.8890 H     1 <1>   0.0800 
 27 H       -0.4130    -0.2530     1.3340 H     1 <1>   0.0800 
 28 H       -2.8840     3.7250    -0.5580 H     1 <1>   0.0800 
 29 H       -2.6420     2.9330     0.9670 H     1 <1>   0.0800 
 30 H       -1.2640     3.2460    -2.4540 H     1 <1>   0.0800 
 31 H        0.3380     2.9460    -1.8900 H     1 <1>   0.0800 
 32 H       -2.5440    -1.1730     1.1160 H     1 <1>   0.0800 
 33 H       -2.1270    -0.7140    -0.5050 H     1 <1>   0.0800 
 34 H       -3.3650     1.3950    -1.5430 H     1 <1>   0.0800 
 35 H       -4.5700     2.1570    -0.5600 H     1 <1>   0.0800 
 36 H       -3.9140     0.8370     1.3980 H     1 <1>   0.0800 
 37 H       -4.4520    -0.1430     0.0750 H     1 <1>   0.0800 
 38 H        1.4340     3.3640    -0.0400 H     1 <1>   0.0800 
 39 H        1.4400     4.4460     1.3170 H     1 <1>   0.0800 
 40 H        0.4850     6.8240     1.0020 H     1 <1>   0.0800 
 41 H       -0.1130     7.2750    -0.5700 H     1 <1>   0.0800 
 42 H        3.0350     4.7200    -1.2320 H     1 <1>   0.0800 
 43 H        3.6790     4.2730     0.3240 H     1 <1>   0.0800 
 44 H        2.1230     8.2290    -0.1510 H     1 <1>   0.0800 
 45 H        2.1120     7.1720    -1.5270 H     1 <1>   0.0800 
 46 H        3.0720     6.4450     1.2500 H     1 <1>   0.0800 
 47 H        4.3110     8.5990     0.9300 H     1 <1>   0.4000 
 48 H        5.2120     5.3480    -1.5680 H     1 <1>   0.1500 
 49 H        5.7140    10.7010     0.3290 H     1 <1>   0.0800 
 50 H        7.4140    10.3060     0.2940 H     1 <1>   0.0800 
 51 H        6.4550     9.8650     1.6840 H     1 <1>   0.0800 
@<TRIPOS>BOND
  1   1   2  2   
  2   2   3  am  
  3   2   4  1   
  4   3   5  1   
  5   3   6  1   
  6   4   7  1   
  7   4  26  1   
  8   4  27  1   
  9   5   8  1   
 10   5  28  1   
 11   5  29  1   
 12   6   9  1   
 13   6  30  1   
 14   6  31  1   
 15   7  10  1   
 16   7  32  1   
 17   7  33  1   
 18   8  10  1   
 19   8  34  1   
 20   8  35  1   
 21   9  11  2   
 22   9  12  am  
 23  10  36  1   
 24  10  37  1   
 25  12  13  1   
 26  12  14  1   
 27  13  15  1   
 28  13  38  1   
 29  13  39  1   
 30  14  16  1   
 31  14  40  1   
 32  14  41  1   
 33  15  17  1   
 34  15  42  1   
 35  15  43  1   
 36  16  17  1   
 37  16  44  1   
 38  16  45  1   
 39  17  18  1   
 40  17  46  1   
 41  18  19  1   
 42  18  20  2   
 43  19  21  1   
 44  19  47  1   
 45  20  22  1   
 46  20  48  1   
 47  21  23  2   
 48  21  24  1   
 49  22  23  1   
 50  22  25  2   
 51  24  49  1   
 52  24  50  1   
 53  24  51  1   
@<TRIPOS>SUBSTRUCTURE
  1 ****  13 GROUP 4 **** **** 0

# MOE 2024.06 (io_trps.svl 2023.06)
