@<TRIPOS>MOLECULE
NONAME
45 47 1 0 0 
SMALL
USER_CHARGES


@<TRIPOS>ATOM
  1 O       -4.1780    -0.8000    -1.5960 O.2   1 <1>  -0.5700 
  2 C       -3.5440     0.0320    -0.9780 C.2   1 <1>   0.6900 
  3 N       -2.8880    -0.2700     0.2090 N.am  1 <1>  -0.4690 
  4 N       -3.4790     1.3040    -1.4500 N.am  1 <1>  -0.4900 
  5 C       -2.1940     0.7160     0.9020 C.2   1 <1>  -0.0410 
  6 C       -2.9250    -1.6600     0.7320 C.3   1 <1>   0.1400 
  7 C       -2.8110     2.3000    -0.8080 C.2   1 <1>   0.6160 
  8 C       -2.1520     1.9760     0.4120 C.2   1 <1>  -0.1360 
  9 C       -4.2070    -1.8880     1.5320 C.3   1 <1>  -0.0990 
 10 O       -2.8070     3.4110    -1.2940 O.2   1 <1>  -0.5700 
 11 C       -4.4510    -3.3720     1.6830 C.2   1 <1>   0.5690 
 12 O       -4.0640    -3.9070     2.6930 O.2   1 <1>  -0.5700 
 13 N       -5.0660    -4.0790     0.6880 N.am  1 <1>  -0.6600 
 14 C       -5.5320    -3.5620    -0.6290 C.3   1 <1>   0.1400 
 15 C       -5.2950    -5.5420     0.7760 C.3   1 <1>   0.1400 
 16 C       -6.4380    -4.6660    -1.1690 C.3   1 <1>   0.2000 
 17 C       -5.8150    -5.9510    -0.6090 C.3   1 <1>  -0.0800 
 18 O       -7.7020    -4.4900    -0.6260 O.3   1 <1>  -0.6800 
 19 C       -6.7560    -7.1700    -0.5890 C.3   1 <1>   0.0200 
 20 C       -6.0640    -8.4550    -0.1670 C.2   1 <1>  -0.0400 
 21 O       -6.7900    -9.5270     0.0110 O.3   1 <1>  -0.0190 
 22 C       -4.7850    -8.7840     0.0830 C.2   1 <1>  -0.1500 
 23 N       -6.0700   -10.5510     0.3690 N.2   1 <1>  -0.4100 
 24 C       -4.8570   -10.1320     0.4220 C.2   1 <1>   0.1080 
 25 C       -3.6760   -10.9960     0.8020 C.3   1 <1>  -0.0590 
 26 H       -3.9550     1.5230    -2.3170 H     1 <1>   0.3700 
 27 H       -1.7060     0.4350     1.8220 H     1 <1>   0.1500 
 28 H       -2.8800    -2.3450    -0.0970 H     1 <1>   0.0800 
 29 H       -2.0670    -1.8470     1.3550 H     1 <1>   0.0800 
 30 H       -1.6330     2.7780     0.9010 H     1 <1>   0.1500 
 31 H       -5.0500    -1.4360     1.0450 H     1 <1>   0.0800 
 32 H       -4.1080    -1.4470     2.5060 H     1 <1>   0.0800 
 33 H       -6.0600    -2.6280    -0.5460 H     1 <1>   0.0800 
 34 H       -4.6840    -3.4370    -1.2800 H     1 <1>   0.0800 
 35 H       -4.3820    -6.0530     1.0290 H     1 <1>   0.0800 
 36 H       -6.0310    -5.7360     1.5380 H     1 <1>   0.0800 
 37 H       -6.5210    -4.6590    -2.2420 H     1 <1>   0.0800 
 38 H       -4.9640    -6.1880    -1.2220 H     1 <1>   0.0800 
 39 H       -7.6130    -4.3340     0.3360 H     1 <1>   0.4000 
 40 H       -7.1710    -7.3150    -1.5710 H     1 <1>   0.0800 
 41 H       -7.5760    -6.9910     0.0850 H     1 <1>   0.0800 
 42 H       -3.8910    -8.1920     0.0450 H     1 <1>   0.1500 
 43 H       -3.2030   -10.6010     1.6820 H     1 <1>   0.0800 
 44 H       -2.9660   -11.0190    -0.0040 H     1 <1>   0.0800 
 45 H       -4.0050   -11.9990     1.0050 H     1 <1>   0.0800 
@<TRIPOS>BOND
  1   1   2  2   
  2   2   3  am  
  3   2   4  am  
  4   3   5  1   
  5   3   6  1   
  6   4   7  am  
  7   4  26  1   
  8   5   8  2   
  9   5  27  1   
 10   6   9  1   
 11   6  28  1   
 12   6  29  1   
 13   7   8  1   
 14   7  10  2   
 15   8  30  1   
 16   9  11  1   
 17   9  31  1   
 18   9  32  1   
 19  11  12  2   
 20  11  13  am  
 21  13  14  1   
 22  13  15  1   
 23  14  16  1   
 24  14  33  1   
 25  14  34  1   
 26  15  17  1   
 27  15  35  1   
 28  15  36  1   
 29  16  17  1   
 30  16  18  1   
 31  16  37  1   
 32  17  19  1   
 33  17  38  1   
 34  18  39  1   
 35  19  20  1   
 36  19  40  1   
 37  19  41  1   
 38  20  21  1   
 39  20  22  2   
 40  21  23  1   
 41  22  24  1   
 42  22  42  1   
 43  23  24  2   
 44  24  25  1   
 45  25  43  1   
 46  25  44  1   
 47  25  45  1   
@<TRIPOS>SUBSTRUCTURE
  1 ****  13 GROUP 4 **** **** 0

# MOE 2024.06 (io_trps.svl 2023.06)
