@<TRIPOS>MOLECULE
NONAME
50 52 1 0 0 
SMALL
USER_CHARGES


@<TRIPOS>ATOM
  1 S        0.8700     1.4630    -0.8570 S.o2  1 <1>   1.3330 
  2 O       -0.0780     2.2910    -1.5630 O.2   1 <1>  -0.6500 
  3 O        2.0700     2.0920    -0.3470 O.2   1 <1>  -0.6500 
  4 N        1.2860     0.1260    -1.8050 N.am  1 <1>  -0.8490 
  5 C        0.0270     0.7550     0.5650 C.3   1 <1>  -0.0550 
  6 C        2.4900     0.3600    -2.6120 C.3   1 <1>   0.1160 
  7 C        0.1970    -0.3410    -2.6720 C.3   1 <1>   0.1160 
  8 C       -0.4140     1.7510     1.6730 C.3   1 <1>  -0.0800 
  9 C       -1.3500     2.8580     1.1670 C.3   1 <1>   0.2000 
 10 C        0.7480     2.5280     2.2990 C.3   1 <1>   0.3430 
 11 O       -2.2440     3.1670     2.1840 O.3   1 <1>  -0.6800 
 12 C       -0.4560     4.0770     0.8840 C.3   1 <1>   0.3430 
 13 N        0.8820     3.7620     1.4860 N.4   1 <1>  -0.9590 
 14 C        1.5480     4.9080     2.1530 C.3   1 <1>   0.4860 
 15 C        1.7370     6.0060     1.1270 C.ar  1 <1>  -0.1440 
 16 C        2.6060     5.8170     0.0520 C.ar  1 <1>  -0.1500 
 17 C        1.0380     7.2010     1.2460 C.ar  1 <1>  -0.1500 
 18 C        2.7890     6.7960    -0.9160 C.ar  1 <1>   0.0820 
 19 C        1.2310     8.1670     0.2780 C.ar  1 <1>   0.0820 
 20 O        3.6560     6.4920    -1.9200 O.3   1 <1>  -0.3630 
 21 C        2.0770     7.9880    -0.7790 C.ar  1 <1>   0.0820 
 22 O        0.6500     9.3690     0.2210 O.3   1 <1>  -0.3620 
 23 C        3.9180     7.4110    -2.9580 C.3   1 <1>   0.0400 
 24 O        2.0580     9.0920    -1.5500 O.3   1 <1>  -0.3620 
 25 C        1.1600    10.0160    -0.9410 C.3   1 <1>   0.4000 
 26 H       -0.8440     0.2340     0.2170 H     1 <1>   0.0800 
 27 H        0.6720     0.0190     1.0060 H     1 <1>   0.0800 
 28 H        2.7390    -0.5230    -3.1770 H     1 <1>   0.0800 
 29 H        3.3260     0.5940    -1.9740 H     1 <1>   0.0800 
 30 H        2.3340     1.1820    -3.2920 H     1 <1>   0.0800 
 31 H        0.4930    -1.2380    -3.1890 H     1 <1>   0.0800 
 32 H       -0.0560     0.4130    -3.4010 H     1 <1>   0.0800 
 33 H       -0.6790    -0.5630    -2.0870 H     1 <1>   0.0800 
 34 H       -0.9040     1.1680     2.4340 H     1 <1>   0.0800 
 35 H       -1.9280     2.5720     0.3030 H     1 <1>   0.0800 
 36 H        1.6620     1.9540     2.2960 H     1 <1>   0.0800 
 37 H        0.4960     2.7890     3.3150 H     1 <1>   0.0800 
 38 H       -1.8130     3.4420     3.0150 H     1 <1>   0.4000 
 39 H       -0.8900     4.9640     1.3150 H     1 <1>   0.0800 
 40 H       -0.3490     4.2220    -0.1800 H     1 <1>   0.0800 
 41 H        1.5050     3.5150     0.6870 H     1 <1>   0.4500 
 42 H        0.9460     5.2670     2.9720 H     1 <1>   0.0800 
 43 H        2.5100     4.6070     2.5350 H     1 <1>   0.0800 
 44 H        3.1630     4.9020    -0.0590 H     1 <1>   0.1500 
 45 H        0.3600     7.4020     2.0560 H     1 <1>   0.1500 
 46 H        4.6260     6.9630    -3.6320 H     1 <1>   0.0800 
 47 H        4.3330     8.3080    -2.5340 H     1 <1>   0.0800 
 48 H        3.0010     7.6220    -3.4770 H     1 <1>   0.0800 
 49 H        1.6950    10.9040    -0.6540 H     1 <1>   0.0800 
 50 H        0.3530    10.2370    -1.6170 H     1 <1>   0.0800 
@<TRIPOS>BOND
  1   1   2  2   
  2   1   3  2   
  3   1   4  am  
  4   1   5  1   
  5   4   6  1   
  6   4   7  1   
  7   5   8  1   
  8   5  26  1   
  9   5  27  1   
 10   6  28  1   
 11   6  29  1   
 12   6  30  1   
 13   7  31  1   
 14   7  32  1   
 15   7  33  1   
 16   8   9  1   
 17   8  10  1   
 18   8  34  1   
 19   9  11  1   
 20   9  12  1   
 21   9  35  1   
 22  10  13  1   
 23  10  36  1   
 24  10  37  1   
 25  11  38  1   
 26  12  13  1   
 27  12  39  1   
 28  12  40  1   
 29  13  14  1   
 30  13  41  1   
 31  14  15  1   
 32  14  42  1   
 33  14  43  1   
 34  15  16  ar  
 35  15  17  ar  
 36  16  18  ar  
 37  16  44  1   
 38  17  19  ar  
 39  17  45  1   
 40  18  20  1   
 41  18  21  ar  
 42  19  21  ar  
 43  19  22  1   
 44  20  23  1   
 45  21  24  1   
 46  22  25  1   
 47  23  46  1   
 48  23  47  1   
 49  23  48  1   
 50  24  25  1   
 51  25  49  1   
 52  25  50  1   
@<TRIPOS>SUBSTRUCTURE
  1 ****  13 GROUP 4 **** **** 0

# MOE 2024.06 (io_trps.svl 2023.06)
