@<TRIPOS>MOLECULE
NONAME
40 43 1 0 0 
SMALL
USER_CHARGES


@<TRIPOS>ATOM
  1 S        0.0410     0.0790    -1.3830 S.3   1 <1>  -0.0800 
  2 C       -1.1530     0.9760    -0.4560 C.2   1 <1>  -0.1400 
  3 C       -1.1400    -1.1700    -1.7550 C.2   1 <1>  -0.1100 
  4 C       -2.3330     0.3440    -0.4670 C.2   1 <1>  -0.1810 
  5 C       -0.8290     2.2890     0.2520 C.3   1 <1>   0.4600 
  6 C       -2.3350    -0.8840    -1.2010 C.2   1 <1>  -0.1500 
  7 C       -3.5080     0.9480     0.2670 C.3   1 <1>   0.0210 
  8 O       -1.9530     2.6750     1.0190 O.3   1 <1>  -0.5600 
  9 C       -0.5270     3.4050    -0.7620 C.3   1 <1>  -0.1600 
 10 C        0.3130     2.0950     1.2680 C.3   1 <1>  -0.1600 
 11 C       -3.2410     2.4490     0.4920 C.3   1 <1>   0.1200 
 12 C        0.2250     4.5580    -0.1010 C.3   1 <1>   0.1400 
 13 C        1.6520     2.6320     0.7630 C.3   1 <1>   0.1400 
 14 N        1.5400     4.0850     0.4260 N.am  1 <1>  -0.6600 
 15 C        2.6330     4.9270     0.5670 C.2   1 <1>   0.7160 
 16 O        3.7200     4.4090     0.7640 O.2   1 <1>  -0.5700 
 17 C        2.5490     6.3840     0.4760 C.2   1 <1>   0.1410 
 18 N        1.4440     7.1340     0.7990 N.2   1 <1>  -0.5650 
 19 C        3.5160     7.2580     0.0910 C.2   1 <1>  -0.0400 
 20 C        1.8180     8.3410     0.5970 C.2   1 <1>   0.3280 
 21 O        3.0480     8.4660     0.1700 O.3   1 <1>  -0.2800 
 22 C        4.9470     7.0800    -0.3830 C.3   1 <1>  -0.0600 
 23 H       -0.8100    -1.9980    -2.3560 H     1 <1>   0.1500 
 24 H       -3.2220    -1.4880    -1.2770 H     1 <1>   0.1500 
 25 H       -3.6400     0.4550     1.2130 H     1 <1>   0.0800 
 26 H       -4.4070     0.8290    -0.3090 H     1 <1>   0.0800 
 27 H       -1.4320     3.7640    -1.2110 H     1 <1>   0.0800 
 28 H        0.0860     3.0200    -1.5560 H     1 <1>   0.0800 
 29 H        0.4160     1.0520     1.5050 H     1 <1>   0.0800 
 30 H        0.0800     2.6110     2.1820 H     1 <1>   0.0800 
 31 H       -3.9540     2.8510     1.1900 H     1 <1>   0.0800 
 32 H       -3.3310     2.9850    -0.4360 H     1 <1>   0.0800 
 33 H       -0.3590     4.9580     0.7120 H     1 <1>   0.0800 
 34 H        0.3820     5.3390    -0.8250 H     1 <1>   0.0800 
 35 H        1.9630     2.0910    -0.1150 H     1 <1>   0.0800 
 36 H        2.4000     2.4890     1.5250 H     1 <1>   0.0800 
 37 H        1.2290     9.2300     0.7420 H     1 <1>   0.1500 
 38 H        5.2030     6.0410    -0.4670 H     1 <1>   0.0800 
 39 H        5.6190     7.5460     0.3150 H     1 <1>   0.0800 
 40 H        5.0690     7.5430    -1.3450 H     1 <1>   0.0800 
@<TRIPOS>BOND
  1   1   2  1   
  2   1   3  1   
  3   2   4  2   
  4   2   5  1   
  5   3   6  2   
  6   3  23  1   
  7   4   6  1   
  8   4   7  1   
  9   5   8  1   
 10   5   9  1   
 11   5  10  1   
 12   6  24  1   
 13   7  11  1   
 14   7  25  1   
 15   7  26  1   
 16   8  11  1   
 17   9  12  1   
 18   9  27  1   
 19   9  28  1   
 20  10  13  1   
 21  10  29  1   
 22  10  30  1   
 23  11  31  1   
 24  11  32  1   
 25  12  14  1   
 26  12  33  1   
 27  12  34  1   
 28  13  14  1   
 29  13  35  1   
 30  13  36  1   
 31  14  15  am  
 32  15  16  2   
 33  15  17  1   
 34  17  18  1   
 35  17  19  2   
 36  18  20  2   
 37  19  21  1   
 38  19  22  1   
 39  20  21  1   
 40  20  37  1   
 41  22  38  1   
 42  22  39  1   
 43  22  40  1   
@<TRIPOS>SUBSTRUCTURE
  1 ****  12 GROUP 4 **** **** 0

# MOE 2024.06 (io_trps.svl 2023.06)
