@<TRIPOS>MOLECULE
NONAME
44 46 1 0 0 
SMALL
USER_CHARGES


@<TRIPOS>ATOM
  1 F       -0.5980     0.5320    -0.4950 F     1 <1>  -0.3400 
  2 C        0.6450     0.9870    -0.3820 C.3   1 <1>   1.1640 
  3 F        1.0280     1.3320    -1.6060 F     1 <1>  -0.3400 
  4 F        0.5550     2.1210     0.3030 F     1 <1>  -0.3400 
  5 C        1.5830    -0.0580     0.2590 C.ar  1 <1>  -0.1440 
  6 C        1.9080    -1.2710    -0.3660 C.ar  1 <1>  -0.1440 
  7 C        2.1320     0.2100     1.5130 C.ar  1 <1>  -0.1500 
  8 C        2.7800    -2.1500     0.2630 C.ar  1 <1>  -0.1500 
  9 C        1.3570    -1.7060    -1.7350 C.3   1 <1>   0.0450 
 10 C        2.9870    -0.6810     2.1310 C.ar  1 <1>  -0.1500 
 11 C        3.3160    -1.8640     1.5030 C.ar  1 <1>  -0.1500 
 12 C        0.9070    -3.1620    -1.7750 C.2   1 <1>   0.5690 
 13 O        1.5600    -3.9360    -2.4340 O.2   1 <1>  -0.5700 
 14 N       -0.2020    -3.5720    -1.0830 N.am  1 <1>  -0.6600 
 15 C       -1.0170    -2.7490    -0.1540 C.3   1 <1>   0.1400 
 16 C       -0.6240    -4.9920    -1.0210 C.3   1 <1>   0.1400 
 17 C       -1.9490    -3.7380     0.5490 C.3   1 <1>   0.2000 
 18 C       -1.3410    -5.1210     0.3220 C.3   1 <1>  -0.0800 
 19 O       -2.0310    -3.4810     1.9080 O.3   1 <1>  -0.6800 
 20 C       -2.3890    -6.2460     0.3750 C.3   1 <1>  -0.0170 
 21 C       -1.7560    -7.6130     0.1760 C.ar  1 <1>   0.1670 
 22 N       -1.5970    -8.0160    -1.0740 N.ar  1 <1>  -0.6200 
 23 C       -1.3720    -8.3680     1.2830 C.ar  1 <1>   0.1600 
 24 C       -1.0330    -9.2100    -1.1440 C.ar  1 <1>   0.1600 
 25 N       -0.8080    -9.5630     1.2160 N.ar  1 <1>  -0.6200 
 26 C       -0.6510    -9.9580    -0.0360 C.ar  1 <1>   0.1600 
 27 H        1.9050     1.1260     2.0340 H     1 <1>   0.1500 
 28 H        3.0570    -3.0790    -0.2110 H     1 <1>   0.1500 
 29 H        2.1320    -1.5740    -2.4690 H     1 <1>   0.0800 
 30 H        0.5220    -1.1160    -2.0520 H     1 <1>   0.0800 
 31 H        3.4010    -0.4530     3.0990 H     1 <1>   0.1500 
 32 H        3.9870    -2.5610     1.9740 H     1 <1>   0.1500 
 33 H       -0.3770    -2.2610     0.5600 H     1 <1>   0.0800 
 34 H       -1.5870    -2.0210    -0.7050 H     1 <1>   0.0800 
 35 H       -1.2960    -5.1960    -1.8390 H     1 <1>   0.0800 
 36 H        0.2210    -5.6570    -1.0850 H     1 <1>   0.0800 
 37 H       -2.9390    -3.6690     0.1290 H     1 <1>   0.0800 
 38 H       -0.5840    -5.3050     1.0650 H     1 <1>   0.0800 
 39 H       -1.1410    -3.5000     2.3110 H     1 <1>   0.4000 
 40 H       -3.1350    -6.0900    -0.3850 H     1 <1>   0.0800 
 41 H       -2.8890    -6.2180     1.3270 H     1 <1>   0.0800 
 42 H       -1.5370    -7.9660     2.2670 H     1 <1>   0.1500 
 43 H       -0.8630    -9.6170    -2.1240 H     1 <1>   0.1500 
 44 H       -0.1980   -10.9200    -0.1950 H     1 <1>   0.1500 
@<TRIPOS>BOND
  1   1   2  1   
  2   2   3  1   
  3   2   4  1   
  4   2   5  1   
  5   5   6  ar  
  6   5   7  ar  
  7   6   8  ar  
  8   6   9  1   
  9   7  10  ar  
 10   7  27  1   
 11   8  11  ar  
 12   8  28  1   
 13   9  12  1   
 14   9  29  1   
 15   9  30  1   
 16  10  11  ar  
 17  10  31  1   
 18  11  32  1   
 19  12  13  2   
 20  12  14  am  
 21  14  15  1   
 22  14  16  1   
 23  15  17  1   
 24  15  33  1   
 25  15  34  1   
 26  16  18  1   
 27  16  35  1   
 28  16  36  1   
 29  17  18  1   
 30  17  19  1   
 31  17  37  1   
 32  18  20  1   
 33  18  38  1   
 34  19  39  1   
 35  20  21  1   
 36  20  40  1   
 37  20  41  1   
 38  21  22  ar  
 39  21  23  ar  
 40  22  24  ar  
 41  23  25  ar  
 42  23  42  1   
 43  24  26  ar  
 44  24  43  1   
 45  25  26  ar  
 46  26  44  1   
@<TRIPOS>SUBSTRUCTURE
  1 ****  14 GROUP 4 **** **** 0

# MOE 2024.06 (io_trps.svl 2023.06)
