@<TRIPOS>MOLECULE
NONAME
52 54 1 0 0 
SMALL
USER_CHARGES


@<TRIPOS>ATOM
  1 O        1.8030     1.1140     2.0940 O.co2 1 <1>  -0.9000 
  2 C        1.7940     0.3680     1.1080 C.2   1 <1>   0.9060 
  3 O        1.5930    -0.8510     1.2170 O.co2 1 <1>  -0.9000 
  4 C        2.1460     0.9090    -0.2790 C.3   1 <1>  -0.1060 
  5 C        3.5330     0.2730    -0.5530 C.3   1 <1>   0.2000 
  6 C        2.2660     2.4650    -0.3130 C.3   1 <1>  -0.1600 
  7 C        1.0700     0.4740    -1.3190 C.3   1 <1>  -0.0160 
  8 O        3.3840    -1.0210    -1.0280 O.3   1 <1>  -0.6800 
  9 C        4.4060     1.1110    -1.4930 C.3   1 <1>   0.1400 
 10 C        3.6540     2.9560     0.0960 C.3   1 <1>   0.1400 
 11 C       -0.2370     1.2620    -1.2490 C.ar  1 <1>  -0.1440 
 12 N        4.6760     2.4610    -0.8870 N.am  1 <1>  -0.6600 
 13 C       -1.0980     1.0980    -0.1750 C.ar  1 <1>  -0.1500 
 14 C       -0.5810     2.1470    -2.2610 C.ar  1 <1>  -0.1500 
 15 C        5.8190     3.1420    -1.2090 C.2   1 <1>   0.5690 
 16 C       -2.2820     1.8120    -0.1080 C.ar  1 <1>  -0.1500 
 17 C       -1.7650     2.8610    -2.1980 C.ar  1 <1>  -0.1500 
 18 O        6.5630     2.7560    -2.0810 O.2   1 <1>  -0.5700 
 19 C        6.1780     4.4220    -0.4650 C.3   1 <1>  -0.0990 
 20 C       -2.6170     2.6940    -1.1200 C.ar  1 <1>  -0.1500 
 21 C        7.6500     4.8310    -0.6140 C.3   1 <1>  -0.0170 
 22 C        7.9370     6.0820     0.2000 C.ar  1 <1>  -0.1430 
 23 C        8.2380     5.9790     1.5510 C.ar  1 <1>  -0.1500 
 24 C        7.8960     7.3340    -0.3980 C.ar  1 <1>  -0.1500 
 25 C        8.4960     7.1160     2.2970 C.ar  1 <1>  -0.1500 
 26 C        8.1530     8.4740     0.3450 C.ar  1 <1>  -0.1500 
 27 C        8.4530     8.3590     1.6920 C.ar  1 <1>   0.0830 
 28 O        8.7060     9.4540     2.4250 O.3   1 <1>  -0.5330 
 29 H        4.0740     0.1850     0.3760 H     1 <1>   0.0800 
 30 H        1.5240     2.8990     0.3360 H     1 <1>   0.0800 
 31 H        2.0720     2.8370    -1.3030 H     1 <1>   0.0800 
 32 H        1.4840     0.5750    -2.3060 H     1 <1>   0.0800 
 33 H        0.8340    -0.5690    -1.1920 H     1 <1>   0.0800 
 34 H        2.7890    -1.4740    -0.3760 H     1 <1>   0.4000 
 35 H        3.9050     1.2410    -2.4350 H     1 <1>   0.0800 
 36 H        5.3370     0.5980    -1.6600 H     1 <1>   0.0800 
 37 H        3.8890     2.5900     1.0830 H     1 <1>   0.0800 
 38 H        3.6460     4.0310     0.1240 H     1 <1>   0.0800 
 39 H       -0.8440     0.4130     0.6190 H     1 <1>   0.1500 
 40 H        0.0760     2.2830    -3.1010 H     1 <1>   0.1500 
 41 H       -2.9340     1.6760     0.7350 H     1 <1>   0.1500 
 42 H       -2.0220     3.5460    -2.9860 H     1 <1>   0.1500 
 43 H        5.5520     5.2140    -0.8320 H     1 <1>   0.0800 
 44 H        5.9720     4.2840     0.5800 H     1 <1>   0.0800 
 45 H       -3.5360     3.2490    -1.0660 H     1 <1>   0.1500 
 46 H        7.8760     5.0090    -1.6520 H     1 <1>   0.0800 
 47 H        8.2830     4.0270    -0.2790 H     1 <1>   0.0800 
 48 H        8.2730     5.0140     2.0260 H     1 <1>   0.1500 
 49 H        7.6630     7.4230    -1.4440 H     1 <1>   0.1500 
 50 H        8.7300     7.0450     3.3440 H     1 <1>   0.1500 
 51 H        8.1200     9.4380    -0.1280 H     1 <1>   0.1500 
 52 H        8.6640    10.2770     1.9080 H     1 <1>   0.4500 
@<TRIPOS>BOND
  1   1   2  ar  
  2   2   3  ar  
  3   2   4  1   
  4   4   5  1   
  5   4   6  1   
  6   4   7  1   
  7   5   8  1   
  8   5   9  1   
  9   5  29  1   
 10   6  10  1   
 11   6  30  1   
 12   6  31  1   
 13   7  11  1   
 14   7  32  1   
 15   7  33  1   
 16   8  34  1   
 17   9  12  1   
 18   9  35  1   
 19   9  36  1   
 20  10  12  1   
 21  10  37  1   
 22  10  38  1   
 23  11  13  ar  
 24  11  14  ar  
 25  12  15  am  
 26  13  16  ar  
 27  13  39  1   
 28  14  17  ar  
 29  14  40  1   
 30  15  18  2   
 31  15  19  1   
 32  16  20  ar  
 33  16  41  1   
 34  17  20  ar  
 35  17  42  1   
 36  19  21  1   
 37  19  43  1   
 38  19  44  1   
 39  20  45  1   
 40  21  22  1   
 41  21  46  1   
 42  21  47  1   
 43  22  23  ar  
 44  22  24  ar  
 45  23  25  ar  
 46  23  48  1   
 47  24  26  ar  
 48  24  49  1   
 49  25  27  ar  
 50  25  50  1   
 51  26  27  ar  
 52  26  51  1   
 53  27  28  1   
 54  28  52  1   
@<TRIPOS>SUBSTRUCTURE
  1 ****  10 GROUP 4 **** **** 0

# MOE 2024.06 (io_trps.svl 2023.06)
