@<TRIPOS>MOLECULE
NONAME
50 52 1 0 0 
SMALL
USER_CHARGES


@<TRIPOS>ATOM
  1 O        1.2250     0.5550     1.1780 O.3   1 <1>  -0.6800 
  2 C        1.6990    -0.0310     0.0080 C.3   1 <1>   0.2000 
  3 C        2.2740    -1.4010     0.3580 C.3   1 <1>  -0.0800 
  4 C        2.9310     0.7460    -0.4610 C.3   1 <1>   0.3430 
  5 C        3.7050    -1.1090     0.8440 C.3   1 <1>   0.3430 
  6 C        2.2700    -2.3490    -0.8580 C.3   1 <1>  -0.0170 
  7 N        4.0530     0.2890     0.4260 N.4   1 <1>  -0.9590 
  8 C        3.0410    -3.6240    -0.5570 C.ar  1 <1>  -0.1440 
  9 C        4.1900     1.1620     1.6350 C.3   1 <1>   0.4860 
 10 C        2.6100    -4.5310     0.3920 C.ar  1 <1>  -0.1500 
 11 C        4.2140    -3.9420    -1.2140 C.ar  1 <1>  -0.1500 
 12 C        4.4480     2.5910     1.2180 C.ar  1 <1>  -0.1440 
 13 C        3.3630    -5.6650     0.6480 C.ar  1 <1>   0.1600 
 14 C        4.8910    -5.1050    -0.8840 C.ar  1 <1>   0.1600 
 15 C        5.6750     3.0090     0.7560 C.ar  1 <1>   0.1600 
 16 C        3.4490     3.5360     1.2790 C.ar  1 <1>   0.1600 
 17 N        4.4980    -5.9640     0.0400 N.ar  1 <1>  -0.6200 
 18 N        5.8860     4.2360     0.3570 N.ar  1 <1>  -0.6200 
 19 N        3.6340     4.7690     0.8840 N.ar  1 <1>  -0.6200 
 20 C        4.8460     5.0590     0.4340 C.ar  1 <1>   0.7200 
 21 N        4.9990     6.3330     0.0200 N.pl3 1 <1>  -0.8690 
 22 C        6.3020     7.0000    -0.1530 C.3   1 <1>   0.2090 
 23 C        6.0740     8.3780    -0.7730 C.3   1 <1>  -0.1600 
 24 C        7.3970     9.1220    -0.9900 C.3   1 <1>  -0.2400 
 25 H        0.3180     0.2410     1.3890 H     1 <1>   0.4000 
 26 H        0.9070    -0.0470    -0.7240 H     1 <1>   0.0800 
 27 H        1.7080    -1.8660     1.1460 H     1 <1>   0.0800 
 28 H        2.7640     1.8090    -0.4190 H     1 <1>   0.0800 
 29 H        3.1470     0.4720    -1.4810 H     1 <1>   0.0800 
 30 H        4.4010    -1.8170     0.4230 H     1 <1>   0.0800 
 31 H        3.7420    -1.1980     1.9180 H     1 <1>   0.0800 
 32 H        2.7020    -1.8670    -1.7180 H     1 <1>   0.0800 
 33 H        1.2560    -2.6100    -1.1120 H     1 <1>   0.0800 
 34 H        4.9370     0.3090    -0.0980 H     1 <1>   0.4500 
 35 H        3.2860     1.1210     2.2220 H     1 <1>   0.0800 
 36 H        5.0040     0.8160     2.2510 H     1 <1>   0.0800 
 37 H        1.6960    -4.3780     0.9360 H     1 <1>   0.1500 
 38 H        4.6140    -3.3100    -1.9860 H     1 <1>   0.1500 
 39 H        3.0140    -6.3630     1.3910 H     1 <1>   0.1500 
 40 H        5.8030    -5.3430    -1.4060 H     1 <1>   0.1500 
 41 H        6.5090     2.3280     0.7040 H     1 <1>   0.1500 
 42 H        2.4690     3.2790     1.6500 H     1 <1>   0.1500 
 43 H        4.2150     6.9310     0.2720 H     1 <1>   0.4000 
 44 H        6.7850     7.0950     0.8060 H     1 <1>   0.0800 
 45 H        6.9280     6.4040    -0.7970 H     1 <1>   0.0800 
 46 H        5.5770     8.2580    -1.7200 H     1 <1>   0.0800 
 47 H        5.4450     8.9610    -0.1240 H     1 <1>   0.0800 
 48 H        8.0370     8.5660    -1.6530 H     1 <1>   0.0800 
 49 H        7.9070     9.2660    -0.0540 H     1 <1>   0.0800 
 50 H        7.2080    10.0860    -1.4280 H     1 <1>   0.0800 
@<TRIPOS>BOND
  1   1   2  1   
  2   1  25  1   
  3   2   3  1   
  4   2   4  1   
  5   2  26  1   
  6   3   5  1   
  7   3   6  1   
  8   3  27  1   
  9   4   7  1   
 10   4  28  1   
 11   4  29  1   
 12   5   7  1   
 13   5  30  1   
 14   5  31  1   
 15   6   8  1   
 16   6  32  1   
 17   6  33  1   
 18   7   9  1   
 19   7  34  1   
 20   8  10  ar  
 21   8  11  ar  
 22   9  12  1   
 23   9  35  1   
 24   9  36  1   
 25  10  13  ar  
 26  10  37  1   
 27  11  14  ar  
 28  11  38  1   
 29  12  15  ar  
 30  12  16  ar  
 31  13  17  ar  
 32  13  39  1   
 33  14  17  ar  
 34  14  40  1   
 35  15  18  ar  
 36  15  41  1   
 37  16  19  ar  
 38  16  42  1   
 39  18  20  ar  
 40  19  20  ar  
 41  20  21  1   
 42  21  22  1   
 43  21  43  1   
 44  22  23  1   
 45  22  44  1   
 46  22  45  1   
 47  23  24  1   
 48  23  46  1   
 49  23  47  1   
 50  24  48  1   
 51  24  49  1   
 52  24  50  1   
@<TRIPOS>SUBSTRUCTURE
  1 ****   7 GROUP 4 **** **** 0

# MOE 2024.06 (io_trps.svl 2023.06)
