@<TRIPOS>MOLECULE
NONAME
43 45 1 0 0 
SMALL
USER_CHARGES


@<TRIPOS>ATOM
  1 O       -0.4890     1.7610     2.2000 O.2   1 <1>  -0.5700 
  2 C       -0.2900     2.3020     1.1360 C.2   1 <1>   0.6300 
  3 N       -1.2800     2.9950     0.4830 N.am  1 <1>  -0.6600 
  4 C        1.1230     2.1950     0.5420 C.3   1 <1>  -0.0950 
  5 C       -2.6760     3.0280     1.0080 C.3   1 <1>   0.1400 
  6 C       -1.1330     3.6980    -0.8190 C.3   1 <1>   0.1400 
  7 C        1.3360     1.4630    -0.7530 C.3   1 <1>  -0.2000 
  8 C        1.7880     0.8480     0.5370 C.3   1 <1>  -0.2000 
  9 C        1.9980     3.4100     0.8780 C.3   1 <1>  -0.1450 
 10 C       -3.6280     2.3080     0.0340 C.3   1 <1>   0.0000 
 11 C       -2.0460     3.0430    -1.8630 C.3   1 <1>  -0.1600 
 12 C       -5.0670     2.3300     0.5800 C.3   1 <1>   0.2000 
 13 C       -3.5050     2.9530    -1.3760 C.3   1 <1>  -0.1600 
 14 C       -3.3550     0.7940    -0.0280 C.3   1 <1>  -0.1600 
 15 O       -5.7060     3.5450     0.3170 O.3   1 <1>  -0.5600 
 16 C       -5.7800     1.1590    -0.1000 C.3   1 <1>  -0.1600 
 17 C       -4.6800     0.1480    -0.4500 C.3   1 <1>  -0.1600 
 18 C       -6.8860     3.7540     1.0260 C.3   1 <1>   0.0400 
 19 H       -2.7270     2.5670     1.9790 H     1 <1>   0.0800 
 20 H       -2.9850     4.0530     1.1170 H     1 <1>   0.0800 
 21 H       -1.4180     4.7280    -0.6880 H     1 <1>   0.0800 
 22 H       -0.1160     3.6800    -1.1630 H     1 <1>   0.0800 
 23 H        0.4880     1.0250    -1.2510 H     1 <1>   0.1000 
 24 H        2.0800     1.8210    -1.4430 H     1 <1>   0.1000 
 25 H        2.8410     0.7850     0.7450 H     1 <1>   0.1000 
 26 H        1.2400     0.0110     0.9370 H     1 <1>   0.1000 
 27 H        2.9860     3.2970     0.4680 H     1 <1>   0.0800 
 28 H        2.0780     3.5100     1.9460 H     1 <1>   0.0800 
 29 H        1.5590     4.3070     0.4810 H     1 <1>   0.0800 
 30 H       -2.0100     3.6190    -2.7700 H     1 <1>   0.0800 
 31 H       -1.6680     2.0640    -2.0930 H     1 <1>   0.0800 
 32 H       -5.0420     2.1710     1.6450 H     1 <1>   0.0800 
 33 H       -4.0920     2.4080    -2.0930 H     1 <1>   0.0800 
 34 H       -3.8970     3.9540    -1.3380 H     1 <1>   0.0800 
 35 H       -2.5510     0.5330    -0.6910 H     1 <1>   0.0800 
 36 H       -3.0960     0.4400     0.9560 H     1 <1>   0.0800 
 37 H       -6.5100     0.7220     0.5580 H     1 <1>   0.0800 
 38 H       -6.2590     1.4950    -1.0030 H     1 <1>   0.0800 
 39 H       -4.8260    -0.7880     0.0610 H     1 <1>   0.0800 
 40 H       -4.6790    -0.0330    -1.5120 H     1 <1>   0.0800 
 41 H       -7.2660     4.7250     0.7610 H     1 <1>   0.0800 
 42 H       -6.6780     3.7230     2.0810 H     1 <1>   0.0800 
 43 H       -7.6050     3.0000     0.7580 H     1 <1>   0.0800 
@<TRIPOS>BOND
  1   1   2  2   
  2   2   3  am  
  3   2   4  1   
  4   3   5  1   
  5   3   6  1   
  6   4   7  1   
  7   4   8  1   
  8   4   9  1   
  9   5  10  1   
 10   5  19  1   
 11   5  20  1   
 12   6  11  1   
 13   6  21  1   
 14   6  22  1   
 15   7   8  1   
 16   7  23  1   
 17   7  24  1   
 18   8  25  1   
 19   8  26  1   
 20   9  27  1   
 21   9  28  1   
 22   9  29  1   
 23  10  12  1   
 24  10  13  1   
 25  10  14  1   
 26  11  13  1   
 27  11  30  1   
 28  11  31  1   
 29  12  15  1   
 30  12  16  1   
 31  12  32  1   
 32  13  33  1   
 33  13  34  1   
 34  14  17  1   
 35  14  35  1   
 36  14  36  1   
 37  15  18  1   
 38  16  17  1   
 39  16  37  1   
 40  16  38  1   
 41  17  39  1   
 42  17  40  1   
 43  18  41  1   
 44  18  42  1   
 45  18  43  1   
@<TRIPOS>SUBSTRUCTURE
  1 ****   5 GROUP 4 **** **** 0

# MOE 2024.06 (io_trps.svl 2023.06)
