@<TRIPOS>MOLECULE
NONAME
51 54 1 0 0 
SMALL
USER_CHARGES


@<TRIPOS>ATOM
  1 F       -1.7840     0.5470     0.4870 F     1 <1>  -0.1900 
  2 C       -3.0210     0.7580     0.1260 C.ar  1 <1>   0.1900 
  3 C       -3.6760    -0.2090    -0.6060 C.ar  1 <1>  -0.1500 
  4 C       -3.6290     1.9400     0.4930 C.ar  1 <1>  -0.1500 
  5 C       -4.9960     0.0000    -0.9890 C.ar  1 <1>  -0.1440 
  6 C       -4.9380     2.1530     0.1020 C.ar  1 <1>  -0.1500 
  7 C       -5.6260     1.1970    -0.6370 C.ar  1 <1>  -0.1430 
  8 C       -5.6940    -1.1090    -1.7830 C.3   1 <1>   0.0440 
  9 C       -7.0600     1.5070    -1.0430 C.3   1 <1>  -0.0960 
 10 C       -5.4890    -2.4980    -1.1930 C.2   1 <1>   0.5690 
 11 O       -4.9310    -3.3240    -1.8750 O.2   1 <1>  -0.5700 
 12 N       -5.9390    -2.8050     0.0640 N.am  1 <1>  -0.6600 
 13 C       -6.6850    -1.9110     0.9890 C.3   1 <1>   0.1400 
 14 C       -5.7630    -4.1450     0.6750 C.3   1 <1>   0.1400 
 15 C       -6.8390    -2.7210     2.2800 C.3   1 <1>   0.2000 
 16 C       -6.7690    -4.1840     1.8310 C.3   1 <1>  -0.0800 
 17 O       -5.7490    -2.4660     3.0960 O.3   1 <1>  -0.6800 
 18 C       -8.1610    -4.6820     1.3910 C.3   1 <1>  -0.0170 
 19 C       -8.1540    -6.1540     0.9850 C.ar  1 <1>  -0.1430 
 20 C       -8.0540    -6.5980    -0.3580 C.ar  1 <1>   0.0000 
 21 C       -8.2590    -7.1070     1.9550 C.ar  1 <1>  -0.1500 
 22 C       -8.0780    -7.9960    -0.5890 C.ar  1 <1>   0.3100 
 23 C       -7.9280    -5.7490    -1.4830 C.ar  1 <1>  -0.1500 
 24 C       -8.2680    -8.4650     1.6170 C.ar  1 <1>   0.1600 
 25 N       -8.1840    -8.9130     0.4060 N.ar  1 <1>  -0.6200 
 26 C       -7.9860    -8.4720    -1.9070 C.ar  1 <1>  -0.1500 
 27 C       -7.8350    -6.2460    -2.7550 C.ar  1 <1>  -0.1500 
 28 C       -7.8680    -7.6240    -2.9740 C.ar  1 <1>  -0.1500 
 29 H       -3.1520    -1.1120    -0.8680 H     1 <1>   0.1500 
 30 H       -3.0880     2.6720     1.0650 H     1 <1>   0.1500 
 31 H       -5.4180     3.0760     0.3800 H     1 <1>   0.1500 
 32 H       -5.3030    -1.1040    -2.7840 H     1 <1>   0.0800 
 33 H       -6.7500    -0.9470    -1.8550 H     1 <1>   0.0800 
 34 H       -7.3330     2.5100    -0.7660 H     1 <1>   0.0800 
 35 H       -7.7390     0.8300    -0.5570 H     1 <1>   0.0800 
 36 H       -7.1710     1.4170    -2.1090 H     1 <1>   0.0800 
 37 H       -6.1590    -0.9890     1.1710 H     1 <1>   0.0800 
 38 H       -7.6520    -1.7000     0.5700 H     1 <1>   0.0800 
 39 H       -5.9090    -4.9320    -0.0430 H     1 <1>   0.0800 
 40 H       -4.7590    -4.2200     1.0560 H     1 <1>   0.0800 
 41 H       -7.7320    -2.4760     2.8300 H     1 <1>   0.0800 
 42 H       -6.4140    -4.8160     2.6270 H     1 <1>   0.0800 
 43 H       -4.9280    -2.5160     2.5650 H     1 <1>   0.4000 
 44 H       -8.5580    -4.0710     0.6020 H     1 <1>   0.0800 
 45 H       -8.8360    -4.5720     2.2220 H     1 <1>   0.0800 
 46 H       -8.3370    -6.8450     2.9950 H     1 <1>   0.1500 
 47 H       -7.8900    -4.6860    -1.3490 H     1 <1>   0.1500 
 48 H       -8.3520    -9.1810     2.4170 H     1 <1>   0.1500 
 49 H       -8.0110    -9.5370    -2.0500 H     1 <1>   0.1500 
 50 H       -7.7310    -5.5850    -3.5980 H     1 <1>   0.1500 
 51 H       -7.7950    -8.0030    -3.9790 H     1 <1>   0.1500 
@<TRIPOS>BOND
  1   1   2  1   
  2   2   3  ar  
  3   2   4  ar  
  4   3   5  ar  
  5   3  29  1   
  6   4   6  ar  
  7   4  30  1   
  8   5   7  ar  
  9   5   8  1   
 10   6   7  ar  
 11   6  31  1   
 12   7   9  1   
 13   8  10  1   
 14   8  32  1   
 15   8  33  1   
 16   9  34  1   
 17   9  35  1   
 18   9  36  1   
 19  10  11  2   
 20  10  12  am  
 21  12  13  1   
 22  12  14  1   
 23  13  15  1   
 24  13  37  1   
 25  13  38  1   
 26  14  16  1   
 27  14  39  1   
 28  14  40  1   
 29  15  16  1   
 30  15  17  1   
 31  15  41  1   
 32  16  18  1   
 33  16  42  1   
 34  17  43  1   
 35  18  19  1   
 36  18  44  1   
 37  18  45  1   
 38  19  20  ar  
 39  19  21  ar  
 40  20  22  ar  
 41  20  23  ar  
 42  21  24  ar  
 43  21  46  1   
 44  22  25  ar  
 45  22  26  ar  
 46  23  27  ar  
 47  23  47  1   
 48  24  25  ar  
 49  24  48  1   
 50  26  28  ar  
 51  26  49  1   
 52  27  28  ar  
 53  27  50  1   
 54  28  51  1   
@<TRIPOS>SUBSTRUCTURE
  1 ****  12 GROUP 4 **** **** 0

# MOE 2024.06 (io_trps.svl 2023.06)
