@<TRIPOS>MOLECULE
NONAME
45 47 1 0 0 
SMALL
USER_CHARGES


@<TRIPOS>ATOM
  1 CL      -3.5130     1.2650     3.4430 Cl    1 <1>  -0.1770 
  2 C       -4.1170     0.0410     2.3400 C.ar  1 <1>   0.1770 
  3 C       -4.3180     0.3450     0.9960 C.ar  1 <1>   0.0820 
  4 C       -4.3990    -1.2250     2.8180 C.ar  1 <1>   0.1770 
  5 O       -4.0370     1.5890     0.5490 O.3   1 <1>  -0.3630 
  6 C       -4.8340    -0.6140     0.1210 C.ar  1 <1>  -0.0090 
  7 CL      -4.1430    -1.6320     4.4980 Cl    1 <1>  -0.1770 
  8 C       -4.8890    -2.1960     1.9680 C.ar  1 <1>  -0.1500 
  9 C       -2.6870     1.8740     0.2440 C.3   1 <1>   0.0400 
 10 S       -5.1940    -0.2540    -1.6280 S.o2  1 <1>   1.4470 
 11 C       -5.1030    -1.8830     0.6350 C.ar  1 <1>  -0.1500 
 12 O       -5.4490    -1.5170    -2.2880 O.2   1 <1>  -0.6500 
 13 O       -4.1930     0.6240    -2.1950 O.2   1 <1>  -0.6500 
 14 N       -6.6760     0.5710    -1.6080 N.am  1 <1>  -0.8490 
 15 C       -7.8070    -0.2730    -1.1730 C.3   1 <1>   0.1960 
 16 C       -6.6200     1.9100    -1.0310 C.3   1 <1>   0.1960 
 17 C       -8.9950     0.4940    -0.5330 C.3   1 <1>   0.0000 
 18 C       -7.9160     2.6840    -1.3160 C.3   1 <1>  -0.1600 
 19 C       -8.8490     0.7610     0.9850 C.3   1 <1>   0.2000 
 20 C       -9.1880     1.8140    -1.3150 C.3   1 <1>  -0.1600 
 21 C      -10.2910    -0.3380    -0.6000 C.3   1 <1>  -0.1600 
 22 O       -8.3370    -0.3540     1.6300 O.3   1 <1>  -0.6800 
 23 C      -10.2750     0.9530     1.4950 C.3   1 <1>  -0.1600 
 24 C      -11.1740     0.1220     0.5690 C.3   1 <1>  -0.1600 
 25 H       -5.1050    -3.1800     2.3470 H     1 <1>   0.1500 
 26 H       -2.6400     2.8630    -0.1760 H     1 <1>   0.0800 
 27 H       -2.3280     1.1580    -0.4740 H     1 <1>   0.0800 
 28 H       -2.1010     1.8300     1.1440 H     1 <1>   0.0800 
 29 H       -5.4920    -2.6470    -0.0190 H     1 <1>   0.1500 
 30 H       -8.1660    -0.7820    -2.0520 H     1 <1>   0.0800 
 31 H       -7.4660    -1.0400    -0.5020 H     1 <1>   0.0800 
 32 H       -6.4700     1.8350     0.0310 H     1 <1>   0.0800 
 33 H       -5.7870     2.4560    -1.4440 H     1 <1>   0.0800 
 34 H       -8.0080     3.4630    -0.5800 H     1 <1>   0.0800 
 35 H       -7.8250     3.1660    -2.2740 H     1 <1>   0.0800 
 36 H       -8.2200     1.6000     1.2220 H     1 <1>   0.0800 
 37 H       -9.4130     1.5650    -2.3380 H     1 <1>   0.0800 
 38 H      -10.0190     2.3830    -0.9370 H     1 <1>   0.0800 
 39 H      -10.7970    -0.2320    -1.5450 H     1 <1>   0.0800 
 40 H      -10.0570    -1.3800    -0.4630 H     1 <1>   0.0800 
 41 H       -9.0300    -1.0400     1.6650 H     1 <1>   0.4000 
 42 H      -10.3800     0.6810     2.5310 H     1 <1>   0.0800 
 43 H      -10.5380     1.9910     1.3940 H     1 <1>   0.0800 
 44 H      -11.5790    -0.7290     1.0900 H     1 <1>   0.0800 
 45 H      -11.9900     0.7270     0.2110 H     1 <1>   0.0800 
@<TRIPOS>BOND
  1   1   2  1   
  2   2   3  ar  
  3   2   4  ar  
  4   3   5  1   
  5   3   6  ar  
  6   4   7  1   
  7   4   8  ar  
  8   5   9  1   
  9   6  10  1   
 10   6  11  ar  
 11   8  11  ar  
 12   8  25  1   
 13   9  26  1   
 14   9  27  1   
 15   9  28  1   
 16  10  12  2   
 17  10  13  2   
 18  10  14  am  
 19  11  29  1   
 20  14  15  1   
 21  14  16  1   
 22  15  17  1   
 23  15  30  1   
 24  15  31  1   
 25  16  18  1   
 26  16  32  1   
 27  16  33  1   
 28  17  19  1   
 29  17  20  1   
 30  17  21  1   
 31  18  20  1   
 32  18  34  1   
 33  18  35  1   
 34  19  22  1   
 35  19  23  1   
 36  19  36  1   
 37  20  37  1   
 38  20  38  1   
 39  21  24  1   
 40  21  39  1   
 41  21  40  1   
 42  22  41  1   
 43  23  24  1   
 44  23  42  1   
 45  23  43  1   
 46  24  44  1   
 47  24  45  1   
@<TRIPOS>SUBSTRUCTURE
  1 ****   6 GROUP 4 **** **** 0

# MOE 2024.06 (io_trps.svl 2023.06)
