@<TRIPOS>MOLECULE
NONAME
49 51 1 0 0 
SMALL
USER_CHARGES


@<TRIPOS>ATOM
  1 O       -0.1490     1.2430    -1.0700 O.2   1 <1>  -0.5700 
  2 C       -1.3390     1.4680    -1.1870 C.2   1 <1>   0.5440 
  3 N       -1.7420     2.5830    -1.8950 N.am  1 <1>  -0.6600 
  4 C       -2.2960     0.5660    -0.5750 C.ar  1 <1>   0.0860 
  5 C       -3.0710     3.2290    -1.7200 C.3   1 <1>   0.1400 
  6 C       -0.7940     3.3500    -2.7480 C.3   1 <1>   0.1400 
  7 C       -2.2380     0.2730     0.7840 C.ar  1 <1>  -0.1500 
  8 C       -3.3050    -0.0380    -1.3250 C.ar  1 <1>  -0.1500 
  9 C       -2.8760     4.6120    -1.0930 C.3   1 <1>  -0.1600 
 10 C       -0.5650     4.7300    -2.1290 C.3   1 <1>  -0.1600 
 11 C       -3.1550    -0.5720     1.3850 C.ar  1 <1>   0.0830 
 12 C       -4.2260    -0.8880    -0.7400 C.ar  1 <1>  -0.1500 
 13 C       -1.8970     5.4760    -1.9120 C.3   1 <1>  -0.0190 
 14 O       -3.0120    -0.7810     2.7170 O.3   1 <1>  -0.3630 
 15 C       -4.1570    -1.1560     0.6160 C.ar  1 <1>  -0.1500 
 16 C       -1.6890     6.8460    -1.2750 C.2   1 <1>   0.5690 
 17 C       -3.8420    -1.6820     3.4140 C.3   1 <1>   0.0400 
 18 O       -2.1140     7.8230    -1.8390 O.2   1 <1>  -0.5700 
 19 N       -1.0360     6.9360    -0.0890 N.am  1 <1>  -0.7300 
 20 C       -0.7750     8.2030     0.6480 C.3   1 <1>   0.2200 
 21 C        0.7160     8.5080     0.6690 C.3   1 <1>   0.2000 
 22 C       -1.0570     7.9890     2.1360 C.3   1 <1>   0.1200 
 23 O        0.9250     9.8340     1.0430 O.3   1 <1>  -0.6800 
 24 C        1.1990     7.6070     1.8030 C.3   1 <1>   0.1200 
 25 O        0.1330     7.5120     2.7100 O.3   1 <1>  -0.5600 
 26 H       -3.5470     3.3220    -2.6810 H     1 <1>   0.0800 
 27 H       -3.7080     2.6400    -1.0840 H     1 <1>   0.0800 
 28 H        0.1450     2.8300    -2.8390 H     1 <1>   0.0800 
 29 H       -1.2120     3.4520    -3.7350 H     1 <1>   0.0800 
 30 H       -1.4600     0.7120     1.3830 H     1 <1>   0.1500 
 31 H       -3.3580     0.1620    -2.3810 H     1 <1>   0.1500 
 32 H       -3.8280     5.1100    -1.0320 H     1 <1>   0.0800 
 33 H       -2.5090     4.4860    -0.0890 H     1 <1>   0.0800 
 34 H       -0.0480     4.5980    -1.1950 H     1 <1>   0.0800 
 35 H        0.0700     5.3070    -2.7780 H     1 <1>   0.0800 
 36 H       -4.9960    -1.3440    -1.3390 H     1 <1>   0.1500 
 37 H       -2.3390     5.6430    -2.8800 H     1 <1>   0.0800 
 38 H       -4.8830    -1.8160     1.0500 H     1 <1>   0.1500 
 39 H       -3.5240    -1.7030     4.4410 H     1 <1>   0.0800 
 40 H       -3.7380    -2.6600     2.9790 H     1 <1>   0.0800 
 41 H       -4.8600    -1.3380     3.3540 H     1 <1>   0.0800 
 42 H       -0.7190     6.0850     0.3800 H     1 <1>   0.3700 
 43 H       -1.3520     9.0090     0.2270 H     1 <1>   0.0800 
 44 H        1.2030     8.3360    -0.2750 H     1 <1>   0.0800 
 45 H       -1.8500     7.2840     2.3090 H     1 <1>   0.0800 
 46 H       -1.2940     8.9240     2.6110 H     1 <1>   0.0800 
 47 H        0.6980     9.9430     1.9890 H     1 <1>   0.4000 
 48 H        2.0700     7.9950     2.3010 H     1 <1>   0.0800 
 49 H        1.4020     6.6170     1.4360 H     1 <1>   0.0800 
@<TRIPOS>BOND
  1   1   2  2   
  2   2   3  am  
  3   2   4  1   
  4   3   5  1   
  5   3   6  1   
  6   4   7  ar  
  7   4   8  ar  
  8   5   9  1   
  9   5  26  1   
 10   5  27  1   
 11   6  10  1   
 12   6  28  1   
 13   6  29  1   
 14   7  11  ar  
 15   7  30  1   
 16   8  12  ar  
 17   8  31  1   
 18   9  13  1   
 19   9  32  1   
 20   9  33  1   
 21  10  13  1   
 22  10  34  1   
 23  10  35  1   
 24  11  14  1   
 25  11  15  ar  
 26  12  15  ar  
 27  12  36  1   
 28  13  16  1   
 29  13  37  1   
 30  14  17  1   
 31  15  38  1   
 32  16  18  2   
 33  16  19  am  
 34  17  39  1   
 35  17  40  1   
 36  17  41  1   
 37  19  20  1   
 38  19  42  1   
 39  20  21  1   
 40  20  22  1   
 41  20  43  1   
 42  21  23  1   
 43  21  24  1   
 44  21  44  1   
 45  22  25  1   
 46  22  45  1   
 47  22  46  1   
 48  23  47  1   
 49  24  25  1   
 50  24  48  1   
 51  24  49  1   
@<TRIPOS>SUBSTRUCTURE
  1 ****   9 GROUP 4 **** **** 0

# MOE 2024.06 (io_trps.svl 2023.06)
