@<TRIPOS>MOLECULE
F2167-9537
16 16 1 0 0 
SMALL
USER_CHARGES


@<TRIPOS>ATOM
  1 O       -4.8100    -0.0310    -0.1080 O.3   1 <1>  -0.4180 
  2 C       -4.3300    -1.1590     0.3200 C.cat 1 <1>   0.8470 
  3 C       -3.7060     0.8610    -0.2760 C.3   1 <1>   0.2000 
  4 N       -3.0340    -1.2030     0.4560 N.pl3 1 <1>  -0.7940 
  5 N       -5.1420    -2.1460     0.5770 N.pl3 1 <1>  -0.7540 
  6 C       -2.4390     0.0640     0.0720 C.3   1 <1>   0.3300 
  7 C       -3.9420     2.0690     0.6340 C.3   1 <1>  -0.2400 
  8 H       -3.6810     1.1730    -1.3070 H     1 <1>   0.0800 
  9 H       -2.4620    -1.9870     0.7770 H     1 <1>   0.4500 
 10 H       -4.8540    -3.0610     0.9150 H     1 <1>   0.4500 
 11 H       -6.1470    -2.0300     0.4450 H     1 <1>   0.4500 
 12 H       -1.8930     0.5080     0.8880 H     1 <1>   0.0800 
 13 H       -1.7980    -0.0470    -0.7870 H     1 <1>   0.0800 
 14 H       -4.0020     1.7690     1.6660 H     1 <1>   0.0800 
 15 H       -4.8570     2.5640     0.3570 H     1 <1>   0.0800 
 16 H       -3.1380     2.7760     0.5300 H     1 <1>   0.0800 
@<TRIPOS>BOND
  1   1   2  1   
  2   1   3  1   
  3   2   4  ar  
  4   2   5  ar  
  5   3   6  1   
  6   3   7  1   
  7   3   8  1   
  8   4   6  1   
  9   4   9  1   
 10   5  10  1   
 11   5  11  1   
 12   6  12  1   
 13   6  13  1   
 14   7  14  1   
 15   7  15  1   
 16   7  16  1   
@<TRIPOS>SUBSTRUCTURE
  1 ****   1 GROUP 4 **** **** 0

# MOE 2024.06 (io_trps.svl 2023.06)
