@<TRIPOS>MOLECULE
NONAME
40 41 1 0 0 
SMALL
USER_CHARGES


@<TRIPOS>ATOM
  1 CL       0.2690    -1.6480    -2.0050 Cl    1 <1>  -0.1770 
  2 C       -0.1380    -2.6950    -0.6610 C.ar  1 <1>   0.1770 
  3 C        0.8260    -3.3080     0.1430 C.ar  1 <1>   0.0830 
  4 C       -1.4850    -2.9180    -0.4440 C.ar  1 <1>  -0.1500 
  5 O        2.1690    -3.1570     0.0260 O.3   1 <1>  -0.3630 
  6 C        0.3960    -4.1550     1.1500 C.ar  1 <1>  -0.1500 
  7 C       -1.9220    -3.7690     0.5640 C.ar  1 <1>  -0.0090 
  8 C        2.7390    -1.8910    -0.2290 C.3   1 <1>   0.0400 
  9 C       -0.9550    -4.3780     1.3590 C.ar  1 <1>  -0.1500 
 10 S       -3.6940    -4.0760     0.8190 S.o2  1 <1>   1.4470 
 11 O       -4.3570    -2.7950     0.8220 O.2   1 <1>  -0.6500 
 12 O       -3.8740    -4.9990     1.9170 O.2   1 <1>  -0.6500 
 13 N       -4.2060    -4.8170    -0.6080 N.am  1 <1>  -0.9140 
 14 C       -3.9720    -6.2150    -0.9190 C.3   1 <1>   0.2760 
 15 C       -4.9300    -7.1050    -0.1150 C.3   1 <1>  -0.1600 
 16 C       -2.5010    -6.6030    -0.7660 C.3   1 <1>  -0.2400 
 17 C       -4.9260    -8.5600    -0.6110 C.3   1 <1>   0.0960 
 18 N       -6.0020    -9.3470     0.0220 N.pl3 1 <1>   0.3140 
 19 N       -6.9770    -9.9180    -0.7090 N.2   1 <1>  -0.7070 
 20 C       -6.1530    -9.6190     1.3340 C.2   1 <1>  -0.3020 
 21 C       -7.7250   -10.5330     0.1560 C.2   1 <1>   0.1390 
 22 C       -7.2590   -10.3820     1.4560 C.2   1 <1>  -0.1500 
 23 H       -2.2010    -2.4160    -1.0720 H     1 <1>   0.1500 
 24 H        1.1290    -4.6380     1.7740 H     1 <1>   0.1500 
 25 H        3.7270    -1.8800     0.1950 H     1 <1>   0.0800 
 26 H        2.1360    -1.1270     0.2300 H     1 <1>   0.0800 
 27 H        2.8040    -1.7450    -1.2910 H     1 <1>   0.0800 
 28 H       -1.2620    -5.0370     2.1550 H     1 <1>   0.1500 
 29 H       -3.9670    -4.2040    -1.3800 H     1 <1>   0.4200 
 30 H       -4.2320    -6.3420    -1.9580 H     1 <1>   0.0800 
 31 H       -5.9270    -6.7120    -0.2210 H     1 <1>   0.0800 
 32 H       -4.6660    -7.0990     0.9250 H     1 <1>   0.0800 
 33 H       -2.2230    -6.6530     0.2710 H     1 <1>   0.0800 
 34 H       -1.8680    -5.9080    -1.2860 H     1 <1>   0.0800 
 35 H       -2.3320    -7.5740    -1.1950 H     1 <1>   0.0800 
 36 H       -3.9900    -9.0360    -0.3870 H     1 <1>   0.0800 
 37 H       -5.0820    -8.5880    -1.6740 H     1 <1>   0.0800 
 38 H       -5.4810    -9.2600     2.0920 H     1 <1>   0.1500 
 39 H       -8.6040   -11.0950    -0.1150 H     1 <1>   0.1500 
 40 H       -7.7040   -10.7960     2.3430 H     1 <1>   0.1500 
@<TRIPOS>BOND
  1   1   2  1   
  2   2   3  ar  
  3   2   4  ar  
  4   3   5  1   
  5   3   6  ar  
  6   4   7  ar  
  7   4  23  1   
  8   5   8  1   
  9   6   9  ar  
 10   6  24  1   
 11   7   9  ar  
 12   7  10  1   
 13   8  25  1   
 14   8  26  1   
 15   8  27  1   
 16   9  28  1   
 17  10  11  2   
 18  10  12  2   
 19  10  13  am  
 20  13  14  1   
 21  13  29  1   
 22  14  15  1   
 23  14  16  1   
 24  14  30  1   
 25  15  17  1   
 26  15  31  1   
 27  15  32  1   
 28  16  33  1   
 29  16  34  1   
 30  16  35  1   
 31  17  18  1   
 32  17  36  1   
 33  17  37  1   
 34  18  19  1   
 35  18  20  1   
 36  19  21  2   
 37  20  22  2   
 38  20  38  1   
 39  21  22  1   
 40  21  39  1   
 41  22  40  1   
@<TRIPOS>SUBSTRUCTURE
  1 ****  16 GROUP 4 **** **** 0

# MOE 2024.06 (io_trps.svl 2023.06)
