@<TRIPOS>MOLECULE
NONAME
58 61 1 0 0 
SMALL
USER_CHARGES


@<TRIPOS>ATOM
  1 O       -2.7170    -0.5030     0.6970 O.2   1 <1>  -0.5700 
  2 C       -2.7780     0.6260     1.1570 C.2   1 <1>   0.5440 
  3 N       -3.3460     0.8050     2.3970 N.am  1 <1>  -0.6600 
  4 C       -2.3000     1.7400     0.3680 C.ar  1 <1>   0.0860 
  5 C       -3.7160    -0.3590     3.2550 C.3   1 <1>   0.1400 
  6 C       -3.9200     2.1040     2.8440 C.3   1 <1>   0.1400 
  7 C       -3.1210     2.3930    -0.5500 C.ar  1 <1>  -0.1500 
  8 C       -0.9910     2.1990     0.4940 C.ar  1 <1>  -0.1500 
  9 C       -5.0630    -0.9930     2.8540 C.3   1 <1>   0.1400 
 10 C       -5.3500     2.3020     2.3130 C.3   1 <1>  -0.1600 
 11 C       -2.6550     3.4540    -1.3030 C.ar  1 <1>  -0.1500 
 12 C       -0.5270     3.2590    -0.2610 C.ar  1 <1>  -0.1500 
 13 N       -5.8880    -0.1180     1.9570 N.am  1 <1>  -0.6600 
 14 C       -6.3390     1.1560     2.5880 C.3   1 <1>   0.1400 
 15 C       -1.3450     3.9140    -1.1800 C.ar  1 <1>   0.0530 
 16 C       -6.0190    -0.3200     0.6010 C.2   1 <1>   0.5690 
 17 C       -0.8600     5.0220    -1.9720 C.2   1 <1>   0.0870 
 18 O       -6.5610     0.4950    -0.1170 O.2   1 <1>  -0.5700 
 19 C       -5.4780    -1.5910    -0.1030 C.3   1 <1>   0.4840 
 20 O        0.3810     5.4390    -1.8770 O.3   1 <1>  -0.2800 
 21 C       -1.4440     5.8220    -2.8920 C.2   1 <1>   0.0770 
 22 N       -5.3250    -1.4290    -1.5910 N.4   1 <1>  -0.9590 
 23 C       -6.4290    -2.7760     0.0320 C.3   1 <1>  -0.1600 
 24 C        0.5020     6.4390    -2.7140 C.2   1 <1>   0.3280 
 25 N       -0.5670     6.7260    -3.3640 N.2   1 <1>  -0.5650 
 26 C       -5.6510    -2.7180    -2.2610 C.3   1 <1>   0.3430 
 27 C       -4.0000    -0.8660    -1.9420 C.3   1 <1>   0.3430 
 28 C       -6.0970    -3.6680    -1.1570 C.3   1 <1>  -0.1600 
 29 C       -4.0080    -0.3980    -3.3910 C.3   1 <1>  -0.2400 
 30 H       -3.7640    -0.0440     4.2830 H     1 <1>   0.0800 
 31 H       -2.9420    -1.1060     3.1960 H     1 <1>   0.0800 
 32 H       -3.2970     2.9150     2.5050 H     1 <1>   0.0800 
 33 H       -3.9270     2.1390     3.9200 H     1 <1>   0.0800 
 34 H       -4.1390     2.0660    -0.6690 H     1 <1>   0.1500 
 35 H       -0.3340     1.7130     1.1940 H     1 <1>   0.1500 
 36 H       -5.6240    -1.2160     3.7450 H     1 <1>   0.0800 
 37 H       -4.8570    -1.9350     2.3810 H     1 <1>   0.0800 
 38 H       -5.3200     2.4910     1.2580 H     1 <1>   0.0800 
 39 H       -5.7450     3.1940     2.7640 H     1 <1>   0.0800 
 40 H       -3.3210     3.9340    -1.9990 H     1 <1>   0.1500 
 41 H        0.4920     3.5860    -0.1370 H     1 <1>   0.1500 
 42 H       -7.3030     1.4220     2.1870 H     1 <1>   0.0800 
 43 H       -6.4550     1.0180     3.6490 H     1 <1>   0.0800 
 44 H       -4.5250    -1.8560     0.3210 H     1 <1>   0.0800 
 45 H       -2.4600     5.7980    -3.2460 H     1 <1>   0.1500 
 46 H       -6.0400    -0.7190    -1.8210 H     1 <1>   0.4500 
 47 H       -7.4470    -2.4280    -0.0400 H     1 <1>   0.0800 
 48 H       -6.3040    -3.2840     0.9720 H     1 <1>   0.0800 
 49 H        1.4540     6.9350    -2.7970 H     1 <1>   0.1500 
 50 H       -4.7920    -3.1180    -2.7770 H     1 <1>   0.0800 
 51 H       -6.4500    -2.5670    -2.9700 H     1 <1>   0.0800 
 52 H       -3.2250    -1.6010    -1.7850 H     1 <1>   0.0800 
 53 H       -3.7890    -0.0220    -1.3070 H     1 <1>   0.0800 
 54 H       -6.9370    -4.2660    -1.4660 H     1 <1>   0.0800 
 55 H       -5.2800    -4.3250    -0.9120 H     1 <1>   0.0800 
 56 H       -4.1400    -1.2220    -4.0690 H     1 <1>   0.0800 
 57 H       -3.0630     0.0640    -3.6140 H     1 <1>   0.0800 
 58 H       -4.7810     0.3320    -3.5490 H     1 <1>   0.0800 
@<TRIPOS>BOND
  1   1   2  2   
  2   2   3  am  
  3   2   4  1   
  4   3   5  1   
  5   3   6  1   
  6   4   7  ar  
  7   4   8  ar  
  8   5   9  1   
  9   5  30  1   
 10   5  31  1   
 11   6  10  1   
 12   6  32  1   
 13   6  33  1   
 14   7  11  ar  
 15   7  34  1   
 16   8  12  ar  
 17   8  35  1   
 18   9  13  1   
 19   9  36  1   
 20   9  37  1   
 21  10  14  1   
 22  10  38  1   
 23  10  39  1   
 24  11  15  ar  
 25  11  40  1   
 26  12  15  ar  
 27  12  41  1   
 28  13  14  1   
 29  13  16  am  
 30  14  42  1   
 31  14  43  1   
 32  15  17  1   
 33  16  18  2   
 34  16  19  1   
 35  17  20  1   
 36  17  21  2   
 37  19  22  1   
 38  19  23  1   
 39  19  44  1   
 40  20  24  1   
 41  21  25  1   
 42  21  45  1   
 43  22  26  1   
 44  22  27  1   
 45  22  46  1   
 46  23  28  1   
 47  23  47  1   
 48  23  48  1   
 49  24  25  2   
 50  24  49  1   
 51  26  28  1   
 52  26  50  1   
 53  26  51  1   
 54  27  29  1   
 55  27  52  1   
 56  27  53  1   
 57  28  54  1   
 58  28  55  1   
 59  29  56  1   
 60  29  57  1   
 61  29  58  1   
@<TRIPOS>SUBSTRUCTURE
  1 ****   7 GROUP 4 **** **** 0

# MOE 2024.06 (io_trps.svl 2023.06)
