@<TRIPOS>MOLECULE
NONAME
46 48 1 0 0 
SMALL
USER_CHARGES


@<TRIPOS>ATOM
  1 O        3.5700    -1.6760    -1.8350 O.2   1 <1>  -0.5700 
  2 C        2.8100    -1.5120    -0.8960 C.2   1 <1>   0.7160 
  3 N        2.7770    -0.2510    -0.3600 N.am  1 <1>  -0.6600 
  4 C        2.1180    -2.6190    -0.2840 C.2   1 <1>  -0.0860 
  5 C        3.4950    -0.0730     0.9490 C.3   1 <1>   0.2200 
  6 C        2.6420     0.9220    -1.2810 C.3   1 <1>   0.1400 
  7 C        0.9640    -2.6050     0.5120 C.2   1 <1>   0.1080 
  8 C        2.4380    -3.9420    -0.3320 C.2   1 <1>  -0.3020 
  9 C        3.0560     1.1850     1.7160 C.3   1 <1>   0.1200 
 10 C        5.0330    -0.0850     0.7390 C.3   1 <1>   0.3430 
 11 C        3.6930     2.0310    -1.0860 C.3   1 <1>  -0.0800 
 12 N        0.6330    -3.7810     0.9310 N.2   1 <1>  -0.7070 
 13 C        0.1230    -1.3980     0.8750 C.3   1 <1>  -0.0590 
 14 N        1.5380    -4.6160     0.3980 N.pl3 1 <1>   0.3140 
 15 O        3.8040     2.2920     1.3130 O.3   1 <1>  -0.5600 
 16 N        5.4410     0.1870    -0.6870 N.4   1 <1>  -0.9590 
 17 C        3.3910     2.9070     0.1400 C.3   1 <1>   0.1200 
 18 C        5.1720     1.5890    -1.1400 C.3   1 <1>   0.3430 
 19 C        1.4810    -6.0740     0.6220 C.3   1 <1>   0.0960 
 20 C        6.8560    -0.2050    -0.9360 C.3   1 <1>   0.2630 
 21 C        0.7690    -6.7840    -0.5370 C.3   1 <1>  -0.2400 
 22 H        3.2440    -0.9100     1.5790 H     1 <1>   0.0800 
 23 H        2.6910     0.5790    -2.3020 H     1 <1>   0.0800 
 24 H        1.6580     1.3410    -1.1490 H     1 <1>   0.0800 
 25 H        3.2490    -4.4180    -0.8510 H     1 <1>   0.1500 
 26 H        3.2590     1.0470     2.7640 H     1 <1>   0.0800 
 27 H        2.0030     1.3810     1.6010 H     1 <1>   0.0800 
 28 H        5.3930    -1.0590     1.0240 H     1 <1>   0.0800 
 29 H        5.4920     0.6330     1.4000 H     1 <1>   0.0800 
 30 H        3.5610     2.6960    -1.9200 H     1 <1>   0.0800 
 31 H        0.0400    -0.7330     0.0370 H     1 <1>   0.0800 
 32 H        0.5610    -0.8830     1.7080 H     1 <1>   0.0800 
 33 H       -0.8650    -1.7200     1.1530 H     1 <1>   0.0800 
 34 H        4.8280    -0.4300    -1.2650 H     1 <1>   0.4500 
 35 H        2.3420     3.1440     0.2170 H     1 <1>   0.0800 
 36 H        3.9350     3.8340     0.0690 H     1 <1>   0.0800 
 37 H        5.7600     2.2750    -0.5510 H     1 <1>   0.0800 
 38 H        5.5030     1.6780    -2.1620 H     1 <1>   0.0800 
 39 H        2.4830    -6.4450     0.7280 H     1 <1>   0.0800 
 40 H        0.9500    -6.2510     1.5410 H     1 <1>   0.0800 
 41 H        7.5230     0.4000    -0.3450 H     1 <1>   0.0800 
 42 H        7.1010    -0.0760    -1.9780 H     1 <1>   0.0800 
 43 H        7.0060    -1.2410    -0.6780 H     1 <1>   0.0800 
 44 H        1.3010    -6.6250    -1.4580 H     1 <1>   0.0800 
 45 H       -0.2340    -6.4080    -0.6360 H     1 <1>   0.0800 
 46 H        0.7220    -7.8400    -0.3450 H     1 <1>   0.0800 
@<TRIPOS>BOND
  1   1   2  2   
  2   2   3  am  
  3   2   4  1   
  4   3   5  1   
  5   3   6  1   
  6   4   7  1   
  7   4   8  2   
  8   5   9  1   
  9   5  10  1   
 10   5  22  1   
 11   6  11  1   
 12   6  23  1   
 13   6  24  1   
 14   7  12  2   
 15   7  13  1   
 16   8  14  1   
 17   8  25  1   
 18   9  15  1   
 19   9  26  1   
 20   9  27  1   
 21  10  16  1   
 22  10  28  1   
 23  10  29  1   
 24  11  17  1   
 25  11  18  1   
 26  11  30  1   
 27  12  14  1   
 28  13  31  1   
 29  13  32  1   
 30  13  33  1   
 31  14  19  1   
 32  15  17  1   
 33  16  18  1   
 34  16  20  1   
 35  16  34  1   
 36  17  35  1   
 37  17  36  1   
 38  18  37  1   
 39  18  38  1   
 40  19  21  1   
 41  19  39  1   
 42  19  40  1   
 43  20  41  1   
 44  20  42  1   
 45  20  43  1   
 46  21  44  1   
 47  21  45  1   
 48  21  46  1   
@<TRIPOS>SUBSTRUCTURE
  1 ****   2 GROUP 4 **** **** 0

# MOE 2024.06 (io_trps.svl 2023.06)
