@<TRIPOS>MOLECULE
NONAME
50 52 1 0 0 
SMALL
USER_CHARGES


@<TRIPOS>ATOM
  1 O       -1.4200    -0.6160    -2.4100 O.2   1 <1>  -0.5700 
  2 C       -1.9590    -0.9620    -1.3860 C.2   1 <1>   0.5690 
  3 N       -1.8840    -0.2240    -0.2410 N.am  1 <1>  -0.6600 
  4 C       -2.7310    -2.2610    -1.4040 C.3   1 <1>  -0.0190 
  5 C       -2.6170    -0.6150     0.9970 C.3   1 <1>   0.2200 
  6 C       -1.1110     1.0500    -0.1720 C.3   1 <1>   0.0600 
  7 C       -2.1000    -3.2800    -0.4350 C.3   1 <1>   0.1200 
  8 C       -4.2480    -2.0060    -1.2930 C.3   1 <1>   0.1400 
  9 C       -2.0840    -1.9550     1.5710 C.3   1 <1>   0.1200 
 10 C       -4.1460    -0.5340     0.7800 C.3   1 <1>   0.1400 
 11 O       -2.4900    -3.1160     0.8930 O.3   1 <1>  -0.5600 
 12 N       -4.7460    -1.7240     0.0920 N.am  1 <1>  -0.6600 
 13 C       -5.5630    -2.5700     0.8040 C.2   1 <1>   0.5690 
 14 O       -6.0470    -2.2390     1.8630 O.2   1 <1>  -0.5700 
 15 C       -5.8800    -3.9630     0.2760 C.3   1 <1>  -0.0990 
 16 C       -6.4860    -4.9040     1.3260 C.3   1 <1>  -0.0170 
 17 C       -6.6950    -6.2850     0.7260 C.ar  1 <1>  -0.1440 
 18 C       -5.6820    -7.2280     0.7760 C.ar  1 <1>  -0.1500 
 19 C       -7.8960    -6.6120     0.1170 C.ar  1 <1>  -0.1500 
 20 C       -5.8670    -8.4830     0.2220 C.ar  1 <1>  -0.1500 
 21 C       -8.0800    -7.8670    -0.4380 C.ar  1 <1>  -0.1500 
 22 C       -7.0660    -8.8100    -0.3900 C.ar  1 <1>  -0.1440 
 23 C       -7.2690   -10.1880    -0.9980 C.3   1 <1>  -0.0170 
 24 C       -7.8420   -11.1540     0.0410 C.3   1 <1>  -0.2400 
 25 H       -2.5750    -2.6650    -2.3880 H     1 <1>   0.0800 
 26 H       -2.3880     0.1300     1.7380 H     1 <1>   0.0800 
 27 H       -0.3710     0.9850     0.6070 H     1 <1>   0.0800 
 28 H       -1.7760     1.8700     0.0340 H     1 <1>   0.0800 
 29 H       -0.6080     1.2440    -1.1040 H     1 <1>   0.0800 
 30 H       -1.0250    -3.2370    -0.4830 H     1 <1>   0.0800 
 31 H       -2.4070    -4.2710    -0.7200 H     1 <1>   0.0800 
 32 H       -4.7640    -2.8530    -1.7050 H     1 <1>   0.0800 
 33 H       -4.5000    -1.1660    -1.9180 H     1 <1>   0.0800 
 34 H       -2.4490    -2.0590     2.5780 H     1 <1>   0.0800 
 35 H       -1.0090    -1.9410     1.6070 H     1 <1>   0.0800 
 36 H       -4.3790     0.3520     0.2160 H     1 <1>   0.0800 
 37 H       -4.6010    -0.4120     1.7460 H     1 <1>   0.0800 
 38 H       -6.5610    -3.8700    -0.5490 H     1 <1>   0.0800 
 39 H       -4.9690    -4.4080    -0.0770 H     1 <1>   0.0800 
 40 H       -7.4240    -4.5090     1.6740 H     1 <1>   0.0800 
 41 H       -5.8260    -4.9720     2.1730 H     1 <1>   0.0800 
 42 H       -4.7450    -6.9890     1.2470 H     1 <1>   0.1500 
 43 H       -8.6930    -5.8910     0.0720 H     1 <1>   0.1500 
 44 H       -5.0720    -9.2070     0.2710 H     1 <1>   0.1500 
 45 H       -9.0180    -8.1060    -0.9050 H     1 <1>   0.1500 
 46 H       -7.9400   -10.1200    -1.8360 H     1 <1>   0.0800 
 47 H       -6.3290   -10.5660    -1.3620 H     1 <1>   0.0800 
 48 H       -8.7890   -10.7930     0.4000 H     1 <1>   0.0800 
 49 H       -7.1690   -11.2410     0.8760 H     1 <1>   0.0800 
 50 H       -7.9830   -12.1270    -0.3940 H     1 <1>   0.0800 
@<TRIPOS>BOND
  1   1   2  2   
  2   2   3  am  
  3   2   4  1   
  4   3   5  1   
  5   3   6  1   
  6   4   7  1   
  7   4   8  1   
  8   4  25  1   
  9   5   9  1   
 10   5  10  1   
 11   5  26  1   
 12   6  27  1   
 13   6  28  1   
 14   6  29  1   
 15   7  11  1   
 16   7  30  1   
 17   7  31  1   
 18   8  12  1   
 19   8  32  1   
 20   8  33  1   
 21   9  11  1   
 22   9  34  1   
 23   9  35  1   
 24  10  12  1   
 25  10  36  1   
 26  10  37  1   
 27  12  13  am  
 28  13  14  2   
 29  13  15  1   
 30  15  16  1   
 31  15  38  1   
 32  15  39  1   
 33  16  17  1   
 34  16  40  1   
 35  16  41  1   
 36  17  18  ar  
 37  17  19  ar  
 38  18  20  ar  
 39  18  42  1   
 40  19  21  ar  
 41  19  43  1   
 42  20  22  ar  
 43  20  44  1   
 44  21  22  ar  
 45  21  45  1   
 46  22  23  1   
 47  23  24  1   
 48  23  46  1   
 49  23  47  1   
 50  24  48  1   
 51  24  49  1   
 52  24  50  1   
@<TRIPOS>SUBSTRUCTURE
  1 ****  15 GROUP 4 **** **** 0

# MOE 2024.06 (io_trps.svl 2023.06)
