@<TRIPOS>MOLECULE
NONAME
49 51 1 0 0 
SMALL
USER_CHARGES


@<TRIPOS>ATOM
  1 CL      -1.1730     0.1870    -1.6180 Cl    1 <1>  -0.1770 
  2 C       -1.7770     1.3140    -0.4070 C.ar  1 <1>   0.1770 
  3 C       -1.1160     2.5560    -0.1830 C.ar  1 <1>   0.4100 
  4 C       -2.9060     1.0190     0.2930 C.ar  1 <1>   0.2170 
  5 N       -1.6150     3.4470     0.6620 N.ar  1 <1>  -0.6200 
  6 N        0.0450     2.9120    -0.7980 N.pl3 1 <1>  -0.8380 
  7 N       -3.3490     1.9590     1.1680 N.ar  1 <1>  -0.1790 
  8 C       -3.7210    -0.2650     0.1710 C.3   1 <1>  -0.0970 
  9 C       -2.7090     3.1320     1.3190 C.ar  1 <1>   0.7710 
 10 C        0.2790     4.2980    -1.3150 C.3   1 <1>   0.2090 
 11 C        1.2360     2.0220    -0.9140 C.3   1 <1>   0.2090 
 12 N       -3.1740     4.0460     2.1650 N.pl3 1 <1>  -0.9000 
 13 C        1.4430     4.9600    -0.5630 C.3   1 <1>  -0.0190 
 14 C        2.4250     2.6560    -0.1840 C.3   1 <1>  -0.1600 
 15 C        1.6870     6.3680    -1.0970 C.2   1 <1>   0.4480 
 16 C        2.7100     4.0870    -0.6650 C.3   1 <1>  -0.1600 
 17 O        1.3040     6.7020    -2.1790 O.2   1 <1>  -0.5700 
 18 C        2.4350     7.3250    -0.1800 C.3   1 <1>  -0.0990 
 19 C        2.7120     8.6910    -0.8250 C.3   1 <1>  -0.0170 
 20 C        3.4860     9.5770     0.1360 C.ar  1 <1>  -0.1430 
 21 C        4.8710     9.5200     0.1770 C.ar  1 <1>  -0.1500 
 22 C        2.8170    10.4460     0.9840 C.ar  1 <1>  -0.1500 
 23 C        5.5790    10.3190     1.0570 C.ar  1 <1>  -0.1500 
 24 C        3.5240    11.2460     1.8650 C.ar  1 <1>  -0.1500 
 25 C        4.9050    11.1830     1.9020 C.ar  1 <1>  -0.1500 
 26 H       -4.1850     1.8180     1.7270 H     1 <1>   0.4570 
 27 H       -3.2790    -0.9530    -0.5270 H     1 <1>   0.0800 
 28 H       -4.7170    -0.0450    -0.1720 H     1 <1>   0.0800 
 29 H       -3.7830    -0.7620     1.1230 H     1 <1>   0.0800 
 30 H       -0.6100     4.8970    -1.2080 H     1 <1>   0.0800 
 31 H        0.5090     4.2440    -2.3660 H     1 <1>   0.0800 
 32 H        1.4740     1.8800    -1.9550 H     1 <1>   0.0800 
 33 H        1.0360     1.0600    -0.4760 H     1 <1>   0.0800 
 34 H       -3.9980     4.0100     2.7670 H     1 <1>   0.4000 
 35 H       -2.6480     4.9230     2.2420 H     1 <1>   0.4000 
 36 H        1.1520     5.0420     0.4680 H     1 <1>   0.0800 
 37 H        3.2970     2.0450    -0.3370 H     1 <1>   0.0800 
 38 H        2.2150     2.6640     0.8710 H     1 <1>   0.0800 
 39 H        3.5030     4.5070    -0.0730 H     1 <1>   0.0800 
 40 H        3.0400     4.0580    -1.6910 H     1 <1>   0.0800 
 41 H        3.3730     6.8820     0.0990 H     1 <1>   0.0800 
 42 H        1.8570     7.4730     0.7130 H     1 <1>   0.0800 
 43 H        1.7820     9.1640    -1.0920 H     1 <1>   0.0800 
 44 H        3.2780     8.5590    -1.7310 H     1 <1>   0.0800 
 45 H        5.4040     8.8520    -0.4780 H     1 <1>   0.1500 
 46 H        1.7430    10.5040     0.9630 H     1 <1>   0.1500 
 47 H        6.6540    10.2700     1.0830 H     1 <1>   0.1500 
 48 H        2.9990    11.9190     2.5210 H     1 <1>   0.1500 
 49 H        5.4550    11.8050     2.5870 H     1 <1>   0.1500 
@<TRIPOS>BOND
  1   1   2  1   
  2   2   3  ar  
  3   2   4  ar  
  4   3   5  ar  
  5   3   6  1   
  6   4   7  ar  
  7   4   8  1   
  8   5   9  ar  
  9   6  10  1   
 10   6  11  1   
 11   7   9  ar  
 12   7  26  1   
 13   8  27  1   
 14   8  28  1   
 15   8  29  1   
 16   9  12  1   
 17  10  13  1   
 18  10  30  1   
 19  10  31  1   
 20  11  14  1   
 21  11  32  1   
 22  11  33  1   
 23  12  34  1   
 24  12  35  1   
 25  13  15  1   
 26  13  16  1   
 27  13  36  1   
 28  14  16  1   
 29  14  37  1   
 30  14  38  1   
 31  15  17  2   
 32  15  18  1   
 33  16  39  1   
 34  16  40  1   
 35  18  19  1   
 36  18  41  1   
 37  18  42  1   
 38  19  20  1   
 39  19  43  1   
 40  19  44  1   
 41  20  21  ar  
 42  20  22  ar  
 43  21  23  ar  
 44  21  45  1   
 45  22  24  ar  
 46  22  46  1   
 47  23  25  ar  
 48  23  47  1   
 49  24  25  ar  
 50  24  48  1   
 51  25  49  1   
@<TRIPOS>SUBSTRUCTURE
  1 ****  13 GROUP 4 **** **** 0

# MOE 2024.06 (io_trps.svl 2023.06)
