@<TRIPOS>MOLECULE
NONAME
46 48 1 0 0 
SMALL
USER_CHARGES


@<TRIPOS>ATOM
  1 F        1.5710    -0.3820     0.4210 F     1 <1>  -0.1900 
  2 C        1.0510    -1.5750     0.3010 C.ar  1 <1>   0.1900 
  3 C        1.8910    -2.6720     0.3020 C.ar  1 <1>  -0.1500 
  4 C       -0.3210    -1.6940     0.1780 C.ar  1 <1>  -0.1500 
  5 C        1.3310    -3.9320     0.1740 C.ar  1 <1>  -0.1500 
  6 C       -0.8730    -2.9590     0.0510 C.ar  1 <1>  -0.1500 
  7 C       -0.0440    -4.0830     0.0490 C.ar  1 <1>   0.0830 
  8 O       -0.5020    -5.3550    -0.0700 O.3   1 <1>  -0.3630 
  9 C       -1.8750    -5.6340    -0.1830 C.3   1 <1>   0.1200 
 10 C       -2.0190    -7.1550    -0.2920 C.3   1 <1>   0.3430 
 11 N       -3.4220    -7.6510    -0.5400 N.4   1 <1>  -0.9590 
 12 C       -4.3480    -7.3510     0.6090 C.3   1 <1>   0.4230 
 13 C       -3.3190    -9.1010    -0.9100 C.3   1 <1>   0.2630 
 14 C       -5.5060    -8.3460     0.7700 C.3   1 <1>  -0.1600 
 15 C       -5.1090    -6.0590     0.2950 C.3   1 <1>  -0.1600 
 16 C       -6.5300    -7.9660    -0.3080 C.3   1 <1>  -0.0800 
 17 C       -6.2910    -6.4790    -0.5920 C.3   1 <1>  -0.0800 
 18 C       -8.0020    -8.1110     0.1000 C.3   1 <1>  -0.1600 
 19 C       -7.6150    -5.7580    -0.3070 C.3   1 <1>  -0.1600 
 20 C       -8.6690    -6.8500    -0.4340 C.3   1 <1>   0.2000 
 21 O       -9.7740    -6.5360     0.3230 O.3   1 <1>  -0.6800 
 22 H        2.9530    -2.5380     0.3990 H     1 <1>   0.1500 
 23 H       -0.9360    -0.8120     0.1830 H     1 <1>   0.1500 
 24 H        1.9630    -4.8020     0.1720 H     1 <1>   0.1500 
 25 H       -1.9380    -3.0380    -0.0450 H     1 <1>   0.1500 
 26 H       -2.3600    -5.2570     0.7000 H     1 <1>   0.0800 
 27 H       -2.2400    -5.1470    -1.0710 H     1 <1>   0.0800 
 28 H       -1.6410    -7.5980     0.6150 H     1 <1>   0.0800 
 29 H       -1.3880    -7.4790    -1.1040 H     1 <1>   0.0800 
 30 H       -3.8090    -7.1580    -1.3560 H     1 <1>   0.4500 
 31 H       -3.7900    -7.2710     1.5290 H     1 <1>   0.0800 
 32 H       -2.9700    -9.6790    -0.0700 H     1 <1>   0.0800 
 33 H       -2.6290    -9.2320    -1.7290 H     1 <1>   0.0800 
 34 H       -4.2800    -9.4820    -1.2160 H     1 <1>   0.0800 
 35 H       -5.2310    -9.3840     0.7490 H     1 <1>   0.0800 
 36 H       -5.9360    -8.1650     1.7400 H     1 <1>   0.0800 
 37 H       -5.4780    -5.6670     1.2280 H     1 <1>   0.0800 
 38 H       -4.5220    -5.2920    -0.1710 H     1 <1>   0.0800 
 39 H       -6.3520    -8.5250    -1.2120 H     1 <1>   0.0800 
 40 H       -6.0410    -6.3630    -1.6350 H     1 <1>   0.0800 
 41 H       -8.1020    -8.1500     1.1710 H     1 <1>   0.0800 
 42 H       -8.4460    -8.9920    -0.3300 H     1 <1>   0.0800 
 43 H       -7.7950    -4.9640    -1.0110 H     1 <1>   0.0800 
 44 H       -7.6270    -5.3600     0.6920 H     1 <1>   0.0800 
 45 H       -8.9750    -6.9770    -1.4600 H     1 <1>   0.0800 
 46 H       -9.5320    -6.4320     1.2620 H     1 <1>   0.4000 
@<TRIPOS>BOND
  1   1   2  1   
  2   2   3  ar  
  3   2   4  ar  
  4   3   5  ar  
  5   3  22  1   
  6   4   6  ar  
  7   4  23  1   
  8   5   7  ar  
  9   5  24  1   
 10   6   7  ar  
 11   6  25  1   
 12   7   8  1   
 13   8   9  1   
 14   9  10  1   
 15   9  26  1   
 16   9  27  1   
 17  10  11  1   
 18  10  28  1   
 19  10  29  1   
 20  11  12  1   
 21  11  13  1   
 22  11  30  1   
 23  12  14  1   
 24  12  15  1   
 25  12  31  1   
 26  13  32  1   
 27  13  33  1   
 28  13  34  1   
 29  14  16  1   
 30  14  35  1   
 31  14  36  1   
 32  15  17  1   
 33  15  37  1   
 34  15  38  1   
 35  16  17  1   
 36  16  18  1   
 37  16  39  1   
 38  17  19  1   
 39  17  40  1   
 40  18  20  1   
 41  18  41  1   
 42  18  42  1   
 43  19  20  1   
 44  19  43  1   
 45  19  44  1   
 46  20  21  1   
 47  20  45  1   
 48  21  46  1   
@<TRIPOS>SUBSTRUCTURE
  1 ****   9 GROUP 4 **** **** 0

# MOE 2024.06 (io_trps.svl 2023.06)
