@<TRIPOS>MOLECULE
NONAME
49 52 1 0 0 
SMALL
USER_CHARGES


@<TRIPOS>ATOM
  1 S        1.0060    -0.6800     1.0120 S.o2  1 <1>   1.5010 
  2 O        1.4430     0.1280     2.1250 O.2   1 <1>  -0.6500 
  3 O        1.9490    -1.5050     0.2900 O.2   1 <1>  -0.6500 
  4 N       -0.1170    -1.7440     1.6520 N.am  1 <1>  -0.9140 
  5 C       -0.0190     0.2600    -0.1310 C.2   1 <1>  -0.0630 
  6 C       -0.5500    -2.7710     0.7110 C.3   1 <1>   0.2760 
  7 C       -1.0360     1.1470     0.0460 C.2   1 <1>  -0.3320 
  8 C        0.0630     0.1220    -1.5100 C.2   1 <1>   0.1390 
  9 C       -2.0010    -3.1510     0.9690 C.3   1 <1>  -0.0800 
 10 C        0.1570    -4.0900     1.0010 C.3   1 <1>   0.1200 
 11 N       -1.4990     1.4730    -1.1800 N.pl3 1 <1>   0.3140 
 12 C       -1.6000     1.6950     1.3490 C.3   1 <1>  -0.0600 
 13 N       -0.8230     0.8280    -2.1420 N.2   1 <1>  -0.7070 
 14 C       -1.8950    -4.3000     1.9820 C.3   1 <1>   0.1200 
 15 C       -2.9160    -1.9910     1.4210 C.3   1 <1>  -0.0170 
 16 O       -0.5410    -4.6360     2.0750 O.3   1 <1>  -0.5600 
 17 C       -2.6160     2.3700    -1.5040 C.3   1 <1>   0.0160 
 18 C       -4.3360    -2.1700     0.9040 C.ar  1 <1>  -0.1440 
 19 C       -4.6900    -1.8190    -0.4210 C.ar  1 <1>   0.0000 
 20 C       -5.3140    -2.6690     1.7120 C.ar  1 <1>  -0.1500 
 21 C       -6.0390    -2.0020    -0.8090 C.ar  1 <1>   0.3100 
 22 C       -3.7910    -1.2940    -1.3790 C.ar  1 <1>  -0.1500 
 23 C       -6.6180    -2.8180     1.2250 C.ar  1 <1>   0.1600 
 24 N       -6.9860    -2.5050     0.0230 N.ar  1 <1>  -0.6200 
 25 C       -6.4240    -1.6490    -2.1130 C.ar  1 <1>  -0.1500 
 26 C       -4.1980    -0.9590    -2.6410 C.ar  1 <1>  -0.1500 
 27 C       -5.5310    -1.1370    -3.0160 C.ar  1 <1>  -0.1500 
 28 H        0.3590    -2.2220     2.4160 H     1 <1>   0.4200 
 29 H       -0.4110    -2.4590    -0.3110 H     1 <1>   0.0800 
 30 H        0.7790    -0.5100    -2.0100 H     1 <1>   0.1500 
 31 H       -2.3900    -3.5640     0.0550 H     1 <1>   0.0800 
 32 H        1.1940    -3.9700     1.2590 H     1 <1>   0.0800 
 33 H        0.0630    -4.7660     0.1680 H     1 <1>   0.0800 
 34 H       -1.1030     1.2520     2.1940 H     1 <1>   0.0800 
 35 H       -2.6520     1.4790     1.4230 H     1 <1>   0.0800 
 36 H       -1.4580     2.7600     1.3960 H     1 <1>   0.0800 
 37 H       -2.4440    -5.1660     1.6540 H     1 <1>   0.0800 
 38 H       -2.2260    -4.0120     2.9650 H     1 <1>   0.0800 
 39 H       -2.5470    -1.0530     1.0560 H     1 <1>   0.0800 
 40 H       -2.9120    -1.9130     2.4940 H     1 <1>   0.0800 
 41 H       -2.4720     3.3120    -1.0090 H     1 <1>   0.0800 
 42 H       -3.5350     1.9190    -1.1800 H     1 <1>   0.0800 
 43 H       -2.6470     2.5240    -2.5670 H     1 <1>   0.0800 
 44 H       -5.1150    -2.9550     2.7290 H     1 <1>   0.1500 
 45 H       -2.7580    -1.1510    -1.1240 H     1 <1>   0.1500 
 46 H       -7.3630    -3.2170     1.8930 H     1 <1>   0.1500 
 47 H       -7.4540    -1.7970    -2.3790 H     1 <1>   0.1500 
 48 H       -3.4960    -0.5590    -3.3550 H     1 <1>   0.1500 
 49 H       -5.8420    -0.8710    -4.0120 H     1 <1>   0.1500 
@<TRIPOS>BOND
  1   1   2  2   
  2   1   3  2   
  3   1   4  am  
  4   1   5  1   
  5   4   6  1   
  6   4  28  1   
  7   5   7  2   
  8   5   8  1   
  9   6   9  1   
 10   6  10  1   
 11   6  29  1   
 12   7  11  1   
 13   7  12  1   
 14   8  13  2   
 15   8  30  1   
 16   9  14  1   
 17   9  15  1   
 18   9  31  1   
 19  10  16  1   
 20  10  32  1   
 21  10  33  1   
 22  11  13  1   
 23  11  17  1   
 24  12  34  1   
 25  12  35  1   
 26  12  36  1   
 27  14  16  1   
 28  14  37  1   
 29  14  38  1   
 30  15  18  1   
 31  15  39  1   
 32  15  40  1   
 33  17  41  1   
 34  17  42  1   
 35  17  43  1   
 36  18  19  ar  
 37  18  20  ar  
 38  19  21  ar  
 39  19  22  ar  
 40  20  23  ar  
 41  20  44  1   
 42  21  24  ar  
 43  21  25  ar  
 44  22  26  ar  
 45  22  45  1   
 46  23  24  ar  
 47  23  46  1   
 48  25  27  ar  
 49  25  47  1   
 50  26  27  ar  
 51  26  48  1   
 52  27  49  1   
@<TRIPOS>SUBSTRUCTURE
  1 ****  15 GROUP 4 **** **** 0

# MOE 2024.06 (io_trps.svl 2023.06)
