@<TRIPOS>MOLECULE
NONAME
55 58 1 0 0 
SMALL
USER_CHARGES


@<TRIPOS>ATOM
  1 O       -2.0350     1.7000    -2.2310 O.2   1 <1>  -0.5700 
  2 C       -2.9640     2.0720    -1.5510 C.2   1 <1>   0.5690 
  3 N       -3.3090     1.3770    -0.4130 N.am  1 <1>  -0.6600 
  4 C       -3.7240     3.3150    -2.0210 C.3   1 <1>   0.1810 
  5 C       -2.4640     0.2070    -0.0070 C.3   1 <1>   0.1400 
  6 C       -4.4580     1.7450     0.4780 C.3   1 <1>   0.1400 
  7 O       -3.7460     4.3380    -1.0330 O.3   1 <1>  -0.3620 
  8 C       -3.1870    -0.7210     0.9920 C.3   1 <1>   0.4230 
  9 C       -5.3250     0.5320     0.8880 C.3   1 <1>  -0.1600 
 10 C       -2.6480     5.0770    -0.7320 C.ar  1 <1>   0.0820 
 11 N       -2.4850    -2.0340     1.3310 N.4   1 <1>  -0.9590 
 12 C       -4.6900    -0.8600     0.6200 C.3   1 <1>   0.0000 
 13 C       -1.4090     4.9280    -1.3480 C.ar  1 <1>  -0.1500 
 14 C       -2.8020     6.0400     0.2520 C.ar  1 <1>  -0.1500 
 15 C       -3.1920    -3.2590     0.8590 C.3   1 <1>   0.3430 
 16 C       -1.0340    -2.0870     0.9530 C.3   1 <1>   0.2630 
 17 C       -5.3040    -1.9210     1.5620 C.3   1 <1>  -0.1600 
 18 C       -4.9250    -1.2360    -0.8790 C.3   1 <1>   0.1200 
 19 C       -0.3480     5.7340    -0.9740 C.ar  1 <1>  -0.1500 
 20 C       -1.7410     6.8450     0.6240 C.ar  1 <1>  -0.1500 
 21 C       -4.6310    -3.3000     1.3990 C.3   1 <1>  -0.1600 
 22 O       -6.2730    -1.4330    -1.1390 O.3   1 <1>  -0.6800 
 23 C       -0.4950     6.7010     0.0170 C.ar  1 <1>  -0.0230 
 24 N        0.6080     7.5230     0.3980 N.pl3 1 <1>   0.5930 
 25 N        1.5470     7.9700    -0.4210 N.2   1 <1>  -0.4180 
 26 C        0.9200     7.9860     1.6000 C.2   1 <1>   0.0360 
 27 N        2.3630     8.6670     0.2840 N.2   1 <1>   0.0000 
 28 N        1.9850     8.6880     1.5570 N.2   1 <1>  -0.3380 
 29 H       -4.7410     3.0470    -2.2330 H     1 <1>   0.0800 
 30 H       -3.2860     3.7120    -2.9180 H     1 <1>   0.0800 
 31 H       -2.2100    -0.3530    -0.8900 H     1 <1>   0.0800 
 32 H       -1.5590     0.5860     0.4340 H     1 <1>   0.0800 
 33 H       -4.0570     2.2130     1.3620 H     1 <1>   0.0800 
 34 H       -5.0950     2.4710     0.0030 H     1 <1>   0.0800 
 35 H       -3.1850    -0.1620     1.9130 H     1 <1>   0.0800 
 36 H       -5.5420     0.6420     1.9360 H     1 <1>   0.0800 
 37 H       -6.2750     0.6080     0.3890 H     1 <1>   0.0800 
 38 H       -2.5260    -2.0940     2.3580 H     1 <1>   0.4500 
 39 H       -1.2450     4.1980    -2.1190 H     1 <1>   0.1500 
 40 H       -3.7630     6.1570     0.7200 H     1 <1>   0.1500 
 41 H       -3.2070    -3.2680    -0.2180 H     1 <1>   0.0800 
 42 H       -2.6660    -4.1430     1.1830 H     1 <1>   0.0800 
 43 H       -0.9230    -2.0510    -0.1190 H     1 <1>   0.0800 
 44 H       -0.5860    -2.9980     1.3140 H     1 <1>   0.0800 
 45 H       -0.5020    -1.2530     1.3840 H     1 <1>   0.0800 
 46 H       -5.1700    -1.6000     2.5820 H     1 <1>   0.0800 
 47 H       -6.3670    -2.0090     1.4090 H     1 <1>   0.0800 
 48 H       -4.4100    -2.1300    -1.1730 H     1 <1>   0.0800 
 49 H       -4.6050    -0.4490    -1.5390 H     1 <1>   0.0800 
 50 H        0.6050     5.6080    -1.4630 H     1 <1>   0.1500 
 51 H       -1.8960     7.5910     1.3840 H     1 <1>   0.1500 
 52 H       -5.2140    -3.9030     0.7250 H     1 <1>   0.0800 
 53 H       -4.6390    -3.8110     2.3470 H     1 <1>   0.0800 
 54 H       -6.6330    -2.2020    -0.6570 H     1 <1>   0.4000 
 55 H        0.3400     7.7800     2.4780 H     1 <1>   0.1500 
@<TRIPOS>BOND
  1   1   2  2   
  2   2   3  am  
  3   2   4  1   
  4   3   5  1   
  5   3   6  1   
  6   4   7  1   
  7   4  29  1   
  8   4  30  1   
  9   5   8  1   
 10   5  31  1   
 11   5  32  1   
 12   6   9  1   
 13   6  33  1   
 14   6  34  1   
 15   7  10  1   
 16   8  11  1   
 17   8  12  1   
 18   8  35  1   
 19   9  12  1   
 20   9  36  1   
 21   9  37  1   
 22  10  13  ar  
 23  10  14  ar  
 24  11  15  1   
 25  11  16  1   
 26  11  38  1   
 27  12  17  1   
 28  12  18  1   
 29  13  19  ar  
 30  13  39  1   
 31  14  20  ar  
 32  14  40  1   
 33  15  21  1   
 34  15  41  1   
 35  15  42  1   
 36  16  43  1   
 37  16  44  1   
 38  16  45  1   
 39  17  21  1   
 40  17  46  1   
 41  17  47  1   
 42  18  22  1   
 43  18  48  1   
 44  18  49  1   
 45  19  23  ar  
 46  19  50  1   
 47  20  23  ar  
 48  20  51  1   
 49  21  52  1   
 50  21  53  1   
 51  22  54  1   
 52  23  24  1   
 53  24  25  1   
 54  24  26  1   
 55  25  27  2   
 56  26  28  2   
 57  26  55  1   
 58  27  28  1   
@<TRIPOS>SUBSTRUCTURE
  1 ****   3 GROUP 4 **** **** 0

# MOE 2024.06 (io_trps.svl 2023.06)
