@<TRIPOS>MOLECULE
NONAME
52 54 1 0 0 
SMALL
USER_CHARGES


@<TRIPOS>ATOM
  1 O       -0.5190     0.2560    -0.2820 O.2   1 <1>  -0.5700 
  2 C       -1.5950     0.7840    -0.1250 C.2   1 <1>   0.5690 
  3 N       -2.7380     0.0420    -0.0240 N.am  1 <1>  -0.6600 
  4 C       -1.6830     2.3040    -0.0530 C.3   1 <1>  -0.0990 
  5 C       -4.1270     0.5570     0.0660 C.3   1 <1>   0.1400 
  6 C       -2.7290    -1.4400    -0.0740 C.3   1 <1>   0.1400 
  7 C       -0.3240     3.0050     0.1530 C.3   1 <1>  -0.1600 
  8 C       -5.0100    -0.6670    -0.1720 C.3   1 <1>   0.2000 
  9 C       -4.1620    -1.8630     0.2520 C.3   1 <1>  -0.0800 
 10 C       -0.4390     4.5270     0.3720 C.3   1 <1>  -0.0800 
 11 O       -6.1730    -0.6090     0.5780 O.3   1 <1>  -0.6800 
 12 C       -4.5850    -3.1770    -0.4220 C.3   1 <1>   0.0210 
 13 C       -1.0090     5.2530    -0.8620 C.3   1 <1>  -0.1600 
 14 C        0.9430     5.0980     0.7340 C.3   1 <1>  -0.1600 
 15 C       -3.6520    -4.3070    -0.0350 C.2   1 <1>   0.1080 
 16 C       -1.0510     6.7740    -0.6570 C.3   1 <1>  -0.1600 
 17 C        0.8950     6.6170     0.9450 C.3   1 <1>  -0.1600 
 18 N       -3.5220    -4.7240     1.1860 N.2   1 <1>  -0.7070 
 19 C       -2.8360    -5.0050    -0.9190 C.2   1 <1>  -0.1500 
 20 C        0.3310     7.3270    -0.2910 C.3   1 <1>  -0.1600 
 21 N       -2.6090    -5.7110     1.1130 N.pl3 1 <1>   0.3000 
 22 C       -2.1780    -5.8990    -0.1520 C.2   1 <1>  -0.3320 
 23 C       -1.1460    -6.9360    -0.5560 C.3   1 <1>  -0.0600 
 24 H       -2.1290     2.6420    -0.9690 H     1 <1>   0.0800 
 25 H       -2.3310     2.5690     0.7610 H     1 <1>   0.0800 
 26 H       -4.2910     0.9600     1.0500 H     1 <1>   0.0800 
 27 H       -4.3050     1.3070    -0.6840 H     1 <1>   0.0800 
 28 H       -2.4450    -1.7540    -1.0640 H     1 <1>   0.0800 
 29 H       -2.0280    -1.8440     0.6390 H     1 <1>   0.0800 
 30 H        0.3080     2.8070    -0.6960 H     1 <1>   0.0800 
 31 H        0.1500     2.5660     1.0140 H     1 <1>   0.0800 
 32 H       -5.2790    -0.7220    -1.2130 H     1 <1>   0.0800 
 33 H       -4.2170    -1.9840     1.3210 H     1 <1>   0.0800 
 34 H       -1.0990     4.7030     1.2050 H     1 <1>   0.0800 
 35 H       -5.9740    -0.7630     1.5230 H     1 <1>   0.4000 
 36 H       -4.5840    -3.0630    -1.4900 H     1 <1>   0.0800 
 37 H       -5.5830    -3.4340    -0.1130 H     1 <1>   0.0800 
 38 H       -0.3990     5.0310    -1.7210 H     1 <1>   0.0800 
 39 H       -2.0070     4.9130    -1.0680 H     1 <1>   0.0800 
 40 H        1.3050     4.6310     1.6340 H     1 <1>   0.0800 
 41 H        1.6410     4.8760    -0.0550 H     1 <1>   0.0800 
 42 H       -1.4010     7.2490    -1.5570 H     1 <1>   0.0800 
 43 H       -1.7470     7.0070     0.1310 H     1 <1>   0.0800 
 44 H        0.2770     6.8390     1.7980 H     1 <1>   0.0800 
 45 H        1.8860     6.9840     1.1500 H     1 <1>   0.0800 
 46 H       -2.7630    -4.8450    -1.9800 H     1 <1>   0.1500 
 47 H        0.2580     8.3840    -0.0990 H     1 <1>   0.0800 
 48 H        1.0020     7.1860    -1.1200 H     1 <1>   0.0800 
 49 H       -2.3030    -6.2340     1.9410 H     1 <1>   0.2700 
 50 H       -0.9710    -6.8900    -1.6160 H     1 <1>   0.0800 
 51 H       -1.4940    -7.9240    -0.3090 H     1 <1>   0.0800 
 52 H       -0.2160    -6.7530    -0.0470 H     1 <1>   0.0800 
@<TRIPOS>BOND
  1   1   2  2   
  2   2   3  am  
  3   2   4  1   
  4   3   5  1   
  5   3   6  1   
  6   4   7  1   
  7   4  24  1   
  8   4  25  1   
  9   5   8  1   
 10   5  26  1   
 11   5  27  1   
 12   6   9  1   
 13   6  28  1   
 14   6  29  1   
 15   7  10  1   
 16   7  30  1   
 17   7  31  1   
 18   8   9  1   
 19   8  11  1   
 20   8  32  1   
 21   9  12  1   
 22   9  33  1   
 23  10  13  1   
 24  10  14  1   
 25  10  34  1   
 26  11  35  1   
 27  12  15  1   
 28  12  36  1   
 29  12  37  1   
 30  13  16  1   
 31  13  38  1   
 32  13  39  1   
 33  14  17  1   
 34  14  40  1   
 35  14  41  1   
 36  15  18  2   
 37  15  19  1   
 38  16  20  1   
 39  16  42  1   
 40  16  43  1   
 41  17  20  1   
 42  17  44  1   
 43  17  45  1   
 44  18  21  1   
 45  19  22  2   
 46  19  46  1   
 47  20  47  1   
 48  20  48  1   
 49  21  22  1   
 50  21  49  1   
 51  22  23  1   
 52  23  50  1   
 53  23  51  1   
 54  23  52  1   
@<TRIPOS>SUBSTRUCTURE
  1 ****   3 GROUP 4 **** **** 0

# MOE 2024.06 (io_trps.svl 2023.06)
