@<TRIPOS>MOLECULE
Untitled Document
43 46 1 0 0 
SMALL
USER_CHARGES


@<TRIPOS>ATOM
  1 F        1.6440    -0.2680    -0.2000 F     1 <1>  -0.3400 
  2 C        0.9690    -1.2650    -0.7650 C.3   1 <1>   1.1640 
  3 F        1.1400    -1.1360    -2.0780 F     1 <1>  -0.3400 
  4 F       -0.3140    -0.9840    -0.5400 F     1 <1>  -0.3400 
  5 C        1.3800    -2.6670    -0.2410 C.ar  1 <1>   0.1660 
  6 N        0.5110    -3.6730    -0.2740 N.ar  1 <1>  -0.6200 
  7 C        2.6450    -2.8690     0.2500 C.ar  1 <1>  -0.1500 
  8 C        0.9350    -4.8450     0.1880 C.ar  1 <1>   0.7200 
  9 C        2.9960    -4.1250     0.7110 C.ar  1 <1>   0.4100 
 10 N        2.1350    -5.1150     0.6750 N.ar  1 <1>  -0.6200 
 11 N        0.0240    -5.8750     0.1610 N.3   1 <1>  -0.5900 
 12 N        4.2420    -4.4310     1.2200 N.pl3 1 <1>  -0.8380 
 13 C        0.4580    -7.2970    -0.0290 C.3   1 <1>   0.2450 
 14 C       -0.9100    -6.0240    -1.0060 C.3   1 <1>   0.2450 
 15 C        4.9160    -5.6700     0.7360 C.3   1 <1>   0.3040 
 16 C        5.2580    -3.4180     1.6440 C.3   1 <1>   0.3040 
 17 C       -0.8690    -7.5480    -0.7770 C.3   1 <1>   0.0000 
 18 C        0.5920    -8.0340     1.3010 C.3   1 <1>  -0.2400 
 19 C        6.3900    -5.3080     0.5650 C.3   1 <1>  -0.1950 
 20 C        6.5960    -3.9570     1.1540 C.3   1 <1>  -0.1950 
 21 C        6.9130    -4.1880    -0.2920 C.3   1 <1>  -0.1950 
 22 C        6.0780    -3.5480    -1.4210 C.3   1 <1>  -0.1710 
 23 C        6.2170    -2.0410    -1.4960 C.2   1 <1>   0.9060 
 24 O        5.3300    -1.3380    -0.9930 O.co2 1 <1>  -0.9000 
 25 O        7.1980    -1.5580    -2.0700 O.co2 1 <1>  -0.9000 
 26 H        3.3540    -2.0660     0.2570 H     1 <1>   0.1500 
 27 H        1.3230    -7.3670    -0.6670 H     1 <1>   0.0000 
 28 H       -1.8720    -5.5820    -0.8170 H     1 <1>   0.0000 
 29 H       -0.4500    -5.7150    -1.9290 H     1 <1>   0.0000 
 30 H        4.7990    -6.4430     1.4750 H     1 <1>   0.0800 
 31 H        4.4950    -6.0000    -0.1980 H     1 <1>   0.0800 
 32 H        5.0880    -2.4410     1.2350 H     1 <1>   0.0800 
 33 H        5.2590    -3.3540     2.7170 H     1 <1>   0.0800 
 34 H       -0.7600    -8.1220    -1.6790 H     1 <1>   0.0000 
 35 H       -1.6680    -7.8960    -0.1450 H     1 <1>   0.0000 
 36 H       -0.2800    -7.8780     1.9100 H     1 <1>   0.0800 
 37 H        1.4580    -7.6720     1.8250 H     1 <1>   0.0800 
 38 H        0.7140    -9.0860     1.1230 H     1 <1>   0.0800 
 39 H        7.0680    -6.1100     0.7920 H     1 <1>   0.1000 
 40 H        7.4260    -3.7480     1.8050 H     1 <1>   0.1000 
 41 H        7.9620    -4.1790    -0.5370 H     1 <1>   0.1000 
 42 H        5.0360    -3.7640    -1.3000 H     1 <1>   0.0800 
 43 H        6.3850    -3.9530    -2.3640 H     1 <1>   0.0800 
@<TRIPOS>BOND
  1   1   2  1   
  2   2   3  1   
  3   2   4  1   
  4   2   5  1   
  5   5   6  ar  
  6   5   7  ar  
  7   6   8  ar  
  8   7   9  ar  
  9   7  26  1   
 10   8  10  ar  
 11   8  11  1   
 12   9  10  ar  
 13   9  12  1   
 14  11  13  1   
 15  11  14  1   
 16  12  15  1   
 17  12  16  1   
 18  13  17  1   
 19  13  18  1   
 20  13  27  1   
 21  14  17  1   
 22  14  28  1   
 23  14  29  1   
 24  15  19  1   
 25  15  30  1   
 26  15  31  1   
 27  16  20  1   
 28  16  32  1   
 29  16  33  1   
 30  17  34  1   
 31  17  35  1   
 32  18  36  1   
 33  18  37  1   
 34  18  38  1   
 35  19  20  1   
 36  19  21  1   
 37  19  39  1   
 38  20  21  1   
 39  20  40  1   
 40  21  22  1   
 41  21  41  1   
 42  22  23  1   
 43  22  42  1   
 44  22  43  1   
 45  23  24  ar  
 46  23  25  ar  
@<TRIPOS>SUBSTRUCTURE
  1 ****   9 GROUP 4 **** **** 0

# MOE 2024.06 (io_trps.svl 2023.06)
