@<TRIPOS>MOLECULE
NONAME
46 48 1 0 0 
SMALL
USER_CHARGES


@<TRIPOS>ATOM
  1 CL      -1.1480     3.9070    -2.3090 Cl    1 <1>  -0.1770 
  2 C       -1.9340     2.8670    -1.1460 C.ar  1 <1>   0.1770 
  3 C       -1.3790     2.6830     0.1180 C.ar  1 <1>   0.0860 
  4 C       -3.1090     2.2470    -1.5290 C.ar  1 <1>  -0.1500 
  5 C       -0.1620     3.3460     0.5220 C.2   1 <1>   0.5440 
  6 C       -2.0490     1.8250     0.9900 C.ar  1 <1>  -0.1500 
  7 C       -3.7600     1.4080    -0.6410 C.ar  1 <1>  -0.1500 
  8 O        0.8570     2.6890     0.6160 O.2   1 <1>  -0.5700 
  9 N       -0.1320     4.6900     0.8420 N.am  1 <1>  -0.6600 
 10 C       -3.2260     1.1970     0.6190 C.ar  1 <1>  -0.1500 
 11 C        1.1550     5.3980     1.0850 C.3   1 <1>   0.1400 
 12 C       -1.3530     5.5250     1.0160 C.3   1 <1>   0.1400 
 13 C        1.2430     6.6360     0.1880 C.3   1 <1>  -0.1600 
 14 C       -1.2690     6.7690     0.1280 C.3   1 <1>  -0.1600 
 15 C        0.0290     7.5630     0.3780 C.3   1 <1>  -0.0190 
 16 C        0.1460     8.8140    -0.4970 C.2   1 <1>   0.5690 
 17 O       -0.4920     8.8940    -1.5200 O.2   1 <1>  -0.5700 
 18 N        0.9840     9.8000    -0.0660 N.am  1 <1>  -0.4930 
 19 C        1.2830    11.0490    -0.6670 C.2   1 <1>   0.0630 
 20 C        2.1330    11.9840    -0.1870 C.2   1 <1>  -0.3320 
 21 C        0.7900    11.5940    -1.8530 C.2   1 <1>   0.1390 
 22 N        2.1130    13.0120    -1.0730 N.pl3 1 <1>   0.3140 
 23 C        2.9810    11.9760     1.0770 C.3   1 <1>  -0.0600 
 24 N        1.2850    12.7700    -2.1000 N.2   1 <1>  -0.7070 
 25 C        2.8700    14.2680    -0.9970 C.3   1 <1>   0.0160 
 26 H       -3.5060     2.4180    -2.5130 H     1 <1>   0.1500 
 27 H       -1.6320     1.6510     1.9680 H     1 <1>   0.1500 
 28 H       -4.6760     0.9200    -0.9290 H     1 <1>   0.1500 
 29 H       -3.7260     0.5390     1.3100 H     1 <1>   0.1500 
 30 H        1.9910     4.7520     0.8780 H     1 <1>   0.0800 
 31 H        1.2060     5.6840     2.1210 H     1 <1>   0.0800 
 32 H       -1.4240     5.8210     2.0490 H     1 <1>   0.0800 
 33 H       -2.2420     4.9710     0.7710 H     1 <1>   0.0800 
 34 H        1.2950     6.3150    -0.8390 H     1 <1>   0.0800 
 35 H        2.1530     7.1630     0.4100 H     1 <1>   0.0800 
 36 H       -2.1200     7.3990     0.3150 H     1 <1>   0.0800 
 37 H       -1.3160     6.4630    -0.9030 H     1 <1>   0.0800 
 38 H        0.0130     7.8910     1.4020 H     1 <1>   0.0800 
 39 H        1.4830     9.6290     0.8010 H     1 <1>   0.3700 
 40 H        0.0800    11.1010    -2.4960 H     1 <1>   0.1500 
 41 H        2.8390    11.0640     1.6270 H     1 <1>   0.0800 
 42 H        2.7060    12.8000     1.7110 H     1 <1>   0.0800 
 43 H        4.0220    12.0610     0.8240 H     1 <1>   0.0800 
 44 H        2.5980    14.7900    -0.1000 H     1 <1>   0.0800 
 45 H        2.6320    14.8740    -1.8520 H     1 <1>   0.0800 
 46 H        3.9210    14.0480    -0.9950 H     1 <1>   0.0800 
@<TRIPOS>BOND
  1   1   2  1   
  2   2   3  ar  
  3   2   4  ar  
  4   3   5  1   
  5   3   6  ar  
  6   4   7  ar  
  7   4  26  1   
  8   5   8  2   
  9   5   9  am  
 10   6  10  ar  
 11   6  27  1   
 12   7  10  ar  
 13   7  28  1   
 14   9  11  1   
 15   9  12  1   
 16  10  29  1   
 17  11  13  1   
 18  11  30  1   
 19  11  31  1   
 20  12  14  1   
 21  12  32  1   
 22  12  33  1   
 23  13  15  1   
 24  13  34  1   
 25  13  35  1   
 26  14  15  1   
 27  14  36  1   
 28  14  37  1   
 29  15  16  1   
 30  15  38  1   
 31  16  17  2   
 32  16  18  am  
 33  18  19  1   
 34  18  39  1   
 35  19  20  2   
 36  19  21  1   
 37  20  22  1   
 38  20  23  1   
 39  21  24  2   
 40  21  40  1   
 41  22  24  1   
 42  22  25  1   
 43  23  41  1   
 44  23  42  1   
 45  23  43  1   
 46  25  44  1   
 47  25  45  1   
 48  25  46  1   
@<TRIPOS>SUBSTRUCTURE
  1 ****  15 GROUP 4 **** **** 0

# MOE 2024.06 (io_trps.svl 2023.06)
