@<TRIPOS>MOLECULE
NONAME
39 40 1 0 0 
SMALL
USER_CHARGES


@<TRIPOS>ATOM
  1 S       -2.1960    -2.7690    -1.6540 S.3   1 <1>  -0.0800 
  2 C       -3.4200    -1.5960    -1.2020 C.2   1 <1>  -0.1100 
  3 C       -1.4810    -2.6940    -0.0550 C.2   1 <1>  -0.1100 
  4 C       -3.2640    -1.1980     0.0760 C.2   1 <1>  -0.1810 
  5 C       -2.1530    -1.8310     0.7280 C.2   1 <1>  -0.1500 
  6 C       -4.1120    -0.1810     0.8320 C.3   1 <1>   0.3210 
  7 N       -5.3270     0.2090     0.0620 N.am  1 <1>  -0.6600 
  8 C       -6.4610    -0.5560    -0.0340 C.2   1 <1>   0.5690 
  9 C       -5.3030     1.5920    -0.4910 C.3   1 <1>   0.2780 
 10 O       -7.4540    -0.1390    -0.5800 O.2   1 <1>  -0.5700 
 11 C       -6.5510    -1.9620     0.5430 C.3   1 <1>  -0.0990 
 12 C       -4.0850     1.7780    -1.3750 C.2   1 <1>  -0.2880 
 13 C       -6.8360    -2.9990    -0.5480 C.3   1 <1>   0.0200 
 14 C       -3.0870     2.6410    -1.1570 C.2   1 <1>  -0.3000 
 15 C       -6.9120    -4.3920     0.0570 C.2   1 <1>  -0.3320 
 16 N       -5.8530    -5.1890     0.3310 N.pl3 1 <1>   0.3140 
 17 C       -8.0170    -5.0750     0.4250 C.2   1 <1>  -0.1500 
 18 N       -6.2470    -6.3550     0.8700 N.2   1 <1>  -0.7070 
 19 C       -4.4330    -4.9160     0.0830 C.3   1 <1>   0.0160 
 20 C       -7.5410    -6.2810     0.9210 C.2   1 <1>   0.1390 
 21 H       -4.1360    -1.3160    -1.9550 H     1 <1>   0.1500 
 22 H       -0.6190    -3.3110     0.1300 H     1 <1>   0.1500 
 23 H       -1.9050    -1.6080     1.7510 H     1 <1>   0.1500 
 24 H       -3.5120     0.6900     1.0360 H     1 <1>   0.0800 
 25 H       -4.4090    -0.5890     1.7820 H     1 <1>   0.0800 
 26 H       -5.2800     2.2960     0.3240 H     1 <1>   0.0800 
 27 H       -6.1880     1.7910    -1.0710 H     1 <1>   0.0800 
 28 H       -7.3590    -1.9780     1.2510 H     1 <1>   0.0800 
 29 H       -5.6620    -2.2430     1.0660 H     1 <1>   0.0800 
 30 H       -4.1060     1.1220    -2.2290 H     1 <1>   0.1500 
 31 H       -6.0750    -2.9640    -1.3080 H     1 <1>   0.0800 
 32 H       -7.7770    -2.7670    -1.0180 H     1 <1>   0.0800 
 33 H       -2.2350     2.7450    -1.8080 H     1 <1>   0.1500 
 34 H       -3.0320     3.3130    -0.3180 H     1 <1>   0.1500 
 35 H       -9.0490    -4.7790     0.3630 H     1 <1>   0.1500 
 36 H       -4.1410    -4.0320     0.6160 H     1 <1>   0.0800 
 37 H       -4.2810    -4.7790    -0.9700 H     1 <1>   0.0800 
 38 H       -3.8480    -5.7500     0.4230 H     1 <1>   0.0800 
 39 H       -8.1640    -7.0690     1.3060 H     1 <1>   0.1500 
@<TRIPOS>BOND
  1   1   2  1   
  2   1   3  1   
  3   2   4  2   
  4   2  21  1   
  5   3   5  2   
  6   3  22  1   
  7   4   5  1   
  8   4   6  1   
  9   5  23  1   
 10   6   7  1   
 11   6  24  1   
 12   6  25  1   
 13   7   8  am  
 14   7   9  1   
 15   8  10  2   
 16   8  11  1   
 17   9  12  1   
 18   9  26  1   
 19   9  27  1   
 20  11  13  1   
 21  11  28  1   
 22  11  29  1   
 23  12  14  2   
 24  12  30  1   
 25  13  15  1   
 26  13  31  1   
 27  13  32  1   
 28  14  33  1   
 29  14  34  1   
 30  15  16  1   
 31  15  17  2   
 32  16  18  1   
 33  16  19  1   
 34  17  20  1   
 35  17  35  1   
 36  18  20  2   
 37  19  36  1   
 38  19  37  1   
 39  19  38  1   
 40  20  39  1   
@<TRIPOS>SUBSTRUCTURE
  1 ****  11 GROUP 4 **** **** 0

# MOE 2024.06 (io_trps.svl 2023.06)
