@<TRIPOS>MOLECULE
NONAME
43 45 1 0 0 
SMALL
USER_CHARGES


@<TRIPOS>ATOM
  1 F        1.2630     1.0260    -1.7320 F     1 <1>  -0.1900 
  2 C        2.0600     1.4470    -0.7860 C.ar  1 <1>   0.1900 
  3 C        2.8360     0.5330    -0.0890 C.ar  1 <1>  -0.1440 
  4 C        2.0930     2.8040    -0.5260 C.ar  1 <1>  -0.1500 
  5 C        3.6690     1.0200     0.9050 C.ar  1 <1>  -0.1500 
  6 C        2.7750    -0.9560    -0.3970 C.3   1 <1>  -0.0960 
  7 C        2.9360     3.2790     0.4680 C.ar  1 <1>  -0.1430 
  8 C        3.7180     2.3780     1.1820 C.ar  1 <1>  -0.1500 
  9 C        3.0080     4.7660     0.7600 C.3   1 <1>   0.4870 
 10 N        4.3530     5.2610     0.3690 N.4   1 <1>  -0.9590 
 11 C        4.6570     6.6280     0.9220 C.3   1 <1>   0.3430 
 12 C        4.6420     5.0630    -1.0900 C.3   1 <1>   0.3430 
 13 C        6.1420     7.0730     0.8110 C.3   1 <1>   0.2200 
 14 C        6.1270     5.1930    -1.4480 C.3   1 <1>  -0.0190 
 15 N        6.4660     7.5050    -0.5780 N.am  1 <1>  -0.6600 
 16 C        7.1590     6.0200     1.3150 C.3   1 <1>   0.1200 
 17 C        6.4490     6.6520    -1.6440 C.2   1 <1>   0.5690 
 18 C        7.1390     4.4900    -0.5190 C.3   1 <1>   0.1200 
 19 C        6.8630     8.9390    -0.7390 C.3   1 <1>   0.0600 
 20 O        6.8910     4.7250     0.8410 O.3   1 <1>  -0.5600 
 21 O        6.6480     7.0260    -2.7720 O.2   1 <1>  -0.5700 
 22 H        1.4600     3.4560    -1.1030 H     1 <1>   0.1500 
 23 H        4.2840     0.3410     1.4720 H     1 <1>   0.1500 
 24 H        3.4370    -1.5130     0.2410 H     1 <1>   0.0800 
 25 H        3.0580    -1.1320    -1.4200 H     1 <1>   0.0800 
 26 H        1.7730    -1.3190    -0.2510 H     1 <1>   0.0800 
 27 H        4.3760     2.7160     1.9660 H     1 <1>   0.1500 
 28 H        2.8440     4.9250     1.8140 H     1 <1>   0.0800 
 29 H        2.2430     5.2900     0.2110 H     1 <1>   0.0800 
 30 H        5.0470     4.6360     0.8270 H     1 <1>   0.4500 
 31 H        4.0420     7.3660     0.4340 H     1 <1>   0.0800 
 32 H        4.4000     6.6330     1.9680 H     1 <1>   0.0800 
 33 H        4.3300     4.0710    -1.3750 H     1 <1>   0.0800 
 34 H        4.0720     5.7640    -1.6790 H     1 <1>   0.0800 
 35 H        6.2550     7.9370     1.4440 H     1 <1>   0.0800 
 36 H        6.2450     4.7380    -2.4160 H     1 <1>   0.0800 
 37 H        7.1110     5.9680     2.3890 H     1 <1>   0.0800 
 38 H        8.1650     6.2950     1.0430 H     1 <1>   0.0800 
 39 H        8.1480     4.7940    -0.7470 H     1 <1>   0.0800 
 40 H        7.0750     3.4240    -0.6640 H     1 <1>   0.0800 
 41 H        7.7260     9.1520    -0.1310 H     1 <1>   0.0800 
 42 H        6.0530     9.5830    -0.4450 H     1 <1>   0.0800 
 43 H        7.1150     9.1580    -1.7630 H     1 <1>   0.0800 
@<TRIPOS>BOND
  1   1   2  1   
  2   2   3  ar  
  3   2   4  ar  
  4   3   5  ar  
  5   3   6  1   
  6   4   7  ar  
  7   4  22  1   
  8   5   8  ar  
  9   5  23  1   
 10   6  24  1   
 11   6  25  1   
 12   6  26  1   
 13   7   8  ar  
 14   7   9  1   
 15   8  27  1   
 16   9  10  1   
 17   9  28  1   
 18   9  29  1   
 19  10  11  1   
 20  10  12  1   
 21  10  30  1   
 22  11  13  1   
 23  11  31  1   
 24  11  32  1   
 25  12  14  1   
 26  12  33  1   
 27  12  34  1   
 28  13  15  1   
 29  13  16  1   
 30  13  35  1   
 31  14  17  1   
 32  14  18  1   
 33  14  36  1   
 34  15  17  am  
 35  15  19  1   
 36  16  20  1   
 37  16  37  1   
 38  16  38  1   
 39  17  21  2   
 40  18  20  1   
 41  18  39  1   
 42  18  40  1   
 43  19  41  1   
 44  19  42  1   
 45  19  43  1   
@<TRIPOS>SUBSTRUCTURE
  1 ****  12 GROUP 4 **** **** 0

# MOE 2024.06 (io_trps.svl 2023.06)
