@<TRIPOS>MOLECULE
NONAME
47 48 1 0 0 
SMALL
USER_CHARGES


@<TRIPOS>ATOM
  1 F       -0.7070    -0.8290     0.0030 F     1 <1>  -0.1900 
  2 C       -1.8890    -1.3590    -0.1700 C.ar  1 <1>   0.1900 
  3 C       -2.9350    -0.9250     0.6220 C.ar  1 <1>  -0.1500 
  4 C       -2.0480    -2.3320    -1.1360 C.ar  1 <1>  -0.1500 
  5 C       -4.1860    -1.4900     0.4360 C.ar  1 <1>  -0.1500 
  6 C       -3.3040    -2.8890    -1.3110 C.ar  1 <1>  -0.1500 
  7 C       -4.3760    -2.4720    -0.5300 C.ar  1 <1>  -0.1430 
  8 C       -5.7520    -3.0920    -0.7390 C.3   1 <1>   0.2540 
  9 N       -5.6960    -4.5620    -0.6740 N.3   1 <1>  -0.8100 
 10 C       -6.9800    -5.1700    -1.1310 C.3   1 <1>   0.1710 
 11 C       -5.2690    -5.0400     0.6490 C.3   1 <1>   0.0300 
 12 C       -6.9690    -6.6980    -1.3340 C.2   1 <1>   0.5690 
 13 O       -6.5510    -7.1100    -2.3930 O.2   1 <1>  -0.5700 
 14 N       -7.4480    -7.5650    -0.3770 N.am  1 <1>  -0.6600 
 15 C       -7.3420    -9.0360    -0.5840 C.3   1 <1>   0.3200 
 16 C       -8.1000    -7.1360     0.8980 C.3   1 <1>   0.1400 
 17 C       -8.7320    -9.6280    -0.7080 C.2   1 <1>  -0.3320 
 18 C       -9.5940    -6.8540     0.6960 C.3   1 <1>   0.1200 
 19 N       -9.3390   -10.4250     0.1950 N.pl3 1 <1>   0.0480 
 20 C       -9.6070    -9.4610    -1.7240 C.2   1 <1>   0.0770 
 21 O      -10.0940    -6.2920     1.8610 O.3   1 <1>  -0.6800 
 22 C      -10.5560   -10.6780    -0.3390 C.2   1 <1>   0.0360 
 23 C       -8.8200   -10.9250     1.4810 C.3   1 <1>   0.0160 
 24 N      -10.7580   -10.1150    -1.4850 N.2   1 <1>  -0.5650 
 25 H       -2.7690    -0.1650     1.3640 H     1 <1>   0.1500 
 26 H       -1.2120    -2.6470    -1.7320 H     1 <1>   0.1500 
 27 H       -5.0090    -1.1620     1.0470 H     1 <1>   0.1500 
 28 H       -3.4550    -3.6560    -2.0520 H     1 <1>   0.1500 
 29 H       -6.1050    -2.7940    -1.7120 H     1 <1>   0.0800 
 30 H       -6.4450    -2.7230    -0.0030 H     1 <1>   0.0800 
 31 H       -7.2270    -4.7470    -2.0880 H     1 <1>   0.0800 
 32 H       -7.7670    -4.8930    -0.4560 H     1 <1>   0.0800 
 33 H       -4.2890    -4.6580     0.8810 H     1 <1>   0.0800 
 34 H       -5.2080    -6.1150     0.6540 H     1 <1>   0.0800 
 35 H       -5.9570    -4.7160     1.4100 H     1 <1>   0.0800 
 36 H       -6.8070    -9.4740     0.2400 H     1 <1>   0.0800 
 37 H       -6.7880    -9.2590    -1.4800 H     1 <1>   0.0800 
 38 H       -7.6250    -6.2480     1.2680 H     1 <1>   0.0800 
 39 H       -7.9810    -7.9040     1.6410 H     1 <1>   0.0800 
 40 H      -10.1400    -7.7590     0.5010 H     1 <1>   0.0800 
 41 H       -9.7490    -6.1550    -0.1070 H     1 <1>   0.0800 
 42 H       -9.4620    -8.8860    -2.6250 H     1 <1>   0.1500 
 43 H      -11.0600    -6.1500     1.7830 H     1 <1>   0.4000 
 44 H      -11.2810   -11.2950     0.1610 H     1 <1>   0.1500 
 45 H       -8.6750   -10.0990     2.1530 H     1 <1>   0.0800 
 46 H       -7.8860   -11.4300     1.3170 H     1 <1>   0.0800 
 47 H       -9.5250   -11.6140     1.9110 H     1 <1>   0.0800 
@<TRIPOS>BOND
  1   1   2  1   
  2   2   3  ar  
  3   2   4  ar  
  4   3   5  ar  
  5   3  25  1   
  6   4   6  ar  
  7   4  26  1   
  8   5   7  ar  
  9   5  27  1   
 10   6   7  ar  
 11   6  28  1   
 12   7   8  1   
 13   8   9  1   
 14   8  29  1   
 15   8  30  1   
 16   9  10  1   
 17   9  11  1   
 18  10  12  1   
 19  10  31  1   
 20  10  32  1   
 21  11  33  1   
 22  11  34  1   
 23  11  35  1   
 24  12  13  2   
 25  12  14  am  
 26  14  15  1   
 27  14  16  1   
 28  15  17  1   
 29  15  36  1   
 30  15  37  1   
 31  16  18  1   
 32  16  38  1   
 33  16  39  1   
 34  17  19  1   
 35  17  20  2   
 36  18  21  1   
 37  18  40  1   
 38  18  41  1   
 39  19  22  1   
 40  19  23  1   
 41  20  24  1   
 42  20  42  1   
 43  21  43  1   
 44  22  24  2   
 45  22  44  1   
 46  23  45  1   
 47  23  46  1   
 48  23  47  1   
@<TRIPOS>SUBSTRUCTURE
  1 ****  10 GROUP 4 **** **** 0

# MOE 2024.06 (io_trps.svl 2023.06)
