@<TRIPOS>MOLECULE
NONAME
45 47 1 0 0 
SMALL
USER_CHARGES


@<TRIPOS>ATOM
  1 O       -0.6170    -0.4130    -0.9300 O.2   1 <1>  -0.5700 
  2 C       -1.5120     0.3670    -1.1580 C.2   1 <1>   0.5690 
  3 N       -2.6930    -0.0350    -1.7240 N.am  1 <1>  -0.6600 
  4 C       -1.2860     1.8300    -0.8090 C.3   1 <1>  -0.0990 
  5 C       -3.0310    -1.4810    -1.7080 C.3   1 <1>   0.3200 
  6 C       -3.5820     0.8680    -2.5230 C.3   1 <1>   0.1400 
  7 C       -0.4670     2.0100     0.4760 C.3   1 <1>  -0.0170 
  8 C       -3.4900    -1.8650    -0.3170 C.2   1 <1>  -0.3320 
  9 C       -4.8400     1.3160    -1.7580 C.3   1 <1>   0.1200 
 10 C       -0.4170     3.4790     0.8610 C.ar  1 <1>  -0.1440 
 11 N       -4.6470    -1.4490     0.2220 N.pl3 1 <1>   0.0330 
 12 C       -2.8960    -2.6360     0.6200 C.2   1 <1>   0.0770 
 13 O       -5.7910     0.3000    -1.7080 O.3   1 <1>  -0.6800 
 14 C        0.5300     4.3170     0.2810 C.ar  1 <1>  -0.1500 
 15 C       -1.3260     3.9900     1.7890 C.ar  1 <1>  -0.1500 
 16 C       -4.6910    -2.0000     1.4530 C.2   1 <1>   0.0070 
 17 N       -3.6570    -2.7250     1.7290 N.2   1 <1>  -0.5650 
 18 C        0.5350     5.6480     0.6470 C.ar  1 <1>   0.0820 
 19 C       -1.3050     5.3320     2.1460 C.ar  1 <1>  -0.1500 
 20 C       -5.8450    -1.7800     2.4050 C.3   1 <1>  -0.0600 
 21 O        1.3440     6.6230     0.2200 O.3   1 <1>  -0.3630 
 22 C       -0.3570     6.1420     1.5540 C.ar  1 <1>   0.0820 
 23 C        0.9480     7.8110     0.9030 C.3   1 <1>   0.4000 
 24 O       -0.1500     7.4500     1.7390 O.3   1 <1>  -0.3620 
 25 H       -2.2320     2.3160    -0.6670 H     1 <1>   0.0800 
 26 H       -0.7770     2.3050    -1.6270 H     1 <1>   0.0800 
 27 H       -2.1610    -2.0580    -1.9730 H     1 <1>   0.0800 
 28 H       -3.8050    -1.6960    -2.4230 H     1 <1>   0.0800 
 29 H       -3.8640     0.3840    -3.4410 H     1 <1>   0.0800 
 30 H       -3.0250     1.7460    -2.7980 H     1 <1>   0.0800 
 31 H        0.5310     1.6350     0.3300 H     1 <1>   0.0800 
 32 H       -0.9140     1.4370     1.2710 H     1 <1>   0.0800 
 33 H       -5.2920     2.1620    -2.2470 H     1 <1>   0.0800 
 34 H       -4.5850     1.5940    -0.7500 H     1 <1>   0.0800 
 35 H       -5.3320    -0.8240    -0.2260 H     1 <1>   0.2700 
 36 H       -1.9430    -3.1350     0.5540 H     1 <1>   0.1500 
 37 H       -6.2040     0.1670    -2.5860 H     1 <1>   0.4000 
 38 H        1.2450     3.9540    -0.4340 H     1 <1>   0.1500 
 39 H       -2.0560     3.3390     2.2390 H     1 <1>   0.1500 
 40 H       -1.9980     5.7390     2.8590 H     1 <1>   0.1500 
 41 H       -6.7570    -2.1430     1.9670 H     1 <1>   0.0800 
 42 H       -5.9450    -0.7330     2.6250 H     1 <1>   0.0800 
 43 H       -5.6650    -2.3110     3.3220 H     1 <1>   0.0800 
 44 H        0.6320     8.5500     0.1900 H     1 <1>   0.0800 
 45 H        1.7620     8.1660     1.5110 H     1 <1>   0.0800 
@<TRIPOS>BOND
  1   1   2  2   
  2   2   3  am  
  3   2   4  1   
  4   3   5  1   
  5   3   6  1   
  6   4   7  1   
  7   4  25  1   
  8   4  26  1   
  9   5   8  1   
 10   5  27  1   
 11   5  28  1   
 12   6   9  1   
 13   6  29  1   
 14   6  30  1   
 15   7  10  1   
 16   7  31  1   
 17   7  32  1   
 18   8  11  1   
 19   8  12  2   
 20   9  13  1   
 21   9  33  1   
 22   9  34  1   
 23  10  14  ar  
 24  10  15  ar  
 25  11  16  1   
 26  11  35  1   
 27  12  17  1   
 28  12  36  1   
 29  13  37  1   
 30  14  18  ar  
 31  14  38  1   
 32  15  19  ar  
 33  15  39  1   
 34  16  17  2   
 35  16  20  1   
 36  18  21  1   
 37  18  22  ar  
 38  19  22  ar  
 39  19  40  1   
 40  20  41  1   
 41  20  42  1   
 42  20  43  1   
 43  21  23  1   
 44  22  24  1   
 45  23  24  1   
 46  23  44  1   
 47  23  45  1   
@<TRIPOS>SUBSTRUCTURE
  1 ****   4 GROUP 4 **** **** 0

# MOE 2024.06 (io_trps.svl 2023.06)
