@<TRIPOS>MOLECULE
NONAME
56 59 1 0 0 
SMALL
USER_CHARGES


@<TRIPOS>ATOM
  1 O        0.4890    -0.3450    -0.8870 O.3   1 <1>  -0.5600 
  2 C        1.6400    -0.9770    -0.3740 C.3   1 <1>   0.4240 
  3 C       -0.7540    -0.7610    -0.4120 C.3   1 <1>   0.1200 
  4 C        1.4020    -2.4850    -0.1300 C.ar  1 <1>  -0.1440 
  5 C        2.7150    -0.7740    -1.4640 C.3   1 <1>  -0.1600 
  6 C        2.0070    -0.2620     0.9400 C.3   1 <1>  -0.1600 
  7 C       -0.9860    -2.2080    -0.8340 C.3   1 <1>  -0.0160 
  8 C        0.1630    -3.0690    -0.3500 C.ar  1 <1>  -0.1440 
  9 C        2.4390    -3.2940     0.3160 C.ar  1 <1>  -0.1500 
 10 C        4.0560    -0.2980    -0.9070 C.3   1 <1>   0.2090 
 11 C        2.6170     1.1060     0.6570 C.3   1 <1>   0.2090 
 12 C       -0.0290    -4.4240    -0.1290 C.ar  1 <1>  -0.1500 
 13 C        2.2700    -4.6500     0.5360 C.ar  1 <1>   0.0820 
 14 N        3.8770     0.9600    -0.1290 N.pl3 1 <1>  -0.8380 
 15 C        1.0110    -5.2330     0.3230 C.ar  1 <1>   0.0820 
 16 O        3.3910    -5.3010     0.9590 O.3   1 <1>  -0.3630 
 17 C        5.0070     1.6650     0.3260 C.ar  1 <1>   0.4100 
 18 O        0.8190    -6.5620     0.5740 O.3   1 <1>  -0.3630 
 19 C        3.6220    -6.6530     0.6330 C.3   1 <1>   0.0400 
 20 N        6.0990     0.9250     0.4590 N.ar  1 <1>  -0.6200 
 21 C        4.9810     3.0760     0.6410 C.ar  1 <1>   0.4100 
 22 C       -0.4590    -7.1580     0.5380 C.3   1 <1>   0.0400 
 23 C        7.1310     1.6040     0.9340 C.ar  1 <1>   0.1600 
 24 N        6.0340     3.7190     1.1270 N.ar  1 <1>  -0.6200 
 25 N        3.8480     3.8870     0.4330 N.pl3 1 <1>  -0.8380 
 26 C        7.0980     2.9440     1.2600 C.ar  1 <1>   0.1600 
 27 C        3.3770     4.0210    -0.9710 C.3   1 <1>   0.1290 
 28 C        3.6650     5.1170     1.2520 C.3   1 <1>   0.1290 
 29 H       -1.5020    -0.1190    -0.8420 H     1 <1>   0.0800 
 30 H       -0.7790    -0.6630     0.6590 H     1 <1>   0.0800 
 31 H        2.3850    -0.0360    -2.1730 H     1 <1>   0.0800 
 32 H        2.8670    -1.6900    -2.0040 H     1 <1>   0.0800 
 33 H        2.7270    -0.8340     1.4930 H     1 <1>   0.0800 
 34 H        1.1450    -0.1570     1.5680 H     1 <1>   0.0800 
 35 H       -1.0550    -2.2620    -1.9050 H     1 <1>   0.0800 
 36 H       -1.9140    -2.5530    -0.4150 H     1 <1>   0.0800 
 37 H        3.4120    -2.8800     0.5010 H     1 <1>   0.1500 
 38 H        4.7440    -0.1170    -1.7160 H     1 <1>   0.0800 
 39 H        4.4850    -1.0520    -0.2690 H     1 <1>   0.0800 
 40 H        2.8230     1.6080     1.5870 H     1 <1>   0.0800 
 41 H        1.9220     1.7090     0.0980 H     1 <1>   0.0800 
 42 H       -1.0030    -4.8320    -0.3160 H     1 <1>   0.1500 
 43 H        4.6720    -6.8500     0.7480 H     1 <1>   0.0800 
 44 H        3.3230    -6.8250    -0.3860 H     1 <1>   0.0800 
 45 H        3.0600    -7.2730     1.3070 H     1 <1>   0.0800 
 46 H       -0.3560    -8.1850     0.8390 H     1 <1>   0.0800 
 47 H       -0.8400    -7.1100    -0.4660 H     1 <1>   0.0800 
 48 H       -1.1060    -6.6400     1.2240 H     1 <1>   0.0800 
 49 H        8.0470     1.0570     1.0710 H     1 <1>   0.1500 
 50 H        7.9880     3.4080     1.6460 H     1 <1>   0.1500 
 51 H        3.7050     3.1830    -1.5620 H     1 <1>   0.0800 
 52 H        3.7710     4.9230    -1.4050 H     1 <1>   0.0800 
 53 H        2.3020     4.0540    -0.9910 H     1 <1>   0.0800 
 54 H        3.9440     4.9200     2.2730 H     1 <1>   0.0800 
 55 H        2.6350     5.4250     1.2280 H     1 <1>   0.0800 
 56 H        4.2860     5.9070     0.8690 H     1 <1>   0.0800 
@<TRIPOS>BOND
  1   1   2  1   
  2   1   3  1   
  3   2   4  1   
  4   2   5  1   
  5   2   6  1   
  6   3   7  1   
  7   3  29  1   
  8   3  30  1   
  9   4   8  ar  
 10   4   9  ar  
 11   5  10  1   
 12   5  31  1   
 13   5  32  1   
 14   6  11  1   
 15   6  33  1   
 16   6  34  1   
 17   7   8  1   
 18   7  35  1   
 19   7  36  1   
 20   8  12  ar  
 21   9  13  ar  
 22   9  37  1   
 23  10  14  1   
 24  10  38  1   
 25  10  39  1   
 26  11  14  1   
 27  11  40  1   
 28  11  41  1   
 29  12  15  ar  
 30  12  42  1   
 31  13  15  ar  
 32  13  16  1   
 33  14  17  1   
 34  15  18  1   
 35  16  19  1   
 36  17  20  ar  
 37  17  21  ar  
 38  18  22  1   
 39  19  43  1   
 40  19  44  1   
 41  19  45  1   
 42  20  23  ar  
 43  21  24  ar  
 44  21  25  1   
 45  22  46  1   
 46  22  47  1   
 47  22  48  1   
 48  23  26  ar  
 49  23  49  1   
 50  24  26  ar  
 51  25  27  1   
 52  25  28  1   
 53  26  50  1   
 54  27  51  1   
 55  27  52  1   
 56  27  53  1   
 57  28  54  1   
 58  28  55  1   
 59  28  56  1   
@<TRIPOS>SUBSTRUCTURE
  1 ****   6 GROUP 4 **** **** 0

# MOE 2024.06 (io_trps.svl 2023.06)
