@<TRIPOS>MOLECULE
NONAME
50 52 1 0 0 
SMALL
USER_CHARGES


@<TRIPOS>ATOM
  1 CL      -0.6510    -0.3500    -1.3560 Cl    1 <1>  -0.1770 
  2 C       -1.6820     0.7380    -0.4400 C.ar  1 <1>   0.1770 
  3 C       -1.6010     2.1070    -0.6600 C.ar  1 <1>   0.0830 
  4 C       -2.5610     0.1910     0.4800 C.ar  1 <1>  -0.1440 
  5 O       -0.7040     2.5220    -1.6020 O.3   1 <1>  -0.3630 
  6 C       -2.4430     2.9590     0.0710 C.ar  1 <1>   0.0830 
  7 C       -3.3770     1.0400     1.2100 C.ar  1 <1>  -0.1500 
  8 C       -2.6340    -1.3100     0.6840 C.3   1 <1>   0.4860 
  9 C        0.0600     3.6930    -1.4060 C.3   1 <1>   0.0400 
 10 O       -2.4070     4.3020    -0.1620 O.3   1 <1>  -0.3630 
 11 C       -3.3170     2.4080     1.0070 C.ar  1 <1>  -0.1500 
 12 N       -3.2080    -1.9520    -0.5320 N.4   1 <1>  -0.9590 
 13 C       -3.2750     5.2090     0.4820 C.3   1 <1>   0.0400 
 14 C       -4.6070    -1.4910    -0.7970 C.3   1 <1>   0.3430 
 15 C       -3.2790    -3.4330    -0.3420 C.3   1 <1>   0.3430 
 16 C       -5.5100    -2.5050    -0.0920 C.3   1 <1>   0.2000 
 17 C       -4.7640    -3.8210    -0.3190 C.3   1 <1>  -0.0800 
 18 O       -5.5420    -2.1960     1.2670 O.3   1 <1>  -0.6800 
 19 C       -5.0650    -4.9540     0.6820 C.3   1 <1>   0.0210 
 20 C       -4.2960    -6.2130     0.3320 C.2   1 <1>   0.1080 
 21 N       -3.0000    -6.2580     0.2800 N.2   1 <1>  -0.7070 
 22 C       -4.8780    -7.4410     0.0360 C.2   1 <1>  -0.1500 
 23 N       -2.7170    -7.5390    -0.0420 N.pl3 1 <1>   0.3000 
 24 C       -3.8400    -8.2700    -0.2000 C.2   1 <1>  -0.3320 
 25 C       -3.8520    -9.7430    -0.5670 C.3   1 <1>  -0.0600 
 26 H       -4.0670     0.6460     1.9410 H     1 <1>   0.1500 
 27 H       -3.2490    -1.5320     1.5420 H     1 <1>   0.0800 
 28 H       -1.6440    -1.6930     0.8680 H     1 <1>   0.0800 
 29 H        0.9490     3.6180    -2.0050 H     1 <1>   0.0800 
 30 H        0.3220     3.7770    -0.3650 H     1 <1>   0.0800 
 31 H       -0.5180     4.5430    -1.7230 H     1 <1>   0.0800 
 32 H       -3.9670     3.0310     1.5930 H     1 <1>   0.1500 
 33 H       -2.5890    -1.7100    -1.3200 H     1 <1>   0.4500 
 34 H       -3.0660     6.1950     0.1050 H     1 <1>   0.0800 
 35 H       -3.0920     5.1800     1.5410 H     1 <1>   0.0800 
 36 H       -4.2930     4.9430     0.2550 H     1 <1>   0.0800 
 37 H       -4.7880    -0.4900    -0.4420 H     1 <1>   0.0800 
 38 H       -4.7990    -1.5290    -1.8560 H     1 <1>   0.0800 
 39 H       -2.7730    -3.9560    -1.1380 H     1 <1>   0.0800 
 40 H       -2.8170    -3.7150     0.5910 H     1 <1>   0.0800 
 41 H       -6.5160    -2.5000    -0.4770 H     1 <1>   0.0800 
 42 H       -5.0100    -4.1790    -1.3040 H     1 <1>   0.0800 
 43 H       -6.2620    -2.6820     1.7240 H     1 <1>   0.4000 
 44 H       -6.1180    -5.1730     0.6810 H     1 <1>   0.0800 
 45 H       -4.7850    -4.6640     1.6800 H     1 <1>   0.0800 
 46 H       -5.9300    -7.6640     0.0110 H     1 <1>   0.1500 
 47 H       -1.7550    -7.8870    -0.1420 H     1 <1>   0.2700 
 48 H       -4.8640   -10.1000    -0.6300 H     1 <1>   0.0800 
 49 H       -3.3340   -10.3170     0.1810 H     1 <1>   0.0800 
 50 H       -3.3750    -9.8950    -1.5190 H     1 <1>   0.0800 
@<TRIPOS>BOND
  1   1   2  1   
  2   2   3  ar  
  3   2   4  ar  
  4   3   5  1   
  5   3   6  ar  
  6   4   7  ar  
  7   4   8  1   
  8   5   9  1   
  9   6  10  1   
 10   6  11  ar  
 11   7  11  ar  
 12   7  26  1   
 13   8  12  1   
 14   8  27  1   
 15   8  28  1   
 16   9  29  1   
 17   9  30  1   
 18   9  31  1   
 19  10  13  1   
 20  11  32  1   
 21  12  14  1   
 22  12  15  1   
 23  12  33  1   
 24  13  34  1   
 25  13  35  1   
 26  13  36  1   
 27  14  16  1   
 28  14  37  1   
 29  14  38  1   
 30  15  17  1   
 31  15  39  1   
 32  15  40  1   
 33  16  17  1   
 34  16  18  1   
 35  16  41  1   
 36  17  19  1   
 37  17  42  1   
 38  18  43  1   
 39  19  20  1   
 40  19  44  1   
 41  19  45  1   
 42  20  21  2   
 43  20  22  1   
 44  21  23  1   
 45  22  24  2   
 46  22  46  1   
 47  23  24  1   
 48  23  47  1   
 49  24  25  1   
 50  25  48  1   
 51  25  49  1   
 52  25  50  1   
@<TRIPOS>SUBSTRUCTURE
  1 ****  12 GROUP 4 **** **** 0

# MOE 2024.06 (io_trps.svl 2023.06)
