@<TRIPOS>MOLECULE
NONAME
53 57 1 0 0 
SMALL
USER_CHARGES


@<TRIPOS>ATOM
  1 O        0.7330    -0.2630    -1.2910 O.3   1 <1>  -0.6800 
  2 C        2.0970    -0.2110    -1.5710 C.3   1 <1>   0.2000 
  3 C        2.8500    -1.2930    -0.7920 C.3   1 <1>  -0.0800 
  4 C        2.6780     1.1090    -1.0430 C.3   1 <1>   0.2090 
  5 C        3.1240    -0.6280     0.5570 C.3   1 <1>   0.2090 
  6 C        2.1450    -2.6600    -0.6700 C.3   1 <1>  -0.0170 
  7 N        3.3730     0.7980     0.2430 N.pl3 1 <1>  -0.8380 
  8 C        2.9500    -3.7790     0.0060 C.ar  1 <1>  -0.1440 
  9 C        4.6720     1.2470     0.3870 C.ar  1 <1>   0.4100 
 10 C        2.2980    -4.9690     0.4190 C.ar  1 <1>   0.0000 
 11 C        4.2970    -3.7030     0.2320 C.ar  1 <1>  -0.1500 
 12 N        5.5520     0.7240    -0.4620 N.ar  1 <1>  -0.6200 
 13 C        5.0050     2.1830     1.3720 C.ar  1 <1>   0.0730 
 14 C        3.0770    -5.9660     1.0580 C.ar  1 <1>   0.3100 
 15 C        0.9200    -5.2340     0.2300 C.ar  1 <1>  -0.1500 
 16 C        4.9720    -4.7510     0.8670 C.ar  1 <1>   0.1600 
 17 C        6.8020     1.1380    -0.3570 C.ar  1 <1>   0.1670 
 18 C        4.0150     2.6970     2.2670 C.1   1 <1>   0.4840 
 19 C        6.3180     2.6000     1.4630 C.ar  1 <1>  -0.1500 
 20 N        4.4080    -5.8410     1.2750 N.ar  1 <1>  -0.6200 
 21 C        2.4530    -7.1490     1.4870 C.ar  1 <1>  -0.1500 
 22 C        0.3440    -6.3990     0.6580 C.ar  1 <1>  -0.1500 
 23 C        7.2380     2.0680     0.5820 C.ar  1 <1>  -0.1430 
 24 C        7.7720     0.5040    -1.3460 C.3   1 <1>  -0.0170 
 25 N        3.2790     3.1430     3.0170 N.1   1 <1>  -0.5570 
 26 C        1.1170    -7.3700     1.2970 C.ar  1 <1>  -0.1500 
 27 C        8.6890     2.5290     0.6650 C.3   1 <1>  -0.0170 
 28 C        9.1170     1.2360    -1.4470 C.3   1 <1>  -0.1600 
 29 C        9.6490     1.5750    -0.0520 C.3   1 <1>  -0.1600 
 30 H        0.3280    -1.0540    -1.6940 H     1 <1>   0.4000 
 31 H        2.2250    -0.2980    -2.6360 H     1 <1>   0.0800 
 32 H        3.7930    -1.4240    -1.2910 H     1 <1>   0.0800 
 33 H        1.9010     1.8360    -0.8820 H     1 <1>   0.0800 
 34 H        3.3860     1.5020    -1.7530 H     1 <1>   0.0800 
 35 H        3.9670    -1.0690     1.0610 H     1 <1>   0.0800 
 36 H        2.2580    -0.6940     1.1940 H     1 <1>   0.0800 
 37 H        1.8690    -2.9980    -1.6540 H     1 <1>   0.0800 
 38 H        1.2430    -2.5090    -0.1040 H     1 <1>   0.0800 
 39 H        4.8930    -2.8580    -0.0580 H     1 <1>   0.1500 
 40 H        0.3020    -4.5100    -0.2640 H     1 <1>   0.1500 
 41 H        6.0310    -4.6400     1.0270 H     1 <1>   0.1500 
 42 H        6.6130     3.3230     2.2040 H     1 <1>   0.1500 
 43 H        3.0700    -7.8820     1.9740 H     1 <1>   0.1500 
 44 H       -0.7060    -6.5840     0.5090 H     1 <1>   0.1500 
 45 H        7.9430    -0.5100    -1.0320 H     1 <1>   0.0800 
 46 H        7.3140     0.4720    -2.3190 H     1 <1>   0.0800 
 47 H        0.6530    -8.2820     1.6320 H     1 <1>   0.1500 
 48 H        8.7600     3.5040     0.2150 H     1 <1>   0.0800 
 49 H        8.9860     2.6190     1.6950 H     1 <1>   0.0800 
 50 H        9.8240     0.6190    -1.9730 H     1 <1>   0.0800 
 51 H        8.9860     2.1450    -2.0100 H     1 <1>   0.0800 
 52 H       10.6200     2.0330    -0.1300 H     1 <1>   0.0800 
 53 H        9.7530     0.6700     0.5220 H     1 <1>   0.0800 
@<TRIPOS>BOND
  1   1   2  1   
  2   1  30  1   
  3   2   3  1   
  4   2   4  1   
  5   2  31  1   
  6   3   5  1   
  7   3   6  1   
  8   3  32  1   
  9   4   7  1   
 10   4  33  1   
 11   4  34  1   
 12   5   7  1   
 13   5  35  1   
 14   5  36  1   
 15   6   8  1   
 16   6  37  1   
 17   6  38  1   
 18   7   9  1   
 19   8  10  ar  
 20   8  11  ar  
 21   9  12  ar  
 22   9  13  ar  
 23  10  14  ar  
 24  10  15  ar  
 25  11  16  ar  
 26  11  39  1   
 27  12  17  ar  
 28  13  18  1   
 29  13  19  ar  
 30  14  20  ar  
 31  14  21  ar  
 32  15  22  ar  
 33  15  40  1   
 34  16  20  ar  
 35  16  41  1   
 36  17  23  ar  
 37  17  24  1   
 38  18  25  3   
 39  19  23  ar  
 40  19  42  1   
 41  21  26  ar  
 42  21  43  1   
 43  22  26  ar  
 44  22  44  1   
 45  23  27  1   
 46  24  28  1   
 47  24  45  1   
 48  24  46  1   
 49  26  47  1   
 50  27  29  1   
 51  27  48  1   
 52  27  49  1   
 53  28  29  1   
 54  28  50  1   
 55  28  51  1   
 56  29  52  1   
 57  29  53  1   
@<TRIPOS>SUBSTRUCTURE
  1 ****   5 GROUP 4 **** **** 0

# MOE 2024.06 (io_trps.svl 2023.06)
