@<TRIPOS>MOLECULE
NONAME
49 51 1 0 0 
SMALL
USER_CHARGES


@<TRIPOS>ATOM
  1 O        1.0340    -0.7600     0.2740 O.3   1 <1>  -0.5600 
  2 C        0.7210    -2.0830    -0.0400 C.3   1 <1>   0.2000 
  3 C        0.8070     0.1600    -0.7620 C.3   1 <1>   0.2640 
  4 C       -0.7870    -2.3400     0.1470 C.3   1 <1>   0.2090 
  5 C        1.5500    -2.9800     0.8890 C.3   1 <1>  -0.1600 
  6 C        1.1560     1.5910    -0.3580 C.ar  1 <1>   0.1660 
  7 N       -1.0790    -3.7900    -0.0530 N.pl3 1 <1>  -0.8380 
  8 C        1.1560    -4.4590     0.7180 C.3   1 <1>  -0.1600 
  9 N        0.8740     2.5170    -1.2670 N.ar  1 <1>  -0.6200 
 10 C        1.7290     1.8790     0.8760 C.ar  1 <1>  -0.1500 
 11 C       -2.3500    -4.1630    -0.4480 C.ar  1 <1>   0.4100 
 12 C       -0.3520    -4.6710     0.8940 C.3   1 <1>   0.2090 
 13 C        1.1710     3.7630    -0.9350 C.ar  1 <1>   0.1600 
 14 C        2.0330     3.1820     1.2060 C.ar  1 <1>  -0.1500 
 15 N       -3.3440    -3.5610     0.1960 N.ar  1 <1>  -0.6200 
 16 C       -2.5430    -5.1130    -1.4600 C.ar  1 <1>   0.0730 
 17 C        1.7410     4.1450     0.2660 C.ar  1 <1>  -0.1500 
 18 C       -4.5760    -3.8960    -0.1480 C.ar  1 <1>   0.1670 
 19 C       -1.4270    -5.7140    -2.1230 C.1   1 <1>   0.4840 
 20 C       -3.8370    -5.4520    -1.8060 C.ar  1 <1>  -0.1500 
 21 C       -4.8650    -4.8280    -1.1330 C.ar  1 <1>  -0.1500 
 22 C       -5.7050    -3.1910     0.6070 C.3   1 <1>   0.0630 
 23 N       -0.5610    -6.2260    -2.6630 N.1   1 <1>  -0.5570 
 24 C       -6.5650    -4.1890     1.3940 C.3   1 <1>  -0.2400 
 25 C       -6.5760    -2.3520    -0.3370 C.3   1 <1>  -0.2400 
 26 H        0.9970    -2.2790    -1.0620 H     1 <1>   0.0800 
 27 H       -0.2310     0.1230    -1.0390 H     1 <1>   0.0800 
 28 H        1.4100    -0.1200    -1.6070 H     1 <1>   0.0800 
 29 H       -1.3530    -1.7650    -0.5630 H     1 <1>   0.0800 
 30 H       -1.0840    -2.0550     1.1420 H     1 <1>   0.0800 
 31 H        1.3750    -2.6850     1.9090 H     1 <1>   0.0800 
 32 H        2.5950    -2.8560     0.6680 H     1 <1>   0.0800 
 33 H        1.6850    -5.0590     1.4360 H     1 <1>   0.0800 
 34 H        1.4370    -4.7990    -0.2640 H     1 <1>   0.0800 
 35 H        1.9390     1.0910     1.5760 H     1 <1>   0.1500 
 36 H       -0.6020    -5.7020     0.7080 H     1 <1>   0.0800 
 37 H       -0.6460    -4.4270     1.9010 H     1 <1>   0.0800 
 38 H        0.9470     4.5240    -1.6630 H     1 <1>   0.1500 
 39 H        2.4770     3.4320     2.1540 H     1 <1>   0.1500 
 40 H        1.9530     5.1810     0.4600 H     1 <1>   0.1500 
 41 H       -4.0380    -6.1780    -2.5750 H     1 <1>   0.1500 
 42 H       -5.8850    -5.0650    -1.3740 H     1 <1>   0.1500 
 43 H       -5.2560    -2.5180     1.3190 H     1 <1>   0.0800 
 44 H       -7.0810    -4.8610     0.7330 H     1 <1>   0.0800 
 45 H       -7.2930    -3.6640     1.9880 H     1 <1>   0.0800 
 46 H       -5.9400    -4.7650     2.0540 H     1 <1>   0.0800 
 47 H       -7.0910    -2.9750    -1.0460 H     1 <1>   0.0800 
 48 H       -5.9590    -1.6540    -0.8760 H     1 <1>   0.0800 
 49 H       -7.3050    -1.7960     0.2260 H     1 <1>   0.0800 
@<TRIPOS>BOND
  1   1   2  1   
  2   1   3  1   
  3   2   4  1   
  4   2   5  1   
  5   2  26  1   
  6   3   6  1   
  7   3  27  1   
  8   3  28  1   
  9   4   7  1   
 10   4  29  1   
 11   4  30  1   
 12   5   8  1   
 13   5  31  1   
 14   5  32  1   
 15   6   9  ar  
 16   6  10  ar  
 17   7  11  1   
 18   7  12  1   
 19   8  12  1   
 20   8  33  1   
 21   8  34  1   
 22   9  13  ar  
 23  10  14  ar  
 24  10  35  1   
 25  11  15  ar  
 26  11  16  ar  
 27  12  36  1   
 28  12  37  1   
 29  13  17  ar  
 30  13  38  1   
 31  14  17  ar  
 32  14  39  1   
 33  15  18  ar  
 34  16  19  1   
 35  16  20  ar  
 36  17  40  1   
 37  18  21  ar  
 38  18  22  1   
 39  19  23  3   
 40  20  21  ar  
 41  20  41  1   
 42  21  42  1   
 43  22  24  1   
 44  22  25  1   
 45  22  43  1   
 46  24  44  1   
 47  24  45  1   
 48  24  46  1   
 49  25  47  1   
 50  25  48  1   
 51  25  49  1   
@<TRIPOS>SUBSTRUCTURE
  1 ****   4 GROUP 4 **** **** 0

# MOE 2024.06 (io_trps.svl 2023.06)
