@<TRIPOS>MOLECULE
NONAME
57 59 1 0 0 
SMALL
USER_CHARGES


@<TRIPOS>ATOM
  1 O       -1.0850    -1.7000     0.3940 O.2   1 <1>  -0.5700 
  2 C       -0.1070    -2.3390     0.0930 C.2   1 <1>   0.5690 
  3 N       -0.0080    -3.0670    -1.0610 N.am  1 <1>  -0.6600 
  4 C        1.0810    -2.3500     1.0330 C.3   1 <1>  -0.0990 
  5 C        1.2200    -3.8500    -1.3520 C.3   1 <1>   0.1400 
  6 C       -1.1180    -3.1670    -2.0450 C.3   1 <1>   0.0600 
  7 C        2.3890    -2.1530     0.2460 C.3   1 <1>  -0.0800 
  8 C        2.4750    -3.0100    -1.0390 C.3   1 <1>  -0.0800 
  9 C        3.6430    -2.4690     1.0710 C.3   1 <1>  -0.1600 
 10 C        3.7410    -3.8640    -0.8910 C.3   1 <1>  -0.1600 
 11 C        4.6230    -3.0620     0.0660 C.3   1 <1>   0.2200 
 12 N        5.7100    -3.8480     0.7280 N.am  1 <1>  -0.6600 
 13 C        6.9960    -3.3800     0.8700 C.2   1 <1>   0.5690 
 14 C        5.3640    -5.2050     1.2580 C.3   1 <1>   0.0600 
 15 O        7.8730    -4.0760     1.3290 O.2   1 <1>  -0.5700 
 16 C        7.3570    -1.9580     0.4560 C.3   1 <1>  -0.0990 
 17 C        8.7660    -1.5170     0.8790 C.3   1 <1>  -0.0170 
 18 C        9.0040    -0.0690     0.4770 C.ar  1 <1>  -0.1440 
 19 C        9.4400     0.2390    -0.8010 C.ar  1 <1>  -0.1500 
 20 C        8.7840     0.9570     1.3780 C.ar  1 <1>  -0.1500 
 21 C        9.6580     1.5500    -1.1910 C.ar  1 <1>   0.0820 
 22 C        8.9890     2.2750     1.0050 C.ar  1 <1>  -0.1500 
 23 O       10.0960     1.7050    -2.4730 O.3   1 <1>  -0.3630 
 24 C        9.4190     2.5940    -0.2820 C.ar  1 <1>   0.0820 
 25 C       11.0240     2.7160    -2.8000 C.3   1 <1>   0.0400 
 26 O        9.5910     3.8910    -0.6730 O.3   1 <1>  -0.3630 
 27 C        9.2360     4.9780     0.1530 C.3   1 <1>   0.0400 
 28 H        0.9690    -1.5700     1.7640 H     1 <1>   0.0800 
 29 H        1.0840    -3.2950     1.5440 H     1 <1>   0.0800 
 30 H        1.2030    -4.7370    -0.7420 H     1 <1>   0.0800 
 31 H        1.2330    -4.1510    -2.3850 H     1 <1>   0.0800 
 32 H       -0.7930    -2.7940    -3.0000 H     1 <1>   0.0800 
 33 H       -1.9640    -2.5850    -1.7190 H     1 <1>   0.0800 
 34 H       -1.4250    -4.1930    -2.1450 H     1 <1>   0.0800 
 35 H        2.4330    -1.1190    -0.0580 H     1 <1>   0.0800 
 36 H        2.6260    -2.3370    -1.8670 H     1 <1>   0.0800 
 37 H        3.4130    -3.1920     1.8320 H     1 <1>   0.0800 
 38 H        4.0430    -1.5830     1.5330 H     1 <1>   0.0800 
 39 H        4.2290    -4.0200    -1.8370 H     1 <1>   0.0800 
 40 H        3.4750    -4.8130    -0.4630 H     1 <1>   0.0800 
 41 H        5.0420    -2.2530    -0.5060 H     1 <1>   0.0800 
 42 H        4.3820    -5.2050     1.6940 H     1 <1>   0.0800 
 43 H        6.0650    -5.5070     2.0180 H     1 <1>   0.0800 
 44 H        5.4000    -5.9240     0.4580 H     1 <1>   0.0800 
 45 H        7.2820    -1.8860    -0.6130 H     1 <1>   0.0800 
 46 H        6.6470    -1.2830     0.8960 H     1 <1>   0.0800 
 47 H        9.5010    -2.1490     0.4120 H     1 <1>   0.0800 
 48 H        8.8760    -1.6240     1.9440 H     1 <1>   0.0800 
 49 H        9.6190    -0.5440    -1.5150 H     1 <1>   0.1500 
 50 H        8.4510     0.7350     2.3770 H     1 <1>   0.1500 
 51 H        8.8030     3.0360     1.7370 H     1 <1>   0.1500 
 52 H       11.5210     2.4330    -3.7100 H     1 <1>   0.0800 
 53 H       11.7380     2.8110    -2.0020 H     1 <1>   0.0800 
 54 H       10.4930     3.6390    -2.9490 H     1 <1>   0.0800 
 55 H        9.4110     5.8850    -0.3970 H     1 <1>   0.0800 
 56 H        9.8510     4.9630     1.0350 H     1 <1>   0.0800 
 57 H        8.1930     4.9000     0.4050 H     1 <1>   0.0800 
@<TRIPOS>BOND
  1   1   2  2   
  2   2   3  am  
  3   2   4  1   
  4   3   5  1   
  5   3   6  1   
  6   4   7  1   
  7   4  28  1   
  8   4  29  1   
  9   5   8  1   
 10   5  30  1   
 11   5  31  1   
 12   6  32  1   
 13   6  33  1   
 14   6  34  1   
 15   7   8  1   
 16   7   9  1   
 17   7  35  1   
 18   8  10  1   
 19   8  36  1   
 20   9  11  1   
 21   9  37  1   
 22   9  38  1   
 23  10  11  1   
 24  10  39  1   
 25  10  40  1   
 26  11  12  1   
 27  11  41  1   
 28  12  13  am  
 29  12  14  1   
 30  13  15  2   
 31  13  16  1   
 32  14  42  1   
 33  14  43  1   
 34  14  44  1   
 35  16  17  1   
 36  16  45  1   
 37  16  46  1   
 38  17  18  1   
 39  17  47  1   
 40  17  48  1   
 41  18  19  ar  
 42  18  20  ar  
 43  19  21  ar  
 44  19  49  1   
 45  20  22  ar  
 46  20  50  1   
 47  21  23  1   
 48  21  24  ar  
 49  22  24  ar  
 50  22  51  1   
 51  23  25  1   
 52  24  26  1   
 53  25  52  1   
 54  25  53  1   
 55  25  54  1   
 56  26  27  1   
 57  27  55  1   
 58  27  56  1   
 59  27  57  1   
@<TRIPOS>SUBSTRUCTURE
  1 ****  16 GROUP 4 **** **** 0

# MOE 2024.06 (io_trps.svl 2023.06)
