@<TRIPOS>MOLECULE
NONAME
45 47 1 0 0 
SMALL
USER_CHARGES


@<TRIPOS>ATOM
  1 O        0.2980    -0.6940     0.3450 O.3   1 <1>  -0.3630 
  2 C        0.1920    -2.0100     0.0840 C.ar  1 <1>   0.0830 
  3 C       -0.1760     0.0040    -0.8030 C.3   1 <1>   0.4000 
  4 C        0.5190    -3.1200     0.8640 C.ar  1 <1>   0.0830 
  5 C       -0.3300    -2.1760    -1.1670 C.ar  1 <1>   0.0830 
  6 O       -0.5720    -0.9930    -1.7390 O.3   1 <1>  -0.3630 
  7 O        1.0410    -3.0900     2.1200 O.3   1 <1>  -0.3630 
  8 C        0.2930    -4.3800     0.3240 C.ar  1 <1>  -0.1500 
  9 C       -0.5610    -3.4230    -1.7140 C.ar  1 <1>  -0.1500 
 10 C        1.3370    -1.8670     2.7570 C.3   1 <1>   0.0400 
 11 C       -0.2480    -4.5410    -0.9510 C.ar  1 <1>  -0.1430 
 12 C       -0.5040    -5.9330    -1.4920 C.3   1 <1>   0.4870 
 13 N       -1.6040    -6.5350    -0.7060 N.4   1 <1>  -0.9590 
 14 C       -1.6850    -8.0100    -0.8630 C.3   1 <1>   0.5240 
 15 C       -2.9120    -5.8210    -0.8580 C.3   1 <1>   0.3430 
 16 C       -1.8080    -8.5860     0.5410 C.2   1 <1>   0.0460 
 17 C       -3.8890    -6.1160     0.2910 C.3   1 <1>   0.1200 
 18 N       -1.1800    -7.9680     1.5670 N.2   1 <1>  -0.5650 
 19 C       -2.4960    -9.6670     0.9770 C.2   1 <1>  -0.3320 
 20 O       -5.0800    -5.4720     0.0070 O.3   1 <1>  -0.6800 
 21 C       -1.4860    -8.6900     2.5970 C.2   1 <1>   0.0360 
 22 N       -2.2830    -9.7390     2.3060 N.pl3 1 <1>   0.0330 
 23 C       -3.3590   -10.6780     0.2380 C.3   1 <1>  -0.0600 
 24 H        0.6190     0.5960    -1.2200 H     1 <1>   0.0800 
 25 H       -1.0260     0.6060    -0.5350 H     1 <1>   0.0800 
 26 H        0.5510    -5.2330     0.9290 H     1 <1>   0.1500 
 27 H       -0.9740    -3.4900    -2.7060 H     1 <1>   0.1500 
 28 H        1.7500    -2.0840     3.7250 H     1 <1>   0.0800 
 29 H        0.4290    -1.3000     2.8640 H     1 <1>   0.0800 
 30 H        2.0550    -1.3290     2.1640 H     1 <1>   0.0800 
 31 H        0.3940    -6.5200    -1.3860 H     1 <1>   0.0800 
 32 H       -0.7680    -5.8850    -2.5360 H     1 <1>   0.0800 
 33 H       -1.3210    -6.4480     0.2890 H     1 <1>   0.4500 
 34 H       -0.7790    -8.3880    -1.3070 H     1 <1>   0.0800 
 35 H       -2.5260    -8.2960    -1.4710 H     1 <1>   0.0800 
 36 H       -3.3730    -6.0990    -1.7910 H     1 <1>   0.0800 
 37 H       -2.7410    -4.7570    -0.8700 H     1 <1>   0.0800 
 38 H       -3.5090    -5.7320     1.2230 H     1 <1>   0.0800 
 39 H       -4.0990    -7.1670     0.3780 H     1 <1>   0.0800 
 40 H       -5.7170    -5.5520     0.7490 H     1 <1>   0.4000 
 41 H       -1.1460    -8.4930     3.6010 H     1 <1>   0.1500 
 42 H       -2.6390   -10.4400     2.9650 H     1 <1>   0.2700 
 43 H       -3.4020   -10.4560    -0.8130 H     1 <1>   0.0800 
 44 H       -4.3620   -10.6680     0.6290 H     1 <1>   0.0800 
 45 H       -2.9550   -11.6680     0.3570 H     1 <1>   0.0800 
@<TRIPOS>BOND
  1   1   2  1   
  2   1   3  1   
  3   2   4  ar  
  4   2   5  ar  
  5   3   6  1   
  6   3  24  1   
  7   3  25  1   
  8   4   7  1   
  9   4   8  ar  
 10   5   6  1   
 11   5   9  ar  
 12   7  10  1   
 13   8  11  ar  
 14   8  26  1   
 15   9  11  ar  
 16   9  27  1   
 17  10  28  1   
 18  10  29  1   
 19  10  30  1   
 20  11  12  1   
 21  12  13  1   
 22  12  31  1   
 23  12  32  1   
 24  13  14  1   
 25  13  15  1   
 26  13  33  1   
 27  14  16  1   
 28  14  34  1   
 29  14  35  1   
 30  15  17  1   
 31  15  36  1   
 32  15  37  1   
 33  16  18  1   
 34  16  19  2   
 35  17  20  1   
 36  17  38  1   
 37  17  39  1   
 38  18  21  2   
 39  19  22  1   
 40  19  23  1   
 41  20  40  1   
 42  21  22  1   
 43  21  41  1   
 44  22  42  1   
 45  23  43  1   
 46  23  44  1   
 47  23  45  1   
@<TRIPOS>SUBSTRUCTURE
  1 ****  11 GROUP 4 **** **** 0

# MOE 2024.06 (io_trps.svl 2023.06)
