@<TRIPOS>MOLECULE
NONAME
43 46 1 0 0 
SMALL
USER_CHARGES


@<TRIPOS>ATOM
  1 O        2.0820     0.3820    -1.9280 O.2   1 <1>  -0.5700 
  2 C        1.5010    -0.4320    -1.2520 C.2   1 <1>   0.5690 
  3 N        1.3570    -0.3020     0.1050 N.am  1 <1>  -0.4940 
  4 C        0.9270    -1.6440    -1.9680 C.3   1 <1>   0.1570 
  5 C        1.7440     0.7430     0.9770 C.2   1 <1>  -0.0880 
  6 N        0.0310    -2.4320    -1.0970 N.pl3 1 <1>   0.0480 
  7 N        2.9370     1.4120     1.0280 N.pl3 1 <1>   0.3140 
  8 C        0.9700     1.2570     1.9600 C.2   1 <1>  -0.1500 
  9 C        0.4250    -3.2360    -0.0510 C.ar  1 <1>  -0.1520 
 10 C       -1.3330    -2.3600    -1.0750 C.2   1 <1>  -0.3020 
 11 N        2.9130     2.3470     2.0190 N.2   1 <1>  -0.7070 
 12 C        4.1630     1.1630     0.2010 C.3   1 <1>   0.1760 
 13 C        1.7410     2.2410     2.5600 C.2   1 <1>   0.1390 
 14 C       -0.7130    -3.6680     0.6220 C.ar  1 <1>   0.0000 
 15 C        1.6980    -3.6180     0.3860 C.ar  1 <1>  -0.1500 
 16 C       -1.8140    -3.1020    -0.0510 C.2   1 <1>  -0.1500 
 17 C        4.6380    -0.3010     0.2500 C.3   1 <1>  -0.1600 
 18 C        5.3940     1.9770     0.6230 C.3   1 <1>  -0.1600 
 19 C       -0.5870    -4.4950     1.7430 C.ar  1 <1>  -0.1500 
 20 C        1.8090    -4.4290     1.4910 C.ar  1 <1>  -0.1500 
 21 C        6.1730    -0.2760     0.2710 C.3   1 <1>  -0.1600 
 22 C        6.5740     1.1840     0.0730 C.3   1 <1>  -0.1600 
 23 C        0.6660    -4.8680     2.1700 C.ar  1 <1>  -0.1500 
 24 H        0.7810    -1.0320     0.5430 H     1 <1>   0.3700 
 25 H        1.7310    -2.2720    -2.3010 H     1 <1>   0.0800 
 26 H        0.3750    -1.3120    -2.8270 H     1 <1>   0.0800 
 27 H       -0.0310     0.9850     2.2360 H     1 <1>   0.1500 
 28 H       -1.8890    -1.7810    -1.7930 H     1 <1>   0.1500 
 29 H        3.9390     1.4270    -0.8150 H     1 <1>   0.0800 
 30 H        1.4150     2.8540     3.3830 H     1 <1>   0.1500 
 31 H        2.5780    -3.2850    -0.1350 H     1 <1>   0.1500 
 32 H       -2.8400    -3.2580     0.2360 H     1 <1>   0.1500 
 33 H        4.2880    -0.8280    -0.6190 H     1 <1>   0.0800 
 34 H        4.2740    -0.7910     1.1370 H     1 <1>   0.0800 
 35 H        5.4710     2.0080     1.6970 H     1 <1>   0.0800 
 36 H        5.3610     2.9790     0.2340 H     1 <1>   0.0800 
 37 H       -1.4740    -4.8250     2.2530 H     1 <1>   0.1500 
 38 H        2.7770    -4.7370     1.8460 H     1 <1>   0.1500 
 39 H        6.5960    -0.9060    -0.4920 H     1 <1>   0.0800 
 40 H        6.5200    -0.6130     1.2330 H     1 <1>   0.0800 
 41 H        7.4940     1.4250     0.5790 H     1 <1>   0.0800 
 42 H        6.6850     1.3890    -0.9790 H     1 <1>   0.0800 
 43 H        0.7790    -5.5040     3.0310 H     1 <1>   0.1500 
@<TRIPOS>BOND
  1   1   2  2   
  2   2   3  am  
  3   2   4  1   
  4   3   5  1   
  5   3  24  1   
  6   4   6  1   
  7   4  25  1   
  8   4  26  1   
  9   5   7  1   
 10   5   8  2   
 11   6   9  1   
 12   6  10  1   
 13   7  11  1   
 14   7  12  1   
 15   8  13  1   
 16   8  27  1   
 17   9  14  ar  
 18   9  15  ar  
 19  10  16  2   
 20  10  28  1   
 21  11  13  2   
 22  12  17  1   
 23  12  18  1   
 24  12  29  1   
 25  13  30  1   
 26  14  16  1   
 27  14  19  ar  
 28  15  20  ar  
 29  15  31  1   
 30  16  32  1   
 31  17  21  1   
 32  17  33  1   
 33  17  34  1   
 34  18  22  1   
 35  18  35  1   
 36  18  36  1   
 37  19  23  ar  
 38  19  37  1   
 39  20  23  ar  
 40  20  38  1   
 41  21  22  1   
 42  21  39  1   
 43  21  40  1   
 44  22  41  1   
 45  22  42  1   
 46  23  43  1   
@<TRIPOS>SUBSTRUCTURE
  1 ****   3 GROUP 4 **** **** 0

# MOE 2024.06 (io_trps.svl 2023.06)
