@<TRIPOS>MOLECULE
NONAME
20 21 1 0 0 
SMALL
USER_CHARGES


@<TRIPOS>ATOM
  1 O       -0.7650    -0.2920     2.0980 O.2   1 <1>  -0.5700 
  2 C       -1.5000    -0.8410     1.3250 C.2   1 <1>   0.5690 
  3 N       -2.8350    -0.7260     1.3500 N.am  1 <1>  -0.6550 
  4 C       -1.0520    -1.7460     0.2060 C.3   1 <1>  -0.0990 
  5 C       -3.5000    -1.5230     0.2940 C.3   1 <1>   0.2250 
  6 C       -2.3640    -2.3300    -0.3650 C.3   1 <1>  -0.1600 
  7 C       -4.4380    -0.7150    -0.6510 C.3   1 <1>   0.4720 
  8 C       -4.7950    -2.2810     0.7080 C.3   1 <1>   0.4720 
  9 N       -5.5730    -1.0650     0.2760 N.4   1 <1>  -0.8440 
 10 H       -3.2810    -0.1680     2.0840 H     1 <1>   0.3700 
 11 H       -0.4020    -2.5140     0.5870 H     1 <1>   0.0800 
 12 H       -0.5260    -1.1620    -0.5280 H     1 <1>   0.0800 
 13 H       -2.4420    -3.3680    -0.0880 H     1 <1>   0.0800 
 14 H       -2.3850    -2.2630    -1.4400 H     1 <1>   0.0800 
 15 H       -4.5730    -1.1800    -1.6120 H     1 <1>   0.0000 
 16 H       -4.2400     0.3410    -0.6840 H     1 <1>   0.0000 
 17 H       -4.8830    -2.4770     1.7620 H     1 <1>   0.0000 
 18 H       -5.0150    -3.1210     0.0730 H     1 <1>   0.0000 
 19 H       -6.4520    -1.2820    -0.2060 H     1 <1>   0.4500 
 20 H       -5.6840    -0.3800     1.0300 H     1 <1>   0.4500 
@<TRIPOS>BOND
  1   1   2  2   
  2   2   3  am  
  3   2   4  1   
  4   3   5  1   
  5   3  10  1   
  6   4   6  1   
  7   4  11  1   
  8   4  12  1   
  9   5   6  1   
 10   5   7  1   
 11   5   8  1   
 12   6  13  1   
 13   6  14  1   
 14   7   9  1   
 15   7  15  1   
 16   7  16  1   
 17   8   9  1   
 18   8  17  1   
 19   8  18  1   
 20   9  19  1   
 21   9  20  1   
@<TRIPOS>SUBSTRUCTURE
  1 ****   5 GROUP 4 **** **** 0

# MOE 2024.06 (io_trps.svl 2023.06)
