@<TRIPOS>MOLECULE
NONAME
44 47 1 0 0 
SMALL
USER_CHARGES


@<TRIPOS>ATOM
  1 O        0.4290     0.0730     0.6390 O.2   1 <1>  -0.5700 
  2 C        1.6030     0.0410     0.3450 C.2   1 <1>   0.7150 
  3 N        2.1470    -1.2030     0.3070 N.am  1 <1>  -0.7300 
  4 C        2.3020     1.2610     0.0650 C.2   1 <1>  -0.2370 
  5 C        3.5440    -1.7180     0.3330 C.3   1 <1>   0.1400 
  6 N        3.5090     1.3840    -0.5370 N.pl3 1 <1>   0.3140 
  7 C        1.9040     2.5350     0.3150 C.2   1 <1>  -0.1500 
  8 C        4.6490    -0.6670     0.1470 C.3   1 <1>   0.2000 
  9 N        3.8900     2.6580    -0.6710 N.2   1 <1>  -0.7070 
 10 C        4.3850     0.3010    -1.0030 C.3   1 <1>   0.0960 
 11 C        2.9080     3.3780    -0.1500 C.2   1 <1>   0.2030 
 12 O        5.8410    -1.3370    -0.1040 O.3   1 <1>  -0.6800 
 13 C        2.8830     4.8310    -0.0700 C.2   1 <1>   0.7160 
 14 O        1.9600     5.4360     0.4490 O.2   1 <1>  -0.5700 
 15 N        3.9320     5.5410    -0.5800 N.am  1 <1>  -0.7300 
 16 C        4.0850     7.0130    -0.5840 C.3   1 <1>   0.1400 
 17 C        4.9780     7.4430     0.5790 C.3   1 <1>  -0.0170 
 18 C        5.1890     8.9480     0.5500 C.ar  1 <1>  -0.1430 
 19 C        6.3130     9.4810    -0.0730 C.ar  1 <1>  -0.1500 
 20 C        4.2530     9.7940     1.1430 C.ar  1 <1>  -0.1500 
 21 C        6.4650    10.8530    -0.0820 C.ar  1 <1>   0.0830 
 22 C        4.4230    11.1730     1.1250 C.ar  1 <1>  -0.1500 
 23 O        7.4550    11.5740    -0.6180 O.3   1 <1>  -0.3630 
 24 C        5.5460    11.6760     0.5000 C.ar  1 <1>   0.0830 
 25 C        7.1500    12.9430    -0.3580 C.3   1 <1>   0.4000 
 26 O        5.9160    12.9540     0.3580 O.3   1 <1>  -0.3620 
 27 H        1.4410    -1.9160     0.5090 H     1 <1>   0.3700 
 28 H        3.6310    -2.4520    -0.4490 H     1 <1>   0.0800 
 29 H        3.7050    -2.2150     1.2750 H     1 <1>   0.0800 
 30 H        0.9870     2.8590     0.7800 H     1 <1>   0.1500 
 31 H        4.7960    -0.1180     1.0630 H     1 <1>   0.0800 
 32 H        5.3090     0.7450    -1.3270 H     1 <1>   0.0800 
 33 H        3.9140    -0.1940    -1.8310 H     1 <1>   0.0800 
 34 H        5.8130    -1.8280    -0.9490 H     1 <1>   0.4000 
 35 H        4.6860     4.9770    -0.9830 H     1 <1>   0.3700 
 36 H        3.1190     7.4800    -0.4900 H     1 <1>   0.0800 
 37 H        4.5190     7.3240    -1.5190 H     1 <1>   0.0800 
 38 H        5.9270     6.9430     0.5110 H     1 <1>   0.0800 
 39 H        4.5130     7.1620     1.5070 H     1 <1>   0.0800 
 40 H        7.0550     8.8600    -0.5410 H     1 <1>   0.1500 
 41 H        3.3830     9.3790     1.6240 H     1 <1>   0.1500 
 42 H        3.7100    11.8370     1.5780 H     1 <1>   0.1500 
 43 H        7.0310    13.4690    -1.2880 H     1 <1>   0.0800 
 44 H        7.9240    13.3760     0.2510 H     1 <1>   0.0800 
@<TRIPOS>BOND
  1   1   2  2   
  2   2   3  am  
  3   2   4  1   
  4   3   5  1   
  5   3  27  1   
  6   4   6  1   
  7   4   7  2   
  8   5   8  1   
  9   5  28  1   
 10   5  29  1   
 11   6   9  1   
 12   6  10  1   
 13   7  11  1   
 14   7  30  1   
 15   8  10  1   
 16   8  12  1   
 17   8  31  1   
 18   9  11  2   
 19  10  32  1   
 20  10  33  1   
 21  11  13  1   
 22  12  34  1   
 23  13  14  2   
 24  13  15  am  
 25  15  16  1   
 26  15  35  1   
 27  16  17  1   
 28  16  36  1   
 29  16  37  1   
 30  17  18  1   
 31  17  38  1   
 32  17  39  1   
 33  18  19  ar  
 34  18  20  ar  
 35  19  21  ar  
 36  19  40  1   
 37  20  22  ar  
 38  20  41  1   
 39  21  23  1   
 40  21  24  ar  
 41  22  24  ar  
 42  22  42  1   
 43  23  25  1   
 44  24  26  1   
 45  25  26  1   
 46  25  43  1   
 47  25  44  1   
@<TRIPOS>SUBSTRUCTURE
  1 ****  15 GROUP 4 **** **** 0

# MOE 2024.06 (io_trps.svl 2023.06)
