@<TRIPOS>MOLECULE
NONAME
43 45 1 0 0 
SMALL
USER_CHARGES


@<TRIPOS>ATOM
  1 O       -0.2020    -0.7590     1.2290 O.2   1 <1>  -0.5700 
  2 C        0.4660    -1.7020     0.8790 C.2   1 <1>   0.5690 
  3 N       -0.0110    -2.7080     0.0830 N.am  1 <1>  -0.6600 
  4 C        1.9070    -1.7960     1.3400 C.3   1 <1>  -0.0990 
  5 C        0.8600    -3.8540    -0.2800 C.3   1 <1>   0.1400 
  6 C       -1.4150    -2.7480    -0.4050 C.3   1 <1>   0.0600 
  7 C        2.8200    -2.1980     0.1680 C.3   1 <1>  -0.0800 
  8 C        2.2600    -3.3550    -0.6870 C.3   1 <1>  -0.0800 
  9 C        4.2240    -2.6280     0.6140 C.3   1 <1>  -0.1600 
 10 C        3.3230    -4.4590    -0.6270 C.3   1 <1>  -0.1600 
 11 C        4.6400    -3.7200    -0.3710 C.3   1 <1>   0.2200 
 12 N        5.7570    -4.5600     0.1710 N.am  1 <1>  -0.6600 
 13 C        6.9790    -4.0110     0.5490 C.2   1 <1>   0.5440 
 14 C        5.5560    -6.0420     0.2590 C.3   1 <1>   0.0600 
 15 O        7.6940    -4.6780     1.2810 O.2   1 <1>  -0.5700 
 16 C        7.4460    -2.6780     0.1500 C.ar  1 <1>   0.3960 
 17 N        7.2640    -2.2380    -1.1110 N.ar  1 <1>  -0.6200 
 18 C        8.0880    -1.8900     1.1090 C.ar  1 <1>  -0.1500 
 19 C        7.7230    -1.0370    -1.3720 C.ar  1 <1>   0.3930 
 20 C        8.5570    -0.6280     0.8090 C.ar  1 <1>  -0.1500 
 21 O        7.5310    -0.6500    -2.6180 O.3   1 <1>  -0.5330 
 22 C        8.3620    -0.1940    -0.4800 C.ar  1 <1>  -0.1500 
 23 H        2.2180    -0.8500     1.7430 H     1 <1>   0.0800 
 24 H        1.9520    -2.5290     2.1230 H     1 <1>   0.0800 
 25 H        0.9300    -4.5030     0.5760 H     1 <1>   0.0800 
 26 H        0.4240    -4.4110    -1.0910 H     1 <1>   0.0800 
 27 H       -1.9040    -3.6330    -0.0360 H     1 <1>   0.0800 
 28 H       -1.4270    -2.7550    -1.4800 H     1 <1>   0.0800 
 29 H       -1.9600    -1.8850    -0.0610 H     1 <1>   0.0800 
 30 H        2.9170    -1.3410    -0.4790 H     1 <1>   0.0800 
 31 H        2.1990    -3.0070    -1.7040 H     1 <1>   0.0800 
 32 H        4.1890    -3.0460     1.6050 H     1 <1>   0.0800 
 33 H        4.8980    -1.7900     0.6000 H     1 <1>   0.0800 
 34 H        3.3550    -5.0250    -1.5400 H     1 <1>   0.0800 
 35 H        3.1000    -5.1050     0.2030 H     1 <1>   0.0800 
 36 H        4.9500    -3.2660    -1.2970 H     1 <1>   0.0800 
 37 H        5.1560    -6.4190    -0.6650 H     1 <1>   0.0800 
 38 H        4.8860    -6.2710     1.0680 H     1 <1>   0.0800 
 39 H        6.4900    -6.5470     0.4410 H     1 <1>   0.0800 
 40 H        8.2180    -2.2850     2.1020 H     1 <1>   0.1500 
 41 H        9.0530    -0.0170     1.5440 H     1 <1>   0.1500 
 42 H        7.1060    -1.3780    -3.1030 H     1 <1>   0.4500 
 43 H        8.6970     0.7730    -0.8070 H     1 <1>   0.1500 
@<TRIPOS>BOND
  1   1   2  2   
  2   2   3  am  
  3   2   4  1   
  4   3   5  1   
  5   3   6  1   
  6   4   7  1   
  7   4  23  1   
  8   4  24  1   
  9   5   8  1   
 10   5  25  1   
 11   5  26  1   
 12   6  27  1   
 13   6  28  1   
 14   6  29  1   
 15   7   8  1   
 16   7   9  1   
 17   7  30  1   
 18   8  10  1   
 19   8  31  1   
 20   9  11  1   
 21   9  32  1   
 22   9  33  1   
 23  10  11  1   
 24  10  34  1   
 25  10  35  1   
 26  11  12  1   
 27  11  36  1   
 28  12  13  am  
 29  12  14  1   
 30  13  15  2   
 31  13  16  1   
 32  14  37  1   
 33  14  38  1   
 34  14  39  1   
 35  16  17  ar  
 36  16  18  ar  
 37  17  19  ar  
 38  18  20  ar  
 39  18  40  1   
 40  19  21  1   
 41  19  22  ar  
 42  20  22  ar  
 43  20  41  1   
 44  21  42  1   
 45  22  43  1   
@<TRIPOS>SUBSTRUCTURE
  1 ****   9 GROUP 4 **** **** 0

# MOE 2024.06 (io_trps.svl 2023.06)
