@<TRIPOS>MOLECULE
NONAME
52 55 1 0 0 
SMALL
USER_CHARGES


@<TRIPOS>ATOM
  1 F       -0.1610    -0.7870    -0.3710 F     1 <1>  -0.1900 
  2 C        0.7720    -1.6780    -0.6170 C.ar  1 <1>   0.1900 
  3 C        0.4740    -3.0410    -0.4990 C.ar  1 <1>   0.1000 
  4 C        2.0190    -1.2130    -0.9830 C.ar  1 <1>  -0.1500 
  5 N       -0.7770    -3.5530    -0.1280 N.pl3 1 <1>  -0.8380 
  6 C        1.5020    -3.9340    -0.7730 C.ar  1 <1>  -0.1500 
  7 C        3.0240    -2.1290    -1.2490 C.ar  1 <1>  -0.1500 
  8 C       -1.8570    -3.3470    -1.1200 C.3   1 <1>   0.2090 
  9 C       -1.1680    -3.2910     1.2750 C.3   1 <1>   0.2090 
 10 C        2.7610    -3.4870    -1.1420 C.ar  1 <1>  -0.1500 
 11 C       -2.9990    -4.3050    -0.7940 C.3   1 <1>  -0.1600 
 12 C       -2.2910    -4.2540     1.6440 C.3   1 <1>  -0.1600 
 13 C       -3.4520    -4.0990     0.6590 C.3   1 <1>   0.4230 
 14 N       -4.5570    -5.0230     1.0470 N.4   1 <1>  -0.9590 
 15 C       -5.8550    -4.8000     0.3530 C.3   1 <1>   0.3430 
 16 C       -4.2680    -6.4900     0.9440 C.3   1 <1>   0.3430 
 17 C       -6.6270    -6.0950     0.6010 C.3   1 <1>   0.2000 
 18 C       -5.5550    -7.1720     0.4390 C.3   1 <1>  -0.0800 
 19 O       -7.0430    -6.0960     1.9280 O.3   1 <1>  -0.6800 
 20 C       -5.4460    -7.6250    -1.0340 C.3   1 <1>  -0.0170 
 21 C       -4.3350    -8.6400    -1.2500 C.ar  1 <1>   0.1670 
 22 N       -3.1170    -8.1440    -1.3900 N.ar  1 <1>  -0.6200 
 23 C       -4.6230   -10.0040    -1.2990 C.ar  1 <1>   0.1600 
 24 C       -2.2130    -9.0930    -1.5890 C.ar  1 <1>   0.1600 
 25 N       -3.7200   -10.9500    -1.4830 N.ar  1 <1>  -0.6200 
 26 C       -2.5050   -10.4500    -1.6320 C.ar  1 <1>   0.1600 
 27 H        2.1990    -0.1560    -1.0590 H     1 <1>   0.1500 
 28 H        1.3050    -4.9870    -0.6920 H     1 <1>   0.1500 
 29 H        4.0040    -1.7890    -1.5360 H     1 <1>   0.1500 
 30 H       -2.1950    -2.3240    -1.0830 H     1 <1>   0.0800 
 31 H       -1.4790    -3.5450    -2.1090 H     1 <1>   0.0800 
 32 H       -0.3180    -3.4480     1.9200 H     1 <1>   0.0800 
 33 H       -1.4900    -2.2680     1.3800 H     1 <1>   0.0800 
 34 H        3.5410    -4.1990    -1.3480 H     1 <1>   0.1500 
 35 H       -2.6370    -5.3040    -0.9550 H     1 <1>   0.0800 
 36 H       -3.8030    -4.1130    -1.4780 H     1 <1>   0.0800 
 37 H       -2.6170    -4.0340     2.6430 H     1 <1>   0.0800 
 38 H       -1.8920    -5.2520     1.6160 H     1 <1>   0.0800 
 39 H       -3.8110    -3.0860     0.7450 H     1 <1>   0.0800 
 40 H       -4.7730    -4.8630     2.0410 H     1 <1>   0.4500 
 41 H       -6.3840    -3.9470     0.7450 H     1 <1>   0.0800 
 42 H       -5.6960    -4.6750    -0.7040 H     1 <1>   0.0800 
 43 H       -3.4440    -6.6710     0.2800 H     1 <1>   0.0800 
 44 H       -4.0070    -6.8760     1.9160 H     1 <1>   0.0800 
 45 H       -7.4860    -6.2080    -0.0390 H     1 <1>   0.0800 
 46 H       -5.7750    -8.0360     1.0420 H     1 <1>   0.0800 
 47 H       -7.6790    -6.8220     2.1060 H     1 <1>   0.4000 
 48 H       -5.2610    -6.7820    -1.6770 H     1 <1>   0.0800 
 49 H       -6.3810    -8.0610    -1.3420 H     1 <1>   0.0800 
 50 H       -5.6410   -10.3310    -1.1800 H     1 <1>   0.1500 
 51 H       -1.1910    -8.7830    -1.7240 H     1 <1>   0.1500 
 52 H       -1.7030   -11.1490    -1.7980 H     1 <1>   0.1500 
@<TRIPOS>BOND
  1   1   2  1   
  2   2   3  ar  
  3   2   4  ar  
  4   3   5  1   
  5   3   6  ar  
  6   4   7  ar  
  7   4  27  1   
  8   5   8  1   
  9   5   9  1   
 10   6  10  ar  
 11   6  28  1   
 12   7  10  ar  
 13   7  29  1   
 14   8  11  1   
 15   8  30  1   
 16   8  31  1   
 17   9  12  1   
 18   9  32  1   
 19   9  33  1   
 20  10  34  1   
 21  11  13  1   
 22  11  35  1   
 23  11  36  1   
 24  12  13  1   
 25  12  37  1   
 26  12  38  1   
 27  13  14  1   
 28  13  39  1   
 29  14  15  1   
 30  14  16  1   
 31  14  40  1   
 32  15  17  1   
 33  15  41  1   
 34  15  42  1   
 35  16  18  1   
 36  16  43  1   
 37  16  44  1   
 38  17  18  1   
 39  17  19  1   
 40  17  45  1   
 41  18  20  1   
 42  18  46  1   
 43  19  47  1   
 44  20  21  1   
 45  20  48  1   
 46  20  49  1   
 47  21  22  ar  
 48  21  23  ar  
 49  22  24  ar  
 50  23  25  ar  
 51  23  50  1   
 52  24  26  ar  
 53  24  51  1   
 54  25  26  ar  
 55  26  52  1   
@<TRIPOS>SUBSTRUCTURE
  1 ****  11 GROUP 4 **** **** 0

# MOE 2024.06 (io_trps.svl 2023.06)
