@<TRIPOS>MOLECULE
NONAME
44 47 1 0 0 
SMALL
USER_CHARGES


@<TRIPOS>ATOM
  1 S        1.8080     2.4460    -2.9330 S.3   1 <1>  -0.2860 
  2 C        1.8820     2.8640    -1.2240 C.2   1 <1>   0.2420 
  3 C       -0.0400     2.3460    -2.9510 C.3   1 <1>   0.0700 
  4 N        2.8950     3.0850    -0.4570 N.2   1 <1>  -0.5650 
  5 N        0.6730     2.9720    -0.6780 N.pl3 1 <1>   0.0480 
  6 C       -0.5170     2.7200    -1.5240 C.3   1 <1>   0.0960 
  7 C        2.2840     3.3710     0.7220 C.2   1 <1>   0.0460 
  8 C        0.9320     3.3090     0.6010 C.2   1 <1>  -0.3020 
  9 C        3.0860     3.6900     1.9850 C.3   1 <1>   0.3900 
 10 N        3.6940     5.0540     1.9690 N.pl3 1 <1>  -0.8690 
 11 C        4.4140     5.7190     1.0590 C.ar  1 <1>   0.7710 
 12 N        4.9130     6.8710     1.4620 N.ar  1 <1>  -0.6200 
 13 N        4.6180     5.2340    -0.1750 N.ar  1 <1>  -0.1790 
 14 C        5.6580     7.5580     0.6130 C.ar  1 <1>   0.4100 
 15 C        5.3470     5.9130    -1.0870 C.ar  1 <1>   0.2110 
 16 N        6.2010     8.7250     1.0500 N.pl3 1 <1>  -0.8380 
 17 C        5.8810     7.0960    -0.7010 C.ar  1 <1>  -0.1500 
 18 C        7.5010     9.2940     0.5640 C.3   1 <1>   0.2090 
 19 C        5.5840     9.5420     2.1400 C.3   1 <1>   0.2090 
 20 C        7.2950    10.7270     0.0460 C.3   1 <1>   0.2000 
 21 C        5.3570    10.9760     1.6410 C.3   1 <1>  -0.1600 
 22 O        8.5150    11.2760    -0.3060 O.3   1 <1>  -0.6800 
 23 C        6.6470    11.6240     1.1060 C.3   1 <1>  -0.1600 
 24 H       -0.3080     1.3380    -3.2140 H     1 <1>   0.0800 
 25 H       -0.4020     3.0340    -3.6940 H     1 <1>   0.0800 
 26 H       -1.0900     1.9170    -1.0970 H     1 <1>   0.0800 
 27 H       -1.1220     3.6080    -1.5530 H     1 <1>   0.0800 
 28 H        0.1580     3.4750     1.3310 H     1 <1>   0.1500 
 29 H        3.8590     2.9500     2.1130 H     1 <1>   0.0800 
 30 H        2.4250     3.6190     2.8320 H     1 <1>   0.0800 
 31 H        3.6180     5.5470     2.8630 H     1 <1>   0.4000 
 32 H        4.1380     4.3540    -0.3940 H     1 <1>   0.4570 
 33 H        5.4690     5.4990    -2.0760 H     1 <1>   0.1500 
 34 H        6.4550     7.6940    -1.3830 H     1 <1>   0.1500 
 35 H        7.9300     8.6870    -0.2110 H     1 <1>   0.0800 
 36 H        8.1910     9.3120     1.3900 H     1 <1>   0.0800 
 37 H        6.2400     9.5460     2.9940 H     1 <1>   0.0800 
 38 H        4.6400     9.1260     2.4480 H     1 <1>   0.0800 
 39 H        6.6870    10.6970    -0.8420 H     1 <1>   0.0800 
 40 H        4.9640    11.5710     2.4460 H     1 <1>   0.0800 
 41 H        4.6150    10.9540     0.8630 H     1 <1>   0.0800 
 42 H        9.0150    11.5390     0.4900 H     1 <1>   0.4000 
 43 H        6.4160    12.5820     0.6760 H     1 <1>   0.0800 
 44 H        7.3270    11.7660     1.9280 H     1 <1>   0.0800 
@<TRIPOS>BOND
  1   1   2  1   
  2   1   3  1   
  3   2   4  2   
  4   2   5  1   
  5   3   6  1   
  6   3  24  1   
  7   3  25  1   
  8   4   7  1   
  9   5   6  1   
 10   5   8  1   
 11   6  26  1   
 12   6  27  1   
 13   7   8  2   
 14   7   9  1   
 15   8  28  1   
 16   9  10  1   
 17   9  29  1   
 18   9  30  1   
 19  10  11  1   
 20  10  31  1   
 21  11  12  ar  
 22  11  13  ar  
 23  12  14  ar  
 24  13  15  ar  
 25  13  32  1   
 26  14  16  1   
 27  14  17  ar  
 28  15  17  ar  
 29  15  33  1   
 30  16  18  1   
 31  16  19  1   
 32  17  34  1   
 33  18  20  1   
 34  18  35  1   
 35  18  36  1   
 36  19  21  1   
 37  19  37  1   
 38  19  38  1   
 39  20  22  1   
 40  20  23  1   
 41  20  39  1   
 42  21  23  1   
 43  21  40  1   
 44  21  41  1   
 45  22  42  1   
 46  23  43  1   
 47  23  44  1   
@<TRIPOS>SUBSTRUCTURE
  1 ****  11 GROUP 4 **** **** 0

# MOE 2024.06 (io_trps.svl 2023.06)
