@<TRIPOS>MOLECULE
F1913-1193
32 31 1 0 0 
SMALL
USER_CHARGES


@<TRIPOS>ATOM
  1 N      -10.0950     1.7660    -0.0010 N.4   1 <1>  -0.9060 
  2 C      -11.3680     0.9600    -0.0010 C.3   1 <1>   0.3430 
  3 C       -8.8820     0.9010    -0.0010 C.3   1 <1>   0.3430 
  4 C      -12.6700     1.8210    -0.0010 C.3   1 <1>   0.3430 
  5 C       -7.6430     1.7910    -0.0010 C.3   1 <1>  -0.1600 
  6 N      -13.9490     1.0240    -0.0010 N.4   1 <1>  -0.8530 
  7 C       -6.3650     0.9420    -0.0010 C.3   1 <1>  -0.1600 
  8 C       -5.1150     1.8290    -0.0010 C.3   1 <1>  -0.1600 
  9 C       -3.8380     0.9820    -0.0010 C.3   1 <1>  -0.1600 
 10 C       -2.5900     1.8690    -0.0010 C.3   1 <1>  -0.2400 
 11 H      -10.0190     2.3810     0.8240 H     1 <1>   0.4500 
 12 H      -10.0190     2.3800    -0.8280 H     1 <1>   0.4500 
 13 H      -11.3730     0.3260     0.8720 H     1 <1>   0.0800 
 14 H      -11.3730     0.3240    -0.8730 H     1 <1>   0.0800 
 15 H       -8.8690     0.2700    -0.8760 H     1 <1>   0.0800 
 16 H       -8.8690     0.2710     0.8750 H     1 <1>   0.0800 
 17 H      -12.6610     2.4560    -0.8740 H     1 <1>   0.0800 
 18 H      -12.6610     2.4580     0.8700 H     1 <1>   0.0800 
 19 H       -7.6380     2.4180     0.8750 H     1 <1>   0.0800 
 20 H       -7.6380     2.4170    -0.8780 H     1 <1>   0.0800 
 21 H      -14.0640     0.4270    -0.8330 H     1 <1>   0.4500 
 22 H      -14.7650     1.6560    -0.0010 H     1 <1>   0.4500 
 23 H      -14.0640     0.4280     0.8330 H     1 <1>   0.4500 
 24 H       -6.3440     0.3080    -0.8730 H     1 <1>   0.0800 
 25 H       -6.3440     0.3090     0.8720 H     1 <1>   0.0800 
 26 H       -5.1170     2.4630     0.8700 H     1 <1>   0.0800 
 27 H       -5.1170     2.4620    -0.8740 H     1 <1>   0.0800 
 28 H       -3.8180     0.3490    -0.8720 H     1 <1>   0.0800 
 29 H       -3.8190     0.3500     0.8710 H     1 <1>   0.0800 
 30 H       -2.5720     2.4950    -0.8770 H     1 <1>   0.0800 
 31 H       -1.7050     1.2580    -0.0010 H     1 <1>   0.0800 
 32 H       -2.5720     2.4960     0.8730 H     1 <1>   0.0800 
@<TRIPOS>BOND
  1   1   2  1   
  2   1   3  1   
  3   1  11  1   
  4   1  12  1   
  5   2   4  1   
  6   2  13  1   
  7   2  14  1   
  8   3   5  1   
  9   3  15  1   
 10   3  16  1   
 11   4   6  1   
 12   4  17  1   
 13   4  18  1   
 14   5   7  1   
 15   5  19  1   
 16   5  20  1   
 17   6  21  1   
 18   6  22  1   
 19   6  23  1   
 20   7   8  1   
 21   7  24  1   
 22   7  25  1   
 23   8   9  1   
 24   8  26  1   
 25   8  27  1   
 26   9  10  1   
 27   9  28  1   
 28   9  29  1   
 29  10  30  1   
 30  10  31  1   
 31  10  32  1   
@<TRIPOS>SUBSTRUCTURE
  1 ****   5 GROUP 4 **** **** 0

# MOE 2024.06 (io_trps.svl 2023.06)
