@<TRIPOS>MOLECULE
NONAME
52 53 1 0 0 
SMALL
USER_CHARGES


@<TRIPOS>ATOM
  1 O       -0.5030     0.1430     2.1950 O.2   1 <1>  -0.5700 
  2 C       -1.4300     0.5400     1.5170 C.2   1 <1>   0.5440 
  3 N       -2.2750    -0.3900     0.9520 N.am  1 <1>  -0.6600 
  4 C       -1.6620     1.9620     1.3930 C.ar  1 <1>   0.0860 
  5 C       -2.4050    -1.7340     1.6030 C.3   1 <1>   0.3210 
  6 C       -3.0000    -0.1790    -0.3340 C.3   1 <1>   0.1400 
  7 C       -1.3980     2.6870     0.2280 C.ar  1 <1>   0.0830 
  8 C       -2.2050     2.6530     2.4770 C.ar  1 <1>  -0.1500 
  9 C       -3.7970    -2.3580     1.4470 C.2   1 <1>   0.0460 
 10 C       -4.2230     0.7340    -0.1330 C.3   1 <1>   0.3430 
 11 O       -0.8340     2.0750    -0.8370 O.3   1 <1>  -0.3630 
 12 C       -1.7320     4.0390     0.1300 C.ar  1 <1>   0.0830 
 13 C       -2.5100     3.9970     2.3990 C.ar  1 <1>  -0.1500 
 14 N       -4.9230    -1.6780     1.7670 N.2   1 <1>  -0.5650 
 15 C       -4.1030    -3.6060     1.0120 C.2   1 <1>  -0.3320 
 16 N       -4.7440     1.3100    -1.4200 N.4   1 <1>  -0.9590 
 17 C        0.5700     1.9250    -0.7950 C.3   1 <1>   0.0400 
 18 O       -1.5240     4.6690    -1.0580 O.3   1 <1>  -0.3630 
 19 C       -2.2830     4.6930     1.2250 C.ar  1 <1>  -0.1500 
 20 C       -5.8740    -2.5260     1.5470 C.2   1 <1>   0.0360 
 21 N       -5.4430    -3.7150     1.0830 N.pl3 1 <1>   0.0330 
 22 C       -3.2240    -4.7540     0.5420 C.3   1 <1>  -0.0600 
 23 C       -3.7960     2.3170    -2.0050 C.3   1 <1>   0.2630 
 24 C       -6.0780     1.9360    -1.1810 C.3   1 <1>   0.2630 
 25 C       -1.2810     6.0600    -1.0940 C.3   1 <1>   0.0400 
 26 H       -2.2040    -1.6360     2.6560 H     1 <1>   0.0800 
 27 H       -1.6590    -2.3880     1.1910 H     1 <1>   0.0800 
 28 H       -3.3230    -1.1240    -0.7330 H     1 <1>   0.0800 
 29 H       -2.3180     0.2450    -1.0430 H     1 <1>   0.0800 
 30 H       -2.3860     2.1150     3.3940 H     1 <1>   0.1500 
 31 H       -3.9570     1.5390     0.5290 H     1 <1>   0.0800 
 32 H       -5.0000     0.1600     0.3430 H     1 <1>   0.0800 
 33 H       -2.9260     4.5050     3.2540 H     1 <1>   0.1500 
 34 H       -4.8620     0.5350    -2.0890 H     1 <1>   0.4500 
 35 H        0.8880     1.4490    -1.7040 H     1 <1>   0.0800 
 36 H        0.8390     1.3170     0.0520 H     1 <1>   0.0800 
 37 H        1.0200     2.8990    -0.7130 H     1 <1>   0.0800 
 38 H       -2.5420     5.7350     1.1830 H     1 <1>   0.1500 
 39 H       -6.9180    -2.3260     1.7160 H     1 <1>   0.1500 
 40 H       -6.0160    -4.5340     0.8560 H     1 <1>   0.2700 
 41 H       -2.1850    -4.4810     0.5620 H     1 <1>   0.0800 
 42 H       -3.4820    -5.0320    -0.4650 H     1 <1>   0.0800 
 43 H       -3.3600    -5.6080     1.1820 H     1 <1>   0.0800 
 44 H       -3.6520     3.1380    -1.3220 H     1 <1>   0.0800 
 45 H       -4.1850     2.7070    -2.9310 H     1 <1>   0.0800 
 46 H       -2.8350     1.8700    -2.2020 H     1 <1>   0.0800 
 47 H       -5.9880     2.7490    -0.4790 H     1 <1>   0.0800 
 48 H       -6.7650     1.2080    -0.7790 H     1 <1>   0.0800 
 49 H       -6.4830     2.3190    -2.1040 H     1 <1>   0.0800 
 50 H       -0.9340     6.3150    -2.0790 H     1 <1>   0.0800 
 51 H       -0.5230     6.3040    -0.3680 H     1 <1>   0.0800 
 52 H       -2.1950     6.5860    -0.8840 H     1 <1>   0.0800 
@<TRIPOS>BOND
  1   1   2  2   
  2   2   3  am  
  3   2   4  1   
  4   3   5  1   
  5   3   6  1   
  6   4   7  ar  
  7   4   8  ar  
  8   5   9  1   
  9   5  26  1   
 10   5  27  1   
 11   6  10  1   
 12   6  28  1   
 13   6  29  1   
 14   7  11  1   
 15   7  12  ar  
 16   8  13  ar  
 17   8  30  1   
 18   9  14  1   
 19   9  15  2   
 20  10  16  1   
 21  10  31  1   
 22  10  32  1   
 23  11  17  1   
 24  12  18  1   
 25  12  19  ar  
 26  13  19  ar  
 27  13  33  1   
 28  14  20  2   
 29  15  21  1   
 30  15  22  1   
 31  16  23  1   
 32  16  24  1   
 33  16  34  1   
 34  17  35  1   
 35  17  36  1   
 36  17  37  1   
 37  18  25  1   
 38  19  38  1   
 39  20  21  1   
 40  20  39  1   
 41  21  40  1   
 42  22  41  1   
 43  22  42  1   
 44  22  43  1   
 45  23  44  1   
 46  23  45  1   
 47  23  46  1   
 48  24  47  1   
 49  24  48  1   
 50  24  49  1   
 51  25  50  1   
 52  25  51  1   
 53  25  52  1   
@<TRIPOS>SUBSTRUCTURE
  1 ****   6 GROUP 4 **** **** 0

# MOE 2024.06 (io_trps.svl 2023.06)
