@<TRIPOS>MOLECULE
NONAME
47 49 1 0 0 
SMALL
USER_CHARGES


@<TRIPOS>ATOM
  1 CL       1.8350     0.8270     1.3110 Cl    1 <1>  -0.1770 
  2 C        2.2620    -0.4980     0.2580 C.ar  1 <1>   0.1770 
  3 C        1.5360    -1.6760     0.3120 C.ar  1 <1>  -0.1440 
  4 C        3.3170    -0.3350    -0.6230 C.ar  1 <1>  -0.1500 
  5 C        1.8950    -2.6950    -0.5550 C.ar  1 <1>   0.1770 
  6 C        0.3920    -1.8520     1.2890 C.3   1 <1>   0.4870 
  7 C        3.6620    -1.3690    -1.4780 C.ar  1 <1>  -0.1500 
  8 CL       0.9940    -4.1910    -0.5420 Cl    1 <1>  -0.1770 
  9 C        2.9460    -2.5550    -1.4440 C.ar  1 <1>  -0.1500 
 10 N       -0.8990    -1.8190     0.5530 N.4   1 <1>  -0.9590 
 11 C       -1.1650    -0.4680    -0.0270 C.3   1 <1>   0.3430 
 12 C       -2.0190    -2.2530     1.4340 C.3   1 <1>   0.3430 
 13 C       -2.4570    -0.4960    -0.8370 C.3   1 <1>  -0.1600 
 14 C       -3.3160    -2.3000     0.6350 C.3   1 <1>  -0.1600 
 15 C       -3.6430    -0.9200     0.0380 C.3   1 <1>   0.2800 
 16 O       -3.6900     0.0300     1.0660 O.3   1 <1>  -0.5600 
 17 C       -4.9430    -0.8750    -0.7970 C.3   1 <1>  -0.1600 
 18 C       -4.7910     0.0090     1.9340 C.3   1 <1>   0.1200 
 19 C       -6.2290    -0.8240     0.0340 C.3   1 <1>   0.2800 
 20 C       -6.0830     0.2180     1.1460 C.3   1 <1>  -0.1600 
 21 O       -6.4160    -2.0520     0.6290 O.3   1 <1>  -0.6800 
 22 C       -7.4780    -0.5610    -0.8380 C.3   1 <1>   0.1200 
 23 O       -8.6480    -0.8110    -0.1130 O.3   1 <1>  -0.6800 
 24 H        3.8640     0.5930    -0.6390 H     1 <1>   0.1500 
 25 H        0.4110    -1.0780     2.0380 H     1 <1>   0.0800 
 26 H        0.5040    -2.8020     1.7870 H     1 <1>   0.0800 
 27 H        4.4840    -1.2520    -2.1660 H     1 <1>   0.1500 
 28 H        3.2030    -3.3670    -2.1040 H     1 <1>   0.1500 
 29 H       -0.8230    -2.4940    -0.2200 H     1 <1>   0.4500 
 30 H       -0.3490    -0.1660    -0.6630 H     1 <1>   0.0800 
 31 H       -1.2630     0.2570     0.7670 H     1 <1>   0.0800 
 32 H       -2.1350    -1.5550     2.2480 H     1 <1>   0.0800 
 33 H       -1.8150    -3.2290     1.8440 H     1 <1>   0.0800 
 34 H       -2.3490    -1.1630    -1.6730 H     1 <1>   0.0800 
 35 H       -2.6370     0.4890    -1.2300 H     1 <1>   0.0800 
 36 H       -4.1010    -2.6390     1.2820 H     1 <1>   0.0800 
 37 H       -3.2330    -3.0300    -0.1500 H     1 <1>   0.0800 
 38 H       -4.9800    -1.7110    -1.4710 H     1 <1>   0.0800 
 39 H       -4.9190     0.0130    -1.4030 H     1 <1>   0.0800 
 40 H       -4.6610     0.8050     2.6470 H     1 <1>   0.0800 
 41 H       -4.8110    -0.9260     2.4670 H     1 <1>   0.0800 
 42 H       -6.0640     1.2040     0.7190 H     1 <1>   0.0800 
 43 H       -6.9280     0.1710     1.8100 H     1 <1>   0.0800 
 44 H       -7.3790    -2.1050     0.8270 H     1 <1>   0.4000 
 45 H       -7.4720    -1.2090    -1.6970 H     1 <1>   0.0800 
 46 H       -7.4960     0.4620    -1.1730 H     1 <1>   0.0800 
 47 H       -9.4400    -0.6390    -0.6610 H     1 <1>   0.4000 
@<TRIPOS>BOND
  1   1   2  1   
  2   2   3  ar  
  3   2   4  ar  
  4   3   5  ar  
  5   3   6  1   
  6   4   7  ar  
  7   4  24  1   
  8   5   8  1   
  9   5   9  ar  
 10   6  10  1   
 11   6  25  1   
 12   6  26  1   
 13   7   9  ar  
 14   7  27  1   
 15   9  28  1   
 16  10  11  1   
 17  10  12  1   
 18  10  29  1   
 19  11  13  1   
 20  11  30  1   
 21  11  31  1   
 22  12  14  1   
 23  12  32  1   
 24  12  33  1   
 25  13  15  1   
 26  13  34  1   
 27  13  35  1   
 28  14  15  1   
 29  14  36  1   
 30  14  37  1   
 31  15  16  1   
 32  15  17  1   
 33  16  18  1   
 34  17  19  1   
 35  17  38  1   
 36  17  39  1   
 37  18  20  1   
 38  18  40  1   
 39  18  41  1   
 40  19  20  1   
 41  19  21  1   
 42  19  22  1   
 43  20  42  1   
 44  20  43  1   
 45  21  44  1   
 46  22  23  1   
 47  22  45  1   
 48  22  46  1   
 49  23  47  1   
@<TRIPOS>SUBSTRUCTURE
  1 ****  11 GROUP 4 **** **** 0

# MOE 2024.06 (io_trps.svl 2023.06)
