@<TRIPOS>MOLECULE
NONAME
45 47 1 0 0 
SMALL
USER_CHARGES


@<TRIPOS>ATOM
  1 O        0.8620    -1.8060    -0.4820 O.3   1 <1>  -0.3630 
  2 C        0.3270    -2.9090     0.0810 C.ar  1 <1>   0.3920 
  3 C        1.9480    -1.8460    -1.3810 C.3   1 <1>   0.0400 
  4 N       -0.6350    -2.6570     0.9550 N.ar  1 <1>  -0.6200 
  5 C        0.7580    -4.1960    -0.2370 C.ar  1 <1>  -0.1500 
  6 C       -1.1870    -3.7040     1.5340 C.ar  1 <1>   0.1600 
  7 C        0.1660    -5.2820     0.3700 C.ar  1 <1>  -0.1500 
  8 C       -0.8410    -5.0220     1.2810 C.ar  1 <1>  -0.1440 
  9 C       -1.5730    -6.1410     1.9900 C.3   1 <1>   0.4870 
 10 N       -2.3080    -6.9420     0.9820 N.4   1 <1>  -0.9590 
 11 C       -3.2540    -6.1820     0.1020 C.3   1 <1>   0.3430 
 12 C       -3.0300    -8.1330     1.4860 C.3   1 <1>   0.3430 
 13 C       -4.4580    -7.1120    -0.1180 C.3   1 <1>   0.2000 
 14 C       -3.9750    -8.4920     0.3370 C.3   1 <1>  -0.0800 
 15 O       -5.5120    -6.7140     0.6960 O.3   1 <1>  -0.6800 
 16 C       -3.2810    -9.2470    -0.8300 C.3   1 <1>   0.0210 
 17 C       -1.8450    -9.6800    -0.5680 C.2   1 <1>   0.1080 
 18 N       -0.8370    -8.8570    -0.5330 N.2   1 <1>  -0.7070 
 19 C       -1.4580   -10.9970    -0.3560 C.2   1 <1>  -0.1500 
 20 N        0.2400    -9.6550    -0.3310 N.pl3 1 <1>   0.3000 
 21 C       -0.1190   -10.9470    -0.2050 C.2   1 <1>  -0.3320 
 22 C        0.8600   -12.0830     0.0390 C.3   1 <1>  -0.0600 
 23 H        2.1900    -0.8350    -1.6540 H     1 <1>   0.0800 
 24 H        1.6580    -2.3990    -2.2570 H     1 <1>   0.0800 
 25 H        2.7910    -2.3030    -0.8930 H     1 <1>   0.0800 
 26 H        1.5430    -4.3550    -0.9500 H     1 <1>   0.1500 
 27 H       -1.9630    -3.4840     2.2490 H     1 <1>   0.1500 
 28 H        0.4850    -6.2830     0.1320 H     1 <1>   0.1500 
 29 H       -2.2610    -5.7320     2.7120 H     1 <1>   0.0800 
 30 H       -0.8620    -6.7640     2.5080 H     1 <1>   0.0800 
 31 H       -1.5930    -7.3540     0.3410 H     1 <1>   0.4500 
 32 H       -3.5750    -5.2600     0.5570 H     1 <1>   0.0800 
 33 H       -2.7730    -5.9650    -0.8380 H     1 <1>   0.0800 
 34 H       -2.3530    -8.9400     1.7200 H     1 <1>   0.0800 
 35 H       -3.6010    -7.8770     2.3630 H     1 <1>   0.0800 
 36 H       -4.8110    -7.0880    -1.1360 H     1 <1>   0.0800 
 37 H       -4.7930    -9.0930     0.6950 H     1 <1>   0.0800 
 38 H       -5.3090    -6.7540     1.6490 H     1 <1>   0.4000 
 39 H       -3.2690    -8.6460    -1.7230 H     1 <1>   0.0800 
 40 H       -3.8610   -10.1220    -1.0670 H     1 <1>   0.0800 
 41 H       -2.1000   -11.8610    -0.3330 H     1 <1>   0.1500 
 42 H        1.2060    -9.3040    -0.3010 H     1 <1>   0.2700 
 43 H        0.3340   -13.0200     0.0940 H     1 <1>   0.0800 
 44 H        1.3880   -11.9340     0.9640 H     1 <1>   0.0800 
 45 H        1.5720   -12.1420    -0.7650 H     1 <1>   0.0800 
@<TRIPOS>BOND
  1   1   2  1   
  2   1   3  1   
  3   2   4  ar  
  4   2   5  ar  
  5   3  23  1   
  6   3  24  1   
  7   3  25  1   
  8   4   6  ar  
  9   5   7  ar  
 10   5  26  1   
 11   6   8  ar  
 12   6  27  1   
 13   7   8  ar  
 14   7  28  1   
 15   8   9  1   
 16   9  10  1   
 17   9  29  1   
 18   9  30  1   
 19  10  11  1   
 20  10  12  1   
 21  10  31  1   
 22  11  13  1   
 23  11  32  1   
 24  11  33  1   
 25  12  14  1   
 26  12  34  1   
 27  12  35  1   
 28  13  14  1   
 29  13  15  1   
 30  13  36  1   
 31  14  16  1   
 32  14  37  1   
 33  15  38  1   
 34  16  17  1   
 35  16  39  1   
 36  16  40  1   
 37  17  18  2   
 38  17  19  1   
 39  18  20  1   
 40  19  21  2   
 41  19  41  1   
 42  20  21  1   
 43  20  42  1   
 44  21  22  1   
 45  22  43  1   
 46  22  44  1   
 47  22  45  1   
@<TRIPOS>SUBSTRUCTURE
  1 ****  10 GROUP 4 **** **** 0

# MOE 2024.06 (io_trps.svl 2023.06)
