@<TRIPOS>MOLECULE
NONAME
43 44 1 0 0 
SMALL
USER_CHARGES


@<TRIPOS>ATOM
  1 CL      -0.7560    -0.8910     2.1780 Cl    1 <1>  -0.1400 
  2 C       -1.9170    -1.3010     0.9330 C.2   1 <1>   0.1540 
  3 C       -2.7540    -0.2650     0.4090 C.2   1 <1>   0.6160 
  4 C       -2.0060    -2.5820     0.4870 C.2   1 <1>  -0.1500 
  5 O       -2.7470     0.9030     0.7640 O.2   1 <1>  -0.5700 
  6 N       -3.6400    -0.6280    -0.5720 N.am  1 <1>  -0.5390 
  7 C       -2.9530    -2.9270    -0.5250 C.2   1 <1>   0.0140 
  8 C       -3.7350    -1.9180    -1.0340 C.2   1 <1>  -0.0410 
  9 C       -3.0360    -4.2960    -0.9730 C.2   1 <1>   0.6160 
 10 O       -2.0540    -4.8020    -1.4820 O.2   1 <1>  -0.5700 
 11 N       -4.1880    -5.0500    -0.8270 N.am  1 <1>  -0.6600 
 12 C       -4.2370    -6.4870    -1.2590 C.3   1 <1>   0.1400 
 13 C       -5.4440    -4.4830    -0.2460 C.3   1 <1>   0.1400 
 14 C       -4.7070    -7.4630    -0.1410 C.3   1 <1>   0.0000 
 15 C       -6.4110    -5.5740     0.2230 C.3   1 <1>  -0.1600 
 16 C       -5.6170    -6.7030     0.8750 C.3   1 <1>   0.2000 
 17 C       -5.5130    -8.6040    -0.8220 C.3   1 <1>   0.1200 
 18 C       -3.5060    -8.1030     0.6160 C.3   1 <1>  -0.1600 
 19 O       -6.5110    -7.5400     1.5240 O.3   1 <1>  -0.6800 
 20 O       -4.7780    -9.2590    -1.8060 O.3   1 <1>  -0.6800 
 21 C       -2.4530    -7.1320     1.1850 C.3   1 <1>  -0.1600 
 22 C       -1.4000    -7.8900     1.9980 C.3   1 <1>  -0.2400 
 23 H       -1.3700    -3.3580     0.8770 H     1 <1>   0.1500 
 24 H       -4.2020     0.1460    -0.9360 H     1 <1>   0.3700 
 25 H       -4.4450    -2.1140    -1.8220 H     1 <1>   0.1500 
 26 H       -4.9220    -6.5360    -2.0880 H     1 <1>   0.0800 
 27 H       -3.2800    -6.8120    -1.6320 H     1 <1>   0.0800 
 28 H       -5.1880    -3.8690     0.6010 H     1 <1>   0.0800 
 29 H       -5.9320    -3.8620    -0.9780 H     1 <1>   0.0800 
 30 H       -6.9750    -5.9410    -0.6160 H     1 <1>   0.0800 
 31 H       -7.0960    -5.1450     0.9330 H     1 <1>   0.0800 
 32 H       -5.0110    -6.2660     1.6480 H     1 <1>   0.0800 
 33 H       -6.4070    -8.2220    -1.2840 H     1 <1>   0.0800 
 34 H       -5.7930    -9.3500    -0.0960 H     1 <1>   0.0800 
 35 H       -3.8970    -8.7000     1.4220 H     1 <1>   0.0800 
 36 H       -2.9900    -8.7780    -0.0450 H     1 <1>   0.0800 
 37 H       -7.1920    -7.8720     0.9100 H     1 <1>   0.4000 
 38 H       -4.4880    -8.6490    -2.5110 H     1 <1>   0.4000 
 39 H       -1.9550    -6.6220     0.3810 H     1 <1>   0.0800 
 40 H       -2.9070    -6.3930     1.8190 H     1 <1>   0.0800 
 41 H       -0.9030    -8.6190     1.3820 H     1 <1>   0.0800 
 42 H       -1.8580    -8.3940     2.8320 H     1 <1>   0.0800 
 43 H       -0.6630    -7.2040     2.3760 H     1 <1>   0.0800 
@<TRIPOS>BOND
  1   1   2  1   
  2   2   3  1   
  3   2   4  2   
  4   3   5  2   
  5   3   6  am  
  6   4   7  1   
  7   4  23  1   
  8   6   8  1   
  9   6  24  1   
 10   7   8  2   
 11   7   9  1   
 12   8  25  1   
 13   9  10  2   
 14   9  11  am  
 15  11  12  1   
 16  11  13  1   
 17  12  14  1   
 18  12  26  1   
 19  12  27  1   
 20  13  15  1   
 21  13  28  1   
 22  13  29  1   
 23  14  16  1   
 24  14  17  1   
 25  14  18  1   
 26  15  16  1   
 27  15  30  1   
 28  15  31  1   
 29  16  19  1   
 30  16  32  1   
 31  17  20  1   
 32  17  33  1   
 33  17  34  1   
 34  18  21  1   
 35  18  35  1   
 36  18  36  1   
 37  19  37  1   
 38  20  38  1   
 39  21  22  1   
 40  21  39  1   
 41  21  40  1   
 42  22  41  1   
 43  22  42  1   
 44  22  43  1   
@<TRIPOS>SUBSTRUCTURE
  1 ****  11 GROUP 4 **** **** 0

# MOE 2024.06 (io_trps.svl 2023.06)
