@<TRIPOS>MOLECULE
NONAME
45 47 1 0 0 
SMALL
USER_CHARGES


@<TRIPOS>ATOM
  1 CL      -2.2170     0.6820    -0.5720 Cl    1 <1>  -0.1770 
  2 C       -1.1260     1.9980    -0.2020 C.ar  1 <1>   0.1770 
  3 C       -1.5190     2.9770     0.7030 C.ar  1 <1>  -0.1440 
  4 C        0.1060     2.0330    -0.8350 C.ar  1 <1>  -0.1500 
  5 C       -0.6430     4.0200     0.9770 C.ar  1 <1>  -0.1500 
  6 C       -2.8750     2.9010     1.3790 C.3   1 <1>   0.4870 
  7 C        0.9780     3.0750    -0.5640 C.ar  1 <1>  -0.1500 
  8 C        0.5830     4.0480     0.3370 C.ar  1 <1>   0.1900 
  9 N       -3.9390     3.1460     0.3710 N.4   1 <1>  -0.9590 
 10 F        1.3970     5.0340     0.5940 F     1 <1>  -0.1900 
 11 C       -5.2950     2.8000     0.8970 C.3   1 <1>   0.3430 
 12 C       -3.8930     4.5260    -0.1940 C.3   1 <1>   0.3430 
 13 C       -6.3610     2.8620    -0.2150 C.3   1 <1>   0.0000 
 14 C       -4.9100     4.6470    -1.3290 C.3   1 <1>  -0.1600 
 15 C       -7.7280     2.5070     0.4060 C.3   1 <1>   0.2000 
 16 C       -6.3270     4.2590    -0.8770 C.3   1 <1>  -0.1600 
 17 C       -6.1490     1.7230    -1.2300 C.3   1 <1>  -0.1600 
 18 O       -8.7350     2.9180    -0.4660 O.3   1 <1>  -0.5600 
 19 C       -7.7360     0.9730     0.4840 C.3   1 <1>  -0.1600 
 20 C       -6.7500     0.4730    -0.5820 C.3   1 <1>  -0.1600 
 21 C       -9.9950     3.0910     0.1070 C.3   1 <1>   0.0400 
 22 H        0.3790     1.2570    -1.5300 H     1 <1>   0.1500 
 23 H       -0.8840     4.8060     1.6730 H     1 <1>   0.1500 
 24 H       -2.9370     3.6300     2.1710 H     1 <1>   0.0800 
 25 H       -2.9960     1.9190     1.8080 H     1 <1>   0.0800 
 26 H        1.9430     3.1360    -1.0370 H     1 <1>   0.1500 
 27 H       -3.7540     2.4980    -0.4090 H     1 <1>   0.4500 
 28 H       -5.2820     1.8050     1.3120 H     1 <1>   0.0800 
 29 H       -5.5650     3.4890     1.6810 H     1 <1>   0.0800 
 30 H       -4.1260     5.2450     0.5750 H     1 <1>   0.0800 
 31 H       -2.9070     4.7410    -0.5760 H     1 <1>   0.0800 
 32 H       -4.9190     5.6630    -1.6840 H     1 <1>   0.0800 
 33 H       -4.6030     4.0260    -2.1530 H     1 <1>   0.0800 
 34 H       -7.8800     2.9780     1.3630 H     1 <1>   0.0800 
 35 H       -6.9890     4.2850    -1.7270 H     1 <1>   0.0800 
 36 H       -6.6880     4.9920    -0.1750 H     1 <1>   0.0800 
 37 H       -6.7180     1.9400    -2.1200 H     1 <1>   0.0800 
 38 H       -5.1250     1.5710    -1.5200 H     1 <1>   0.0800 
 39 H       -7.3990     0.6590     1.4550 H     1 <1>   0.0800 
 40 H       -8.7200     0.5690     0.3220 H     1 <1>   0.0800 
 41 H       -5.9820    -0.1280    -0.1250 H     1 <1>   0.0800 
 42 H       -7.2570    -0.1240    -1.3220 H     1 <1>   0.0800 
 43 H      -10.6780     3.3800    -0.6720 H     1 <1>   0.0800 
 44 H       -9.9450     3.8690     0.8490 H     1 <1>   0.0800 
 45 H      -10.3250     2.1670     0.5490 H     1 <1>   0.0800 
@<TRIPOS>BOND
  1   1   2  1   
  2   2   3  ar  
  3   2   4  ar  
  4   3   5  ar  
  5   3   6  1   
  6   4   7  ar  
  7   4  22  1   
  8   5   8  ar  
  9   5  23  1   
 10   6   9  1   
 11   6  24  1   
 12   6  25  1   
 13   7   8  ar  
 14   7  26  1   
 15   8  10  1   
 16   9  11  1   
 17   9  12  1   
 18   9  27  1   
 19  11  13  1   
 20  11  28  1   
 21  11  29  1   
 22  12  14  1   
 23  12  30  1   
 24  12  31  1   
 25  13  15  1   
 26  13  16  1   
 27  13  17  1   
 28  14  16  1   
 29  14  32  1   
 30  14  33  1   
 31  15  18  1   
 32  15  19  1   
 33  15  34  1   
 34  16  35  1   
 35  16  36  1   
 36  17  20  1   
 37  17  37  1   
 38  17  38  1   
 39  18  21  1   
 40  19  20  1   
 41  19  39  1   
 42  19  40  1   
 43  20  41  1   
 44  20  42  1   
 45  21  43  1   
 46  21  44  1   
 47  21  45  1   
@<TRIPOS>SUBSTRUCTURE
  1 ****   9 GROUP 4 **** **** 0

# MOE 2024.06 (io_trps.svl 2023.06)
