@<TRIPOS>MOLECULE
NONAME
41 42 1 0 0 
SMALL
USER_CHARGES


@<TRIPOS>ATOM
  1 O        1.3100    -2.5570    -1.6120 O.2   1 <1>  -0.5700 
  2 C        0.4650    -2.0310    -0.9110 C.2   1 <1>   0.7800 
  3 O        0.8030    -1.3600     0.1940 O.3   1 <1>  -0.4300 
  4 N       -0.8640    -2.1090    -1.2060 N.am  1 <1>  -0.6600 
  5 C        2.0980    -1.1510     0.7090 C.3   1 <1>   0.2800 
  6 C       -1.9620    -1.6590    -0.3150 C.3   1 <1>   0.1400 
  7 C       -1.4040    -2.9430    -2.2990 C.3   1 <1>   0.1400 
  8 C        2.9430    -0.3470    -0.2870 C.3   1 <1>  -0.2400 
  9 C        2.7440    -2.4910     1.0780 C.3   1 <1>  -0.2400 
 10 C        1.8920    -0.3240     1.9780 C.3   1 <1>  -0.2400 
 11 C       -3.0750    -2.6930    -0.5520 C.3   1 <1>   0.0000 
 12 C       -2.9090    -3.0220    -2.0390 C.3   1 <1>  -0.1600 
 13 C       -4.4820    -2.2320    -0.1490 C.3   1 <1>  -0.1860 
 14 C       -2.8580    -3.9220     0.3470 C.3   1 <1>  -0.1600 
 15 C       -4.8810    -0.8410    -0.6330 C.2   1 <1>   0.9060 
 16 C       -4.5290    -2.4450     1.3740 C.3   1 <1>  -0.1600 
 17 C       -3.5680    -3.6040     1.6680 C.3   1 <1>  -0.1600 
 18 O       -5.5400    -0.7540    -1.6740 O.co2 1 <1>  -0.9000 
 19 O       -4.5310     0.1550     0.0110 O.co2 1 <1>  -0.9000 
 20 H       -2.2710    -0.6770    -0.6260 H     1 <1>   0.0800 
 21 H       -1.6590    -1.6230     0.7170 H     1 <1>   0.0800 
 22 H       -0.9580    -3.9220    -2.2520 H     1 <1>   0.0800 
 23 H       -1.1940    -2.4930    -3.2540 H     1 <1>   0.0800 
 24 H        3.1630    -0.9270    -1.1640 H     1 <1>   0.0800 
 25 H        3.8770    -0.0690     0.1640 H     1 <1>   0.0800 
 26 H        2.4220     0.5480    -0.5770 H     1 <1>   0.0800 
 27 H        2.9680    -3.0680     0.2000 H     1 <1>   0.0800 
 28 H        2.0890    -3.0570     1.7150 H     1 <1>   0.0800 
 29 H        3.6680    -2.3220     1.6010 H     1 <1>   0.0800 
 30 H        1.4120     0.6080     1.7390 H     1 <1>   0.0800 
 31 H        2.8360    -0.1110     2.4460 H     1 <1>   0.0800 
 32 H        1.2790    -0.8630     2.6770 H     1 <1>   0.0800 
 33 H       -3.3180    -3.9770    -2.3090 H     1 <1>   0.0800 
 34 H       -3.3980    -2.2650    -2.6290 H     1 <1>   0.0800 
 35 H       -5.1860    -2.9140    -0.5890 H     1 <1>   0.0800 
 36 H       -1.8150    -4.1460     0.4950 H     1 <1>   0.0800 
 37 H       -3.3340    -4.7780    -0.0980 H     1 <1>   0.0800 
 38 H       -5.5320    -2.6530     1.7020 H     1 <1>   0.0800 
 39 H       -4.1810    -1.5570     1.8740 H     1 <1>   0.0800 
 40 H       -2.8520    -3.2970     2.4110 H     1 <1>   0.0800 
 41 H       -4.1010    -4.4660     2.0280 H     1 <1>   0.0800 
@<TRIPOS>BOND
  1   1   2  2   
  2   2   3  1   
  3   2   4  am  
  4   3   5  1   
  5   4   6  1   
  6   4   7  1   
  7   5   8  1   
  8   5   9  1   
  9   5  10  1   
 10   6  11  1   
 11   6  20  1   
 12   6  21  1   
 13   7  12  1   
 14   7  22  1   
 15   7  23  1   
 16   8  24  1   
 17   8  25  1   
 18   8  26  1   
 19   9  27  1   
 20   9  28  1   
 21   9  29  1   
 22  10  30  1   
 23  10  31  1   
 24  10  32  1   
 25  11  12  1   
 26  11  13  1   
 27  11  14  1   
 28  12  33  1   
 29  12  34  1   
 30  13  15  1   
 31  13  16  1   
 32  13  35  1   
 33  14  17  1   
 34  14  36  1   
 35  14  37  1   
 36  15  18  ar  
 37  15  19  ar  
 38  16  17  1   
 39  16  38  1   
 40  16  39  1   
 41  17  40  1   
 42  17  41  1   
@<TRIPOS>SUBSTRUCTURE
  1 ****   6 GROUP 4 **** **** 0

# MOE 2024.06 (io_trps.svl 2023.06)
