@<TRIPOS>MOLECULE
NONAME
51 54 1 0 0 
SMALL
USER_CHARGES


@<TRIPOS>ATOM
  1 O       -2.6240     1.0050    -2.4800 O.2   1 <1>  -0.5700 
  2 C       -2.3790     1.3330    -1.3450 C.2   1 <1>   0.5690 
  3 N       -2.3330     0.4220    -0.3380 N.am  1 <1>  -0.7300 
  4 C       -2.1400     2.8000    -1.0280 C.3   1 <1>   0.0820 
  5 C       -2.5150    -1.0380    -0.5050 C.3   1 <1>   0.2200 
  6 C       -0.7890     3.0790    -0.3780 C.2   1 <1>  -0.1810 
  7 C       -3.8300    -1.4550     0.1300 C.3   1 <1>  -0.0800 
  8 C       -1.5000    -1.7830     0.3560 C.3   1 <1>   0.1200 
  9 C       -0.4040     4.3000     0.2340 C.ar  1 <1>   0.0000 
 10 C        0.2680     2.2500    -0.2660 C.2   1 <1>  -0.0100 
 11 C       -3.4350    -1.6160     1.6010 C.3   1 <1>   0.1200 
 12 C       -4.3590    -2.7680    -0.4790 C.3   1 <1>  -0.0160 
 13 O       -2.0620    -1.8820     1.6310 O.3   1 <1>  -0.5600 
 14 C       -0.9710     5.5630     0.4620 C.ar  1 <1>  -0.1440 
 15 C        0.8880     4.0630     0.6790 C.ar  1 <1>   0.1400 
 16 O        1.2760     2.8260     0.3700 O.3   1 <1>  -0.2800 
 17 C       -5.6860    -3.1760     0.1410 C.ar  1 <1>  -0.1440 
 18 C       -0.2250     6.5160     1.1300 C.ar  1 <1>  -0.1500 
 19 C       -2.3750     5.9020    -0.0120 C.3   1 <1>  -0.0970 
 20 C        1.6370     5.0180     1.3490 C.ar  1 <1>  -0.1500 
 21 C       -5.7810    -4.1990     1.0630 C.ar  1 <1>  -0.1500 
 22 C       -6.8670    -2.5430    -0.1890 C.ar  1 <1>  -0.1500 
 23 C        1.0730     6.2560     1.5780 C.ar  1 <1>  -0.1440 
 24 C       -7.0160    -4.5260     1.5990 C.ar  1 <1>   0.1600 
 25 C       -8.0510    -2.9480     0.4050 C.ar  1 <1>   0.1600 
 26 C        1.8440     7.3430     2.3060 C.3   1 <1>  -0.0970 
 27 N       -8.1540    -3.9230     1.2930 N.ar  1 <1>  -0.6200 
 28 H       -2.0860     0.7150     0.6110 H     1 <1>   0.3700 
 29 H       -2.2150     3.3680    -1.9370 H     1 <1>   0.0800 
 30 H       -2.9250     3.1170    -0.3700 H     1 <1>   0.0800 
 31 H       -2.4400    -1.3090    -1.5460 H     1 <1>   0.0800 
 32 H       -4.5790    -0.6920     0.0110 H     1 <1>   0.0800 
 33 H       -0.5530    -1.2760     0.4160 H     1 <1>   0.0800 
 34 H       -1.3520    -2.7830    -0.0120 H     1 <1>   0.0800 
 35 H        0.4030     1.2370    -0.6040 H     1 <1>   0.1500 
 36 H       -3.9580    -2.4130     2.0990 H     1 <1>   0.0800 
 37 H       -3.5970    -0.6970     2.1390 H     1 <1>   0.0800 
 38 H       -3.6410    -3.5590    -0.3450 H     1 <1>   0.0800 
 39 H       -4.5020    -2.6370    -1.5380 H     1 <1>   0.0800 
 40 H       -0.6430     7.4900     1.3170 H     1 <1>   0.1500 
 41 H       -2.5960     6.9400     0.1590 H     1 <1>   0.0800 
 42 H       -3.0960     5.3120     0.5240 H     1 <1>   0.0800 
 43 H       -2.4650     5.7100    -1.0650 H     1 <1>   0.0800 
 44 H        2.6320     4.7720     1.6710 H     1 <1>   0.1500 
 45 H       -4.9090    -4.7460     1.3720 H     1 <1>   0.1500 
 46 H       -6.8790    -1.7400    -0.9030 H     1 <1>   0.1500 
 47 H       -7.0710    -5.3260     2.3170 H     1 <1>   0.1500 
 48 H       -8.9620    -2.4420     0.1340 H     1 <1>   0.1500 
 49 H        1.3140     7.6330     3.1960 H     1 <1>   0.0800 
 50 H        1.9550     8.2020     1.6700 H     1 <1>   0.0800 
 51 H        2.8220     6.9960     2.5880 H     1 <1>   0.0800 
@<TRIPOS>BOND
  1   1   2  2   
  2   2   3  am  
  3   2   4  1   
  4   3   5  1   
  5   3  28  1   
  6   4   6  1   
  7   4  29  1   
  8   4  30  1   
  9   5   7  1   
 10   5   8  1   
 11   5  31  1   
 12   6   9  1   
 13   6  10  2   
 14   7  11  1   
 15   7  12  1   
 16   7  32  1   
 17   8  13  1   
 18   8  33  1   
 19   8  34  1   
 20   9  14  ar  
 21   9  15  ar  
 22  10  16  1   
 23  10  35  1   
 24  11  13  1   
 25  11  36  1   
 26  11  37  1   
 27  12  17  1   
 28  12  38  1   
 29  12  39  1   
 30  14  18  ar  
 31  14  19  1   
 32  15  16  1   
 33  15  20  ar  
 34  17  21  ar  
 35  17  22  ar  
 36  18  23  ar  
 37  18  40  1   
 38  19  41  1   
 39  19  42  1   
 40  19  43  1   
 41  20  23  ar  
 42  20  44  1   
 43  21  24  ar  
 44  21  45  1   
 45  22  25  ar  
 46  22  46  1   
 47  23  26  1   
 48  24  27  ar  
 49  24  47  1   
 50  25  27  ar  
 51  25  48  1   
 52  26  49  1   
 53  26  50  1   
 54  26  51  1   
@<TRIPOS>SUBSTRUCTURE
  1 ****   3 GROUP 4 **** **** 0

# MOE 2024.06 (io_trps.svl 2023.06)
