@<TRIPOS>MOLECULE
NONAME
49 53 1 0 0 
SMALL
USER_CHARGES


@<TRIPOS>ATOM
  1 O       -2.0740     0.3760    -1.9260 O.2   1 <1>  -0.5700 
  2 C       -1.9140     0.4280    -0.7180 C.2   1 <1>   0.7160 
  3 N       -1.8710    -0.7440    -0.0210 N.am  1 <1>  -0.7300 
  4 C       -1.7900     1.6900    -0.0060 C.2   1 <1>   0.2030 
  5 C       -1.9510    -2.1130    -0.5800 C.3   1 <1>   0.2200 
  6 N       -1.6590     1.8220     1.3050 N.2   1 <1>  -0.7070 
  7 C       -1.7960     2.9490    -0.6190 C.2   1 <1>  -0.1500 
  8 C       -3.3180    -2.7390    -0.3340 C.3   1 <1>  -0.0800 
  9 C       -1.0640    -3.0380     0.2430 C.3   1 <1>   0.1200 
 10 N       -1.5790     3.1450     1.5170 N.pl3 1 <1>   0.3000 
 11 C       -1.6600     3.8490     0.3730 C.2   1 <1>  -0.2370 
 12 C       -3.1870    -3.2550     1.1030 C.3   1 <1>   0.1200 
 13 C       -4.5220    -1.8020    -0.5690 C.3   1 <1>  -0.0160 
 14 O       -1.8200    -3.3890     1.3630 O.3   1 <1>  -0.5600 
 15 C       -1.5990     5.3610     0.3190 C.3   1 <1>  -0.0150 
 16 C       -5.9160    -2.4330    -0.4660 C.ar  1 <1>  -0.1430 
 17 C       -0.9980     6.0470    -0.8650 C.3   1 <1>  -0.2000 
 18 C       -0.2790     6.0480     0.4520 C.3   1 <1>  -0.2000 
 19 C       -7.0630    -1.6000    -0.4980 C.ar  1 <1>   0.0000 
 20 C       -6.1330    -3.7780    -0.3510 C.ar  1 <1>  -0.1500 
 21 C       -8.3350    -2.2140    -0.3830 C.ar  1 <1>   0.3100 
 22 C       -7.0230    -0.1930    -0.6450 C.ar  1 <1>  -0.1500 
 23 C       -7.4350    -4.2830    -0.2500 C.ar  1 <1>   0.1600 
 24 N       -8.5040    -3.5530    -0.2590 N.ar  1 <1>  -0.6200 
 25 C       -9.4860    -1.4090    -0.4020 C.ar  1 <1>  -0.1500 
 26 C       -8.1640     0.5630    -0.6610 C.ar  1 <1>  -0.1500 
 27 C       -9.4130    -0.0490    -0.5360 C.ar  1 <1>  -0.1500 
 28 H       -1.7600    -0.6710     0.9960 H     1 <1>   0.3700 
 29 H       -1.6780    -2.1100    -1.6220 H     1 <1>   0.0800 
 30 H       -1.8910     3.1180    -1.6780 H     1 <1>   0.1500 
 31 H       -3.4000    -3.5840    -0.9930 H     1 <1>   0.0800 
 32 H       -0.1470    -2.5700     0.5540 H     1 <1>   0.0800 
 33 H       -0.8490    -3.9410    -0.3020 H     1 <1>   0.0800 
 34 H       -1.4640     3.5520     2.4530 H     1 <1>   0.2700 
 35 H       -3.6620    -4.2100     1.2420 H     1 <1>   0.0800 
 36 H       -3.5830    -2.5470     1.8120 H     1 <1>   0.0800 
 37 H       -4.4250    -1.3650    -1.5480 H     1 <1>   0.0800 
 38 H       -4.4690    -1.0030     0.1490 H     1 <1>   0.0800 
 39 H       -2.4570     5.8310     0.7710 H     1 <1>   0.1000 
 40 H       -0.5990     5.4500    -1.6670 H     1 <1>   0.1000 
 41 H       -1.4460     6.9600    -1.2140 H     1 <1>   0.1000 
 42 H       -0.2240     6.9660     1.0090 H     1 <1>   0.1000 
 43 H        0.6130     5.4520     0.5450 H     1 <1>   0.1000 
 44 H       -5.3390    -4.4970    -0.3350 H     1 <1>   0.1500 
 45 H       -6.0770     0.3040    -0.7500 H     1 <1>   0.1500 
 46 H       -7.5550    -5.3490    -0.1590 H     1 <1>   0.1500 
 47 H      -10.4350    -1.9030    -0.3070 H     1 <1>   0.1500 
 48 H       -8.1150     1.6330    -0.7720 H     1 <1>   0.1500 
 49 H      -10.3030     0.5560    -0.5490 H     1 <1>   0.1500 
@<TRIPOS>BOND
  1   1   2  2   
  2   2   3  am  
  3   2   4  1   
  4   3   5  1   
  5   3  28  1   
  6   4   6  2   
  7   4   7  1   
  8   5   8  1   
  9   5   9  1   
 10   5  29  1   
 11   6  10  1   
 12   7  11  2   
 13   7  30  1   
 14   8  12  1   
 15   8  13  1   
 16   8  31  1   
 17   9  14  1   
 18   9  32  1   
 19   9  33  1   
 20  10  11  1   
 21  10  34  1   
 22  11  15  1   
 23  12  14  1   
 24  12  35  1   
 25  12  36  1   
 26  13  16  1   
 27  13  37  1   
 28  13  38  1   
 29  15  17  1   
 30  15  18  1   
 31  15  39  1   
 32  16  19  ar  
 33  16  20  ar  
 34  17  18  1   
 35  17  40  1   
 36  17  41  1   
 37  18  42  1   
 38  18  43  1   
 39  19  21  ar  
 40  19  22  ar  
 41  20  23  ar  
 42  20  44  1   
 43  21  24  ar  
 44  21  25  ar  
 45  22  26  ar  
 46  22  45  1   
 47  23  24  ar  
 48  23  46  1   
 49  25  27  ar  
 50  25  47  1   
 51  26  27  ar  
 52  26  48  1   
 53  27  49  1   
@<TRIPOS>SUBSTRUCTURE
  1 ****  13 GROUP 4 **** **** 0

# MOE 2024.06 (io_trps.svl 2023.06)
