@<TRIPOS>MOLECULE
NONAME
43 45 1 0 0 
SMALL
USER_CHARGES


@<TRIPOS>ATOM
  1 S        0.6930    -1.4480     2.6790 S.3   1 <1>  -0.0800 
  2 C        1.0990    -1.6950     0.9780 C.2   1 <1>  -0.0450 
  3 C        1.3180     0.1860     2.6680 C.2   1 <1>  -0.1100 
  4 C        1.6770    -0.5600     0.5010 C.2   1 <1>  -0.1810 
  5 C        0.7720    -2.9670     0.3870 C.2   1 <1>   0.7150 
  6 C        1.7950     0.4950     1.4490 C.2   1 <1>  -0.1810 
  7 C        2.2330    -0.3150    -0.8910 C.3   1 <1>   0.0210 
  8 O        1.2060    -3.9980     0.8730 O.2   1 <1>  -0.5700 
  9 N       -0.0630    -3.0510    -0.7080 N.am  1 <1>  -0.6600 
 10 C        2.4340     1.7960     1.0010 C.3   1 <1>   0.0210 
 11 C        3.6300     0.3170    -0.7800 C.3   1 <1>  -0.1600 
 12 C       -0.2770    -4.3450    -1.4050 C.3   1 <1>   0.3200 
 13 C       -1.0150    -1.9570    -1.0630 C.3   1 <1>   0.1400 
 14 C        3.7190     1.5150     0.2000 C.3   1 <1>  -0.1600 
 15 C       -1.3650    -5.1180    -0.6930 C.2   1 <1>  -0.3320 
 16 C       -2.2400    -1.9680    -0.1400 C.3   1 <1>   0.1200 
 17 N       -1.2380    -5.5180     0.5830 N.pl3 1 <1>   0.0330 
 18 C       -2.5790    -5.5450    -1.1040 C.2   1 <1>   0.0770 
 19 O       -2.9470    -0.7870    -0.3170 O.3   1 <1>  -0.6800 
 20 C       -2.3890    -6.1590     0.8730 C.2   1 <1>   0.0060 
 21 N       -3.2200    -6.1980    -0.1160 N.2   1 <1>  -0.5650 
 22 C       -2.6640    -6.7670     2.2310 C.3   1 <1>  -0.0600 
 23 H        1.2650     0.7470     3.5850 H     1 <1>   0.1500 
 24 H        1.5780     0.3550    -1.4190 H     1 <1>   0.0800 
 25 H        2.2900    -1.2370    -1.4440 H     1 <1>   0.0800 
 26 H        2.6530     2.4190     1.8500 H     1 <1>   0.0800 
 27 H        1.7340     2.3200     0.3750 H     1 <1>   0.0800 
 28 H        3.9640     0.6210    -1.7560 H     1 <1>   0.0800 
 29 H        4.3080    -0.4460    -0.4350 H     1 <1>   0.0800 
 30 H        0.6360    -4.9180    -1.4010 H     1 <1>   0.0800 
 31 H       -0.5540    -4.1700    -2.4300 H     1 <1>   0.0800 
 32 H       -1.3410    -2.0720    -2.0820 H     1 <1>   0.0800 
 33 H       -0.5190    -1.0080    -0.9780 H     1 <1>   0.0800 
 34 H        4.5110     1.3150     0.9000 H     1 <1>   0.0800 
 35 H        3.9910     2.4050    -0.3410 H     1 <1>   0.0800 
 36 H       -1.9530    -2.0330     0.8960 H     1 <1>   0.0800 
 37 H       -2.8940    -2.7870    -0.3850 H     1 <1>   0.0800 
 38 H       -0.4250    -5.3390     1.1890 H     1 <1>   0.2700 
 39 H       -3.0380    -5.4160    -2.0700 H     1 <1>   0.1500 
 40 H       -2.5050    -0.0480     0.1460 H     1 <1>   0.4000 
 41 H       -1.9310    -7.5200     2.4520 H     1 <1>   0.0800 
 42 H       -3.6390    -7.2200     2.2350 H     1 <1>   0.0800 
 43 H       -2.6340    -6.0050     2.9880 H     1 <1>   0.0800 
@<TRIPOS>BOND
  1   1   2  1   
  2   1   3  1   
  3   2   4  2   
  4   2   5  1   
  5   3   6  2   
  6   3  23  1   
  7   4   6  1   
  8   4   7  1   
  9   5   8  2   
 10   5   9  am  
 11   6  10  1   
 12   7  11  1   
 13   7  24  1   
 14   7  25  1   
 15   9  12  1   
 16   9  13  1   
 17  10  14  1   
 18  10  26  1   
 19  10  27  1   
 20  11  14  1   
 21  11  28  1   
 22  11  29  1   
 23  12  15  1   
 24  12  30  1   
 25  12  31  1   
 26  13  16  1   
 27  13  32  1   
 28  13  33  1   
 29  14  34  1   
 30  14  35  1   
 31  15  17  1   
 32  15  18  2   
 33  16  19  1   
 34  16  36  1   
 35  16  37  1   
 36  17  20  1   
 37  17  38  1   
 38  18  21  1   
 39  18  39  1   
 40  19  40  1   
 41  20  21  2   
 42  20  22  1   
 43  22  41  1   
 44  22  42  1   
 45  22  43  1   
@<TRIPOS>SUBSTRUCTURE
  1 ****   5 GROUP 4 **** **** 0

# MOE 2024.06 (io_trps.svl 2023.06)
