@<TRIPOS>MOLECULE
NONAME
54 56 1 0 0 
SMALL
USER_CHARGES


@<TRIPOS>ATOM
  1 O       -0.6970     0.1800     0.2420 O.2   1 <1>  -0.5700 
  2 C       -1.4930    -0.7180     0.0500 C.2   1 <1>   0.6340 
  3 O       -2.7950    -0.4660     0.2270 O.3   1 <1>  -0.4300 
  4 C       -1.1070    -2.0530    -0.3560 C.ar  1 <1>   0.0860 
  5 C       -3.2540     0.8090     0.6180 C.3   1 <1>   0.1200 
  6 C        0.2260    -2.3610    -0.6390 C.ar  1 <1>  -0.1500 
  7 C       -2.0350    -3.0900    -0.4870 C.ar  1 <1>  -0.1500 
  8 C       -4.7740     0.7510     0.7280 C.3   1 <1>  -0.2400 
  9 C        0.6300    -3.6290    -1.0150 C.ar  1 <1>   0.1000 
 10 C       -1.6490    -4.3620    -0.8680 C.ar  1 <1>  -0.1500 
 11 N        1.9670    -3.8910    -1.3110 N.pl3 1 <1>  -0.8690 
 12 C       -0.3210    -4.6580    -1.1290 C.ar  1 <1>   0.1000 
 13 C        2.9620    -3.6320    -0.2510 C.3   1 <1>   0.3530 
 14 N        0.0300    -5.9570    -1.5040 N.pl3 1 <1>  -0.8690 
 15 C        3.8460    -4.8560    -0.0730 C.ar  1 <1>  -0.1430 
 16 C        0.7160    -6.8120    -0.5200 C.3   1 <1>   0.2890 
 17 C        4.5540    -5.3710    -1.1500 C.ar  1 <1>  -0.1500 
 18 C        3.9670    -5.4620     1.1690 C.ar  1 <1>  -0.1500 
 19 C        1.5720    -7.8280    -1.2830 C.3   1 <1>  -0.1600 
 20 C       -0.3350    -7.5090     0.3510 C.3   1 <1>  -0.1600 
 21 C        5.3720    -6.4750    -0.9880 C.ar  1 <1>  -0.1500 
 22 C        4.7890    -6.5630     1.3340 C.ar  1 <1>  -0.1500 
 23 C        2.2110    -8.8540    -0.3350 C.3   1 <1>  -0.1600 
 24 C        0.3130    -8.5230     1.3060 C.3   1 <1>  -0.1600 
 25 C        5.4920    -7.0710     0.2550 C.ar  1 <1>  -0.1500 
 26 C        1.1540    -9.5470     0.5340 C.3   1 <1>  -0.1600 
 27 H       -2.9460     1.5250    -0.1250 H     1 <1>   0.0800 
 28 H       -2.8070     1.0560     1.5660 H     1 <1>   0.0800 
 29 H        0.9640    -1.5820    -0.5740 H     1 <1>   0.1500 
 30 H       -3.0750    -2.8990    -0.2880 H     1 <1>   0.1500 
 31 H       -5.2040     0.4920    -0.2230 H     1 <1>   0.0800 
 32 H       -5.1530     1.7120     1.0250 H     1 <1>   0.0800 
 33 H       -5.0650     0.0240     1.4650 H     1 <1>   0.0800 
 34 H       -2.3860    -5.1380    -0.9610 H     1 <1>   0.1500 
 35 H        2.0260    -4.8790    -1.6000 H     1 <1>   0.4000 
 36 H        2.4630    -3.3970     0.6740 H     1 <1>   0.0800 
 37 H        3.5660    -2.7880    -0.5350 H     1 <1>   0.0800 
 38 H       -0.7310    -6.4780    -1.9470 H     1 <1>   0.4000 
 39 H        1.3520    -6.2100     0.1070 H     1 <1>   0.0800 
 40 H        4.4670    -4.9080    -2.1190 H     1 <1>   0.1500 
 41 H        3.4240    -5.0790     2.0150 H     1 <1>   0.1500 
 42 H        2.3460    -7.3060    -1.8160 H     1 <1>   0.0800 
 43 H        0.9580    -8.3470    -1.9970 H     1 <1>   0.0800 
 44 H       -1.0380    -8.0240    -0.2790 H     1 <1>   0.0800 
 45 H       -0.8650    -6.7710     0.9250 H     1 <1>   0.0800 
 46 H        5.9160    -6.8680    -1.8280 H     1 <1>   0.1500 
 47 H        4.8810    -7.0270     2.3010 H     1 <1>   0.1500 
 48 H        2.9170    -8.3530     0.3020 H     1 <1>   0.0800 
 49 H        2.7500    -9.5880    -0.9090 H     1 <1>   0.0800 
 50 H       -0.4530    -9.0330     1.8660 H     1 <1>   0.0800 
 51 H        0.9420    -8.0010     2.0060 H     1 <1>   0.0800 
 52 H        6.1310    -7.9270     0.3830 H     1 <1>   0.1500 
 53 H        1.6390   -10.2120     1.2280 H     1 <1>   0.0800 
 54 H        0.5100   -10.1400    -0.0940 H     1 <1>   0.0800 
@<TRIPOS>BOND
  1   1   2  2   
  2   2   3  1   
  3   2   4  1   
  4   3   5  1   
  5   4   6  ar  
  6   4   7  ar  
  7   5   8  1   
  8   5  27  1   
  9   5  28  1   
 10   6   9  ar  
 11   6  29  1   
 12   7  10  ar  
 13   7  30  1   
 14   8  31  1   
 15   8  32  1   
 16   8  33  1   
 17   9  11  1   
 18   9  12  ar  
 19  10  12  ar  
 20  10  34  1   
 21  11  13  1   
 22  11  35  1   
 23  12  14  1   
 24  13  15  1   
 25  13  36  1   
 26  13  37  1   
 27  14  16  1   
 28  14  38  1   
 29  15  17  ar  
 30  15  18  ar  
 31  16  19  1   
 32  16  20  1   
 33  16  39  1   
 34  17  21  ar  
 35  17  40  1   
 36  18  22  ar  
 37  18  41  1   
 38  19  23  1   
 39  19  42  1   
 40  19  43  1   
 41  20  24  1   
 42  20  44  1   
 43  20  45  1   
 44  21  25  ar  
 45  21  46  1   
 46  22  25  ar  
 47  22  47  1   
 48  23  26  1   
 49  23  48  1   
 50  23  49  1   
 51  24  26  1   
 52  24  50  1   
 53  24  51  1   
 54  25  52  1   
 55  26  53  1   
 56  26  54  1   
@<TRIPOS>SUBSTRUCTURE
  1 ****   9 GROUP 4 **** **** 0

# MOE 2024.06 (io_trps.svl 2023.06)
