@<TRIPOS>MOLECULE
NONAME
50 53 1 0 0 
SMALL
USER_CHARGES


@<TRIPOS>ATOM
  1 O        2.6560     3.7790    -0.8080 O.3   1 <1>  -0.0190 
  2 N        3.7690     3.1150    -0.8380 N.2   1 <1>  -0.4100 
  3 C        1.6180     2.9910    -0.7140 C.2   1 <1>  -0.0400 
  4 C        3.4440     1.8720    -0.8010 C.2   1 <1>   0.1080 
  5 C        2.0610     1.7250    -0.7180 C.2   1 <1>  -0.1500 
  6 C        0.2340     3.6050    -0.6170 C.3   1 <1>   0.0200 
  7 C        4.4360     0.7300    -0.8400 C.3   1 <1>  -0.0590 
  8 C       -0.0740     4.2160     0.7770 C.3   1 <1>  -0.0800 
  9 C       -0.8060     5.5520     0.6330 C.3   1 <1>   0.2000 
 10 C        1.1700     4.6180     1.5780 C.3   1 <1>   0.3430 
 11 O       -1.5690     5.7710     1.7740 O.3   1 <1>  -0.6800 
 12 C        0.3100     6.6090     0.5460 C.3   1 <1>   0.3430 
 13 N        1.5640     5.9300     1.0120 N.4   1 <1>  -0.9590 
 14 C        2.4360     6.7650     1.8800 C.3   1 <1>   0.4860 
 15 C        2.8380     7.9890     1.0840 C.ar  1 <1>  -0.1440 
 16 C        3.7260     7.8650    -0.0140 C.ar  1 <1>   0.0000 
 17 C        2.3040     9.2030     1.4220 C.ar  1 <1>  -0.1500 
 18 C        3.9870     9.0110    -0.8070 C.ar  1 <1>   0.0000 
 19 C        4.3640     6.6500    -0.3650 C.ar  1 <1>  -0.1500 
 20 C        2.6000    10.3370     0.6660 C.ar  1 <1>  -0.1500 
 21 C        3.4150    10.2520    -0.4290 C.ar  1 <1>  -0.1440 
 22 C        4.8130     8.8590    -1.9450 C.ar  1 <1>  -0.1500 
 23 C        5.1580     6.5440    -1.4690 C.ar  1 <1>  -0.1500 
 24 C        3.7010    11.5170    -1.2290 C.3   1 <1>  -0.0970 
 25 C        5.3800     7.6620    -2.2740 C.ar  1 <1>  -0.1500 
 26 H        1.5210     0.7970    -0.6680 H     1 <1>   0.1500 
 27 H        0.1580     4.3480    -1.3930 H     1 <1>   0.0800 
 28 H       -0.5010     2.8490    -0.8370 H     1 <1>   0.0800 
 29 H        4.3100     0.1020     0.0220 H     1 <1>   0.0800 
 30 H        5.4410     1.1130    -0.8480 H     1 <1>   0.0800 
 31 H        4.2830     0.1450    -1.7290 H     1 <1>   0.0800 
 32 H       -0.6570     3.5030     1.3350 H     1 <1>   0.0800 
 33 H       -1.4730     5.5930    -0.2130 H     1 <1>   0.0800 
 34 H        1.9640     3.8910     1.5020 H     1 <1>   0.0800 
 35 H        0.9030     4.7340     2.6150 H     1 <1>   0.0800 
 36 H       -1.0730     5.6610     2.6070 H     1 <1>   0.4000 
 37 H        0.0630     7.4600     1.1590 H     1 <1>   0.0800 
 38 H        0.4360     6.9360    -0.4730 H     1 <1>   0.0800 
 39 H        2.1270     5.7420     0.1640 H     1 <1>   0.4500 
 40 H        1.9040     7.0610     2.7690 H     1 <1>   0.0800 
 41 H        3.3170     6.2160     2.1710 H     1 <1>   0.0800 
 42 H        1.6430     9.3230     2.2640 H     1 <1>   0.1500 
 43 H        4.2450     5.7720     0.2420 H     1 <1>   0.1500 
 44 H        2.1690    11.2780     0.9640 H     1 <1>   0.1500 
 45 H        5.0050     9.7090    -2.5730 H     1 <1>   0.1500 
 46 H        5.6250     5.6080    -1.7310 H     1 <1>   0.1500 
 47 H        3.2120    12.3710    -0.7960 H     1 <1>   0.0800 
 48 H        3.3460    11.4040    -2.2380 H     1 <1>   0.0800 
 49 H        4.7590    11.7110    -1.2460 H     1 <1>   0.0800 
 50 H        6.0050     7.5640    -3.1450 H     1 <1>   0.1500 
@<TRIPOS>BOND
  1   1   2  1   
  2   1   3  1   
  3   2   4  2   
  4   3   5  2   
  5   3   6  1   
  6   4   5  1   
  7   4   7  1   
  8   5  26  1   
  9   6   8  1   
 10   6  27  1   
 11   6  28  1   
 12   7  29  1   
 13   7  30  1   
 14   7  31  1   
 15   8   9  1   
 16   8  10  1   
 17   8  32  1   
 18   9  11  1   
 19   9  12  1   
 20   9  33  1   
 21  10  13  1   
 22  10  34  1   
 23  10  35  1   
 24  11  36  1   
 25  12  13  1   
 26  12  37  1   
 27  12  38  1   
 28  13  14  1   
 29  13  39  1   
 30  14  15  1   
 31  14  40  1   
 32  14  41  1   
 33  15  16  ar  
 34  15  17  ar  
 35  16  18  ar  
 36  16  19  ar  
 37  17  20  ar  
 38  17  42  1   
 39  18  21  ar  
 40  18  22  ar  
 41  19  23  ar  
 42  19  43  1   
 43  20  21  ar  
 44  20  44  1   
 45  21  24  1   
 46  22  25  ar  
 47  22  45  1   
 48  23  25  ar  
 49  23  46  1   
 50  24  47  1   
 51  24  48  1   
 52  24  49  1   
 53  25  50  1   
@<TRIPOS>SUBSTRUCTURE
  1 ****  13 GROUP 4 **** **** 0

# MOE 2024.06 (io_trps.svl 2023.06)
