@<TRIPOS>MOLECULE
NONAME
55 57 1 0 0 
SMALL
USER_CHARGES


@<TRIPOS>ATOM
  1 O       -1.3510     1.6440    -2.1420 O.2   1 <1>  -0.5700 
  2 C       -1.9950     1.4690    -1.1390 C.2   1 <1>   0.5690 
  3 N       -1.8240     2.2620    -0.0190 N.am  1 <1>  -0.6600 
  4 C       -3.0540     0.3770    -1.2010 C.3   1 <1>  -0.0990 
  5 C       -2.4170     1.9710     1.3310 C.3   1 <1>   0.1400 
  6 C       -0.7260     3.2820     0.0010 C.3   1 <1>   0.0600 
  7 C       -2.6980    -0.9260    -0.4430 C.3   1 <1>  -0.1600 
  8 C       -3.1150     3.1690     2.0110 C.3   1 <1>   0.3430 
  9 C       -3.9280    -1.8090    -0.1320 C.3   1 <1>   0.0960 
 10 N       -4.4650     3.5440     1.4680 N.4   1 <1>  -0.9590 
 11 N       -4.9620    -1.0400     0.5990 N.pl3 1 <1>   0.3140 
 12 C       -4.5270     3.6720    -0.0170 C.3   1 <1>   0.4860 
 13 C       -4.9880     4.7670     2.1510 C.3   1 <1>   0.2630 
 14 N       -4.7510    -0.5230     1.8160 N.2   1 <1>  -0.4180 
 15 C       -6.0510    -0.4790     0.0690 C.2   1 <1>  -0.3020 
 16 C       -5.9130     4.0520    -0.5340 C.ar  1 <1>  -0.1440 
 17 N       -5.6640     0.3500     2.0580 N.2   1 <1>  -0.2270 
 18 C       -6.4700     0.4020     0.9910 C.2   1 <1>   0.0460 
 19 C       -7.1070     3.5380    -0.0220 C.ar  1 <1>   0.0820 
 20 C       -5.9700     4.9450    -1.5940 C.ar  1 <1>  -0.1500 
 21 C       -7.6170     1.3890     0.9100 C.3   1 <1>   0.3010 
 22 O       -7.0540     2.6850     1.0340 O.3   1 <1>  -0.3630 
 23 C       -8.3410     3.9330    -0.5540 C.ar  1 <1>   0.0820 
 24 C       -7.1840     5.3280    -2.1330 C.ar  1 <1>  -0.1500 
 25 O       -9.4800     3.4350     0.0070 O.3   1 <1>  -0.3630 
 26 C       -8.3650     4.8270    -1.6190 C.ar  1 <1>  -0.1500 
 27 C      -10.7590     3.8960    -0.3750 C.3   1 <1>   0.0400 
 28 H       -3.2280     0.1330    -2.2340 H     1 <1>   0.0800 
 29 H       -3.9600     0.8100    -0.8380 H     1 <1>   0.0800 
 30 H       -1.6190     1.6410     1.9740 H     1 <1>   0.0800 
 31 H       -3.1160     1.1690     1.2730 H     1 <1>   0.0800 
 32 H       -0.2550     3.3700    -0.9630 H     1 <1>   0.0800 
 33 H        0.0290     2.9950     0.7130 H     1 <1>   0.0800 
 34 H       -1.1170     4.2480     0.2670 H     1 <1>   0.0800 
 35 H       -2.2010    -0.6990     0.4840 H     1 <1>   0.0800 
 36 H       -1.9970    -1.4900    -1.0340 H     1 <1>   0.0800 
 37 H       -2.4560     4.0190     1.9620 H     1 <1>   0.0800 
 38 H       -3.2360     2.9210     3.0530 H     1 <1>   0.0800 
 39 H       -3.6370    -2.6480     0.4740 H     1 <1>   0.0800 
 40 H       -4.3570    -2.1810    -1.0450 H     1 <1>   0.0800 
 41 H       -5.1350     2.7770     1.6800 H     1 <1>   0.4500 
 42 H       -4.2470     2.7380    -0.4670 H     1 <1>   0.0800 
 43 H       -3.8140     4.4120    -0.3400 H     1 <1>   0.0800 
 44 H       -4.3760     5.6220     1.9160 H     1 <1>   0.0800 
 45 H       -4.9950     4.6230     3.2190 H     1 <1>   0.0800 
 46 H       -5.9990     4.9690     1.8330 H     1 <1>   0.0800 
 47 H       -6.4300    -0.7090    -0.9090 H     1 <1>   0.1500 
 48 H       -5.0680     5.3540    -2.0210 H     1 <1>   0.1500 
 49 H       -8.3080     1.2430     1.7200 H     1 <1>   0.0800 
 50 H       -8.1310     1.2970    -0.0300 H     1 <1>   0.0800 
 51 H       -7.2120     6.0200    -2.9590 H     1 <1>   0.1500 
 52 H       -9.2890     5.1480    -2.0620 H     1 <1>   0.1500 
 53 H      -11.4900     3.4040     0.2410 H     1 <1>   0.0800 
 54 H      -10.9280     3.6470    -1.4080 H     1 <1>   0.0800 
 55 H      -10.8100     4.9590    -0.2210 H     1 <1>   0.0800 
@<TRIPOS>BOND
  1   1   2  2   
  2   2   3  am  
  3   2   4  1   
  4   3   5  1   
  5   3   6  1   
  6   4   7  1   
  7   4  28  1   
  8   4  29  1   
  9   5   8  1   
 10   5  30  1   
 11   5  31  1   
 12   6  32  1   
 13   6  33  1   
 14   6  34  1   
 15   7   9  1   
 16   7  35  1   
 17   7  36  1   
 18   8  10  1   
 19   8  37  1   
 20   8  38  1   
 21   9  11  1   
 22   9  39  1   
 23   9  40  1   
 24  10  12  1   
 25  10  13  1   
 26  10  41  1   
 27  11  14  1   
 28  11  15  1   
 29  12  16  1   
 30  12  42  1   
 31  12  43  1   
 32  13  44  1   
 33  13  45  1   
 34  13  46  1   
 35  14  17  2   
 36  15  18  2   
 37  15  47  1   
 38  16  19  ar  
 39  16  20  ar  
 40  17  18  1   
 41  18  21  1   
 42  19  22  1   
 43  19  23  ar  
 44  20  24  ar  
 45  20  48  1   
 46  21  22  1   
 47  21  49  1   
 48  21  50  1   
 49  23  25  1   
 50  23  26  ar  
 51  24  26  ar  
 52  24  51  1   
 53  25  27  1   
 54  26  52  1   
 55  27  53  1   
 56  27  54  1   
 57  27  55  1   
@<TRIPOS>SUBSTRUCTURE
  1 ****  12 GROUP 4 **** **** 0

# MOE 2024.06 (io_trps.svl 2023.06)
