@<TRIPOS>MOLECULE
NONAME
51 53 1 0 0 
SMALL
USER_CHARGES


@<TRIPOS>ATOM
  1 O       -1.5460     1.1770    -2.8150 O.2   1 <1>  -0.5700 
  2 C       -1.7450     1.7050    -1.7450 C.2   1 <1>   0.5690 
  3 N       -2.0410     0.9600    -0.6340 N.am  1 <1>  -0.6600 
  4 C       -1.6940     3.2180    -1.7030 C.3   1 <1>   0.1570 
  5 C       -2.2250     1.4670     0.7520 C.3   1 <1>   0.1400 
  6 C       -2.1610    -0.5180    -0.6720 C.3   1 <1>   0.1400 
  7 N       -0.6440     3.6990    -0.7920 N.pl3 1 <1>   0.3140 
  8 C       -2.7310     0.2620     1.5430 C.3   1 <1>   0.2000 
  9 C       -2.2160    -0.9640     0.7910 C.3   1 <1>  -0.0800 
 10 N       -0.9700     4.4480     0.2740 N.2   1 <1>  -0.7070 
 11 C        0.6870     3.5150    -0.8640 C.2   1 <1>  -0.3320 
 12 O       -2.2510     0.2650     2.8420 O.3   1 <1>  -0.6800 
 13 C       -3.0810    -2.2120     1.0220 C.3   1 <1>   0.0210 
 14 C        0.1490     4.7190     0.8570 C.2   1 <1>   0.1080 
 15 C        1.2580     4.1730     0.1900 C.2   1 <1>  -0.0860 
 16 C        1.3750     2.7070    -1.9580 C.3   1 <1>  -0.0600 
 17 C       -2.6220    -3.3670     0.1530 C.2   1 <1>   0.1080 
 18 C        0.1620     5.5230     2.1410 C.3   1 <1>  -0.0590 
 19 C        2.6510     4.2840     0.5460 C.2   1 <1>   0.5950 
 20 N       -1.5000    -3.9890     0.3420 N.2   1 <1>  -0.7070 
 21 C       -3.3300    -3.8760    -0.9310 C.2   1 <1>  -0.1500 
 22 O        3.4490     3.3920     0.4050 O.2   1 <1>  -0.5700 
 23 C        3.1880     5.5850     1.1010 C.3   1 <1>  -0.1790 
 24 N       -1.4620    -4.9230    -0.6270 N.pl3 1 <1>   0.3000 
 25 C       -2.5590    -4.8720    -1.4120 C.2   1 <1>  -0.3320 
 26 C       -2.8050    -5.7940    -2.5930 C.3   1 <1>  -0.0600 
 27 H       -2.6420     3.5960    -1.3730 H     1 <1>   0.0800 
 28 H       -1.4930     3.5990    -2.6850 H     1 <1>   0.0800 
 29 H       -1.2760     1.7990     1.1350 H     1 <1>   0.0800 
 30 H       -2.9380     2.2730     0.7770 H     1 <1>   0.0800 
 31 H       -3.0660    -0.7800    -1.1920 H     1 <1>   0.0800 
 32 H       -1.3200    -0.9590    -1.1820 H     1 <1>   0.0800 
 33 H       -3.8070     0.2800     1.5790 H     1 <1>   0.0800 
 34 H       -1.2050    -1.1770     1.0920 H     1 <1>   0.0800 
 35 H       -1.2790     0.1700     2.8420 H     1 <1>   0.4000 
 36 H       -4.1110    -1.9950     0.8060 H     1 <1>   0.0800 
 37 H       -3.0120    -2.5090     2.0540 H     1 <1>   0.0800 
 38 H        2.4430     2.8250    -1.9120 H     1 <1>   0.0800 
 39 H        1.0450     3.0260    -2.9300 H     1 <1>   0.0800 
 40 H        1.1510     1.6610    -1.8420 H     1 <1>   0.0800 
 41 H        0.8340     5.0820     2.8520 H     1 <1>   0.0800 
 42 H       -0.8240     5.5350     2.5690 H     1 <1>   0.0800 
 43 H        0.4560     6.5360     1.9380 H     1 <1>   0.0800 
 44 H       -4.2830    -3.5290    -1.2880 H     1 <1>   0.1500 
 45 H        2.6010     6.4120     0.7480 H     1 <1>   0.0800 
 46 H        4.2020     5.7210     0.7720 H     1 <1>   0.0800 
 47 H        3.1740     5.5550     2.1740 H     1 <1>   0.0800 
 48 H       -0.6760    -5.5770    -0.7240 H     1 <1>   0.2700 
 49 H       -3.7460    -5.5560    -3.0570 H     1 <1>   0.0800 
 50 H       -2.8340    -6.8180    -2.2660 H     1 <1>   0.0800 
 51 H       -2.0240    -5.6790    -3.3240 H     1 <1>   0.0800 
@<TRIPOS>BOND
  1   1   2  2   
  2   2   3  am  
  3   2   4  1   
  4   3   5  1   
  5   3   6  1   
  6   4   7  1   
  7   4  27  1   
  8   4  28  1   
  9   5   8  1   
 10   5  29  1   
 11   5  30  1   
 12   6   9  1   
 13   6  31  1   
 14   6  32  1   
 15   7  10  1   
 16   7  11  1   
 17   8   9  1   
 18   8  12  1   
 19   8  33  1   
 20   9  13  1   
 21   9  34  1   
 22  10  14  2   
 23  11  15  2   
 24  11  16  1   
 25  12  35  1   
 26  13  17  1   
 27  13  36  1   
 28  13  37  1   
 29  14  15  1   
 30  14  18  1   
 31  15  19  1   
 32  16  38  1   
 33  16  39  1   
 34  16  40  1   
 35  17  20  2   
 36  17  21  1   
 37  18  41  1   
 38  18  42  1   
 39  18  43  1   
 40  19  22  2   
 41  19  23  1   
 42  20  24  1   
 43  21  25  2   
 44  21  44  1   
 45  23  45  1   
 46  23  46  1   
 47  23  47  1   
 48  24  25  1   
 49  24  48  1   
 50  25  26  1   
 51  26  49  1   
 52  26  50  1   
 53  26  51  1   
@<TRIPOS>SUBSTRUCTURE
  1 ****   3 GROUP 4 **** **** 0

# MOE 2024.06 (io_trps.svl 2023.06)
