@<TRIPOS>MOLECULE
NONAME
41 42 1 0 0 
SMALL
USER_CHARGES


@<TRIPOS>ATOM
  1 S       -0.3960    -0.1400    -0.1280 S.o2  1 <1>   1.3330 
  2 O        1.0400    -0.0950    -0.2150 O.2   1 <1>  -0.6500 
  3 O       -1.2290     0.4210    -1.1630 O.2   1 <1>  -0.6500 
  4 N       -0.7560    -1.7670    -0.0310 N.am  1 <1>  -0.9140 
  5 C       -0.9280     0.4750     1.4540 C.3   1 <1>  -0.1350 
  6 C       -0.8390    -2.3810    -1.3710 C.3   1 <1>   0.2570 
  7 C       -1.0310    -3.9020    -1.3320 C.2   1 <1>   0.5690 
  8 O       -0.0760    -4.6000    -1.5820 O.2   1 <1>  -0.5700 
  9 N       -2.2470    -4.4410    -1.0040 N.am  1 <1>  -0.6600 
 10 C       -3.4460    -3.6750    -0.5760 C.3   1 <1>   0.1400 
 11 C       -2.4450    -5.8910    -0.7730 C.3   1 <1>   0.1400 
 12 C       -4.4620    -4.7360    -0.1510 C.3   1 <1>   0.2000 
 13 C       -3.6330    -5.9730     0.1840 C.3   1 <1>  -0.0800 
 14 O       -5.1890    -4.3330     0.9580 O.3   1 <1>  -0.6800 
 15 C       -4.4160    -7.2900     0.0850 C.3   1 <1>   0.0210 
 16 C       -3.5030    -8.4820     0.3010 C.2   1 <1>   0.1080 
 17 N       -2.6890    -8.5720     1.3070 N.2   1 <1>  -0.7070 
 18 C       -3.4210    -9.5860    -0.5410 C.2   1 <1>  -0.1500 
 19 N       -2.0570    -9.7470     1.1300 N.pl3 1 <1>   0.3000 
 20 C       -2.4830   -10.3800     0.0170 C.2   1 <1>  -0.3320 
 21 C       -1.9580   -11.7250    -0.4520 C.3   1 <1>  -0.0600 
 22 H        0.0740    -2.1800     0.3980 H     1 <1>   0.4200 
 23 H       -0.4020    -0.0230     2.2430 H     1 <1>   0.0800 
 24 H       -1.9800     0.3100     1.5780 H     1 <1>   0.0800 
 25 H       -0.7350     1.5280     1.5210 H     1 <1>   0.0800 
 26 H       -1.6590    -1.9500    -1.9180 H     1 <1>   0.0800 
 27 H        0.0650    -2.1730    -1.9180 H     1 <1>   0.0800 
 28 H       -3.1880    -3.0400     0.2540 H     1 <1>   0.0800 
 29 H       -3.8290    -3.0860    -1.3910 H     1 <1>   0.0800 
 30 H       -2.6680    -6.3700    -1.7110 H     1 <1>   0.0800 
 31 H       -1.5650    -6.3440    -0.3440 H     1 <1>   0.0800 
 32 H       -5.1490    -4.9260    -0.9580 H     1 <1>   0.0800 
 33 H       -3.2350    -5.8780     1.1800 H     1 <1>   0.0800 
 34 H       -4.6150    -4.3190     1.7480 H     1 <1>   0.4000 
 35 H       -4.8830    -7.3710    -0.8800 H     1 <1>   0.0800 
 36 H       -5.1870    -7.3070     0.8340 H     1 <1>   0.0800 
 37 H       -3.9910    -9.7450    -1.4380 H     1 <1>   0.1500 
 38 H       -1.3420   -10.0860     1.7850 H     1 <1>   0.2700 
 39 H       -2.4540   -12.0180    -1.3610 H     1 <1>   0.0800 
 40 H       -2.1400   -12.4770     0.2950 H     1 <1>   0.0800 
 41 H       -0.9010   -11.6660    -0.6420 H     1 <1>   0.0800 
@<TRIPOS>BOND
  1   1   2  2   
  2   1   3  2   
  3   1   4  am  
  4   1   5  1   
  5   4   6  1   
  6   4  22  1   
  7   5  23  1   
  8   5  24  1   
  9   5  25  1   
 10   6   7  1   
 11   6  26  1   
 12   6  27  1   
 13   7   8  2   
 14   7   9  am  
 15   9  10  1   
 16   9  11  1   
 17  10  12  1   
 18  10  28  1   
 19  10  29  1   
 20  11  13  1   
 21  11  30  1   
 22  11  31  1   
 23  12  13  1   
 24  12  14  1   
 25  12  32  1   
 26  13  15  1   
 27  13  33  1   
 28  14  34  1   
 29  15  16  1   
 30  15  35  1   
 31  15  36  1   
 32  16  17  2   
 33  16  18  1   
 34  17  19  1   
 35  18  20  2   
 36  18  37  1   
 37  19  20  1   
 38  19  38  1   
 39  20  21  1   
 40  21  39  1   
 41  21  40  1   
 42  21  41  1   
@<TRIPOS>SUBSTRUCTURE
  1 ****  11 GROUP 4 **** **** 0

# MOE 2024.06 (io_trps.svl 2023.06)
