@<TRIPOS>MOLECULE
NONAME
38 40 1 0 0 
SMALL
USER_CHARGES


@<TRIPOS>ATOM
  1 F        1.8910    -0.9690     2.1350 F     1 <1>  -0.3400 
  2 C        2.4800    -1.3620     1.0120 C.3   1 <1>   1.1640 
  3 F        3.5370    -2.0770     1.3730 F     1 <1>  -0.3400 
  4 F        2.9520    -0.2630     0.4360 F     1 <1>  -0.3400 
  5 C        1.5450    -2.1500     0.0880 C.ar  1 <1>  -0.1440 
  6 C        0.4620    -2.8620     0.5640 C.ar  1 <1>  -0.1500 
  7 C        1.7370    -2.2020    -1.2850 C.ar  1 <1>  -0.1500 
  8 C       -0.3600    -3.5670    -0.3060 C.ar  1 <1>   0.4100 
  9 C        0.8650    -2.9320    -2.0720 C.ar  1 <1>   0.1600 
 10 N       -0.1730    -3.6100    -1.6190 N.ar  1 <1>  -0.6200 
 11 N       -1.4260    -4.2740     0.2030 N.pl3 1 <1>  -0.8380 
 12 C       -2.7650    -3.9580    -0.3740 C.3   1 <1>   0.2090 
 13 C       -1.2500    -5.7540     0.2230 C.3   1 <1>   0.2090 
 14 C       -3.2950    -5.2770    -0.9320 C.3   1 <1>   0.2000 
 15 C       -2.6190    -6.3550    -0.0970 C.3   1 <1>  -0.0800 
 16 O       -4.6760    -5.3810    -0.8140 O.3   1 <1>  -0.6800 
 17 C       -2.5550    -7.7100    -0.8210 C.3   1 <1>  -0.0170 
 18 C       -1.9820    -8.8020     0.0690 C.ar  1 <1>   0.1670 
 19 N       -0.6660    -8.8230     0.2140 N.ar  1 <1>  -0.6200 
 20 C       -2.8370    -9.7160     0.6840 C.ar  1 <1>   0.1600 
 21 C       -0.2680    -9.8080     1.0030 C.ar  1 <1>   0.1600 
 22 N       -2.4410   -10.6990     1.4760 N.ar  1 <1>  -0.6200 
 23 C       -1.1260   -10.7140     1.6130 C.ar  1 <1>   0.1600 
 24 H        0.2220    -2.8940     1.6120 H     1 <1>   0.1500 
 25 H        2.5580    -1.6820    -1.7480 H     1 <1>   0.1500 
 26 H        1.0310    -2.9590    -3.1360 H     1 <1>   0.1500 
 27 H       -3.4000    -3.5930     0.4120 H     1 <1>   0.0800 
 28 H       -2.6940    -3.2180    -1.1540 H     1 <1>   0.0800 
 29 H       -0.5280    -6.0450    -0.5230 H     1 <1>   0.0800 
 30 H       -0.9010    -6.0800     1.1880 H     1 <1>   0.0800 
 31 H       -3.0290    -5.3600    -1.9720 H     1 <1>   0.0800 
 32 H       -3.1440    -6.4670     0.8350 H     1 <1>   0.0800 
 33 H       -4.9460    -5.2770     0.1190 H     1 <1>   0.4000 
 34 H       -1.9490    -7.6250    -1.7070 H     1 <1>   0.0800 
 35 H       -3.5450    -7.9880    -1.1360 H     1 <1>   0.0800 
 36 H       -3.8950    -9.6300     0.5150 H     1 <1>   0.1500 
 37 H        0.7890    -9.9030     1.1740 H     1 <1>   0.1500 
 38 H       -0.7070   -11.4820     2.2380 H     1 <1>   0.1500 
@<TRIPOS>BOND
  1   1   2  1   
  2   2   3  1   
  3   2   4  1   
  4   2   5  1   
  5   5   6  ar  
  6   5   7  ar  
  7   6   8  ar  
  8   6  24  1   
  9   7   9  ar  
 10   7  25  1   
 11   8  10  ar  
 12   8  11  1   
 13   9  10  ar  
 14   9  26  1   
 15  11  12  1   
 16  11  13  1   
 17  12  14  1   
 18  12  27  1   
 19  12  28  1   
 20  13  15  1   
 21  13  29  1   
 22  13  30  1   
 23  14  15  1   
 24  14  16  1   
 25  14  31  1   
 26  15  17  1   
 27  15  32  1   
 28  16  33  1   
 29  17  18  1   
 30  17  34  1   
 31  17  35  1   
 32  18  19  ar  
 33  18  20  ar  
 34  19  21  ar  
 35  20  22  ar  
 36  20  36  1   
 37  21  23  ar  
 38  21  37  1   
 39  22  23  ar  
 40  23  38  1   
@<TRIPOS>SUBSTRUCTURE
  1 ****  13 GROUP 4 **** **** 0

# MOE 2024.06 (io_trps.svl 2023.06)
