@<TRIPOS>MOLECULE
NONAME
50 52 1 0 0 
SMALL
USER_CHARGES


@<TRIPOS>ATOM
  1 S       -1.2440    -0.7910    -0.0630 S.3   1 <1>  -0.0800 
  2 C       -1.2210    -1.9920    -1.3120 C.2   1 <1>   0.4420 
  3 C       -0.6750     0.3400    -1.2420 C.2   1 <1>   0.1980 
  4 N       -0.8250    -1.5150    -2.4360 N.2   1 <1>  -0.3380 
  5 N       -1.6150    -3.2610    -0.9530 N.am  1 <1>  -0.4940 
  6 N       -0.5160    -0.1830    -2.3880 N.2   1 <1>  -0.3380 
  7 C       -0.4390     1.7750    -0.8100 C.3   1 <1>   0.0200 
  8 C       -1.7540    -4.3900    -1.7080 C.2   1 <1>   0.5690 
  9 C        0.8100     1.9030     0.0740 C.3   1 <1>  -0.1600 
 10 O       -1.5450    -4.4370    -2.8940 O.2   1 <1>  -0.5700 
 11 C       -2.1960    -5.6700    -0.9980 C.3   1 <1>   0.2010 
 12 C        1.0610     3.3590     0.4880 C.3   1 <1>  -0.1600 
 13 N       -3.4850    -5.5250    -0.2470 N.am  1 <1>  -0.6600 
 14 C        2.3080     3.4730     1.3710 C.3   1 <1>  -0.1600 
 15 C       -3.6670    -4.8170     0.8860 C.2   1 <1>   0.5690 
 16 C       -4.7340    -6.1310    -0.7410 C.3   1 <1>   0.1400 
 17 C        2.5580     4.9250     1.7860 C.3   1 <1>  -0.2400 
 18 O       -2.8090    -4.1670     1.4320 O.2   1 <1>  -0.5700 
 19 C       -5.0910    -4.8890     1.3580 C.3   1 <1>  -0.0990 
 20 C       -5.7460    -5.9020     0.3980 C.3   1 <1>   0.0630 
 21 C       -6.0740    -7.2120     1.1130 C.ar  1 <1>  -0.1440 
 22 C       -5.0750    -7.9760     1.7030 C.ar  1 <1>  -0.1500 
 23 C       -7.3870    -7.6560     1.1780 C.ar  1 <1>  -0.1500 
 24 C       -5.3840    -9.1620     2.3450 C.ar  1 <1>  -0.1500 
 25 C       -7.6970    -8.8420     1.8200 C.ar  1 <1>  -0.1500 
 26 C       -6.6950    -9.5970     2.4040 C.ar  1 <1>  -0.1500 
 27 H       -1.8960    -3.3730     0.0290 H     1 <1>   0.3700 
 28 H       -1.3060     2.1280    -0.2800 H     1 <1>   0.0800 
 29 H       -0.3180     2.3790    -1.6920 H     1 <1>   0.0800 
 30 H        1.6620     1.5310    -0.4700 H     1 <1>   0.0800 
 31 H        0.6880     1.2970     0.9550 H     1 <1>   0.0800 
 32 H       -1.4230    -5.9560    -0.3080 H     1 <1>   0.0800 
 33 H       -2.2930    -6.4530    -1.7280 H     1 <1>   0.0800 
 34 H        0.2070     3.7320     1.0280 H     1 <1>   0.0800 
 35 H        1.1910     3.9660    -0.3930 H     1 <1>   0.0800 
 36 H        3.1670     3.1060     0.8340 H     1 <1>   0.0800 
 37 H        2.1840     2.8690     2.2540 H     1 <1>   0.0800 
 38 H       -4.5980    -7.1800    -0.9440 H     1 <1>   0.0800 
 39 H       -5.0480    -5.6260    -1.6390 H     1 <1>   0.0800 
 40 H        2.7080     5.5440     0.9190 H     1 <1>   0.0800 
 41 H        3.4370     4.9850     2.4040 H     1 <1>   0.0800 
 42 H        1.7210     5.3070     2.3450 H     1 <1>   0.0800 
 43 H       -5.5420    -3.9200     1.2610 H     1 <1>   0.0800 
 44 H       -5.1330    -5.2080     2.3840 H     1 <1>   0.0800 
 45 H       -6.6480    -5.4840    -0.0120 H     1 <1>   0.0800 
 46 H       -4.0490    -7.6540     1.6680 H     1 <1>   0.1500 
 47 H       -8.1820    -7.0830     0.7320 H     1 <1>   0.1500 
 48 H       -4.6030    -9.7470     2.7990 H     1 <1>   0.1500 
 49 H       -8.7180    -9.1790     1.8670 H     1 <1>   0.1500 
 50 H       -6.9360   -10.5190     2.9030 H     1 <1>   0.1500 
@<TRIPOS>BOND
  1   1   2  1   
  2   1   3  1   
  3   2   4  2   
  4   2   5  1   
  5   3   6  2   
  6   3   7  1   
  7   4   6  1   
  8   5   8  am  
  9   5  27  1   
 10   7   9  1   
 11   7  28  1   
 12   7  29  1   
 13   8  10  2   
 14   8  11  1   
 15   9  12  1   
 16   9  30  1   
 17   9  31  1   
 18  11  13  1   
 19  11  32  1   
 20  11  33  1   
 21  12  14  1   
 22  12  34  1   
 23  12  35  1   
 24  13  15  am  
 25  13  16  1   
 26  14  17  1   
 27  14  36  1   
 28  14  37  1   
 29  15  18  2   
 30  15  19  1   
 31  16  20  1   
 32  16  38  1   
 33  16  39  1   
 34  17  40  1   
 35  17  41  1   
 36  17  42  1   
 37  19  20  1   
 38  19  43  1   
 39  19  44  1   
 40  20  21  1   
 41  20  45  1   
 42  21  22  ar  
 43  21  23  ar  
 44  22  24  ar  
 45  22  46  1   
 46  23  25  ar  
 47  23  47  1   
 48  24  26  ar  
 49  24  48  1   
 50  25  26  ar  
 51  25  49  1   
 52  26  50  1   
@<TRIPOS>SUBSTRUCTURE
  1 ****   5 GROUP 4 **** **** 0

# MOE 2024.06 (io_trps.svl 2023.06)
