@<TRIPOS>MOLECULE
NONAME
49 51 1 0 0 
SMALL
USER_CHARGES


@<TRIPOS>ATOM
  1 O        3.6770    -1.2500    -1.8910 O.2   1 <1>  -0.5700 
  2 C        2.9370    -1.2430    -0.9220 C.2   1 <1>   0.7160 
  3 N        2.9520    -0.0960    -0.1670 N.am  1 <1>  -0.6600 
  4 C        2.2190    -2.4240    -0.4800 C.2   1 <1>  -0.0860 
  5 C        3.5720    -0.2170     1.1950 C.3   1 <1>   0.2200 
  6 C        2.9470     1.2360    -0.8500 C.3   1 <1>   0.1400 
  7 C        2.5890    -3.7470    -0.5840 C.2   1 <1>  -0.3320 
  8 C        0.9710    -2.4490     0.1730 C.2   1 <1>  -0.1810 
  9 C        3.1700     0.9180     2.1510 C.3   1 <1>   0.1200 
 10 C        5.1160    -0.3200     1.0720 C.3   1 <1>   0.3430 
 11 C        4.0640     2.1980    -0.4010 C.3   1 <1>  -0.0800 
 12 N        1.6480    -4.5300    -0.0280 N.pl3 1 <1>   0.0330 
 13 C        3.8330    -4.3550    -1.2150 C.3   1 <1>  -0.0600 
 14 C        0.6390    -3.7500     0.4640 C.2   1 <1>  -0.2370 
 15 C        0.1140    -1.2270     0.4750 C.3   1 <1>  -0.0590 
 16 O        4.0270     2.0110     2.0070 O.3   1 <1>  -0.5600 
 17 N        5.6380     0.1680    -0.2580 N.4   1 <1>  -0.9590 
 18 C        3.7460     2.8620     0.9480 C.3   1 <1>   0.1200 
 19 C        5.5060     1.6470    -0.4560 C.3   1 <1>   0.3430 
 20 C       -0.5030    -4.3010     1.1450 C.2   1 <1>   0.5940 
 21 C        7.0310    -0.2950    -0.5070 C.3   1 <1>   0.2630 
 22 O       -1.2930    -3.6440     1.7740 O.2   1 <1>  -0.5700 
 23 C       -0.7430    -5.7960     1.1010 C.3   1 <1>  -0.1790 
 24 H        3.2140    -1.1280     1.6440 H     1 <1>   0.0800 
 25 H        3.0250     1.0910    -1.9160 H     1 <1>   0.0800 
 26 H        1.9900     1.6990    -0.6760 H     1 <1>   0.0800 
 27 H        3.2800     0.5770     3.1660 H     1 <1>   0.0800 
 28 H        2.1460     1.2210     2.0090 H     1 <1>   0.0800 
 29 H        5.3820    -1.3560     1.1930 H     1 <1>   0.0800 
 30 H        5.5790     0.2280     1.8770 H     1 <1>   0.0800 
 31 H        4.0380     3.0100    -1.1050 H     1 <1>   0.0800 
 32 H        1.6780    -5.5550     0.0190 H     1 <1>   0.2700 
 33 H        4.5280    -3.5980    -1.5250 H     1 <1>   0.0800 
 34 H        3.5590    -4.9310    -2.0810 H     1 <1>   0.0800 
 35 H        4.3290    -5.0010    -0.5120 H     1 <1>   0.0800 
 36 H        0.2100    -0.4970    -0.3080 H     1 <1>   0.0800 
 37 H        0.4110    -0.7880     1.4090 H     1 <1>   0.0800 
 38 H       -0.9250    -1.4950     0.5380 H     1 <1>   0.0800 
 39 H        5.0130    -0.2740    -0.9700 H     1 <1>   0.4500 
 40 H        2.7160     3.1740     1.0100 H     1 <1>   0.0800 
 41 H        4.3650     3.7340     1.0800 H     1 <1>   0.0800 
 42 H        6.1020     2.1620     0.2800 H     1 <1>   0.0800 
 43 H        5.9110     1.8900    -1.4250 H     1 <1>   0.0800 
 44 H        7.7040     0.1350     0.2170 H     1 <1>   0.0800 
 45 H        7.3500    -0.0040    -1.4950 H     1 <1>   0.0800 
 46 H        7.0840    -1.3700    -0.4360 H     1 <1>   0.0800 
 47 H       -0.7030    -6.1460     0.0870 H     1 <1>   0.0800 
 48 H       -1.7150    -6.0180     1.5010 H     1 <1>   0.0800 
 49 H       -0.0030    -6.3010     1.6930 H     1 <1>   0.0800 
@<TRIPOS>BOND
  1   1   2  2   
  2   2   3  am  
  3   2   4  1   
  4   3   5  1   
  5   3   6  1   
  6   4   7  2   
  7   4   8  1   
  8   5   9  1   
  9   5  10  1   
 10   5  24  1   
 11   6  11  1   
 12   6  25  1   
 13   6  26  1   
 14   7  12  1   
 15   7  13  1   
 16   8  14  2   
 17   8  15  1   
 18   9  16  1   
 19   9  27  1   
 20   9  28  1   
 21  10  17  1   
 22  10  29  1   
 23  10  30  1   
 24  11  18  1   
 25  11  19  1   
 26  11  31  1   
 27  12  14  1   
 28  12  32  1   
 29  13  33  1   
 30  13  34  1   
 31  13  35  1   
 32  14  20  1   
 33  15  36  1   
 34  15  37  1   
 35  15  38  1   
 36  16  18  1   
 37  17  19  1   
 38  17  21  1   
 39  17  39  1   
 40  18  40  1   
 41  18  41  1   
 42  19  42  1   
 43  19  43  1   
 44  20  22  2   
 45  20  23  1   
 46  21  44  1   
 47  21  45  1   
 48  21  46  1   
 49  23  47  1   
 50  23  48  1   
 51  23  49  1   
@<TRIPOS>SUBSTRUCTURE
  1 ****   2 GROUP 4 **** **** 0

# MOE 2024.06 (io_trps.svl 2023.06)
