@<TRIPOS>MOLECULE
NONAME
53 56 1 0 0 
SMALL
USER_CHARGES


@<TRIPOS>ATOM
  1 O       -3.1140     0.9470     1.5460 O.2   1 <1>  -0.5700 
  2 C       -2.2690     1.5770     0.9470 C.2   1 <1>   0.6900 
  3 N       -2.4930     2.2690    -0.2060 N.am  1 <1>  -0.4200 
  4 N       -0.9730     1.6180     1.3050 N.am  1 <1>  -0.7300 
  5 C       -1.3100     2.7410    -0.6870 C.2   1 <1>   0.5690 
  6 C       -3.8060     2.3800    -0.8990 C.3   1 <1>   0.2010 
  7 C       -0.1850     2.3150     0.2800 C.3   1 <1>   0.3610 
  8 O       -1.1650     3.3820    -1.6990 O.2   1 <1>  -0.5700 
  9 C       -4.2310     1.0790    -1.5750 C.2   1 <1>   0.5690 
 10 C        0.7980     1.3230    -0.3440 C.3   1 <1>  -0.2400 
 11 C        0.5330     3.4980     0.9320 C.3   1 <1>  -0.2400 
 12 O       -4.5470     1.0960    -2.7390 O.2   1 <1>  -0.5700 
 13 N       -4.2510    -0.0710    -0.8540 N.am  1 <1>  -0.7300 
 14 C       -4.5420    -1.4200    -1.3850 C.3   1 <1>   0.2200 
 15 C       -5.5550    -2.1050    -0.4840 C.3   1 <1>  -0.0800 
 16 C       -3.3090    -2.3130    -1.2310 C.3   1 <1>   0.1200 
 17 C       -4.6480    -2.6690     0.6100 C.3   1 <1>   0.1200 
 18 C       -6.3130    -3.2150    -1.2400 C.3   1 <1>  -0.0170 
 19 O       -3.4420    -2.9920    -0.0150 O.3   1 <1>  -0.5600 
 20 C       -7.3600    -3.8940    -0.3610 C.ar  1 <1>  -0.1440 
 21 C       -8.6100    -3.2990    -0.0670 C.ar  1 <1>   0.0000 
 22 C       -7.1070    -5.1240     0.1720 C.ar  1 <1>  -0.1500 
 23 C       -9.5020    -4.0210     0.7640 C.ar  1 <1>   0.3100 
 24 C       -9.0290    -2.0370    -0.5500 C.ar  1 <1>  -0.1500 
 25 C       -8.0610    -5.7530     0.9810 C.ar  1 <1>   0.1600 
 26 N       -9.2130    -5.2430     1.2780 N.ar  1 <1>  -0.6200 
 27 C      -10.7490    -3.4550     1.0740 C.ar  1 <1>  -0.1500 
 28 C      -10.2530    -1.5150    -0.2280 C.ar  1 <1>  -0.1500 
 29 C      -11.1250    -2.2300     0.5950 C.ar  1 <1>  -0.1500 
 30 H       -0.5660     0.9730     1.9820 H     1 <1>   0.3700 
 31 H       -4.5580     2.6580    -0.1830 H     1 <1>   0.0800 
 32 H       -3.7500     3.1530    -1.6450 H     1 <1>   0.0800 
 33 H        1.3370     1.8040    -1.1410 H     1 <1>   0.0800 
 34 H        0.2720     0.4800    -0.7560 H     1 <1>   0.0800 
 35 H        1.5070     0.9790     0.3870 H     1 <1>   0.0800 
 36 H        1.0650     4.0560     0.1820 H     1 <1>   0.0800 
 37 H        1.2370     3.1560     1.6680 H     1 <1>   0.0800 
 38 H       -0.1780     4.1560     1.3990 H     1 <1>   0.0800 
 39 H       -3.9500    -0.0440     0.1330 H     1 <1>   0.3700 
 40 H       -4.8640    -1.3550    -2.4110 H     1 <1>   0.0800 
 41 H       -6.2580    -1.4020    -0.0750 H     1 <1>   0.0800 
 42 H       -2.3930    -1.7490    -1.2290 H     1 <1>   0.0800 
 43 H       -3.2780    -3.0520    -2.0110 H     1 <1>   0.0800 
 44 H       -5.0470    -3.5440     1.0910 H     1 <1>   0.0800 
 45 H       -4.4370    -1.9190     1.3540 H     1 <1>   0.0800 
 46 H       -5.6140    -3.9530    -1.5920 H     1 <1>   0.0800 
 47 H       -6.7950    -2.8060    -2.1100 H     1 <1>   0.0800 
 48 H       -6.1800    -5.6370    -0.0100 H     1 <1>   0.1500 
 49 H       -8.3760    -1.4710    -1.1860 H     1 <1>   0.1500 
 50 H       -7.8180    -6.7230     1.3810 H     1 <1>   0.1500 
 51 H      -11.4040    -4.0240     1.7080 H     1 <1>   0.1500 
 52 H      -10.5580    -0.5530    -0.6030 H     1 <1>   0.1500 
 53 H      -12.0850    -1.8100     0.8410 H     1 <1>   0.1500 
@<TRIPOS>BOND
  1   1   2  2   
  2   2   3  am  
  3   2   4  am  
  4   3   5  am  
  5   3   6  1   
  6   4   7  1   
  7   4  30  1   
  8   5   7  1   
  9   5   8  2   
 10   6   9  1   
 11   6  31  1   
 12   6  32  1   
 13   7  10  1   
 14   7  11  1   
 15   9  12  2   
 16   9  13  am  
 17  10  33  1   
 18  10  34  1   
 19  10  35  1   
 20  11  36  1   
 21  11  37  1   
 22  11  38  1   
 23  13  14  1   
 24  13  39  1   
 25  14  15  1   
 26  14  16  1   
 27  14  40  1   
 28  15  17  1   
 29  15  18  1   
 30  15  41  1   
 31  16  19  1   
 32  16  42  1   
 33  16  43  1   
 34  17  19  1   
 35  17  44  1   
 36  17  45  1   
 37  18  20  1   
 38  18  46  1   
 39  18  47  1   
 40  20  21  ar  
 41  20  22  ar  
 42  21  23  ar  
 43  21  24  ar  
 44  22  25  ar  
 45  22  48  1   
 46  23  26  ar  
 47  23  27  ar  
 48  24  28  ar  
 49  24  49  1   
 50  25  26  ar  
 51  25  50  1   
 52  27  29  ar  
 53  27  51  1   
 54  28  29  ar  
 55  28  52  1   
 56  29  53  1   
@<TRIPOS>SUBSTRUCTURE
  1 ****  15 GROUP 4 **** **** 0

# MOE 2024.06 (io_trps.svl 2023.06)
