@<TRIPOS>MOLECULE
NONAME
48 51 1 0 0 
SMALL
USER_CHARGES


@<TRIPOS>ATOM
  1 S       -0.1270    -0.3230     0.3190 S.3   1 <1>  -0.0800 
  2 C        1.5050    -0.8050    -0.0950 C.2   1 <1>  -0.1400 
  3 C        0.4720     1.1380     1.0870 C.2   1 <1>  -0.1100 
  4 C        2.4040     0.1010     0.3200 C.2   1 <1>  -0.1810 
  5 C        1.7610    -2.1030    -0.8280 C.3   1 <1>   0.0200 
  6 C        1.8150     1.2190     1.0040 C.2   1 <1>  -0.1810 
  7 C        3.8950    -0.0940     0.0790 C.3   1 <1>   0.0210 
  8 C        3.2630    -2.4350    -0.7560 C.3   1 <1>  -0.1600 
  9 C        2.6500     2.3580     1.5600 C.3   1 <1>   0.3900 
 10 C        4.1440    -1.1880    -0.9800 C.3   1 <1>  -0.1600 
 11 N        3.0720     3.1920     0.4190 N.pl3 1 <1>  -0.8690 
 12 C        4.3380     3.6810     0.2680 C.ar  1 <1>   0.4100 
 13 N        5.1330     3.6790     1.3300 N.ar  1 <1>  -0.6200 
 14 C        4.7470     4.1510    -0.9770 C.ar  1 <1>  -0.1500 
 15 C        6.3550     4.1490     1.1460 C.ar  1 <1>   0.1600 
 16 C        6.0190     4.6400    -1.1480 C.ar  1 <1>  -0.1500 
 17 C        6.8690     4.6540    -0.0450 C.ar  1 <1>   0.0860 
 18 C        8.2250     5.1480    -0.1050 C.2   1 <1>   0.5440 
 19 O        9.1030     4.5330     0.4710 O.2   1 <1>  -0.5700 
 20 N        8.5610     6.3010    -0.7830 N.am  1 <1>  -0.6600 
 21 C        9.9820     6.6460    -1.0980 C.3   1 <1>   0.1400 
 22 C        7.6230     7.4450    -0.9950 C.3   1 <1>   0.1400 
 23 C       10.3820     7.9650    -0.4180 C.3   1 <1>   0.1200 
 24 C        8.1660     8.7250    -0.3340 C.3   1 <1>   0.1200 
 25 O        9.4780     8.9820    -0.7480 O.3   1 <1>  -0.5600 
 26 H       -0.2600     1.7950     1.5240 H     1 <1>   0.1500 
 27 H        1.4550    -1.9880    -1.8530 H     1 <1>   0.0800 
 28 H        1.1880    -2.8970    -0.3850 H     1 <1>   0.0800 
 29 H        4.3590    -0.3740     1.0080 H     1 <1>   0.0800 
 30 H        4.3430     0.8240    -0.2560 H     1 <1>   0.0800 
 31 H        3.4990    -3.1890    -1.4870 H     1 <1>   0.0800 
 32 H        3.4810    -2.8400     0.2170 H     1 <1>   0.0800 
 33 H        3.4960     1.9630     2.0970 H     1 <1>   0.0800 
 34 H        2.0640     2.9560     2.2350 H     1 <1>   0.0800 
 35 H        5.1830    -1.4660    -0.9640 H     1 <1>   0.0800 
 36 H        3.9270    -0.7820    -1.9530 H     1 <1>   0.0800 
 37 H        2.5630     2.9260    -0.4250 H     1 <1>   0.4000 
 38 H        4.0550     4.1230    -1.7970 H     1 <1>   0.1500 
 39 H        7.0100     4.1370     2.0010 H     1 <1>   0.1500 
 40 H        6.3600     4.9990    -2.1030 H     1 <1>   0.1500 
 41 H       10.0920     6.7520    -2.1630 H     1 <1>   0.0800 
 42 H       10.6470     5.8640    -0.7770 H     1 <1>   0.0800 
 43 H        6.6550     7.2270    -0.5790 H     1 <1>   0.0800 
 44 H        7.5050     7.6170    -2.0500 H     1 <1>   0.0800 
 45 H       11.3580     8.2720    -0.7490 H     1 <1>   0.0800 
 46 H       10.3990     7.8470     0.6510 H     1 <1>   0.0800 
 47 H        8.1570     8.6300     0.7390 H     1 <1>   0.0800 
 48 H        7.5630     9.5710    -0.6100 H     1 <1>   0.0800 
@<TRIPOS>BOND
  1   1   2  1   
  2   1   3  1   
  3   2   4  2   
  4   2   5  1   
  5   3   6  2   
  6   3  26  1   
  7   4   6  1   
  8   4   7  1   
  9   5   8  1   
 10   5  27  1   
 11   5  28  1   
 12   6   9  1   
 13   7  10  1   
 14   7  29  1   
 15   7  30  1   
 16   8  10  1   
 17   8  31  1   
 18   8  32  1   
 19   9  11  1   
 20   9  33  1   
 21   9  34  1   
 22  10  35  1   
 23  10  36  1   
 24  11  12  1   
 25  11  37  1   
 26  12  13  ar  
 27  12  14  ar  
 28  13  15  ar  
 29  14  16  ar  
 30  14  38  1   
 31  15  17  ar  
 32  15  39  1   
 33  16  17  ar  
 34  16  40  1   
 35  17  18  1   
 36  18  19  2   
 37  18  20  am  
 38  20  21  1   
 39  20  22  1   
 40  21  23  1   
 41  21  41  1   
 42  21  42  1   
 43  22  24  1   
 44  22  43  1   
 45  22  44  1   
 46  23  25  1   
 47  23  45  1   
 48  23  46  1   
 49  24  25  1   
 50  24  47  1   
 51  24  48  1   
@<TRIPOS>SUBSTRUCTURE
  1 ****  12 GROUP 4 **** **** 0

# MOE 2024.06 (io_trps.svl 2023.06)
