@<TRIPOS>MOLECULE
NONAME
52 54 1 0 0 
SMALL
USER_CHARGES


@<TRIPOS>ATOM
  1 O       -0.4580     6.6660     2.7410 O.co2 1 <1>  -0.9000 
  2 C       -1.2200     5.7970     2.2570 C.2   1 <1>   0.9790 
  3 O       -2.2160     5.4560     2.9190 O.co2 1 <1>  -0.9000 
  4 C       -0.9590     5.2120     0.9390 C.ar  1 <1>   0.1310 
  5 N        0.1140     5.5950     0.2310 N.ar  1 <1>  -0.6200 
  6 C       -1.8400     4.2590     0.4280 C.ar  1 <1>   0.1600 
  7 C        0.2710     5.0280    -0.9390 C.ar  1 <1>   0.4100 
  8 N       -1.7160     3.6610    -0.7540 N.ar  1 <1>  -0.6200 
  9 N        1.4030     5.4880    -1.6210 N.pl3 1 <1>  -0.8380 
 10 C       -0.6460     4.0720    -1.4080 C.ar  1 <1>   0.1600 
 11 C        2.7180     5.5470    -0.8520 C.3   1 <1>   0.2090 
 12 C        1.5470     5.2040    -3.0780 C.3   1 <1>   0.1290 
 13 C        2.9600     6.7810     0.1100 C.3   1 <1>   0.5030 
 14 N        1.8300     7.7710    -0.0490 N.4   1 <1>  -0.9590 
 15 C        4.3000     7.4830    -0.2340 C.3   1 <1>  -0.1600 
 16 C        3.0580     6.2760     1.5790 C.3   1 <1>  -0.1600 
 17 C        1.8320     8.5410    -1.3210 C.3   1 <1>   0.3430 
 18 C        1.4030     8.5690     1.1460 C.3   1 <1>   0.3430 
 19 C        5.5500     6.6260     0.0500 C.3   1 <1>  -0.1600 
 20 C        4.2880     5.3940     1.8630 C.3   1 <1>  -0.1600 
 21 C        0.4650     9.1720    -1.5740 C.3   1 <1>  -0.1600 
 22 C        0.0610     9.2590     0.8890 C.3   1 <1>  -0.1600 
 23 C        5.5780     6.1340     1.5000 C.3   1 <1>  -0.1600 
 24 C        0.0440    10.0710    -0.4090 C.3   1 <1>  -0.1600 
 25 H       -2.6880     3.9820     1.0330 H     1 <1>   0.1500 
 26 H       -0.4730     3.6310    -2.3690 H     1 <1>   0.1500 
 27 H        3.5260     5.5000    -1.5580 H     1 <1>   0.0800 
 28 H        2.7840     4.6410    -0.2780 H     1 <1>   0.0800 
 29 H        0.6000     5.3320    -3.5760 H     1 <1>   0.0800 
 30 H        1.8900     4.1940    -3.2250 H     1 <1>   0.0800 
 31 H        2.2540     5.8840    -3.5200 H     1 <1>   0.0800 
 32 H        1.0400     7.0990    -0.1570 H     1 <1>   0.4500 
 33 H        4.3760     8.3830     0.3500 H     1 <1>   0.0800 
 34 H        4.3260     7.7550    -1.2730 H     1 <1>   0.0800 
 35 H        2.1690     5.7310     1.8460 H     1 <1>   0.0800 
 36 H        3.1420     7.1080     2.2530 H     1 <1>   0.0800 
 37 H        2.0700     7.8830    -2.1400 H     1 <1>   0.0800 
 38 H        2.5810     9.3140    -1.2720 H     1 <1>   0.0800 
 39 H        2.1540     9.3040     1.3800 H     1 <1>   0.0800 
 40 H        1.2770     7.9210     1.9980 H     1 <1>   0.0800 
 41 H        6.4350     7.2120    -0.1390 H     1 <1>   0.0800 
 42 H        5.5830     5.7780    -0.6120 H     1 <1>   0.0800 
 43 H        4.2330     4.4670     1.3200 H     1 <1>   0.0800 
 44 H        4.3060     5.1450     2.9110 H     1 <1>   0.0800 
 45 H       -0.2610     8.3890    -1.7160 H     1 <1>   0.0800 
 46 H        0.5040     9.7510    -2.4790 H     1 <1>   0.0800 
 47 H       -0.1670     9.8960     1.7260 H     1 <1>   0.0800 
 48 H       -0.7070     8.5050     0.8560 H     1 <1>   0.0800 
 49 H        5.7030     6.9750     2.1610 H     1 <1>   0.0800 
 50 H        6.4220     5.4800     1.6450 H     1 <1>   0.0800 
 51 H       -0.9470    10.4560    -0.5810 H     1 <1>   0.0800 
 52 H        0.7180    10.9060    -0.3250 H     1 <1>   0.0800 
@<TRIPOS>BOND
  1   1   2  ar  
  2   2   3  ar  
  3   2   4  1   
  4   4   5  ar  
  5   4   6  ar  
  6   5   7  ar  
  7   6   8  ar  
  8   6  25  1   
  9   7   9  1   
 10   7  10  ar  
 11   8  10  ar  
 12   9  11  1   
 13   9  12  1   
 14  10  26  1   
 15  11  13  1   
 16  11  27  1   
 17  11  28  1   
 18  12  29  1   
 19  12  30  1   
 20  12  31  1   
 21  13  14  1   
 22  13  15  1   
 23  13  16  1   
 24  14  17  1   
 25  14  18  1   
 26  14  32  1   
 27  15  19  1   
 28  15  33  1   
 29  15  34  1   
 30  16  20  1   
 31  16  35  1   
 32  16  36  1   
 33  17  21  1   
 34  17  37  1   
 35  17  38  1   
 36  18  22  1   
 37  18  39  1   
 38  18  40  1   
 39  19  23  1   
 40  19  41  1   
 41  19  42  1   
 42  20  23  1   
 43  20  43  1   
 44  20  44  1   
 45  21  24  1   
 46  21  45  1   
 47  21  46  1   
 48  22  24  1   
 49  22  47  1   
 50  22  48  1   
 51  23  49  1   
 52  23  50  1   
 53  24  51  1   
 54  24  52  1   
@<TRIPOS>SUBSTRUCTURE
  1 ****   5 GROUP 4 **** **** 0

# MOE 2024.06 (io_trps.svl 2023.06)
