@<TRIPOS>MOLECULE
NONAME
57 60 1 0 0 
SMALL
USER_CHARGES


@<TRIPOS>ATOM
  1 O       -0.6400     0.8480     3.9820 O.2   1 <1>  -0.5700 
  2 C       -1.1590     1.6600     3.2510 C.2   1 <1>   0.5690 
  3 N       -2.3990     1.4260     2.6880 N.am  1 <1>  -0.6600 
  4 C       -0.3720     2.9500     3.0170 C.3   1 <1>   0.0440 
  5 C       -3.0730     2.3830     1.7590 C.3   1 <1>   0.2200 
  6 C       -3.0950     0.1290     2.9680 C.3   1 <1>   0.0600 
  7 C       -0.0270     3.2170     1.5540 C.ar  1 <1>  -0.1440 
  8 C       -4.5700     2.5840     1.9970 C.3   1 <1>  -0.1600 
  9 C       -2.9870     1.9420     0.3000 C.3   1 <1>  -0.1600 
 10 C       -0.3350     4.4100     0.9540 C.ar  1 <1>  -0.1500 
 11 C        0.6050     2.2150     0.8030 C.ar  1 <1>  -0.1500 
 12 C       -5.0710     3.1920     0.6780 C.3   1 <1>  -0.0800 
 13 C       -4.0710     2.7660    -0.4040 C.3   1 <1>  -0.0800 
 14 C       -0.0640     4.6460    -0.4080 C.ar  1 <1>   0.0000 
 15 C        0.8840     2.4170    -0.5200 C.ar  1 <1>  -0.1500 
 16 C       -6.4430     2.6980     0.1940 C.3   1 <1>  -0.1600 
 17 C       -4.8880     2.0080    -1.4580 C.3   1 <1>  -0.1600 
 18 C        0.5490     3.6250    -1.1640 C.ar  1 <1>   0.0000 
 19 C       -0.3880     5.8600    -1.0470 C.ar  1 <1>  -0.1500 
 20 C       -6.3130     2.5550    -1.3280 C.3   1 <1>   0.4230 
 21 C        0.8020     3.8530    -2.5320 C.ar  1 <1>  -0.1500 
 22 C       -0.1290     6.0550    -2.3750 C.ar  1 <1>  -0.1500 
 23 N       -6.4290     3.8910    -2.0000 N.4   1 <1>  -0.9590 
 24 C        0.4710     5.0390    -3.1270 C.ar  1 <1>  -0.1500 
 25 C       -7.7660     4.5330    -1.7880 C.3   1 <1>   0.2630 
 26 C       -6.1630     3.8230    -3.4740 C.3   1 <1>   0.2630 
 27 H       -0.9360     3.7660     3.4270 H     1 <1>   0.0800 
 28 H        0.5460     2.8920     3.5720 H     1 <1>   0.0800 
 29 H       -2.6210     3.3530     1.8430 H     1 <1>   0.0800 
 30 H       -3.5820    -0.2410     2.0850 H     1 <1>   0.0800 
 31 H       -3.8260     0.2730     3.7440 H     1 <1>   0.0800 
 32 H       -2.3940    -0.6190     3.2960 H     1 <1>   0.0800 
 33 H       -5.0560     1.6440     2.1760 H     1 <1>   0.0800 
 34 H       -4.7480     3.2410     2.8300 H     1 <1>   0.0800 
 35 H       -2.0190     2.1420    -0.1200 H     1 <1>   0.0800 
 36 H       -3.1910     0.8910     0.2210 H     1 <1>   0.0800 
 37 H       -0.8010     5.2000     1.5140 H     1 <1>   0.1500 
 38 H        0.8630     1.2840     1.2800 H     1 <1>   0.1500 
 39 H       -5.0640     4.2670     0.7530 H     1 <1>   0.0800 
 40 H       -3.6230     3.6460    -0.8360 H     1 <1>   0.0800 
 41 H        1.3680     1.6470    -1.0940 H     1 <1>   0.1500 
 42 H       -7.2450     3.3290     0.5240 H     1 <1>   0.0800 
 43 H       -6.6290     1.7140     0.5890 H     1 <1>   0.0800 
 44 H       -4.9230     0.9630    -1.2020 H     1 <1>   0.0800 
 45 H       -4.4580     2.0790    -2.4390 H     1 <1>   0.0800 
 46 H       -0.8410     6.6410    -0.4630 H     1 <1>   0.1500 
 47 H       -7.0410     1.8660    -1.7260 H     1 <1>   0.0800 
 48 H        1.2690     3.0710    -3.1020 H     1 <1>   0.1500 
 49 H       -0.3740     6.9860    -2.8580 H     1 <1>   0.1500 
 50 H       -5.7070     4.4860    -1.5690 H     1 <1>   0.4500 
 51 H        0.6710     5.2080    -4.1710 H     1 <1>   0.1500 
 52 H       -8.5520     3.8890    -2.1480 H     1 <1>   0.0800 
 53 H       -7.8180     5.4690    -2.3190 H     1 <1>   0.0800 
 54 H       -7.9330     4.7330    -0.7430 H     1 <1>   0.0800 
 55 H       -6.8390     3.1270    -3.9450 H     1 <1>   0.0800 
 56 H       -5.1520     3.5080    -3.6660 H     1 <1>   0.0800 
 57 H       -6.3010     4.7940    -3.9220 H     1 <1>   0.0800 
@<TRIPOS>BOND
  1   1   2  2   
  2   2   3  am  
  3   2   4  1   
  4   3   5  1   
  5   3   6  1   
  6   4   7  1   
  7   4  27  1   
  8   4  28  1   
  9   5   8  1   
 10   5   9  1   
 11   5  29  1   
 12   6  30  1   
 13   6  31  1   
 14   6  32  1   
 15   7  10  ar  
 16   7  11  ar  
 17   8  12  1   
 18   8  33  1   
 19   8  34  1   
 20   9  13  1   
 21   9  35  1   
 22   9  36  1   
 23  10  14  ar  
 24  10  37  1   
 25  11  15  ar  
 26  11  38  1   
 27  12  13  1   
 28  12  16  1   
 29  12  39  1   
 30  13  17  1   
 31  13  40  1   
 32  14  18  ar  
 33  14  19  ar  
 34  15  18  ar  
 35  15  41  1   
 36  16  20  1   
 37  16  42  1   
 38  16  43  1   
 39  17  20  1   
 40  17  44  1   
 41  17  45  1   
 42  18  21  ar  
 43  19  22  ar  
 44  19  46  1   
 45  20  23  1   
 46  20  47  1   
 47  21  24  ar  
 48  21  48  1   
 49  22  24  ar  
 50  22  49  1   
 51  23  25  1   
 52  23  26  1   
 53  23  50  1   
 54  24  51  1   
 55  25  52  1   
 56  25  53  1   
 57  25  54  1   
 58  26  55  1   
 59  26  56  1   
 60  26  57  1   
@<TRIPOS>SUBSTRUCTURE
  1 ****   9 GROUP 4 **** **** 0

# MOE 2024.06 (io_trps.svl 2023.06)
