@<TRIPOS>MOLECULE
NONAME
37 39 1 0 0 
SMALL
USER_CHARGES


@<TRIPOS>ATOM
  1 S       -0.4310     0.0110     0.4130 S.3   1 <1>  -0.0800 
  2 C       -1.1800    -0.9750    -0.7990 C.2   1 <1>   0.4420 
  3 C       -0.3200     1.2700    -0.7730 C.2   1 <1>   0.1980 
  4 N       -1.2800    -0.3650    -1.9240 N.2   1 <1>  -0.3380 
  5 N       -1.5440    -2.2460    -0.4090 N.am  1 <1>  -0.4940 
  6 N       -0.7900     0.9110    -1.9020 N.2   1 <1>  -0.3380 
  7 C        0.3210     2.5950    -0.3570 C.3   1 <1>   0.3800 
  8 C       -2.1910    -3.2370    -1.1080 C.2   1 <1>   0.5440 
  9 O       -0.1730     2.9740     0.8990 O.3   1 <1>  -0.5600 
 10 C        0.0230     3.7260    -1.3480 C.3   1 <1>  -0.2400 
 11 O       -2.6480    -3.0110    -2.2070 O.2   1 <1>  -0.5700 
 12 C       -2.3450    -4.5440    -0.5020 C.ar  1 <1>   0.0860 
 13 C        0.6750     3.7630     1.6740 C.3   1 <1>   0.0400 
 14 C       -3.5030    -5.2950    -0.7150 C.ar  1 <1>  -0.1500 
 15 C       -1.3550    -5.1010     0.3160 C.ar  1 <1>  -0.1500 
 16 C       -3.6770    -6.5320    -0.1250 C.ar  1 <1>   0.0830 
 17 C       -1.5170    -6.3420     0.9060 C.ar  1 <1>  -0.1500 
 18 O       -4.8330    -7.2090    -0.3430 O.3   1 <1>  -0.3630 
 19 C       -2.6750    -7.0660     0.6870 C.ar  1 <1>   0.0830 
 20 C       -5.1140    -8.2970     0.5180 C.3   1 <1>   0.1200 
 21 O       -2.8080    -8.2840     1.2590 O.3   1 <1>  -0.3630 
 22 C       -3.8430    -9.1190     0.7730 C.3   1 <1>   0.1200 
 23 H       -1.3400    -2.4640     0.5610 H     1 <1>   0.3700 
 24 H        1.3830     2.4400    -0.2780 H     1 <1>   0.0800 
 25 H       -1.0380     3.8960    -1.3980 H     1 <1>   0.0800 
 26 H        0.3660     3.4470    -2.3280 H     1 <1>   0.0800 
 27 H        0.5220     4.6330    -1.0650 H     1 <1>   0.0800 
 28 H        0.1820     3.9610     2.6100 H     1 <1>   0.0800 
 29 H        0.8690     4.6940     1.1700 H     1 <1>   0.0800 
 30 H        1.5920     3.2310     1.8570 H     1 <1>   0.0800 
 31 H       -4.2800    -4.9040    -1.3480 H     1 <1>   0.1500 
 32 H       -0.4380    -4.5660     0.4860 H     1 <1>   0.1500 
 33 H       -0.7480    -6.7620     1.5310 H     1 <1>   0.1500 
 34 H       -5.8720    -8.9010     0.0520 H     1 <1>   0.0800 
 35 H       -5.4970    -7.9030     1.4420 H     1 <1>   0.0800 
 36 H       -3.5040    -9.5760    -0.1400 H     1 <1>   0.0800 
 37 H       -4.0230    -9.8850     1.5060 H     1 <1>   0.0800 
@<TRIPOS>BOND
  1   1   2  1   
  2   1   3  1   
  3   2   4  2   
  4   2   5  1   
  5   3   6  2   
  6   3   7  1   
  7   4   6  1   
  8   5   8  am  
  9   5  23  1   
 10   7   9  1   
 11   7  10  1   
 12   7  24  1   
 13   8  11  2   
 14   8  12  1   
 15   9  13  1   
 16  10  25  1   
 17  10  26  1   
 18  10  27  1   
 19  12  14  ar  
 20  12  15  ar  
 21  13  28  1   
 22  13  29  1   
 23  13  30  1   
 24  14  16  ar  
 25  14  31  1   
 26  15  17  ar  
 27  15  32  1   
 28  16  18  1   
 29  16  19  ar  
 30  17  19  ar  
 31  17  33  1   
 32  18  20  1   
 33  19  21  1   
 34  20  22  1   
 35  20  34  1   
 36  20  35  1   
 37  21  22  1   
 38  22  36  1   
 39  22  37  1   
@<TRIPOS>SUBSTRUCTURE
  1 ****   5 GROUP 4 **** **** 0

# MOE 2024.06 (io_trps.svl 2023.06)
