@<TRIPOS>MOLECULE
NONAME
39 39 1 0 0 
SMALL
USER_CHARGES


@<TRIPOS>ATOM
  1 O       -0.0370    -0.4540    -1.3330 O.2   1 <1>  -0.5700 
  2 C       -0.0370    -1.4390    -0.6230 C.2   1 <1>   0.7800 
  3 O        1.0970    -1.9150    -0.1040 O.3   1 <1>  -0.4300 
  4 N       -1.1890    -2.1060    -0.3130 N.am  1 <1>  -0.6600 
  5 C        2.3980    -1.3900    -0.2590 C.3   1 <1>   0.2800 
  6 C       -2.5090    -1.5540    -0.7900 C.3   1 <1>   0.2810 
  7 C       -1.1710    -3.2310     0.6830 C.3   1 <1>   0.1400 
  8 C        2.8180    -1.4380    -1.7330 C.3   1 <1>  -0.2400 
  9 C        3.3020    -2.3190     0.5530 C.3   1 <1>  -0.2400 
 10 C        2.4720     0.0250     0.3270 C.3   1 <1>  -0.2400 
 11 C       -3.0870    -0.5150     0.1860 C.2   1 <1>   0.6590 
 12 C       -3.5320    -2.6690    -1.1220 C.3   1 <1>  -0.1600 
 13 C       -2.4770    -4.0410     0.7500 C.3   1 <1>   0.2000 
 14 O       -3.3020    -0.7760     1.3470 O.2   1 <1>  -0.5700 
 15 O       -3.3640     0.6820    -0.3220 O.3   1 <1>  -0.4300 
 16 C       -3.1720    -4.0770    -0.6110 C.3   1 <1>  -0.1600 
 17 O       -3.3390    -3.4840     1.6800 O.3   1 <1>  -0.6800 
 18 C       -3.8830     1.7270     0.4740 C.3   1 <1>   0.0400 
 19 H       -2.3340    -1.0230    -1.7100 H     1 <1>   0.0800 
 20 H       -0.9280    -2.8500     1.6600 H     1 <1>   0.0800 
 21 H       -0.3860    -3.9090     0.3950 H     1 <1>   0.0800 
 22 H        2.6840    -2.4290    -2.1280 H     1 <1>   0.0800 
 23 H        3.8540    -1.1700    -1.8270 H     1 <1>   0.0800 
 24 H        2.2490    -0.7420    -2.3210 H     1 <1>   0.0800 
 25 H        3.2430    -3.3230     0.1710 H     1 <1>   0.0800 
 26 H        3.0050    -2.3180     1.5860 H     1 <1>   0.0800 
 27 H        4.3240    -1.9930     0.4930 H     1 <1>   0.0800 
 28 H        1.9040     0.7200    -0.2630 H     1 <1>   0.0800 
 29 H        3.4920     0.3650     0.3350 H     1 <1>   0.0800 
 30 H        2.1020     0.0320     1.3360 H     1 <1>   0.0800 
 31 H       -3.6620    -2.7120    -2.1890 H     1 <1>   0.0800 
 32 H       -4.4900    -2.3930    -0.7140 H     1 <1>   0.0800 
 33 H       -2.2670    -5.0420     1.0870 H     1 <1>   0.0800 
 34 H       -2.5000    -4.5380    -1.3140 H     1 <1>   0.0800 
 35 H       -4.0530    -4.6930    -0.5550 H     1 <1>   0.0800 
 36 H       -3.3450    -2.4960     1.6090 H     1 <1>   0.4000 
 37 H       -4.0200     2.5940    -0.1480 H     1 <1>   0.0800 
 38 H       -3.1820     1.9440     1.2620 H     1 <1>   0.0800 
 39 H       -4.8250     1.4150     0.8910 H     1 <1>   0.0800 
@<TRIPOS>BOND
  1   1   2  2   
  2   2   3  1   
  3   2   4  am  
  4   3   5  1   
  5   4   6  1   
  6   4   7  1   
  7   5   8  1   
  8   5   9  1   
  9   5  10  1   
 10   6  11  1   
 11   6  12  1   
 12   6  19  1   
 13   7  13  1   
 14   7  20  1   
 15   7  21  1   
 16   8  22  1   
 17   8  23  1   
 18   8  24  1   
 19   9  25  1   
 20   9  26  1   
 21   9  27  1   
 22  10  28  1   
 23  10  29  1   
 24  10  30  1   
 25  11  14  2   
 26  11  15  1   
 27  12  16  1   
 28  12  31  1   
 29  12  32  1   
 30  13  16  1   
 31  13  17  1   
 32  13  33  1   
 33  15  18  1   
 34  16  34  1   
 35  16  35  1   
 36  17  36  1   
 37  18  37  1   
 38  18  38  1   
 39  18  39  1   
@<TRIPOS>SUBSTRUCTURE
  1 ****   4 GROUP 4 **** **** 0

# MOE 2024.06 (io_trps.svl 2023.06)
