@<TRIPOS>MOLECULE
NONAME
45 48 1 0 0 
SMALL
USER_CHARGES


@<TRIPOS>ATOM
  1 O       -1.2310    -0.3180     1.0150 O.co2 1 <1>  -0.9000 
  2 C       -1.9650    -1.2780     1.2700 C.2   1 <1>   0.9060 
  3 O       -2.1960    -1.6820     2.4130 O.co2 1 <1>  -0.9000 
  4 C       -2.7390    -1.9150     0.1110 C.3   1 <1>   0.2370 
  5 N       -4.0540    -1.2320    -0.2240 N.4   1 <1>  -0.9590 
  6 C       -5.0000    -1.3600     0.9250 C.3   1 <1>   0.3430 
  7 C       -3.8160     0.2020    -0.5530 C.3   1 <1>   0.3430 
  8 C       -6.4530    -1.0950     0.4570 C.3   1 <1>   0.1900 
  9 C       -5.0690     0.9340    -1.0770 C.3   1 <1>  -0.0800 
 10 N       -6.5600    -1.1510    -1.0480 N.3   1 <1>  -0.8100 
 11 C       -7.0010     0.2050     1.0750 C.3   1 <1>   0.1200 
 12 C       -5.6970     1.8580    -0.0190 C.3   1 <1>   0.1200 
 13 C       -6.1370     0.0660    -1.7770 C.3   1 <1>   0.1100 
 14 C       -7.8890    -1.6030    -1.5000 C.3   1 <1>   0.2910 
 15 O       -6.0090     1.1860     1.1540 O.3   1 <1>  -0.5600 
 16 C       -8.1270    -3.0350    -1.0770 C.2   1 <1>  -0.1810 
 17 C       -8.9510    -3.4740    -0.0930 C.2   1 <1>  -0.0260 
 18 C       -7.5500    -4.1780    -1.6050 C.2   1 <1>   0.1390 
 19 N       -9.7610    -2.7750     0.7800 N.2   1 <1>  -0.5760 
 20 N       -8.8330    -4.8460    -0.0910 N.pl3 1 <1>   0.6010 
 21 N       -7.9600    -5.2720    -1.0250 N.2   1 <1>  -0.7070 
 22 C      -10.4420    -3.4900     1.6180 C.2   1 <1>   0.3760 
 23 C       -9.5660    -5.5840     0.8150 C.2   1 <1>  -0.1810 
 24 C      -10.3760    -4.9120     1.6740 C.2   1 <1>  -0.1360 
 25 H       -2.9190    -2.9410     0.3750 H     1 <1>   0.0800 
 26 H       -2.0920    -1.8950    -0.7470 H     1 <1>   0.0800 
 27 H       -4.5640    -1.6630    -1.0100 H     1 <1>   0.4500 
 28 H       -4.9470    -2.3600     1.3200 H     1 <1>   0.0800 
 29 H       -4.7230    -0.6870     1.7210 H     1 <1>   0.0800 
 30 H       -3.4350     0.7140     0.3190 H     1 <1>   0.0800 
 31 H       -3.0480     0.2520    -1.3070 H     1 <1>   0.0800 
 32 H       -7.0420    -1.8890     0.8770 H     1 <1>   0.0800 
 33 H       -4.7090     1.6110    -1.8310 H     1 <1>   0.0800 
 34 H       -7.3050     0.0040     2.0870 H     1 <1>   0.0800 
 35 H       -7.8530     0.5830     0.5370 H     1 <1>   0.0800 
 36 H       -6.5890     2.3340    -0.3890 H     1 <1>   0.0800 
 37 H       -4.9940     2.6290     0.2480 H     1 <1>   0.0800 
 38 H       -5.7560    -0.2430    -2.7360 H     1 <1>   0.0800 
 39 H       -6.9990     0.6850    -1.9670 H     1 <1>   0.0800 
 40 H       -8.6580    -0.9690    -1.0900 H     1 <1>   0.0800 
 41 H       -7.9470    -1.5510    -2.5740 H     1 <1>   0.0800 
 42 H       -6.8350    -4.1790    -2.4110 H     1 <1>   0.1500 
 43 H      -11.0940    -2.9960     2.3160 H     1 <1>   0.0600 
 44 H       -9.4410    -6.6490     0.7730 H     1 <1>   0.1500 
 45 H      -10.9790    -5.4160     2.4070 H     1 <1>   0.1500 
@<TRIPOS>BOND
  1   1   2  ar  
  2   2   3  ar  
  3   2   4  1   
  4   4   5  1   
  5   4  25  1   
  6   4  26  1   
  7   5   6  1   
  8   5   7  1   
  9   5  27  1   
 10   6   8  1   
 11   6  28  1   
 12   6  29  1   
 13   7   9  1   
 14   7  30  1   
 15   7  31  1   
 16   8  10  1   
 17   8  11  1   
 18   8  32  1   
 19   9  12  1   
 20   9  13  1   
 21   9  33  1   
 22  10  13  1   
 23  10  14  1   
 24  11  15  1   
 25  11  34  1   
 26  11  35  1   
 27  12  15  1   
 28  12  36  1   
 29  12  37  1   
 30  13  38  1   
 31  13  39  1   
 32  14  16  1   
 33  14  40  1   
 34  14  41  1   
 35  16  17  2   
 36  16  18  1   
 37  17  19  1   
 38  17  20  1   
 39  18  21  2   
 40  18  42  1   
 41  19  22  2   
 42  20  21  1   
 43  20  23  1   
 44  22  24  1   
 45  22  43  1   
 46  23  24  2   
 47  23  44  1   
 48  24  45  1   
@<TRIPOS>SUBSTRUCTURE
  1 ****   8 GROUP 4 **** **** 0

# MOE 2024.06 (io_trps.svl 2023.06)
