@<TRIPOS>MOLECULE
NONAME
48 51 1 0 0 
SMALL
USER_CHARGES


@<TRIPOS>ATOM
  1 S        1.7390     0.0020    -0.7490 S.3   1 <1>  -0.3320 
  2 C        1.1700    -1.6780    -0.5280 C.ar  1 <1>   0.4120 
  3 C        0.7450     1.0190     0.4550 C.3   1 <1>   0.2110 
  4 N        0.2270    -1.8940     0.3320 N.ar  1 <1>  -0.6200 
  5 C        1.7960    -2.6540    -1.3120 C.ar  1 <1>  -0.1500 
  6 C        0.6480     2.4700    -0.0280 C.2   1 <1>   0.5690 
  7 C        1.4290     0.9010     1.8230 C.3   1 <1>  -0.2400 
  8 C       -0.1720    -3.1830     0.4680 C.ar  1 <1>   0.3100 
  9 C        1.4160    -3.9570    -1.1960 C.ar  1 <1>  -0.1440 
 10 O       -0.3080     3.1360     0.2980 O.2   1 <1>  -0.5700 
 11 N        1.6370     2.9990    -0.7880 N.am  1 <1>  -0.7300 
 12 C        0.3890    -4.2560    -0.2700 C.ar  1 <1>   0.0000 
 13 C       -1.1940    -3.4600     1.3910 C.ar  1 <1>  -0.1500 
 14 C        2.0800    -5.0390    -2.0360 C.3   1 <1>  -0.0970 
 15 C        1.7440     4.4010    -1.2240 C.3   1 <1>   0.3210 
 16 C       -0.1100    -5.5570    -0.0390 C.ar  1 <1>  -0.1500 
 17 C       -1.6570    -4.7320     1.5940 C.ar  1 <1>  -0.1500 
 18 C        3.2160     4.7830    -1.2930 C.2   1 <1>   0.1080 
 19 C       -1.1070    -5.7910     0.8700 C.ar  1 <1>  -0.1500 
 20 N        4.1370     4.0440    -1.8550 N.2   1 <1>  -0.7070 
 21 C        3.7580     5.9490    -0.7640 C.2   1 <1>  -0.1810 
 22 N        5.2880     4.7370    -1.6910 N.pl3 1 <1>   0.3000 
 23 C        5.0580     5.8860    -1.0310 C.2   1 <1>  -0.3320 
 24 C        3.3920     7.2050    -0.0220 C.3   1 <1>   0.0210 
 25 C        5.8490     7.0640    -0.5410 C.3   1 <1>   0.0200 
 26 C        4.7700     7.8750     0.2180 C.3   1 <1>  -0.1600 
 27 H       -0.2440     0.6010     0.4830 H     1 <1>   0.0800 
 28 H        2.5670    -2.3380    -1.9900 H     1 <1>   0.1500 
 29 H        2.4310     1.2890     1.7730 H     1 <1>   0.0800 
 30 H        1.4630    -0.1270     2.1350 H     1 <1>   0.0800 
 31 H        0.8760     1.4640     2.5530 H     1 <1>   0.0800 
 32 H        2.4550     2.4410    -1.0590 H     1 <1>   0.3700 
 33 H       -1.6050    -2.6320     1.9380 H     1 <1>   0.1500 
 34 H        2.8340    -4.6170    -2.6770 H     1 <1>   0.0800 
 35 H        1.3480    -5.5290    -2.6530 H     1 <1>   0.0800 
 36 H        2.5480    -5.7670    -1.3980 H     1 <1>   0.0800 
 37 H        1.2240     5.0430    -0.5360 H     1 <1>   0.0800 
 38 H        1.3060     4.5030    -2.2000 H     1 <1>   0.0800 
 39 H        0.3030    -6.3830    -0.5880 H     1 <1>   0.1500 
 40 H       -2.4410    -4.9290     2.3050 H     1 <1>   0.1500 
 41 H       -1.4780    -6.7880     1.0370 H     1 <1>   0.1500 
 42 H        6.1940     4.3980    -2.0370 H     1 <1>   0.2700 
 43 H        2.8990     6.9730     0.9060 H     1 <1>   0.0800 
 44 H        2.7590     7.8240    -0.6340 H     1 <1>   0.0800 
 45 H        6.2450     7.6230    -1.3710 H     1 <1>   0.0800 
 46 H        6.6430     6.7550     0.1170 H     1 <1>   0.0800 
 47 H        4.9910     7.8610     1.2710 H     1 <1>   0.0800 
 48 H        4.7580     8.8970    -0.1170 H     1 <1>   0.0800 
@<TRIPOS>BOND
  1   1   2  1   
  2   1   3  1   
  3   2   4  ar  
  4   2   5  ar  
  5   3   6  1   
  6   3   7  1   
  7   3  27  1   
  8   4   8  ar  
  9   5   9  ar  
 10   5  28  1   
 11   6  10  2   
 12   6  11  am  
 13   7  29  1   
 14   7  30  1   
 15   7  31  1   
 16   8  12  ar  
 17   8  13  ar  
 18   9  12  ar  
 19   9  14  1   
 20  11  15  1   
 21  11  32  1   
 22  12  16  ar  
 23  13  17  ar  
 24  13  33  1   
 25  14  34  1   
 26  14  35  1   
 27  14  36  1   
 28  15  18  1   
 29  15  37  1   
 30  15  38  1   
 31  16  19  ar  
 32  16  39  1   
 33  17  19  ar  
 34  17  40  1   
 35  18  20  2   
 36  18  21  1   
 37  19  41  1   
 38  20  22  1   
 39  21  23  2   
 40  21  24  1   
 41  22  23  1   
 42  22  42  1   
 43  23  25  1   
 44  24  26  1   
 45  24  43  1   
 46  24  44  1   
 47  25  26  1   
 48  25  45  1   
 49  25  46  1   
 50  26  47  1   
 51  26  48  1   
@<TRIPOS>SUBSTRUCTURE
  1 ****   1 GROUP 4 **** **** 0

# MOE 2024.06 (io_trps.svl 2023.06)
