@<TRIPOS>MOLECULE
NONAME
47 50 1 0 0 
SMALL
USER_CHARGES


@<TRIPOS>ATOM
  1 F       -0.4980     1.4420    -1.0110 F     1 <1>  -0.1900 
  2 C        0.2690     2.3330    -0.4340 C.ar  1 <1>   0.1900 
  3 C        0.0660     3.6620    -0.7040 C.ar  1 <1>  -0.1500 
  4 C        1.2640     1.8730     0.4340 C.ar  1 <1>  -0.1500 
  5 C        0.9010     4.5950    -0.0760 C.ar  1 <1>   0.0000 
  6 C        2.0850     2.7870     1.0550 C.ar  1 <1>  -0.1500 
  7 C        1.8950     4.1490     0.7910 C.ar  1 <1>  -0.1520 
  8 C        0.9950     5.9990    -0.1020 C.2   1 <1>  -0.1810 
  9 N        2.5580     5.2440     1.2700 N.pl3 1 <1>   0.0330 
 10 C        2.0230     6.3830     0.7140 C.2   1 <1>  -0.2370 
 11 C        0.0620     6.8740    -0.9200 C.3   1 <1>  -0.0590 
 12 C        2.5410     7.6860     1.0330 C.2   1 <1>   0.7150 
 13 O        1.7930     8.6180     1.2560 O.2   1 <1>  -0.5700 
 14 N        3.8960     7.9300     1.0450 N.am  1 <1>  -0.6600 
 15 C        4.4600     9.0660     1.8490 C.3   1 <1>   0.1400 
 16 C        4.8290     7.2620     0.0880 C.3   1 <1>   0.1400 
 17 C        5.0300    10.2700     1.0440 C.3   1 <1>   0.4230 
 18 C        5.2700     8.2240    -1.0370 C.3   1 <1>  -0.0800 
 19 N        4.4010    10.5420    -0.3110 N.4   1 <1>  -0.9590 
 20 C        6.5690    10.2000     0.9320 C.3   1 <1>   0.1200 
 21 C        6.7290     8.6880    -0.8980 C.3   1 <1>   0.1200 
 22 C        4.2700     9.3730    -1.2490 C.3   1 <1>   0.3430 
 23 C        3.0600    11.1850    -0.1390 C.3   1 <1>   0.2630 
 24 O        7.0280     8.9850     0.4260 O.3   1 <1>  -0.5600 
 25 H       -0.7070     3.9860    -1.3740 H     1 <1>   0.1500 
 26 H        1.3670     0.8160     0.6020 H     1 <1>   0.1500 
 27 H        2.8580     2.4680     1.7310 H     1 <1>   0.1500 
 28 H        3.3070     5.2180     1.9700 H     1 <1>   0.2700 
 29 H       -0.9500     6.7300    -0.5870 H     1 <1>   0.0800 
 30 H        0.1270     6.6090    -1.9590 H     1 <1>   0.0800 
 31 H        0.3110     7.9130    -0.8090 H     1 <1>   0.0800 
 32 H        3.6950     9.4440     2.5050 H     1 <1>   0.0800 
 33 H        5.2310     8.6770     2.4920 H     1 <1>   0.0800 
 34 H        5.6820     6.8780     0.6230 H     1 <1>   0.0800 
 35 H        4.3380     6.4190    -0.3670 H     1 <1>   0.0800 
 36 H        4.8450    11.1390     1.6530 H     1 <1>   0.0800 
 37 H        5.2400     7.6460    -1.9430 H     1 <1>   0.0800 
 38 H        5.0130    11.2230    -0.7760 H     1 <1>   0.4500 
 39 H        6.9940    10.2960     1.9160 H     1 <1>   0.0800 
 40 H        6.9580    11.0010     0.3280 H     1 <1>   0.0800 
 41 H        6.9550     9.5370    -1.5210 H     1 <1>   0.0800 
 42 H        7.3860     7.8820    -1.1820 H     1 <1>   0.0800 
 43 H        3.2770     8.9610    -1.1610 H     1 <1>   0.0800 
 44 H        4.3700     9.7330    -2.2610 H     1 <1>   0.0800 
 45 H        2.3800    10.5160     0.3580 H     1 <1>   0.0800 
 46 H        2.6410    11.4430    -1.0980 H     1 <1>   0.0800 
 47 H        3.1450    12.0830     0.4500 H     1 <1>   0.0800 
@<TRIPOS>BOND
  1   1   2  1   
  2   2   3  ar  
  3   2   4  ar  
  4   3   5  ar  
  5   3  25  1   
  6   4   6  ar  
  7   4  26  1   
  8   5   7  ar  
  9   5   8  1   
 10   6   7  ar  
 11   6  27  1   
 12   7   9  1   
 13   8  10  2   
 14   8  11  1   
 15   9  10  1   
 16   9  28  1   
 17  10  12  1   
 18  11  29  1   
 19  11  30  1   
 20  11  31  1   
 21  12  13  2   
 22  12  14  am  
 23  14  15  1   
 24  14  16  1   
 25  15  17  1   
 26  15  32  1   
 27  15  33  1   
 28  16  18  1   
 29  16  34  1   
 30  16  35  1   
 31  17  19  1   
 32  17  20  1   
 33  17  36  1   
 34  18  21  1   
 35  18  22  1   
 36  18  37  1   
 37  19  22  1   
 38  19  23  1   
 39  19  38  1   
 40  20  24  1   
 41  20  39  1   
 42  20  40  1   
 43  21  24  1   
 44  21  41  1   
 45  21  42  1   
 46  22  43  1   
 47  22  44  1   
 48  23  45  1   
 49  23  46  1   
 50  23  47  1   
@<TRIPOS>SUBSTRUCTURE
  1 ****  10 GROUP 4 **** **** 0

# MOE 2024.06 (io_trps.svl 2023.06)
