@<TRIPOS>MOLECULE
NONAME
40 42 1 0 0 
SMALL
USER_CHARGES


@<TRIPOS>ATOM
  1 CL      -2.3520    -0.6660    -1.7480 Cl    1 <1>  -0.1770 
  2 C       -2.5620     0.8160    -0.8530 C.ar  1 <1>   0.1770 
  3 C       -1.4560     1.5950    -0.5720 C.ar  1 <1>  -0.1500 
  4 C       -3.8330     1.1810    -0.4460 C.ar  1 <1>  -0.1500 
  5 C       -1.5850     2.7940     0.1340 C.ar  1 <1>   0.0860 
  6 C       -3.9930     2.3570     0.2660 C.ar  1 <1>  -0.1500 
  7 C       -2.8790     3.1310     0.5420 C.ar  1 <1>   0.1900 
  8 C       -0.4190     3.6100     0.4140 C.2   1 <1>   0.5440 
  9 F       -3.0770     4.2230     1.2300 F     1 <1>  -0.1900 
 10 O        0.6740     3.0990     0.5720 O.2   1 <1>  -0.5700 
 11 N       -0.4460     4.9810     0.4190 N.am  1 <1>  -0.6600 
 12 C        0.3740     5.7270     1.4450 C.3   1 <1>   0.2200 
 13 C       -0.9340     5.7060    -0.7870 C.3   1 <1>   0.1400 
 14 C       -0.1870     7.1230     1.7610 C.3   1 <1>   0.1200 
 15 C        1.8590     5.8270     1.0190 C.3   1 <1>   0.3430 
 16 C       -0.0300     6.8800    -1.2120 C.3   1 <1>  -0.0800 
 17 O        0.3260     8.0690     0.8680 O.3   1 <1>  -0.5600 
 18 N        2.0430     5.5260    -0.4410 N.4   1 <1>  -0.9590 
 19 C       -0.2980     8.1390    -0.3700 C.3   1 <1>   0.1200 
 20 C        1.4810     6.5720    -1.3600 C.3   1 <1>   0.3430 
 21 C        3.4630     5.2050    -0.7500 C.3   1 <1>   0.2630 
 22 H       -0.4860     1.2650    -0.9020 H     1 <1>   0.1500 
 23 H       -4.6750     0.5530    -0.6810 H     1 <1>   0.1500 
 24 H       -4.9660     2.6690     0.6050 H     1 <1>   0.1500 
 25 H        0.3310     5.1640     2.3630 H     1 <1>   0.0800 
 26 H       -1.0020     5.0100    -1.6070 H     1 <1>   0.0800 
 27 H       -1.9310     6.0670    -0.5940 H     1 <1>   0.0800 
 28 H        0.1410     7.4210     2.7410 H     1 <1>   0.0800 
 29 H       -1.2640     7.1380     1.7480 H     1 <1>   0.0800 
 30 H        2.4110     5.1050     1.5970 H     1 <1>   0.0800 
 31 H        2.2470     6.8040     1.2560 H     1 <1>   0.0800 
 32 H       -0.3660     7.1530    -2.1970 H     1 <1>   0.0800 
 33 H        1.4770     4.6610    -0.5500 H     1 <1>   0.4500 
 34 H       -1.3520     8.3030    -0.2200 H     1 <1>   0.0800 
 35 H        0.1040     9.0040    -0.8690 H     1 <1>   0.0800 
 36 H        2.0300     7.4910    -1.2280 H     1 <1>   0.0800 
 37 H        1.6480     6.2450    -2.3730 H     1 <1>   0.0800 
 38 H        4.0870     6.0680    -0.5830 H     1 <1>   0.0800 
 39 H        3.5610     4.8970    -1.7780 H     1 <1>   0.0800 
 40 H        3.8070     4.4010    -0.1190 H     1 <1>   0.0800 
@<TRIPOS>BOND
  1   1   2  1   
  2   2   3  ar  
  3   2   4  ar  
  4   3   5  ar  
  5   3  22  1   
  6   4   6  ar  
  7   4  23  1   
  8   5   7  ar  
  9   5   8  1   
 10   6   7  ar  
 11   6  24  1   
 12   7   9  1   
 13   8  10  2   
 14   8  11  am  
 15  11  12  1   
 16  11  13  1   
 17  12  14  1   
 18  12  15  1   
 19  12  25  1   
 20  13  16  1   
 21  13  26  1   
 22  13  27  1   
 23  14  17  1   
 24  14  28  1   
 25  14  29  1   
 26  15  18  1   
 27  15  30  1   
 28  15  31  1   
 29  16  19  1   
 30  16  20  1   
 31  16  32  1   
 32  17  19  1   
 33  18  20  1   
 34  18  21  1   
 35  18  33  1   
 36  19  34  1   
 37  19  35  1   
 38  20  36  1   
 39  20  37  1   
 40  21  38  1   
 41  21  39  1   
 42  21  40  1   
@<TRIPOS>SUBSTRUCTURE
  1 ****  11 GROUP 4 **** **** 0

# MOE 2024.06 (io_trps.svl 2023.06)
