@<TRIPOS>MOLECULE
NONAME
58 62 1 0 0 
SMALL
USER_CHARGES


@<TRIPOS>ATOM
  1 O       -0.3670    -1.1830    -0.6920 O.2   1 <1>  -0.5700 
  2 C       -1.0870    -1.2900     0.2840 C.2   1 <1>   0.5440 
  3 N       -0.7260    -2.1870     1.2570 N.am  1 <1>  -0.7300 
  4 C       -2.3030    -0.4920     0.4250 C.ar  1 <1>   0.3960 
  5 C        0.4880    -3.0350     1.2620 C.3   1 <1>   0.1400 
  6 N       -3.0780    -0.6520     1.5130 N.ar  1 <1>  -0.6200 
  7 C       -2.6420     0.4250    -0.5760 C.ar  1 <1>   0.1600 
  8 C        0.1010    -4.5190     1.3060 C.3   1 <1>  -0.0800 
  9 C       -4.1420     0.1310     1.5110 C.ar  1 <1>   0.1600 
 10 N       -3.7090     1.2070    -0.5750 N.ar  1 <1>  -0.6200 
 11 C       -0.5640    -4.9680    -0.0070 C.3   1 <1>   0.2000 
 12 C        1.2780    -5.5220     1.3830 C.3   1 <1>  -0.0800 
 13 C       -4.4540     1.0360     0.5000 C.ar  1 <1>   0.1670 
 14 O        0.5290    -5.4040    -0.7230 O.3   1 <1>  -0.5600 
 15 C       -1.3260    -6.2860     0.1860 C.3   1 <1>  -0.1600 
 16 C        1.0280    -6.3640     0.1350 C.3   1 <1>   0.2800 
 17 C        2.7280    -5.0250     1.2090 C.3   1 <1>   0.1400 
 18 C       -5.7000     1.8940     0.5850 C.3   1 <1>  -0.0970 
 19 C       -0.1760    -7.2950     0.2830 C.3   1 <1>  -0.1600 
 20 C        2.3820    -6.9060    -0.3080 C.3   1 <1>   0.1400 
 21 N        3.3590    -5.9090     0.1930 N.am  1 <1>  -0.6600 
 22 C        4.4780    -5.5900    -0.5360 C.2   1 <1>   0.7160 
 23 O        5.0000    -6.4520    -1.2160 O.2   1 <1>  -0.5700 
 24 C        5.0320    -4.2640    -0.4950 C.2   1 <1>  -0.0860 
 25 C        6.2560    -3.8820     0.0250 C.2   1 <1>   0.1080 
 26 C        4.5450    -3.0820    -0.9270 C.2   1 <1>  -0.0400 
 27 N        6.4150    -2.6160    -0.0880 N.2   1 <1>  -0.4100 
 28 C        7.2790    -4.8180     0.6450 C.3   1 <1>   0.0210 
 29 O        5.3650    -2.0890    -0.6790 O.3   1 <1>  -0.0190 
 30 C        3.2380    -2.7770    -1.6370 C.3   1 <1>  -0.0600 
 31 C        6.8600    -5.2580     2.0520 C.3   1 <1>  -0.2400 
 32 H       -1.3350    -2.2360     2.0810 H     1 <1>   0.3700 
 33 H        1.0640    -2.8380     0.3740 H     1 <1>   0.0800 
 34 H        1.0850    -2.7810     2.1200 H     1 <1>   0.0800 
 35 H       -1.9840     0.5100    -1.4250 H     1 <1>   0.1500 
 36 H       -0.5670    -4.6710     2.1340 H     1 <1>   0.0800 
 37 H       -4.8050     0.0530     2.3540 H     1 <1>   0.1500 
 38 H       -1.1040    -4.2040    -0.5420 H     1 <1>   0.0800 
 39 H        1.2180    -6.1330     2.2660 H     1 <1>   0.0800 
 40 H       -1.9460    -6.2700     1.0650 H     1 <1>   0.0800 
 41 H       -1.9370    -6.4830    -0.6770 H     1 <1>   0.0800 
 42 H        3.2660    -5.0960     2.1390 H     1 <1>   0.0800 
 43 H        2.7700    -4.0110     0.8660 H     1 <1>   0.0800 
 44 H       -6.2510     1.6960     1.4860 H     1 <1>   0.0800 
 45 H       -6.3330     1.6940    -0.2610 H     1 <1>   0.0800 
 46 H       -5.4230     2.9320     0.5680 H     1 <1>   0.0800 
 47 H       -0.2070    -7.9950    -0.5330 H     1 <1>   0.0800 
 48 H       -0.1610    -7.8270     1.2180 H     1 <1>   0.0800 
 49 H        2.4270    -7.0100    -1.3790 H     1 <1>   0.0800 
 50 H        2.5790    -7.8540     0.1590 H     1 <1>   0.0800 
 51 H        7.4000    -5.6800     0.0120 H     1 <1>   0.0800 
 52 H        8.2270    -4.3120     0.6960 H     1 <1>   0.0800 
 53 H        2.6300    -3.6610    -1.7200 H     1 <1>   0.0800 
 54 H        3.4410    -2.4060    -2.6250 H     1 <1>   0.0800 
 55 H        2.6890    -2.0270    -1.0970 H     1 <1>   0.0800 
 56 H        5.9380    -5.8100     2.0130 H     1 <1>   0.0800 
 57 H        6.7260    -4.3970     2.6810 H     1 <1>   0.0800 
 58 H        7.6190    -5.8870     2.4810 H     1 <1>   0.0800 
@<TRIPOS>BOND
  1   1   2  2   
  2   2   3  am  
  3   2   4  1   
  4   3   5  1   
  5   3  32  1   
  6   4   6  ar  
  7   4   7  ar  
  8   5   8  1   
  9   5  33  1   
 10   5  34  1   
 11   6   9  ar  
 12   7  10  ar  
 13   7  35  1   
 14   8  11  1   
 15   8  12  1   
 16   8  36  1   
 17   9  13  ar  
 18   9  37  1   
 19  10  13  ar  
 20  11  14  1   
 21  11  15  1   
 22  11  38  1   
 23  12  16  1   
 24  12  17  1   
 25  12  39  1   
 26  13  18  1   
 27  14  16  1   
 28  15  19  1   
 29  15  40  1   
 30  15  41  1   
 31  16  19  1   
 32  16  20  1   
 33  17  21  1   
 34  17  42  1   
 35  17  43  1   
 36  18  44  1   
 37  18  45  1   
 38  18  46  1   
 39  19  47  1   
 40  19  48  1   
 41  20  21  1   
 42  20  49  1   
 43  20  50  1   
 44  21  22  am  
 45  22  23  2   
 46  22  24  1   
 47  24  25  1   
 48  24  26  2   
 49  25  27  2   
 50  25  28  1   
 51  26  29  1   
 52  26  30  1   
 53  27  29  1   
 54  28  31  1   
 55  28  51  1   
 56  28  52  1   
 57  30  53  1   
 58  30  54  1   
 59  30  55  1   
 60  31  56  1   
 61  31  57  1   
 62  31  58  1   
@<TRIPOS>SUBSTRUCTURE
  1 ****   5 GROUP 4 **** **** 0

# MOE 2024.06 (io_trps.svl 2023.06)
