@<TRIPOS>MOLECULE
NONAME
43 45 1 0 0 
SMALL
USER_CHARGES


@<TRIPOS>ATOM
  1 CL       1.3300    -5.0810    -1.7020 Cl    1 <1>  -0.1770 
  2 C        0.0330    -4.2640    -0.8560 C.ar  1 <1>   0.1770 
  3 C       -0.4260    -3.0400    -1.3220 C.ar  1 <1>   0.0820 
  4 C       -0.5220    -4.8530     0.2640 C.ar  1 <1>  -0.1500 
  5 O        0.1100    -2.4680    -2.4160 O.3   1 <1>  -0.5330 
  6 C       -1.4510    -2.3970    -0.6510 C.ar  1 <1>  -0.1500 
  7 C       -1.5570    -4.2130     0.9340 C.ar  1 <1>  -0.1440 
  8 C       -2.0120    -2.9830     0.4730 C.ar  1 <1>  -0.1500 
  9 C       -2.1920    -4.8650     2.1600 C.3   1 <1>   0.0440 
 10 C       -2.6160    -6.3080     1.9200 C.2   1 <1>   0.5690 
 11 O       -2.1430    -7.1620     2.6310 O.2   1 <1>  -0.5700 
 12 N       -3.5100    -6.6270     0.9330 N.am  1 <1>  -0.6600 
 13 C       -4.1670    -5.6930    -0.0170 C.3   1 <1>   0.1400 
 14 C       -3.8870    -8.0270     0.6200 C.3   1 <1>   0.1400 
 15 C       -5.3220    -6.5040    -0.6010 C.3   1 <1>   0.2000 
 16 C       -4.7770    -7.9360    -0.6260 C.3   1 <1>  -0.0800 
 17 O       -6.3880    -6.4270     0.2820 O.3   1 <1>  -0.6800 
 18 C       -5.8400    -9.0460    -0.7170 C.3   1 <1>  -0.0160 
 19 C       -5.1850   -10.4160    -0.8150 C.ar  1 <1>  -0.1430 
 20 C       -4.7120   -10.9090    -2.0140 C.ar  1 <1>  -0.1500 
 21 C       -5.0270   -11.2340     0.2850 C.ar  1 <1>  -0.1500 
 22 C       -4.1170   -12.1590    -2.0530 C.ar  1 <1>   0.1600 
 23 C       -4.4160   -12.4680     0.1380 C.ar  1 <1>   0.1600 
 24 N       -3.9560   -12.9500    -1.0050 N.ar  1 <1>  -0.6200 
 25 H       -0.1470    -5.8030     0.6020 H     1 <1>   0.1500 
 26 H        0.8350    -3.0040    -2.7940 H     1 <1>   0.4500 
 27 H       -1.8020    -1.4460    -1.0100 H     1 <1>   0.1500 
 28 H       -2.8070    -2.4690     0.9860 H     1 <1>   0.1500 
 29 H       -3.0540    -4.3100     2.4790 H     1 <1>   0.0800 
 30 H       -1.4810    -4.8460     2.9660 H     1 <1>   0.0800 
 31 H       -4.5140    -4.7970     0.4660 H     1 <1>   0.0800 
 32 H       -3.4690    -5.4380    -0.7960 H     1 <1>   0.0800 
 33 H       -3.0120    -8.6280     0.4370 H     1 <1>   0.0800 
 34 H       -4.4290    -8.4380     1.4550 H     1 <1>   0.0800 
 35 H       -5.6460    -6.1480    -1.5640 H     1 <1>   0.0800 
 36 H       -4.1310    -8.0200    -1.4820 H     1 <1>   0.0800 
 37 H       -6.0620    -6.6290     1.1830 H     1 <1>   0.4000 
 38 H       -6.4540    -8.8820    -1.5850 H     1 <1>   0.0800 
 39 H       -6.4860    -9.0200     0.1430 H     1 <1>   0.0800 
 40 H       -4.8000   -10.3350    -2.9180 H     1 <1>   0.1500 
 41 H       -5.3700   -10.9260     1.2560 H     1 <1>   0.1500 
 42 H       -3.7530   -12.5280    -2.9970 H     1 <1>   0.1500 
 43 H       -4.2990   -13.0920     1.0080 H     1 <1>   0.1500 
@<TRIPOS>BOND
  1   1   2  1   
  2   2   3  ar  
  3   2   4  ar  
  4   3   5  1   
  5   3   6  ar  
  6   4   7  ar  
  7   4  25  1   
  8   5  26  1   
  9   6   8  ar  
 10   6  27  1   
 11   7   8  ar  
 12   7   9  1   
 13   8  28  1   
 14   9  10  1   
 15   9  29  1   
 16   9  30  1   
 17  10  11  2   
 18  10  12  am  
 19  12  13  1   
 20  12  14  1   
 21  13  15  1   
 22  13  31  1   
 23  13  32  1   
 24  14  16  1   
 25  14  33  1   
 26  14  34  1   
 27  15  16  1   
 28  15  17  1   
 29  15  35  1   
 30  16  18  1   
 31  16  36  1   
 32  17  37  1   
 33  18  19  1   
 34  18  38  1   
 35  18  39  1   
 36  19  20  ar  
 37  19  21  ar  
 38  20  22  ar  
 39  20  40  1   
 40  21  23  ar  
 41  21  41  1   
 42  22  24  ar  
 43  22  42  1   
 44  23  24  ar  
 45  23  43  1   
@<TRIPOS>SUBSTRUCTURE
  1 ****  12 GROUP 4 **** **** 0

# MOE 2024.06 (io_trps.svl 2023.06)
