@<TRIPOS>MOLECULE
NONAME
42 44 1 0 0 
SMALL
USER_CHARGES


@<TRIPOS>ATOM
  1 O       -0.6110     0.3090     1.5480 O.2   1 <1>  -0.5700 
  2 C       -1.5560     0.9320     1.1000 C.2   1 <1>   0.7160 
  3 N       -2.6980     0.2410     0.7580 N.am  1 <1>  -0.6600 
  4 C       -1.4660     2.3600     0.9150 C.2   1 <1>  -0.0860 
  5 C       -3.7120     0.7460    -0.2070 C.3   1 <1>   0.1400 
  6 C       -2.7920    -1.2380     0.8680 C.3   1 <1>   0.1400 
  7 C       -0.5030     3.1440     0.3480 C.2   1 <1>  -0.3320 
  8 C       -2.4270     3.2870     1.3240 C.2   1 <1>   0.1390 
  9 C       -4.6730    -0.4250    -0.4090 C.3   1 <1>   0.2000 
 10 C       -3.7860    -1.6590    -0.2190 C.3   1 <1>  -0.0800 
 11 N       -0.9200     4.4210     0.4300 N.pl3 1 <1>   0.3140 
 12 C        0.8180     2.7090    -0.2690 C.3   1 <1>  -0.0600 
 13 N       -2.1180     4.5080     1.0280 N.2   1 <1>  -0.7070 
 14 O       -5.6260    -0.3790     0.5980 O.3   1 <1>  -0.6800 
 15 C       -4.5430    -2.9630     0.0980 C.3   1 <1>   0.0200 
 16 C       -0.2190     5.6240    -0.0360 C.3   1 <1>   0.0160 
 17 C       -3.6370    -4.1820     0.1440 C.2   1 <1>  -0.0400 
 18 O       -4.1360    -5.3180     0.5510 O.3   1 <1>  -0.0190 
 19 C       -2.3450    -4.3910    -0.1600 C.2   1 <1>  -0.1500 
 20 N       -3.2510    -6.2720     0.5400 N.2   1 <1>  -0.4100 
 21 C       -2.1610    -5.7420     0.1170 C.2   1 <1>   0.1080 
 22 C       -0.8600    -6.4940    -0.0540 C.3   1 <1>  -0.0590 
 23 H       -4.2280     1.6160     0.1610 H     1 <1>   0.0800 
 24 H       -3.2230     0.9860    -1.1360 H     1 <1>   0.0800 
 25 H       -1.8300    -1.7010     0.7240 H     1 <1>   0.0800 
 26 H       -3.1610    -1.4920     1.8480 H     1 <1>   0.0800 
 27 H       -3.3360     3.0200     1.8370 H     1 <1>   0.1500 
 28 H       -5.1780    -0.3990    -1.3600 H     1 <1>   0.0800 
 29 H       -3.2330    -1.8010    -1.1310 H     1 <1>   0.0800 
 30 H        0.9220     1.6390    -0.2250 H     1 <1>   0.0800 
 31 H        1.6400     3.1470     0.2690 H     1 <1>   0.0800 
 32 H        0.8690     3.0130    -1.2990 H     1 <1>   0.0800 
 33 H       -5.1780    -0.2400     1.4570 H     1 <1>   0.4000 
 34 H       -5.2980    -3.1290    -0.6500 H     1 <1>   0.0800 
 35 H       -5.0420    -2.8770     1.0470 H     1 <1>   0.0800 
 36 H        0.7200     5.7040     0.4770 H     1 <1>   0.0800 
 37 H       -0.8220     6.4870     0.1780 H     1 <1>   0.0800 
 38 H       -0.0580     5.5510    -1.0940 H     1 <1>   0.0800 
 39 H       -1.5950    -3.7170    -0.5300 H     1 <1>   0.1500 
 40 H       -0.0890    -6.0290     0.5320 H     1 <1>   0.0800 
 41 H       -0.5710    -6.4920    -1.0890 H     1 <1>   0.0800 
 42 H       -0.9790    -7.5120     0.2720 H     1 <1>   0.0800 
@<TRIPOS>BOND
  1   1   2  2   
  2   2   3  am  
  3   2   4  1   
  4   3   5  1   
  5   3   6  1   
  6   4   7  2   
  7   4   8  1   
  8   5   9  1   
  9   5  23  1   
 10   5  24  1   
 11   6  10  1   
 12   6  25  1   
 13   6  26  1   
 14   7  11  1   
 15   7  12  1   
 16   8  13  2   
 17   8  27  1   
 18   9  10  1   
 19   9  14  1   
 20   9  28  1   
 21  10  15  1   
 22  10  29  1   
 23  11  13  1   
 24  11  16  1   
 25  12  30  1   
 26  12  31  1   
 27  12  32  1   
 28  14  33  1   
 29  15  17  1   
 30  15  34  1   
 31  15  35  1   
 32  16  36  1   
 33  16  37  1   
 34  16  38  1   
 35  17  18  1   
 36  17  19  2   
 37  18  20  1   
 38  19  21  1   
 39  19  39  1   
 40  20  21  2   
 41  21  22  1   
 42  22  40  1   
 43  22  41  1   
 44  22  42  1   
@<TRIPOS>SUBSTRUCTURE
  1 ****   3 GROUP 4 **** **** 0

# MOE 2024.06 (io_trps.svl 2023.06)
