@<TRIPOS>MOLECULE
NONAME
47 49 1 0 0 
SMALL
USER_CHARGES


@<TRIPOS>ATOM
  1 F        0.7880    -0.6570     0.6490 F     1 <1>  -0.1900 
  2 C        0.4820    -1.9230     0.5310 C.ar  1 <1>   0.1900 
  3 C        0.6260    -2.7640     1.6250 C.ar  1 <1>   0.0830 
  4 C        0.0220    -2.3900    -0.6840 C.ar  1 <1>  -0.1500 
  5 O        1.0780    -2.3020     2.8070 O.3   1 <1>  -0.5330 
  6 C        0.2990    -4.1010     1.4930 C.ar  1 <1>  -0.1500 
  7 C       -0.3020    -3.7310    -0.7980 C.ar  1 <1>  -0.1500 
  8 C       -0.1800    -4.6120     0.2840 C.ar  1 <1>   0.0860 
  9 C       -0.5360    -6.0150     0.1600 C.2   1 <1>   0.5440 
 10 O        0.0890    -6.8700     0.7610 O.2   1 <1>  -0.5700 
 11 N       -1.6080    -6.4340    -0.5990 N.am  1 <1>  -0.6600 
 12 C       -1.7100    -7.8700    -0.9680 C.3   1 <1>   0.1400 
 13 C       -2.9260    -5.7540    -0.4860 C.3   1 <1>   0.1400 
 14 C       -2.4900    -8.6080     0.1430 C.3   1 <1>   0.4230 
 15 C       -3.7370    -6.4650     0.6080 C.3   1 <1>  -0.1600 
 16 N       -2.4790   -10.1240     0.0050 N.4   1 <1>  -0.9590 
 17 C       -3.9060    -7.9950     0.3680 C.3   1 <1>   0.0000 
 18 C       -3.5390   -10.8170     0.8070 C.3   1 <1>   0.3430 
 19 C       -2.4720   -10.6470    -1.4000 C.3   1 <1>   0.2630 
 20 C       -4.5460    -8.6320     1.6380 C.3   1 <1>  -0.1600 
 21 C       -4.8040    -8.2510    -0.8770 C.3   1 <1>   0.1200 
 22 C       -3.9320    -9.9900     2.0290 C.3   1 <1>  -0.1600 
 23 O       -5.9900    -7.5410    -0.8070 O.3   1 <1>  -0.6800 
 24 H       -0.0750    -1.7170    -1.5180 H     1 <1>   0.1500 
 25 H        1.2940    -1.3490     2.7700 H     1 <1>   0.4500 
 26 H        0.4190    -4.7550     2.3390 H     1 <1>   0.1500 
 27 H       -0.6540    -4.1080    -1.7430 H     1 <1>   0.1500 
 28 H       -2.1980    -7.9490    -1.9220 H     1 <1>   0.0800 
 29 H       -0.7200    -8.2840    -1.0570 H     1 <1>   0.0800 
 30 H       -2.7990    -4.7180    -0.2210 H     1 <1>   0.0800 
 31 H       -3.4420    -5.7930    -1.4310 H     1 <1>   0.0800 
 32 H       -1.9440    -8.3890     1.0470 H     1 <1>   0.0800 
 33 H       -3.2270    -6.2970     1.5410 H     1 <1>   0.0800 
 34 H       -4.6960    -5.9830     0.6950 H     1 <1>   0.0800 
 35 H       -1.5800   -10.3990     0.4290 H     1 <1>   0.4500 
 36 H       -4.4170   -10.9660     0.2000 H     1 <1>   0.0800 
 37 H       -3.1840   -11.7870     1.1210 H     1 <1>   0.0800 
 38 H       -3.3680   -10.3500    -1.9190 H     1 <1>   0.0800 
 39 H       -2.4190   -11.7240    -1.3960 H     1 <1>   0.0800 
 40 H       -1.6170   -10.2710    -1.9400 H     1 <1>   0.0800 
 41 H       -4.4390    -7.9760     2.4860 H     1 <1>   0.0800 
 42 H       -5.6050    -8.7570     1.4940 H     1 <1>   0.0800 
 43 H       -5.0570    -9.2910    -0.9740 H     1 <1>   0.0800 
 44 H       -4.3190    -7.9330    -1.7820 H     1 <1>   0.0800 
 45 H       -4.6450   -10.5420     2.6180 H     1 <1>   0.0800 
 46 H       -3.0630    -9.8400     2.6480 H     1 <1>   0.0800 
 47 H       -6.5440    -7.8160    -0.0500 H     1 <1>   0.4000 
@<TRIPOS>BOND
  1   1   2  1   
  2   2   3  ar  
  3   2   4  ar  
  4   3   5  1   
  5   3   6  ar  
  6   4   7  ar  
  7   4  24  1   
  8   5  25  1   
  9   6   8  ar  
 10   6  26  1   
 11   7   8  ar  
 12   7  27  1   
 13   8   9  1   
 14   9  10  2   
 15   9  11  am  
 16  11  12  1   
 17  11  13  1   
 18  12  14  1   
 19  12  28  1   
 20  12  29  1   
 21  13  15  1   
 22  13  30  1   
 23  13  31  1   
 24  14  16  1   
 25  14  17  1   
 26  14  32  1   
 27  15  17  1   
 28  15  33  1   
 29  15  34  1   
 30  16  18  1   
 31  16  19  1   
 32  16  35  1   
 33  17  20  1   
 34  17  21  1   
 35  18  22  1   
 36  18  36  1   
 37  18  37  1   
 38  19  38  1   
 39  19  39  1   
 40  19  40  1   
 41  20  22  1   
 42  20  41  1   
 43  20  42  1   
 44  21  23  1   
 45  21  43  1   
 46  21  44  1   
 47  22  45  1   
 48  22  46  1   
 49  23  47  1   
@<TRIPOS>SUBSTRUCTURE
  1 ****  11 GROUP 4 **** **** 0

# MOE 2024.06 (io_trps.svl 2023.06)
