@<TRIPOS>MOLECULE
NONAME
44 47 1 0 0 
SMALL
USER_CHARGES


@<TRIPOS>ATOM
  1 F       -0.2410     0.2780     0.4730 F     1 <1>  -0.3400 
  2 C        0.3210    -0.9230     0.5370 C.3   1 <1>   1.1640 
  3 F        1.0900    -0.9170     1.6190 F     1 <1>  -0.3400 
  4 F        1.1400    -1.0090    -0.5030 F     1 <1>  -0.3400 
  5 C       -0.7020    -2.0630     0.5570 C.ar  1 <1>  -0.1440 
  6 C       -2.0060    -1.9010     0.1300 C.ar  1 <1>  -0.1500 
  7 C       -0.3710    -3.3350     0.9980 C.ar  1 <1>  -0.1500 
  8 C       -2.9090    -2.9610     0.1630 C.ar  1 <1>   0.4100 
  9 C       -1.3280    -4.3320     0.9880 C.ar  1 <1>   0.1600 
 10 N       -2.5740    -4.1750     0.5830 N.ar  1 <1>  -0.6200 
 11 N       -4.2120    -2.7660    -0.2590 N.pl3 1 <1>  -0.8380 
 12 C       -5.0370    -1.6920     0.3720 C.3   1 <1>   0.2090 
 13 C       -5.0100    -3.9350    -0.7450 C.3   1 <1>   0.2090 
 14 C       -6.0010    -1.0650    -0.6620 C.3   1 <1>   0.1440 
 15 C       -6.4650    -3.5480    -1.0720 C.3   1 <1>  -0.1600 
 16 C       -7.0950    -0.3500     0.1120 C.ar  1 <1>   0.1670 
 17 C       -6.5600    -2.1260    -1.6490 C.3   1 <1>  -0.1600 
 18 C       -5.3320     0.1050    -1.4310 C.3   1 <1>  -0.1600 
 19 N       -8.0850    -0.9330     0.7510 N.ar  1 <1>  -0.6200 
 20 C       -6.9280     1.0030     0.0890 C.ar  1 <1>  -0.1430 
 21 C       -5.7020     1.4030    -0.6920 C.3   1 <1>  -0.0170 
 22 C       -8.9170    -0.0980     1.3560 C.ar  1 <1>   0.4770 
 23 C       -7.8500     1.7750     0.7520 C.ar  1 <1>   0.1600 
 24 N       -8.8600     1.2270     1.3950 N.ar  1 <1>  -0.6200 
 25 C      -10.0670    -0.7350     2.0960 C.3   1 <1>  -0.0970 
 26 H       -2.3500    -0.9570    -0.2460 H     1 <1>   0.1500 
 27 H        0.6230    -3.5570     1.3470 H     1 <1>   0.1500 
 28 H       -1.0540    -5.3150     1.3320 H     1 <1>   0.1500 
 29 H       -4.4160    -0.9340     0.8130 H     1 <1>   0.0800 
 30 H       -5.6110    -2.1370     1.1670 H     1 <1>   0.0800 
 31 H       -5.0080    -4.7170    -0.0040 H     1 <1>   0.0800 
 32 H       -4.5340    -4.3170    -1.6320 H     1 <1>   0.0800 
 33 H       -7.0560    -3.6080    -0.1740 H     1 <1>   0.0800 
 34 H       -6.8710    -4.2590    -1.7690 H     1 <1>   0.0800 
 35 H       -5.9830    -2.1120    -2.5580 H     1 <1>   0.0800 
 36 H       -7.5800    -1.8950    -1.9030 H     1 <1>   0.0800 
 37 H       -5.7480     0.1660    -2.4220 H     1 <1>   0.0800 
 38 H       -4.2680    -0.0240    -1.5210 H     1 <1>   0.0800 
 39 H       -5.9110     2.2050    -1.3800 H     1 <1>   0.0800 
 40 H       -4.9190     1.6940    -0.0150 H     1 <1>   0.0800 
 41 H       -7.7610     2.8470     0.7600 H     1 <1>   0.1500 
 42 H      -10.3870    -1.6230     1.5840 H     1 <1>   0.0800 
 43 H      -10.8940    -0.0510     2.1570 H     1 <1>   0.0800 
 44 H       -9.7490    -0.9940     3.0880 H     1 <1>   0.0800 
@<TRIPOS>BOND
  1   1   2  1   
  2   2   3  1   
  3   2   4  1   
  4   2   5  1   
  5   5   6  ar  
  6   5   7  ar  
  7   6   8  ar  
  8   6  26  1   
  9   7   9  ar  
 10   7  27  1   
 11   8  10  ar  
 12   8  11  1   
 13   9  10  ar  
 14   9  28  1   
 15  11  12  1   
 16  11  13  1   
 17  12  14  1   
 18  12  29  1   
 19  12  30  1   
 20  13  15  1   
 21  13  31  1   
 22  13  32  1   
 23  14  16  1   
 24  14  17  1   
 25  14  18  1   
 26  15  17  1   
 27  15  33  1   
 28  15  34  1   
 29  16  19  ar  
 30  16  20  ar  
 31  17  35  1   
 32  17  36  1   
 33  18  21  1   
 34  18  37  1   
 35  18  38  1   
 36  19  22  ar  
 37  20  21  1   
 38  20  23  ar  
 39  21  39  1   
 40  21  40  1   
 41  22  24  ar  
 42  22  25  1   
 43  23  24  ar  
 44  23  41  1   
 45  25  42  1   
 46  25  43  1   
 47  25  44  1   
@<TRIPOS>SUBSTRUCTURE
  1 ****  12 GROUP 4 **** **** 0

# MOE 2024.06 (io_trps.svl 2023.06)
