@<TRIPOS>MOLECULE
NONAME
60 63 1 0 0 
SMALL
USER_CHARGES


@<TRIPOS>ATOM
  1 S       -0.2340    -0.7170     0.1090 S.3   1 <1>  -0.4600 
  2 C       -1.9230    -0.2150     0.5350 C.3   1 <1>   0.2510 
  3 C        0.7930     0.5040     0.9640 C.3   1 <1>   0.0700 
  4 C       -2.8880    -1.2010    -0.0970 C.2   1 <1>  -0.1810 
  5 C        2.2560     0.1730     0.6680 C.3   1 <1>  -0.1600 
  6 C       -3.8590    -0.9980    -1.0160 C.2   1 <1>  -0.0400 
  7 C       -2.9260    -2.5680     0.1860 C.2   1 <1>  -0.1500 
  8 C        3.2000     1.1660     1.3580 C.3   1 <1>  -0.1600 
  9 O       -4.4680    -2.1270    -1.2910 O.3   1 <1>  -0.2800 
 10 C       -4.3160     0.2540    -1.7350 C.3   1 <1>  -0.0600 
 11 C       -3.9160    -3.1050    -0.5780 C.2   1 <1>   0.0550 
 12 C        4.6640     0.8300     1.0590 C.3   1 <1>  -0.2400 
 13 C       -4.3850    -4.4660    -0.6850 C.2   1 <1>   0.7150 
 14 O       -4.0410    -5.3290     0.1090 O.2   1 <1>  -0.5700 
 15 N       -5.3320    -4.8420    -1.6110 N.am  1 <1>  -0.6600 
 16 C       -6.7390    -4.4310    -1.3320 C.3   1 <1>   0.1400 
 17 C       -5.2430    -6.2110    -2.2160 C.3   1 <1>   0.1400 
 18 C       -7.4000    -5.4030    -0.3140 C.3   1 <1>   0.4230 
 19 C       -6.1400    -7.2290    -1.4710 C.3   1 <1>   0.3430 
 20 N       -6.5970    -6.6790    -0.1460 N.4   1 <1>  -0.9590 
 21 C       -8.8630    -5.7150    -0.7050 C.3   1 <1>   0.1200 
 22 C       -7.3040    -7.6380     0.7550 C.3   1 <1>   0.5180 
 23 O       -9.4370    -6.6230     0.1940 O.3   1 <1>  -0.5600 
 24 C       -6.5210    -8.9540     0.8370 C.3   1 <1>  -0.1950 
 25 C       -8.7690    -7.8520     0.3140 C.3   1 <1>   0.1200 
 26 C       -6.3590    -9.6490     2.1540 C.3   1 <1>  -0.2000 
 27 C       -5.1710    -9.0190     1.4860 C.3   1 <1>  -0.2000 
 28 H       -2.0030    -0.2260     1.6070 H     1 <1>   0.0800 
 29 H       -2.0650     0.7820     0.1600 H     1 <1>   0.0800 
 30 H        0.5230     1.4760     0.5880 H     1 <1>   0.0800 
 31 H        0.5760     0.4320     2.0150 H     1 <1>   0.0800 
 32 H        2.4670    -0.8250     1.0120 H     1 <1>   0.0800 
 33 H        2.4150     0.2040    -0.3960 H     1 <1>   0.0800 
 34 H       -2.2760    -3.0800     0.8740 H     1 <1>   0.1500 
 35 H        2.9900     2.1650     1.0150 H     1 <1>   0.0800 
 36 H        3.0420     1.1360     2.4230 H     1 <1>   0.0800 
 37 H       -3.7300     1.1020    -1.4360 H     1 <1>   0.0800 
 38 H       -5.3490     0.4460    -1.5120 H     1 <1>   0.0800 
 39 H       -4.2090     0.1170    -2.7960 H     1 <1>   0.0800 
 40 H        4.8510     0.8740     0.0010 H     1 <1>   0.0800 
 41 H        4.9030    -0.1570     1.4130 H     1 <1>   0.0800 
 42 H        5.3110     1.5350     1.5500 H     1 <1>   0.0800 
 43 H       -6.7630    -3.4280    -0.9380 H     1 <1>   0.0800 
 44 H       -7.2880    -4.4210    -2.2590 H     1 <1>   0.0800 
 45 H       -5.5230    -6.1660    -3.2540 H     1 <1>   0.0800 
 46 H       -4.2210    -6.5510    -2.1770 H     1 <1>   0.0800 
 47 H       -7.4320    -4.8960     0.6360 H     1 <1>   0.0800 
 48 H       -5.5770    -8.1360    -1.3260 H     1 <1>   0.0800 
 49 H       -6.9940    -7.4650    -2.0830 H     1 <1>   0.0800 
 50 H       -5.7130    -6.3980     0.3220 H     1 <1>   0.4500 
 51 H       -8.9250    -6.1290    -1.6960 H     1 <1>   0.0800 
 52 H       -9.4550    -4.8160    -0.6750 H     1 <1>   0.0800 
 53 H       -7.3280    -7.2120     1.7450 H     1 <1>   0.0800 
 54 H       -6.7050    -9.6020    -0.0030 H     1 <1>   0.1000 
 55 H       -9.2900    -8.4360     1.0530 H     1 <1>   0.0800 
 56 H       -8.8210    -8.3690    -0.6280 H     1 <1>   0.0800 
 57 H       -6.7260    -9.1960     3.0600 H     1 <1>   0.1000 
 58 H       -6.4090   -10.7250     2.1910 H     1 <1>   0.1000 
 59 H       -4.4180    -9.6710     1.0750 H     1 <1>   0.1000 
 60 H       -4.7420    -8.1420     1.9420 H     1 <1>   0.1000 
@<TRIPOS>BOND
  1   1   2  1   
  2   1   3  1   
  3   2   4  1   
  4   2  28  1   
  5   2  29  1   
  6   3   5  1   
  7   3  30  1   
  8   3  31  1   
  9   4   6  2   
 10   4   7  1   
 11   5   8  1   
 12   5  32  1   
 13   5  33  1   
 14   6   9  1   
 15   6  10  1   
 16   7  11  2   
 17   7  34  1   
 18   8  12  1   
 19   8  35  1   
 20   8  36  1   
 21   9  11  1   
 22  10  37  1   
 23  10  38  1   
 24  10  39  1   
 25  11  13  1   
 26  12  40  1   
 27  12  41  1   
 28  12  42  1   
 29  13  14  2   
 30  13  15  am  
 31  15  16  1   
 32  15  17  1   
 33  16  18  1   
 34  16  43  1   
 35  16  44  1   
 36  17  19  1   
 37  17  45  1   
 38  17  46  1   
 39  18  20  1   
 40  18  21  1   
 41  18  47  1   
 42  19  20  1   
 43  19  48  1   
 44  19  49  1   
 45  20  22  1   
 46  20  50  1   
 47  21  23  1   
 48  21  51  1   
 49  21  52  1   
 50  22  24  1   
 51  22  25  1   
 52  22  53  1   
 53  23  25  1   
 54  24  26  1   
 55  24  27  1   
 56  24  54  1   
 57  25  55  1   
 58  25  56  1   
 59  26  27  1   
 60  26  57  1   
 61  26  58  1   
 62  27  59  1   
 63  27  60  1   
@<TRIPOS>SUBSTRUCTURE
  1 ****  13 GROUP 4 **** **** 0

# MOE 2024.06 (io_trps.svl 2023.06)
