@<TRIPOS>MOLECULE
NONAME
57 59 1 0 0 
SMALL
USER_CHARGES


@<TRIPOS>ATOM
  1 O        0.4650     0.1340    -0.7290 O.3   1 <1>  -0.5600 
  2 C        1.6040    -0.6640    -0.9470 C.3   1 <1>   0.2000 
  3 C        0.6210     1.4970    -0.9910 C.3   1 <1>   0.1200 
  4 C        2.8200    -0.1370    -0.1360 C.3   1 <1>   0.5660 
  5 C        1.2730    -2.1100    -0.5410 C.3   1 <1>   0.1200 
  6 C        1.7190     2.0840    -0.0880 C.3   1 <1>   0.3430 
  7 N        3.0140     1.3430    -0.2490 N.4   1 <1>  -0.9590 
  8 C        4.1150    -0.8080    -0.5750 C.ar  1 <1>  -0.1430 
  9 O        1.2560    -2.2270     0.8470 O.3   1 <1>  -0.6800 
 10 C        4.0490     1.8230     0.7010 C.3   1 <1>   0.5240 
 11 C        4.7980    -1.6030     0.3350 C.ar  1 <1>  -0.1500 
 12 C        4.6340    -0.6410    -1.8550 C.ar  1 <1>  -0.1500 
 13 C        4.3530     3.2620     0.3580 C.2   1 <1>  -0.1810 
 14 C        5.9890    -2.2160    -0.0130 C.ar  1 <1>   0.0830 
 15 C        5.8310    -1.2420    -2.2050 C.ar  1 <1>  -0.1500 
 16 C        5.1420     3.6860    -0.7040 C.2   1 <1>   0.1390 
 17 C        3.9460     4.4020     0.9610 C.2   1 <1>  -0.3020 
 18 O        6.5770    -2.9920     0.9280 O.3   1 <1>  -0.3620 
 19 C        6.5240    -2.0130    -1.2890 C.ar  1 <1>   0.0830 
 20 N        5.2050     4.9760    -0.7740 N.2   1 <1>  -0.7070 
 21 N        4.4760     5.4320     0.2660 N.pl3 1 <1>   0.3140 
 22 C        6.7110    -4.3660     0.6320 C.3   1 <1>   0.0400 
 23 O        7.7060    -2.5400    -1.6900 O.3   1 <1>  -0.3630 
 24 C        4.3100     6.8840     0.5750 C.3   1 <1>   0.1760 
 25 C        8.8650    -2.0720    -1.0350 C.3   1 <1>   0.0400 
 26 C        3.5850     7.6030    -0.5710 C.3   1 <1>  -0.2400 
 27 C        5.6710     7.5380     0.8540 C.3   1 <1>  -0.2400 
 28 H        1.8150    -0.6410    -2.0020 H     1 <1>   0.0800 
 29 H        0.8540     1.6300    -2.0330 H     1 <1>   0.0800 
 30 H       -0.3210     1.9770    -0.7860 H     1 <1>   0.0800 
 31 H        2.6410    -0.3830     0.8980 H     1 <1>   0.0800 
 32 H        2.0180    -2.7900    -0.9200 H     1 <1>   0.0800 
 33 H        0.3080    -2.3910    -0.9280 H     1 <1>   0.0800 
 34 H        1.3860     2.0240     0.9350 H     1 <1>   0.0800 
 35 H        1.8600     3.1260    -0.3300 H     1 <1>   0.0800 
 36 H        3.3770     1.5290    -1.1870 H     1 <1>   0.4500 
 37 H        0.8170    -3.0620     1.1170 H     1 <1>   0.4000 
 38 H        3.6900     1.7530     1.7150 H     1 <1>   0.0800 
 39 H        4.9500     1.2370     0.6130 H     1 <1>   0.0800 
 40 H        4.4150    -1.7710     1.3270 H     1 <1>   0.1500 
 41 H        4.1260    -0.0500    -2.5980 H     1 <1>   0.1500 
 42 H        6.2410    -1.1160    -3.1920 H     1 <1>   0.1500 
 43 H        5.6530     3.0440    -1.4030 H     1 <1>   0.1500 
 44 H        3.3290     4.5510     1.8290 H     1 <1>   0.1500 
 45 H        7.0710    -4.8660     1.5130 H     1 <1>   0.0800 
 46 H        7.4140    -4.4940    -0.1710 H     1 <1>   0.0800 
 47 H        5.7500    -4.7590     0.3520 H     1 <1>   0.0800 
 48 H        3.7090     6.9630     1.4630 H     1 <1>   0.0800 
 49 H        9.7210    -2.5200    -1.5060 H     1 <1>   0.0800 
 50 H        8.8310    -2.3540     0.0020 H     1 <1>   0.0800 
 51 H        8.9110    -1.0020    -1.1300 H     1 <1>   0.0800 
 52 H        4.1680     7.5480    -1.4740 H     1 <1>   0.0800 
 53 H        3.4380     8.6400    -0.3240 H     1 <1>   0.0800 
 54 H        2.6240     7.1550    -0.7450 H     1 <1>   0.0800 
 55 H        6.2970     7.4880    -0.0200 H     1 <1>   0.0800 
 56 H        6.1650     7.0380     1.6670 H     1 <1>   0.0800 
 57 H        5.5400     8.5720     1.1200 H     1 <1>   0.0800 
@<TRIPOS>BOND
  1   1   2  1   
  2   1   3  1   
  3   2   4  1   
  4   2   5  1   
  5   2  28  1   
  6   3   6  1   
  7   3  29  1   
  8   3  30  1   
  9   4   7  1   
 10   4   8  1   
 11   4  31  1   
 12   5   9  1   
 13   5  32  1   
 14   5  33  1   
 15   6   7  1   
 16   6  34  1   
 17   6  35  1   
 18   7  10  1   
 19   7  36  1   
 20   8  11  ar  
 21   8  12  ar  
 22   9  37  1   
 23  10  13  1   
 24  10  38  1   
 25  10  39  1   
 26  11  14  ar  
 27  11  40  1   
 28  12  15  ar  
 29  12  41  1   
 30  13  16  1   
 31  13  17  2   
 32  14  18  1   
 33  14  19  ar  
 34  15  19  ar  
 35  15  42  1   
 36  16  20  2   
 37  16  43  1   
 38  17  21  1   
 39  17  44  1   
 40  18  22  1   
 41  19  23  1   
 42  20  21  1   
 43  21  24  1   
 44  22  45  1   
 45  22  46  1   
 46  22  47  1   
 47  23  25  1   
 48  24  26  1   
 49  24  27  1   
 50  24  48  1   
 51  25  49  1   
 52  25  50  1   
 53  25  51  1   
 54  26  52  1   
 55  26  53  1   
 56  26  54  1   
 57  27  55  1   
 58  27  56  1   
 59  27  57  1   
@<TRIPOS>SUBSTRUCTURE
  1 ****   7 GROUP 4 **** **** 0

# MOE 2024.06 (io_trps.svl 2023.06)
