@<TRIPOS>MOLECULE
NONAME
59 62 1 0 0 
SMALL
USER_CHARGES


@<TRIPOS>ATOM
  1 O        3.6860    -1.0710     0.0020 O.2   1 <1>  -0.5700 
  2 C        2.4920    -1.1830     0.1570 C.2   1 <1>   0.5690 
  3 N        1.6050    -0.1530     0.1260 N.am  1 <1>  -0.4930 
  4 C        1.9190    -2.5770     0.4220 C.3   1 <1>   0.1710 
  5 C        1.7600     1.2470    -0.0390 C.2   1 <1>   0.0630 
  6 N        0.4580    -2.7120     0.1370 N.3   1 <1>  -0.8100 
  7 C        2.6920     1.9840    -0.7790 C.2   1 <1>   0.1080 
  8 C        0.9490     2.1780     0.5110 C.2   1 <1>  -0.3320 
  9 C        0.1500    -2.6670    -1.3030 C.3   1 <1>   0.1100 
 10 C       -0.0880    -3.9890     0.6320 C.3   1 <1>   0.1100 
 11 N        2.4840     3.2620    -0.6940 N.2   1 <1>  -0.7070 
 12 C        3.8220     1.4350    -1.6200 C.3   1 <1>  -0.0590 
 13 N        1.4130     3.3870     0.1070 N.pl3 1 <1>   0.3140 
 14 C       -0.2590     1.9850     1.4180 C.3   1 <1>  -0.0600 
 15 C       -1.2070    -3.3490    -1.4190 C.3   1 <1>   0.2000 
 16 C       -1.1030    -4.4910    -0.4120 C.3   1 <1>  -0.0800 
 17 C        0.8740     4.7220     0.4420 C.3   1 <1>   0.0960 
 18 O       -2.1640    -2.4650    -0.9600 O.3   1 <1>  -0.6800 
 19 C       -0.6450    -5.7930    -1.1020 C.3   1 <1>  -0.0170 
 20 C        1.4970     5.2630     1.7350 C.3   1 <1>  -0.2400 
 21 C       -0.4810    -6.9450    -0.1130 C.ar  1 <1>  -0.1440 
 22 C       -1.5850    -7.6170     0.4640 C.ar  1 <1>   0.0000 
 23 C        0.7680    -7.3610     0.2480 C.ar  1 <1>  -0.1500 
 24 C       -1.3130    -8.6450     1.4000 C.ar  1 <1>   0.3100 
 25 C       -2.9390    -7.3370     0.1660 C.ar  1 <1>  -0.1500 
 26 C        0.9270    -8.3980     1.1750 C.ar  1 <1>   0.1600 
 27 N       -0.0550    -9.0200     1.7440 N.ar  1 <1>  -0.6200 
 28 C       -2.3880    -9.3160     2.0050 C.ar  1 <1>  -0.1500 
 29 C       -3.9640    -8.0120     0.7710 C.ar  1 <1>  -0.1500 
 30 C       -3.6880    -9.0130     1.7050 C.ar  1 <1>  -0.1500 
 31 H        0.6460    -0.4620     0.2910 H     1 <1>   0.3700 
 32 H        2.0930    -2.7940     1.4610 H     1 <1>   0.0800 
 33 H        2.4740    -3.2910    -0.1590 H     1 <1>   0.0800 
 34 H        0.1210    -1.6590    -1.6810 H     1 <1>   0.0800 
 35 H        0.8810    -3.2310    -1.8570 H     1 <1>   0.0800 
 36 H        0.7000    -4.7080     0.7800 H     1 <1>   0.0800 
 37 H       -0.5760    -3.8240     1.5780 H     1 <1>   0.0800 
 38 H        3.5050     0.5470    -2.1320 H     1 <1>   0.0800 
 39 H        4.6590     1.2030    -0.9880 H     1 <1>   0.0800 
 40 H        4.1260     2.1660    -2.3460 H     1 <1>   0.0800 
 41 H       -0.4110     0.9440     1.6360 H     1 <1>   0.0800 
 42 H       -1.1450     2.3660     0.9420 H     1 <1>   0.0800 
 43 H       -0.1100     2.5030     2.3480 H     1 <1>   0.0800 
 44 H       -1.4640    -3.6510    -2.4200 H     1 <1>   0.0800 
 45 H       -2.0540    -4.6650     0.0580 H     1 <1>   0.0800 
 46 H        1.0990     5.3840    -0.3750 H     1 <1>   0.0800 
 47 H       -0.1930     4.6520     0.5380 H     1 <1>   0.0800 
 48 H       -1.8330    -2.1050    -0.1110 H     1 <1>   0.4000 
 49 H        0.2910    -5.6200    -1.6040 H     1 <1>   0.0800 
 50 H       -1.3550    -6.0760    -1.8590 H     1 <1>   0.0800 
 51 H        2.5650     5.3390     1.6210 H     1 <1>   0.0800 
 52 H        1.2750     4.6130     2.5620 H     1 <1>   0.0800 
 53 H        1.1060     6.2410     1.9500 H     1 <1>   0.0800 
 54 H        1.6550    -6.9110    -0.1580 H     1 <1>   0.1500 
 55 H       -3.1770    -6.5780    -0.5550 H     1 <1>   0.1500 
 56 H        1.9290    -8.6940     1.4330 H     1 <1>   0.1500 
 57 H       -2.1510   -10.0850     2.7180 H     1 <1>   0.1500 
 58 H       -4.9900    -7.7850     0.5360 H     1 <1>   0.1500 
 59 H       -4.5020    -9.5360     2.1770 H     1 <1>   0.1500 
@<TRIPOS>BOND
  1   1   2  2   
  2   2   3  am  
  3   2   4  1   
  4   3   5  1   
  5   3  31  1   
  6   4   6  1   
  7   4  32  1   
  8   4  33  1   
  9   5   7  1   
 10   5   8  2   
 11   6   9  1   
 12   6  10  1   
 13   7  11  2   
 14   7  12  1   
 15   8  13  1   
 16   8  14  1   
 17   9  15  1   
 18   9  34  1   
 19   9  35  1   
 20  10  16  1   
 21  10  36  1   
 22  10  37  1   
 23  11  13  1   
 24  12  38  1   
 25  12  39  1   
 26  12  40  1   
 27  13  17  1   
 28  14  41  1   
 29  14  42  1   
 30  14  43  1   
 31  15  16  1   
 32  15  18  1   
 33  15  44  1   
 34  16  19  1   
 35  16  45  1   
 36  17  20  1   
 37  17  46  1   
 38  17  47  1   
 39  18  48  1   
 40  19  21  1   
 41  19  49  1   
 42  19  50  1   
 43  20  51  1   
 44  20  52  1   
 45  20  53  1   
 46  21  22  ar  
 47  21  23  ar  
 48  22  24  ar  
 49  22  25  ar  
 50  23  26  ar  
 51  23  54  1   
 52  24  27  ar  
 53  24  28  ar  
 54  25  29  ar  
 55  25  55  1   
 56  26  27  ar  
 57  26  56  1   
 58  28  30  ar  
 59  28  57  1   
 60  29  30  ar  
 61  29  58  1   
 62  30  59  1   
@<TRIPOS>SUBSTRUCTURE
  1 ****   6 GROUP 4 **** **** 0

# MOE 2024.06 (io_trps.svl 2023.06)
