@<TRIPOS>MOLECULE
NONAME
51 54 1 0 0 
SMALL
USER_CHARGES


@<TRIPOS>ATOM
  1 O       -0.7620     0.0270    -0.1500 O.2   1 <1>  -0.5700 
  2 C       -1.8320     0.6150    -0.1030 C.2   1 <1>   0.7160 
  3 N       -2.9650    -0.1330    -0.3770 N.am  1 <1>  -0.6600 
  4 C       -1.8570     2.0420     0.2270 C.2   1 <1>   0.2030 
  5 C       -4.3490     0.3890    -0.4840 C.3   1 <1>   0.1400 
  6 C       -2.9270    -1.5880    -0.6460 C.3   1 <1>   0.1400 
  7 N       -2.9130     2.8310     0.3720 N.2   1 <1>  -0.7070 
  8 C       -0.6870     2.7860     0.4430 C.2   1 <1>  -0.1500 
  9 C       -5.1880    -0.8010    -0.9510 C.3   1 <1>   0.2000 
 10 C       -4.3840    -2.0450    -0.5760 C.3   1 <1>  -0.0800 
 11 N       -2.4220     4.0410     0.6720 N.pl3 1 <1>   0.3000 
 12 C       -1.0770     4.0440     0.7210 C.2   1 <1>  -0.3320 
 13 O       -6.4240    -0.8350    -0.3250 O.3   1 <1>  -0.6800 
 14 C       -4.6930    -3.2510    -1.4780 C.3   1 <1>  -0.0170 
 15 C       -0.2350     5.2670     1.0390 C.3   1 <1>   0.0200 
 16 C       -3.8790    -4.4710    -1.0600 C.ar  1 <1>  -0.1430 
 17 C       -0.3550     6.3140    -0.0730 C.3   1 <1>  -0.1600 
 18 C       -4.2240    -5.2630     0.0610 C.ar  1 <1>   0.0000 
 19 C       -2.7680    -4.8280    -1.7660 C.ar  1 <1>  -0.1500 
 20 C        0.5120     7.5440     0.2150 C.3   1 <1>  -0.2400 
 21 C       -3.3810    -6.3560     0.3780 C.ar  1 <1>   0.3100 
 22 C       -5.3530    -5.0370     0.8840 C.ar  1 <1>  -0.1500 
 23 C       -2.0070    -5.9350    -1.3720 C.ar  1 <1>   0.1600 
 24 N       -2.2800    -6.6780    -0.3470 N.ar  1 <1>  -0.6200 
 25 C       -3.6900    -7.1520     1.4930 C.ar  1 <1>  -0.1500 
 26 C       -5.6270    -5.8340     1.9620 C.ar  1 <1>  -0.1500 
 27 C       -4.7860    -6.9040     2.2740 C.ar  1 <1>  -0.1500 
 28 H       -4.6700     0.7390     0.4820 H     1 <1>   0.0800 
 29 H       -4.3920     1.1920    -1.1990 H     1 <1>   0.0800 
 30 H       -2.5160    -1.7470    -1.6280 H     1 <1>   0.0800 
 31 H       -2.3180    -2.0990     0.0820 H     1 <1>   0.0800 
 32 H        0.3110     2.3860     0.3880 H     1 <1>   0.1500 
 33 H       -5.3460    -0.7400    -2.0140 H     1 <1>   0.0800 
 34 H       -4.5810    -2.2970     0.4510 H     1 <1>   0.0800 
 35 H       -3.0260     4.8560     0.8390 H     1 <1>   0.2700 
 36 H       -6.3120    -0.8120     0.6450 H     1 <1>   0.4000 
 37 H       -4.4660    -2.9980    -2.4990 H     1 <1>   0.0800 
 38 H       -5.7430    -3.4800    -1.4420 H     1 <1>   0.0800 
 39 H       -0.5470     5.6860     1.9800 H     1 <1>   0.0800 
 40 H        0.7950     4.9670     1.1370 H     1 <1>   0.0800 
 41 H       -0.0480     5.8730    -1.0070 H     1 <1>   0.0800 
 42 H       -1.3810     6.6220    -0.1750 H     1 <1>   0.0800 
 43 H       -2.4460    -4.2780    -2.6310 H     1 <1>   0.1500 
 44 H        1.5490     7.2640     0.2910 H     1 <1>   0.0800 
 45 H        0.2110     8.0130     1.1350 H     1 <1>   0.0800 
 46 H        0.4120     8.2590    -0.5830 H     1 <1>   0.0800 
 47 H       -6.0160    -4.2230     0.6600 H     1 <1>   0.1500 
 48 H       -1.1370    -6.1820    -1.9570 H     1 <1>   0.1500 
 49 H       -3.0300    -7.9710     1.7120 H     1 <1>   0.1500 
 50 H       -6.4900    -5.6510     2.5800 H     1 <1>   0.1500 
 51 H       -5.0100    -7.5240     3.1250 H     1 <1>   0.1500 
@<TRIPOS>BOND
  1   1   2  2   
  2   2   3  am  
  3   2   4  1   
  4   3   5  1   
  5   3   6  1   
  6   4   7  2   
  7   4   8  1   
  8   5   9  1   
  9   5  28  1   
 10   5  29  1   
 11   6  10  1   
 12   6  30  1   
 13   6  31  1   
 14   7  11  1   
 15   8  12  2   
 16   8  32  1   
 17   9  10  1   
 18   9  13  1   
 19   9  33  1   
 20  10  14  1   
 21  10  34  1   
 22  11  12  1   
 23  11  35  1   
 24  12  15  1   
 25  13  36  1   
 26  14  16  1   
 27  14  37  1   
 28  14  38  1   
 29  15  17  1   
 30  15  39  1   
 31  15  40  1   
 32  16  18  ar  
 33  16  19  ar  
 34  17  20  1   
 35  17  41  1   
 36  17  42  1   
 37  18  21  ar  
 38  18  22  ar  
 39  19  23  ar  
 40  19  43  1   
 41  20  44  1   
 42  20  45  1   
 43  20  46  1   
 44  21  24  ar  
 45  21  25  ar  
 46  22  26  ar  
 47  22  47  1   
 48  23  24  ar  
 49  23  48  1   
 50  25  27  ar  
 51  25  49  1   
 52  26  27  ar  
 53  26  50  1   
 54  27  51  1   
@<TRIPOS>SUBSTRUCTURE
  1 ****   6 GROUP 4 **** **** 0

# MOE 2024.06 (io_trps.svl 2023.06)
