@<TRIPOS>MOLECULE
NONAME
45 46 1 0 0 
SMALL
USER_CHARGES


@<TRIPOS>ATOM
  1 S        0.2390     0.0330    -0.6410 S.o2  1 <1>   1.3330 
  2 O        0.2150    -1.4080    -0.5270 O.2   1 <1>  -0.6500 
  3 O       -0.0790     0.6510    -1.9080 O.2   1 <1>  -0.6500 
  4 N       -0.8200     0.6590     0.5290 N.am  1 <1>  -0.8490 
  5 C        1.8290     0.6820    -0.1270 C.3   1 <1>  -0.0550 
  6 C       -0.8170    -0.1080     1.7800 C.3   1 <1>   0.1160 
  7 C       -2.1910     0.7760     0.0230 C.3   1 <1>   0.1160 
  8 C        2.9920     0.2920    -1.0720 C.3   1 <1>  -0.0800 
  9 C        4.3020     1.0220    -0.7880 C.3   1 <1>   0.2200 
 10 C        3.4300    -1.1450    -0.7990 C.3   1 <1>   0.1200 
 11 N        4.1190     2.4420    -0.3980 N.am  1 <1>  -0.7300 
 12 C        4.9460     0.1620     0.3060 C.3   1 <1>   0.1200 
 13 O        4.2550    -1.0550     0.3160 O.3   1 <1>  -0.5600 
 14 C        5.1280     3.2900    -0.0440 C.2   1 <1>   0.7160 
 15 O        6.2540     2.8380     0.0490 O.2   1 <1>  -0.5700 
 16 C        4.8250     4.6870     0.1880 C.2   1 <1>  -0.0860 
 17 C        5.6190     5.8110     0.1230 C.2   1 <1>  -0.3320 
 18 C        3.5490     5.1680     0.5530 C.2   1 <1>  -0.1500 
 19 N        4.8940     6.9170     0.4260 N.pl3 1 <1>   0.0480 
 20 C        7.0990     5.8920    -0.2320 C.3   1 <1>  -0.0600 
 21 C        3.6270     6.5130     0.6860 C.2   1 <1>  -0.3020 
 22 C        5.3670     8.3120     0.4770 C.3   1 <1>   0.0160 
 23 H        1.7330     1.7480    -0.0950 H     1 <1>   0.0800 
 24 H        2.0540     0.3500     0.8680 H     1 <1>   0.0800 
 25 H       -1.4400     0.3780     2.5120 H     1 <1>   0.0800 
 26 H        0.1810    -0.1730     2.1760 H     1 <1>   0.0800 
 27 H       -1.1880    -1.1060     1.6120 H     1 <1>   0.0800 
 28 H       -2.8350     1.1900     0.7800 H     1 <1>   0.0800 
 29 H       -2.5650    -0.1900    -0.2730 H     1 <1>   0.0800 
 30 H       -2.2140     1.4320    -0.8320 H     1 <1>   0.0800 
 31 H        2.7000     0.4140    -2.1010 H     1 <1>   0.0800 
 32 H        4.9350     0.9830    -1.6600 H     1 <1>   0.0800 
 33 H        4.0170    -1.5340    -1.6140 H     1 <1>   0.0800 
 34 H        2.6240    -1.8240    -0.5850 H     1 <1>   0.0800 
 35 H        3.2610     2.8890    -0.7180 H     1 <1>   0.3700 
 36 H        4.8420     0.6110     1.2780 H     1 <1>   0.0800 
 37 H        5.9830    -0.0280     0.0940 H     1 <1>   0.0800 
 38 H        2.6770     4.5570     0.7070 H     1 <1>   0.1500 
 39 H        7.4840     4.9340    -0.5280 H     1 <1>   0.0800 
 40 H        7.6620     6.2320     0.6190 H     1 <1>   0.0800 
 41 H        7.2480     6.5760    -1.0480 H     1 <1>   0.0800 
 42 H        2.8470     7.2030     0.9560 H     1 <1>   0.1500 
 43 H        4.5730     8.9500     0.8170 H     1 <1>   0.0800 
 44 H        5.6770     8.6160    -0.5060 H     1 <1>   0.0800 
 45 H        6.1960     8.3790     1.1560 H     1 <1>   0.0800 
@<TRIPOS>BOND
  1   1   2  2   
  2   1   3  2   
  3   1   4  am  
  4   1   5  1   
  5   4   6  1   
  6   4   7  1   
  7   5   8  1   
  8   5  23  1   
  9   5  24  1   
 10   6  25  1   
 11   6  26  1   
 12   6  27  1   
 13   7  28  1   
 14   7  29  1   
 15   7  30  1   
 16   8   9  1   
 17   8  10  1   
 18   8  31  1   
 19   9  11  1   
 20   9  12  1   
 21   9  32  1   
 22  10  13  1   
 23  10  33  1   
 24  10  34  1   
 25  11  14  am  
 26  11  35  1   
 27  12  13  1   
 28  12  36  1   
 29  12  37  1   
 30  14  15  2   
 31  14  16  1   
 32  16  17  2   
 33  16  18  1   
 34  17  19  1   
 35  17  20  1   
 36  18  21  2   
 37  18  38  1   
 38  19  21  1   
 39  19  22  1   
 40  20  39  1   
 41  20  40  1   
 42  20  41  1   
 43  21  42  1   
 44  22  43  1   
 45  22  44  1   
 46  22  45  1   
@<TRIPOS>SUBSTRUCTURE
  1 ****  11 GROUP 4 **** **** 0

# MOE 2024.06 (io_trps.svl 2023.06)
