@<TRIPOS>MOLECULE
NONAME
42 43 1 0 0 
SMALL
USER_CHARGES


@<TRIPOS>ATOM
  1 O       -0.1480     0.5300     1.1400 O.2   1 <1>  -0.5700 
  2 C       -0.6440     1.0610     0.1670 C.2   1 <1>   0.7800 
  3 O       -1.6930     0.5430    -0.4670 O.3   1 <1>  -0.4300 
  4 N       -0.1720     2.2160    -0.3420 N.am  1 <1>  -0.7300 
  5 C       -2.3740    -0.6520    -0.1490 C.3   1 <1>   0.2800 
  6 C        0.8770     3.0800     0.2530 C.3   1 <1>   0.1400 
  7 C       -3.0030    -0.5490     1.2450 C.3   1 <1>  -0.2400 
  8 C       -1.4290    -1.8520    -0.2780 C.3   1 <1>  -0.2400 
  9 C       -3.4840    -0.7700    -1.1950 C.3   1 <1>  -0.2400 
 10 C        0.4320     4.5550     0.3110 C.3   1 <1>   0.2800 
 11 O       -0.0400     4.9310    -0.9620 O.3   1 <1>  -0.5600 
 12 C       -0.7230     4.7840     1.3120 C.3   1 <1>  -0.1600 
 13 C        1.6100     5.4900     0.6600 C.3   1 <1>  -0.1600 
 14 C       -0.4800     6.2750    -1.0870 C.3   1 <1>   0.1200 
 15 C       -1.1640     6.2630     1.2980 C.3   1 <1>  -0.1600 
 16 C        1.1520     6.9640     0.6500 C.3   1 <1>  -0.1600 
 17 C       -0.3380     7.0420     0.2460 C.3   1 <1>  -0.1060 
 18 C       -0.8130     8.4960     0.1040 C.2   1 <1>   0.9060 
 19 O       -0.7940     9.2270     1.1020 O.co2 1 <1>  -0.9000 
 20 O       -1.1970     8.9100    -0.9970 O.co2 1 <1>  -0.9000 
 21 H       -0.6970     2.6730    -1.0910 H     1 <1>   0.3700 
 22 H        1.7660     3.0060    -0.3480 H     1 <1>   0.0800 
 23 H        1.1180     2.7360     1.2440 H     1 <1>   0.0800 
 24 H       -2.2500    -0.5330     2.0110 H     1 <1>   0.0800 
 25 H       -3.6320    -1.4010     1.4270 H     1 <1>   0.0800 
 26 H       -3.6030     0.3400     1.3200 H     1 <1>   0.0800 
 27 H       -0.6760    -1.8370     0.4880 H     1 <1>   0.0800 
 28 H       -0.9520    -1.8500    -1.2410 H     1 <1>   0.0800 
 29 H       -1.9820    -2.7670    -0.1720 H     1 <1>   0.0800 
 30 H       -4.1430     0.0770    -1.1360 H     1 <1>   0.0800 
 31 H       -4.0610    -1.6610    -1.0300 H     1 <1>   0.0800 
 32 H       -3.0610    -0.8160    -2.1830 H     1 <1>   0.0800 
 33 H       -0.4010     4.5140     2.3020 H     1 <1>   0.0800 
 34 H       -1.5540     4.1530     1.0530 H     1 <1>   0.0800 
 35 H        2.4010     5.3500    -0.0540 H     1 <1>   0.0800 
 36 H        1.9920     5.2420     1.6340 H     1 <1>   0.0800 
 37 H       -1.5080     6.2630    -1.4030 H     1 <1>   0.0800 
 38 H        0.1060     6.7490    -1.8550 H     1 <1>   0.0800 
 39 H       -1.0240     6.7100     2.2680 H     1 <1>   0.0800 
 40 H       -2.2090     6.3330     1.0520 H     1 <1>   0.0800 
 41 H        1.7410     7.5280    -0.0540 H     1 <1>   0.0800 
 42 H        1.2850     7.4110     1.6210 H     1 <1>   0.0800 
@<TRIPOS>BOND
  1   1   2  2   
  2   2   3  1   
  3   2   4  am  
  4   3   5  1   
  5   4   6  1   
  6   4  21  1   
  7   5   7  1   
  8   5   8  1   
  9   5   9  1   
 10   6  10  1   
 11   6  22  1   
 12   6  23  1   
 13   7  24  1   
 14   7  25  1   
 15   7  26  1   
 16   8  27  1   
 17   8  28  1   
 18   8  29  1   
 19   9  30  1   
 20   9  31  1   
 21   9  32  1   
 22  10  11  1   
 23  10  12  1   
 24  10  13  1   
 25  11  14  1   
 26  12  15  1   
 27  12  33  1   
 28  12  34  1   
 29  13  16  1   
 30  13  35  1   
 31  13  36  1   
 32  14  17  1   
 33  14  37  1   
 34  14  38  1   
 35  15  17  1   
 36  15  39  1   
 37  15  40  1   
 38  16  17  1   
 39  16  41  1   
 40  16  42  1   
 41  17  18  1   
 42  18  19  ar  
 43  18  20  ar  
@<TRIPOS>SUBSTRUCTURE
  1 ****  10 GROUP 4 **** **** 0

# MOE 2024.06 (io_trps.svl 2023.06)
