@<TRIPOS>MOLECULE
NONAME
53 56 1 0 0 
SMALL
USER_CHARGES


@<TRIPOS>ATOM
  1 O        4.0440    -2.5120    -1.0640 O.2   1 <1>  -0.5700 
  2 C        3.0990    -2.2870    -0.3450 C.2   1 <1>   0.5690 
  3 N        2.7480    -0.9880    -0.0390 N.am  1 <1>  -0.6600 
  4 C        2.3240    -3.5030     0.1930 C.3   1 <1>   0.1710 
  5 C        3.3970     0.1580    -0.7540 C.3   1 <1>   0.1400 
  6 C        1.6240    -0.6220     0.8810 C.3   1 <1>   0.1400 
  7 N        0.8470    -3.4560    -0.0040 N.3   1 <1>  -0.8100 
  8 C        3.7660     1.2910     0.2170 C.3   1 <1>   0.3430 
  9 C        2.0070     0.5470     1.8100 C.3   1 <1>   0.3430 
 10 C        0.4790    -3.3280    -1.4230 C.3   1 <1>   0.1100 
 11 C        0.1740    -4.6770     0.4780 C.3   1 <1>   0.1100 
 12 N        2.5910     1.7060     1.0550 N.4   1 <1>  -0.9060 
 13 C       -0.9680    -3.7990    -1.4730 C.3   1 <1>   0.2000 
 14 C       -0.9730    -4.9810    -0.5050 C.3   1 <1>  -0.0800 
 15 O       -1.7490    -2.8000    -0.9240 O.3   1 <1>  -0.6800 
 16 C       -0.7640    -6.3100    -1.2600 C.3   1 <1>  -0.0170 
 17 C       -0.7030    -7.5090    -0.3160 C.ar  1 <1>  -0.1440 
 18 C       -1.8510    -8.0320     0.3270 C.ar  1 <1>   0.0000 
 19 C        0.4920    -8.1170    -0.0630 C.ar  1 <1>  -0.1500 
 20 C       -1.6690    -9.1220     1.2130 C.ar  1 <1>   0.3100 
 21 C       -3.1660    -7.5440     0.1410 C.ar  1 <1>  -0.1500 
 22 C        0.5600    -9.1990     0.8230 C.ar  1 <1>   0.1600 
 23 N       -0.4600    -9.6910     1.4490 N.ar  1 <1>  -0.6200 
 24 C       -2.7850    -9.6500     1.8800 C.ar  1 <1>  -0.1500 
 25 C       -4.2340    -8.0830     0.8050 C.ar  1 <1>  -0.1500 
 26 C       -4.0440    -9.1480     1.6890 C.ar  1 <1>  -0.1500 
 27 H        2.5350    -3.5940     1.2430 H     1 <1>   0.0800 
 28 H        2.7170    -4.3810    -0.2910 H     1 <1>   0.0800 
 29 H        4.2940    -0.1670    -1.2560 H     1 <1>   0.0800 
 30 H        2.7250     0.5270    -1.5090 H     1 <1>   0.0800 
 31 H        0.7610    -0.3600     0.2940 H     1 <1>   0.0800 
 32 H        1.3530    -1.4610     1.4970 H     1 <1>   0.0800 
 33 H        4.1360     2.1330    -0.3460 H     1 <1>   0.0800 
 34 H        4.5640     0.9450     0.8550 H     1 <1>   0.0800 
 35 H        2.7260     0.1860     2.5270 H     1 <1>   0.0800 
 36 H        1.1320     0.8650     2.3550 H     1 <1>   0.0800 
 37 H        0.5810    -2.3160    -1.7750 H     1 <1>   0.0800 
 38 H        1.0900    -3.9780    -2.0270 H     1 <1>   0.0800 
 39 H        0.8670    -5.4990     0.5250 H     1 <1>   0.0800 
 40 H       -0.2150    -4.5060     1.4680 H     1 <1>   0.0800 
 41 H        1.8690     2.1040     0.4410 H     1 <1>   0.4500 
 42 H        2.8740     2.4450     1.7110 H     1 <1>   0.4500 
 43 H       -1.3270    -4.0210    -2.4640 H     1 <1>   0.0800 
 44 H       -1.9070    -5.0270     0.0260 H     1 <1>   0.0800 
 45 H       -1.3350    -2.5700    -0.0680 H     1 <1>   0.4000 
 46 H        0.1490    -6.2580    -1.8270 H     1 <1>   0.0800 
 47 H       -1.5610    -6.4580    -1.9690 H     1 <1>   0.0800 
 48 H        1.4040    -7.7870    -0.5250 H     1 <1>   0.1500 
 49 H       -3.3380    -6.7320    -0.5400 H     1 <1>   0.1500 
 50 H        1.5240    -9.6470     0.9960 H     1 <1>   0.1500 
 51 H       -2.6160   -10.4710     2.5520 H     1 <1>   0.1500 
 52 H       -5.2280    -7.6990     0.6560 H     1 <1>   0.1500 
 53 H       -4.8910    -9.5620     2.2080 H     1 <1>   0.1500 
@<TRIPOS>BOND
  1   1   2  2   
  2   2   3  am  
  3   2   4  1   
  4   3   5  1   
  5   3   6  1   
  6   4   7  1   
  7   4  27  1   
  8   4  28  1   
  9   5   8  1   
 10   5  29  1   
 11   5  30  1   
 12   6   9  1   
 13   6  31  1   
 14   6  32  1   
 15   7  10  1   
 16   7  11  1   
 17   8  12  1   
 18   8  33  1   
 19   8  34  1   
 20   9  12  1   
 21   9  35  1   
 22   9  36  1   
 23  10  13  1   
 24  10  37  1   
 25  10  38  1   
 26  11  14  1   
 27  11  39  1   
 28  11  40  1   
 29  12  41  1   
 30  12  42  1   
 31  13  14  1   
 32  13  15  1   
 33  13  43  1   
 34  14  16  1   
 35  14  44  1   
 36  15  45  1   
 37  16  17  1   
 38  16  46  1   
 39  16  47  1   
 40  17  18  ar  
 41  17  19  ar  
 42  18  20  ar  
 43  18  21  ar  
 44  19  22  ar  
 45  19  48  1   
 46  20  23  ar  
 47  20  24  ar  
 48  21  25  ar  
 49  21  49  1   
 50  22  23  ar  
 51  22  50  1   
 52  24  26  ar  
 53  24  51  1   
 54  25  26  ar  
 55  25  52  1   
 56  26  53  1   
@<TRIPOS>SUBSTRUCTURE
  1 ****  11 GROUP 4 **** **** 0

# MOE 2024.06 (io_trps.svl 2023.06)
