@<TRIPOS>MOLECULE
NONAME
53 56 1 0 0 
SMALL
USER_CHARGES


@<TRIPOS>ATOM
  1 O        0.3960     2.9850    -0.3190 O.2   1 <1>  -0.5700 
  2 C       -0.7950     2.7830    -0.1060 C.2   1 <1>   0.5440 
  3 N       -1.5720     3.7460     0.5230 N.am  1 <1>  -0.2980 
  4 C       -1.4220     1.5410    -0.4650 C.ar  1 <1>   0.0860 
  5 N       -2.8740     3.5400     0.9020 N.2   1 <1>  -0.5120 
  6 C       -1.0180     5.0980     0.8340 C.3   1 <1>   0.2010 
  7 C       -2.7650     1.3520    -0.1030 C.ar  1 <1>   0.0860 
  8 C       -0.7440     0.5260    -1.1490 C.ar  1 <1>  -0.1500 
  9 C       -3.4260     2.4190     0.6030 C.2   1 <1>   0.3030 
 10 C       -0.3380     5.7680    -0.3670 C.2   1 <1>   0.5690 
 11 C       -3.3780     0.1380    -0.4490 C.ar  1 <1>  -0.1500 
 12 C       -1.3680    -0.6560    -1.4750 C.ar  1 <1>  -0.1500 
 13 C       -4.8710     2.2400     1.0390 C.3   1 <1>  -0.1790 
 14 O       -1.0240     6.0020    -1.3350 O.2   1 <1>  -0.5700 
 15 N        1.0060     6.0810    -0.3840 N.am  1 <1>  -0.6600 
 16 C       -2.6940    -0.8500    -1.1220 C.ar  1 <1>  -0.1500 
 17 C        1.8800     6.1790     0.8460 C.3   1 <1>   0.2200 
 18 C        1.6380     6.2860    -1.7270 C.3   1 <1>   0.1400 
 19 C        2.6950     7.4840     0.8690 C.3   1 <1>   0.1200 
 20 C        2.7980     4.9440     1.0210 C.3   1 <1>   0.3430 
 21 C        3.1710     6.1600    -1.7780 C.3   1 <1>  -0.0800 
 22 O        3.9120     7.3400     0.2050 O.3   1 <1>  -0.5600 
 23 N        2.9400     4.1330    -0.2300 N.4   1 <1>  -0.9590 
 24 C        3.8740     7.3880    -1.1800 C.3   1 <1>   0.1200 
 25 C        3.7590     4.8290    -1.2670 C.3   1 <1>   0.3430 
 26 C        3.6090     2.8170     0.1270 C.3   1 <1>   0.2370 
 27 C        4.9890     2.9550     0.7760 C.2   1 <1>   0.9060 
 28 O        5.9750     2.9970     0.0340 O.co2 1 <1>  -0.9000 
 29 O        5.0350     3.1430     1.9950 O.co2 1 <1>  -0.9000 
 30 H       -1.8240     5.7350     1.1500 H     1 <1>   0.0800 
 31 H       -0.3450     4.9850     1.6570 H     1 <1>   0.0800 
 32 H        0.2860     0.6760    -1.4250 H     1 <1>   0.1500 
 33 H       -4.4060    -0.0400    -0.1890 H     1 <1>   0.1500 
 34 H       -0.8350    -1.4300    -2.0020 H     1 <1>   0.1500 
 35 H       -4.9580     1.3960     1.6980 H     1 <1>   0.0800 
 36 H       -5.4990     2.0960     0.1790 H     1 <1>   0.0800 
 37 H       -5.2140     3.1150     1.5630 H     1 <1>   0.0800 
 38 H       -3.1830    -1.7750    -1.3780 H     1 <1>   0.1500 
 39 H        1.2520     6.2390     1.7130 H     1 <1>   0.0800 
 40 H        1.2210     5.5610    -2.4070 H     1 <1>   0.0800 
 41 H        1.3470     7.2570    -2.0920 H     1 <1>   0.0800 
 42 H        2.9390     7.7240     1.8890 H     1 <1>   0.0800 
 43 H        2.1430     8.3080     0.4500 H     1 <1>   0.0800 
 44 H        2.3820     4.3180     1.7930 H     1 <1>   0.0800 
 45 H        3.7720     5.2570     1.3680 H     1 <1>   0.0800 
 46 H        3.4220     6.1980    -2.8220 H     1 <1>   0.0800 
 47 H        1.9800     3.9360    -0.5740 H     1 <1>   0.4500 
 48 H        3.4000     8.3060    -1.4850 H     1 <1>   0.0800 
 49 H        4.8980     7.4130    -1.5130 H     1 <1>   0.0800 
 50 H        4.7500     5.0070    -0.8770 H     1 <1>   0.0800 
 51 H        3.8690     4.1630    -2.1070 H     1 <1>   0.0800 
 52 H        2.9880     2.2750     0.8160 H     1 <1>   0.0800 
 53 H        3.7310     2.2190    -0.7580 H     1 <1>   0.0800 
@<TRIPOS>BOND
  1   1   2  2   
  2   2   3  am  
  3   2   4  1   
  4   3   5  1   
  5   3   6  1   
  6   4   7  ar  
  7   4   8  ar  
  8   5   9  2   
  9   6  10  1   
 10   6  30  1   
 11   6  31  1   
 12   7   9  1   
 13   7  11  ar  
 14   8  12  ar  
 15   8  32  1   
 16   9  13  1   
 17  10  14  2   
 18  10  15  am  
 19  11  16  ar  
 20  11  33  1   
 21  12  16  ar  
 22  12  34  1   
 23  13  35  1   
 24  13  36  1   
 25  13  37  1   
 26  15  17  1   
 27  15  18  1   
 28  16  38  1   
 29  17  19  1   
 30  17  20  1   
 31  17  39  1   
 32  18  21  1   
 33  18  40  1   
 34  18  41  1   
 35  19  22  1   
 36  19  42  1   
 37  19  43  1   
 38  20  23  1   
 39  20  44  1   
 40  20  45  1   
 41  21  24  1   
 42  21  25  1   
 43  21  46  1   
 44  22  24  1   
 45  23  25  1   
 46  23  26  1   
 47  23  47  1   
 48  24  48  1   
 49  24  49  1   
 50  25  50  1   
 51  25  51  1   
 52  26  27  1   
 53  26  52  1   
 54  26  53  1   
 55  27  28  ar  
 56  27  29  ar  
@<TRIPOS>SUBSTRUCTURE
  1 ****   1 GROUP 4 **** **** 0

# MOE 2024.06 (io_trps.svl 2023.06)
