@<TRIPOS>MOLECULE
NONAME
50 52 1 0 0 
SMALL
USER_CHARGES


@<TRIPOS>ATOM
  1 O       -0.1920     0.5760     0.8180 O.3   1 <1>  -0.3630 
  2 C        1.0650     1.0330     0.5900 C.ar  1 <1>   0.0820 
  3 C       -1.2170     1.4350     1.2750 C.3   1 <1>   0.0400 
  4 C        2.0800     0.1150     0.4690 C.ar  1 <1>  -0.1440 
  5 C        1.3450     2.4060     0.4610 C.ar  1 <1>  -0.1500 
  6 C        3.4160     0.5230     0.2360 C.ar  1 <1>   0.0000 
  7 C        1.7540    -1.3620     0.5730 C.3   1 <1>   0.4870 
  8 C        2.6220     2.8210     0.2130 C.ar  1 <1>  -0.1500 
  9 C        3.6810     1.9030     0.0860 C.ar  1 <1>   0.0000 
 10 C        4.5090    -0.3680     0.1400 C.ar  1 <1>  -0.1500 
 11 N        1.8370    -1.9490    -0.7950 N.4   1 <1>  -0.9590 
 12 C        4.9970     2.3260    -0.1870 C.ar  1 <1>  -0.1500 
 13 C        5.7800     0.0610    -0.1300 C.ar  1 <1>   0.0820 
 14 C        2.0550    -3.4340    -0.7230 C.3   1 <1>   0.3430 
 15 C        0.6610    -1.5390    -1.6190 C.3   1 <1>   0.3430 
 16 C        6.0270     1.4350    -0.2990 C.ar  1 <1>  -0.1500 
 17 O        6.7440    -0.8850    -0.2190 O.3   1 <1>  -0.3630 
 18 C        0.8320    -4.2650    -1.1400 C.3   1 <1>  -0.0800 
 19 C       -0.6430    -2.2050    -1.1490 C.3   1 <1>  -0.1600 
 20 C        8.1010    -0.5440    -0.4050 C.3   1 <1>   0.0400 
 21 C       -0.4630    -3.6340    -0.6160 C.3   1 <1>   0.2000 
 22 C        0.9930    -5.7130    -0.6640 C.3   1 <1>   0.1200 
 23 O       -0.3930    -3.5790     0.7670 O.3   1 <1>  -0.6800 
 24 O        2.2160    -6.1790    -1.1160 O.3   1 <1>  -0.6800 
 25 H       -2.0750     0.8360     1.5230 H     1 <1>   0.0800 
 26 H       -1.4730     2.1270     0.4920 H     1 <1>   0.0800 
 27 H       -0.8740     1.9570     2.1520 H     1 <1>   0.0800 
 28 H        0.5650     3.1380     0.5500 H     1 <1>   0.1500 
 29 H        0.7700    -1.5070     0.9870 H     1 <1>   0.0800 
 30 H        2.4650    -1.8360     1.2300 H     1 <1>   0.0800 
 31 H        2.8390     3.8700     0.1090 H     1 <1>   0.1500 
 32 H        4.3730    -1.4210     0.2890 H     1 <1>   0.1500 
 33 H        2.6740    -1.5180    -1.2110 H     1 <1>   0.4500 
 34 H        5.1810     3.3790    -0.3080 H     1 <1>   0.1500 
 35 H        2.8840    -3.7150    -1.3540 H     1 <1>   0.0800 
 36 H        2.3170    -3.7070     0.2860 H     1 <1>   0.0800 
 37 H        0.5470    -0.4660    -1.5980 H     1 <1>   0.0800 
 38 H        0.8440    -1.8290    -2.6410 H     1 <1>   0.0800 
 39 H        7.0170     1.7910    -0.5120 H     1 <1>   0.1500 
 40 H        0.7830    -4.2910    -2.2140 H     1 <1>   0.0800 
 41 H       -1.2960    -2.2420    -2.0030 H     1 <1>   0.0800 
 42 H       -1.1330    -1.5860    -0.4190 H     1 <1>   0.0800 
 43 H        8.6780    -1.4510    -0.4070 H     1 <1>   0.0800 
 44 H        8.4180     0.0880     0.4060 H     1 <1>   0.0800 
 45 H        8.2090    -0.0420    -1.3500 H     1 <1>   0.0800 
 46 H       -1.3140    -4.2440    -0.8750 H     1 <1>   0.0800 
 47 H        0.2160    -6.3410    -1.0670 H     1 <1>   0.0800 
 48 H        0.9850    -5.7770     0.4120 H     1 <1>   0.0800 
 49 H       -1.2780    -3.4010     1.1500 H     1 <1>   0.4000 
 50 H        2.3310    -7.1270    -0.8960 H     1 <1>   0.4000 
@<TRIPOS>BOND
  1   1   2  1   
  2   1   3  1   
  3   2   4  ar  
  4   2   5  ar  
  5   3  25  1   
  6   3  26  1   
  7   3  27  1   
  8   4   6  ar  
  9   4   7  1   
 10   5   8  ar  
 11   5  28  1   
 12   6   9  ar  
 13   6  10  ar  
 14   7  11  1   
 15   7  29  1   
 16   7  30  1   
 17   8   9  ar  
 18   8  31  1   
 19   9  12  ar  
 20  10  13  ar  
 21  10  32  1   
 22  11  14  1   
 23  11  15  1   
 24  11  33  1   
 25  12  16  ar  
 26  12  34  1   
 27  13  16  ar  
 28  13  17  1   
 29  14  18  1   
 30  14  35  1   
 31  14  36  1   
 32  15  19  1   
 33  15  37  1   
 34  15  38  1   
 35  16  39  1   
 36  17  20  1   
 37  18  21  1   
 38  18  22  1   
 39  18  40  1   
 40  19  21  1   
 41  19  41  1   
 42  19  42  1   
 43  20  43  1   
 44  20  44  1   
 45  20  45  1   
 46  21  23  1   
 47  21  46  1   
 48  22  24  1   
 49  22  47  1   
 50  22  48  1   
 51  23  49  1   
 52  24  50  1   
@<TRIPOS>SUBSTRUCTURE
  1 ****   7 GROUP 4 **** **** 0

# MOE 2024.06 (io_trps.svl 2023.06)
