@<TRIPOS>MOLECULE
NONAME
56 58 1 0 0 
SMALL
USER_CHARGES


@<TRIPOS>ATOM
  1 O        0.4870     2.1630    -2.1040 O.2   1 <1>  -0.5700 
  2 C       -0.2150     3.0910    -1.7770 C.2   1 <1>   0.5690 
  3 N       -0.8900     3.1390    -0.5890 N.am  1 <1>  -0.6600 
  4 C       -0.3610     4.2770    -2.7250 C.3   1 <1>   0.1810 
  5 C       -1.8040     4.3020    -0.3210 C.3   1 <1>   0.3640 
  6 C       -0.6460     2.1340     0.4810 C.3   1 <1>   0.2200 
  7 O       -0.3460     5.4850    -2.0090 O.3   1 <1>  -0.5600 
  8 C       -3.2540     3.9790    -0.7040 C.ar  1 <1>  -0.1440 
  9 C       -1.3740     5.6250    -1.0270 C.3   1 <1>   0.2610 
 10 C       -1.9530     1.6090     1.0770 C.3   1 <1>  -0.2400 
 11 C        0.2520     2.7470     1.5540 C.3   1 <1>  -0.2400 
 12 C       -4.2690     4.6720    -0.0570 C.ar  1 <1>  -0.1500 
 13 C       -3.5990     3.0400    -1.6700 C.ar  1 <1>  -0.1500 
 14 C       -0.9590     6.6380     0.0420 C.2   1 <1>   0.5690 
 15 C       -5.5970     4.4360    -0.3680 C.ar  1 <1>  -0.1500 
 16 C       -4.9260     2.8040    -1.9820 C.ar  1 <1>  -0.1500 
 17 O       -1.7770     6.9730     0.8680 O.2   1 <1>  -0.5700 
 18 N        0.3160     7.1080     0.0340 N.am  1 <1>  -0.7300 
 19 C       -5.9270     3.5020    -1.3320 C.ar  1 <1>  -0.1500 
 20 C        0.9980     8.0150     0.9760 C.3   1 <1>   0.3000 
 21 C        1.0890     7.3340     2.3450 C.3   1 <1>  -0.1600 
 22 C        2.4660     8.0540     0.5440 C.3   1 <1>  -0.1600 
 23 C        0.2830     9.3840     0.9560 C.3   1 <1>  -0.1600 
 24 C        2.2090     6.2920     2.2220 C.3   1 <1>  -0.1600 
 25 C        3.0790     6.7380     1.0390 C.3   1 <1>  -0.1600 
 26 C        0.9400    10.5280     1.7510 C.3   1 <1>  -0.2400 
 27 H       -1.2830     4.2070    -3.2730 H     1 <1>   0.0800 
 28 H        0.4630     4.2910    -3.4150 H     1 <1>   0.0800 
 29 H       -1.8040     4.4790     0.7400 H     1 <1>   0.0800 
 30 H       -0.1240     1.2930     0.0540 H     1 <1>   0.0800 
 31 H       -2.2260     6.0420    -1.5320 H     1 <1>   0.0800 
 32 H       -2.4910     2.3820     1.5940 H     1 <1>   0.0800 
 33 H       -1.7380     0.8250     1.7800 H     1 <1>   0.0800 
 34 H       -2.5720     1.1990     0.3010 H     1 <1>   0.0800 
 35 H       -0.2330     3.5650     2.0550 H     1 <1>   0.0800 
 36 H        1.1670     3.0920     1.1060 H     1 <1>   0.0800 
 37 H        0.5000     2.0020     2.2870 H     1 <1>   0.0800 
 38 H       -4.0340     5.4060     0.6970 H     1 <1>   0.1500 
 39 H       -2.8450     2.4740    -2.1880 H     1 <1>   0.1500 
 40 H       -6.3730     4.9810     0.1420 H     1 <1>   0.1500 
 41 H       -5.1810     2.0730    -2.7300 H     1 <1>   0.1500 
 42 H        0.9210     6.7470    -0.7070 H     1 <1>   0.3700 
 43 H       -6.9590     3.3180    -1.5740 H     1 <1>   0.1500 
 44 H        1.3830     8.0550     3.0850 H     1 <1>   0.0800 
 45 H        0.1550     6.9010     2.6540 H     1 <1>   0.0800 
 46 H        2.5810     8.1950    -0.5160 H     1 <1>   0.0800 
 47 H        2.9730     8.8560     1.0480 H     1 <1>   0.0800 
 48 H        0.1900     9.7030    -0.0670 H     1 <1>   0.0800 
 49 H       -0.7120     9.2520     1.3440 H     1 <1>   0.0800 
 50 H        2.7790     6.2320     3.1320 H     1 <1>   0.0800 
 51 H        1.7850     5.3260     2.0120 H     1 <1>   0.0800 
 52 H        3.0340     5.9950     0.2600 H     1 <1>   0.0800 
 53 H        4.1060     6.8740     1.3320 H     1 <1>   0.0800 
 54 H        1.8970    10.7900     1.3390 H     1 <1>   0.0800 
 55 H        1.0610    10.2640     2.7860 H     1 <1>   0.0800 
 56 H        0.3120    11.4000     1.7040 H     1 <1>   0.0800 
@<TRIPOS>BOND
  1   1   2  2   
  2   2   3  am  
  3   2   4  1   
  4   3   5  1   
  5   3   6  1   
  6   4   7  1   
  7   4  27  1   
  8   4  28  1   
  9   5   8  1   
 10   5   9  1   
 11   5  29  1   
 12   6  10  1   
 13   6  11  1   
 14   6  30  1   
 15   7   9  1   
 16   8  12  ar  
 17   8  13  ar  
 18   9  14  1   
 19   9  31  1   
 20  10  32  1   
 21  10  33  1   
 22  10  34  1   
 23  11  35  1   
 24  11  36  1   
 25  11  37  1   
 26  12  15  ar  
 27  12  38  1   
 28  13  16  ar  
 29  13  39  1   
 30  14  17  2   
 31  14  18  am  
 32  15  19  ar  
 33  15  40  1   
 34  16  19  ar  
 35  16  41  1   
 36  18  20  1   
 37  18  42  1   
 38  19  43  1   
 39  20  21  1   
 40  20  22  1   
 41  20  23  1   
 42  21  24  1   
 43  21  44  1   
 44  21  45  1   
 45  22  25  1   
 46  22  46  1   
 47  22  47  1   
 48  23  26  1   
 49  23  48  1   
 50  23  49  1   
 51  24  25  1   
 52  24  50  1   
 53  24  51  1   
 54  25  52  1   
 55  25  53  1   
 56  26  54  1   
 57  26  55  1   
 58  26  56  1   
@<TRIPOS>SUBSTRUCTURE
  1 ****   9 GROUP 4 **** **** 0

# MOE 2024.06 (io_trps.svl 2023.06)
