@<TRIPOS>MOLECULE
NONAME
46 48 1 0 0 
SMALL
USER_CHARGES


@<TRIPOS>ATOM
  1 O       -2.9080     1.1790    -2.1450 O.2   1 <1>  -0.5700 
  2 C       -2.3520     1.2480    -1.0660 C.2   1 <1>   0.5440 
  3 N       -2.1380     0.0950    -0.3700 N.am  1 <1>  -0.7300 
  4 C       -1.9700     2.5290    -0.5000 C.ar  1 <1>   0.0860 
  5 C       -2.5110    -1.2620    -0.8290 C.3   1 <1>   0.2200 
  6 C       -0.6740     2.8280    -0.0530 C.ar  1 <1>  -0.1440 
  7 C       -2.9520     3.5100    -0.3770 C.ar  1 <1>  -0.1500 
  8 C       -3.7910    -1.6870    -0.1310 C.3   1 <1>  -0.0800 
  9 C       -1.5090    -2.2790    -0.2950 C.3   1 <1>   0.1200 
 10 C       -0.4070     4.0600     0.5430 C.ar  1 <1>   0.0820 
 11 C        0.4640     1.8180    -0.2260 C.3   1 <1>  -0.0960 
 12 C       -2.6850     4.7360     0.1960 C.ar  1 <1>  -0.1500 
 13 C       -3.2620    -2.2230     1.2030 C.3   1 <1>   0.1200 
 14 C       -4.5440    -2.7610    -0.9380 C.3   1 <1>  -0.0160 
 15 O       -1.9370    -2.6170     0.9920 O.3   1 <1>  -0.5600 
 16 O        0.8550     4.2890     0.9970 O.3   1 <1>  -0.3630 
 17 C       -1.4160     5.0110     0.6630 C.ar  1 <1>  -0.1500 
 18 C       -5.8460    -3.1540    -0.2570 C.ar  1 <1>  -0.1440 
 19 C        1.2340     5.5160     1.5800 C.3   1 <1>   0.0400 
 20 C       -5.9910    -4.3490     0.4190 C.ar  1 <1>  -0.1500 
 21 C       -6.9530    -2.3300    -0.2820 C.ar  1 <1>  -0.1500 
 22 C       -7.2000    -4.6500     1.0240 C.ar  1 <1>   0.1600 
 23 C       -8.1170    -2.7270     0.3550 C.ar  1 <1>   0.1600 
 24 N       -8.2660    -3.8670     1.0100 N.ar  1 <1>  -0.6200 
 25 H       -1.7490     0.1410     0.5740 H     1 <1>   0.3700 
 26 H       -2.5830    -1.2860    -1.9030 H     1 <1>   0.0800 
 27 H       -3.9430     3.2970    -0.7410 H     1 <1>   0.1500 
 28 H       -4.4460    -0.8470     0.0220 H     1 <1>   0.0800 
 29 H       -0.5060    -1.8910    -0.2540 H     1 <1>   0.0800 
 30 H       -1.5270    -3.1760    -0.8890 H     1 <1>   0.0800 
 31 H        0.3020     1.1850    -1.0790 H     1 <1>   0.0800 
 32 H        0.5480     1.2070     0.6550 H     1 <1>   0.0800 
 33 H        1.4020     2.3180    -0.3840 H     1 <1>   0.0800 
 34 H       -3.4650     5.4740     0.2800 H     1 <1>   0.1500 
 35 H       -3.8230    -3.0620     1.5760 H     1 <1>   0.0800 
 36 H       -3.2530    -1.4440     1.9460 H     1 <1>   0.0800 
 37 H       -3.9270    -3.6320    -1.0690 H     1 <1>   0.0800 
 38 H       -4.7730    -2.3740    -1.9160 H     1 <1>   0.0800 
 39 H       -1.2360     5.9690     1.1130 H     1 <1>   0.1500 
 40 H        2.2760     5.4550     1.8390 H     1 <1>   0.0800 
 41 H        0.6470     5.6780     2.4670 H     1 <1>   0.0800 
 42 H        1.0820     6.3050     0.8650 H     1 <1>   0.0800 
 43 H       -5.1770    -5.0480     0.4830 H     1 <1>   0.1500 
 44 H       -6.9220    -1.3840    -0.7920 H     1 <1>   0.1500 
 45 H       -7.2950    -5.5860     1.5480 H     1 <1>   0.1500 
 46 H       -8.9700    -2.0710     0.3250 H     1 <1>   0.1500 
@<TRIPOS>BOND
  1   1   2  2   
  2   2   3  am  
  3   2   4  1   
  4   3   5  1   
  5   3  25  1   
  6   4   6  ar  
  7   4   7  ar  
  8   5   8  1   
  9   5   9  1   
 10   5  26  1   
 11   6  10  ar  
 12   6  11  1   
 13   7  12  ar  
 14   7  27  1   
 15   8  13  1   
 16   8  14  1   
 17   8  28  1   
 18   9  15  1   
 19   9  29  1   
 20   9  30  1   
 21  10  16  1   
 22  10  17  ar  
 23  11  31  1   
 24  11  32  1   
 25  11  33  1   
 26  12  17  ar  
 27  12  34  1   
 28  13  15  1   
 29  13  35  1   
 30  13  36  1   
 31  14  18  1   
 32  14  37  1   
 33  14  38  1   
 34  16  19  1   
 35  17  39  1   
 36  18  20  ar  
 37  18  21  ar  
 38  19  40  1   
 39  19  41  1   
 40  19  42  1   
 41  20  22  ar  
 42  20  43  1   
 43  21  23  ar  
 44  21  44  1   
 45  22  24  ar  
 46  22  45  1   
 47  23  24  ar  
 48  23  46  1   
@<TRIPOS>SUBSTRUCTURE
  1 ****   3 GROUP 4 **** **** 0

# MOE 2024.06 (io_trps.svl 2023.06)
