@<TRIPOS>MOLECULE
NONAME
46 48 1 0 0 
SMALL
USER_CHARGES


@<TRIPOS>ATOM
  1 O       -2.9930    -0.7980    -1.6990 O.2   1 <1>  -0.5700 
  2 C       -2.9830     0.1690    -0.9600 C.2   1 <1>   0.7160 
  3 N       -3.5380     1.3490    -1.4030 N.am  1 <1>  -0.6600 
  4 C       -2.4120     0.0240     0.3550 C.2   1 <1>  -0.0860 
  5 C       -4.4200     1.3610    -2.6080 C.3   1 <1>   0.1400 
  6 C       -3.4600     2.6470    -0.6750 C.3   1 <1>   0.1400 
  7 C       -2.9830     0.1930     1.5780 C.2   1 <1>  -0.0100 
  8 C       -1.0950    -0.3870     0.6450 C.2   1 <1>  -0.1500 
  9 C       -5.8480     0.9010    -2.2620 C.3   1 <1>   0.1400 
 10 C       -4.7220     2.9590     0.1520 C.3   1 <1>  -0.1600 
 11 O       -2.1320    -0.0640     2.5420 O.3   1 <1>  -0.2800 
 12 C       -0.9920    -0.4160     1.9890 C.2   1 <1>  -0.0100 
 13 N       -6.2360     1.2590    -0.8580 N.am  1 <1>  -0.6600 
 14 C       -6.0800     2.7020    -0.5250 C.3   1 <1>   0.1400 
 15 C       -6.4900     0.3510     0.1420 C.2   1 <1>   0.5690 
 16 O       -6.7670     0.7150     1.2620 O.2   1 <1>  -0.5700 
 17 C       -6.3940    -1.1470    -0.1220 C.3   1 <1>  -0.0990 
 18 C       -6.3730    -1.9960     1.1570 C.3   1 <1>   0.0200 
 19 C       -6.2060    -3.4710     0.8240 C.2   1 <1>  -0.3320 
 20 N       -5.0580    -4.0660     0.4190 N.pl3 1 <1>   0.3140 
 21 C       -7.1470    -4.4370     0.8750 C.2   1 <1>  -0.1500 
 22 N       -5.2410    -5.3810     0.2060 N.2   1 <1>  -0.7070 
 23 C       -3.7370    -3.4550     0.2110 C.3   1 <1>   0.0160 
 24 C       -6.4910    -5.5950     0.4810 C.2   1 <1>   0.1390 
 25 H       -4.0130     0.7200    -3.3720 H     1 <1>   0.0800 
 26 H       -4.4570     2.3550    -3.0170 H     1 <1>   0.0800 
 27 H       -3.3080     3.4330    -1.3940 H     1 <1>   0.0800 
 28 H       -2.6020     2.6470    -0.0230 H     1 <1>   0.0800 
 29 H       -3.9880     0.4780     1.8370 H     1 <1>   0.1500 
 30 H       -0.3520    -0.6240    -0.0960 H     1 <1>   0.1500 
 31 H       -5.9110    -0.1590    -2.4200 H     1 <1>   0.0800 
 32 H       -6.5420     1.3560    -2.9470 H     1 <1>   0.0800 
 33 H       -4.6820     3.9970     0.4280 H     1 <1>   0.0800 
 34 H       -4.6910     2.4120     1.0740 H     1 <1>   0.0800 
 35 H       -0.1630    -0.6730     2.6260 H     1 <1>   0.1500 
 36 H       -6.1750     3.3000    -1.4150 H     1 <1>   0.0800 
 37 H       -6.8700     2.9920     0.1490 H     1 <1>   0.0800 
 38 H       -5.4920    -1.3450    -0.6650 H     1 <1>   0.0800 
 39 H       -7.2290    -1.4440    -0.7270 H     1 <1>   0.0800 
 40 H       -7.2990    -1.8560     1.6880 H     1 <1>   0.0800 
 41 H       -5.5760    -1.6760     1.8060 H     1 <1>   0.0800 
 42 H       -8.1830    -4.3620     1.1540 H     1 <1>   0.1500 
 43 H       -3.6050    -2.6310     0.8840 H     1 <1>   0.0800 
 44 H       -3.6660    -3.1180    -0.8050 H     1 <1>   0.0800 
 45 H       -2.9790    -4.1930     0.3950 H     1 <1>   0.0800 
 46 H       -6.9540    -6.5640     0.4090 H     1 <1>   0.1500 
@<TRIPOS>BOND
  1   1   2  2   
  2   2   3  am  
  3   2   4  1   
  4   3   5  1   
  5   3   6  1   
  6   4   7  2   
  7   4   8  1   
  8   5   9  1   
  9   5  25  1   
 10   5  26  1   
 11   6  10  1   
 12   6  27  1   
 13   6  28  1   
 14   7  11  1   
 15   7  29  1   
 16   8  12  2   
 17   8  30  1   
 18   9  13  1   
 19   9  31  1   
 20   9  32  1   
 21  10  14  1   
 22  10  33  1   
 23  10  34  1   
 24  11  12  1   
 25  12  35  1   
 26  13  14  1   
 27  13  15  am  
 28  14  36  1   
 29  14  37  1   
 30  15  16  2   
 31  15  17  1   
 32  17  18  1   
 33  17  38  1   
 34  17  39  1   
 35  18  19  1   
 36  18  40  1   
 37  18  41  1   
 38  19  20  1   
 39  19  21  2   
 40  20  22  1   
 41  20  23  1   
 42  21  24  1   
 43  21  42  1   
 44  22  24  2   
 45  23  43  1   
 46  23  44  1   
 47  23  45  1   
 48  24  46  1   
@<TRIPOS>SUBSTRUCTURE
  1 ****  17 GROUP 4 **** **** 0

# MOE 2024.06 (io_trps.svl 2023.06)
