@<TRIPOS>MOLECULE
NONAME
40 42 1 0 0 
SMALL
USER_CHARGES


@<TRIPOS>ATOM
  1 F       -1.5150    -0.8360    -1.6810 F     1 <1>  -0.3400 
  2 C       -1.7620    -1.4600    -0.5300 C.3   1 <1>   0.8560 
  3 F       -1.2810    -0.6490     0.4110 F     1 <1>  -0.3400 
  4 N       -1.0520    -2.7830    -0.4910 N.pl3 1 <1>   0.3140 
  5 N       -1.6940    -3.9620    -0.3030 N.2   1 <1>  -0.7070 
  6 C        0.2760    -2.9840    -0.6310 C.2   1 <1>  -0.3020 
  7 C       -0.7600    -4.9030    -0.3280 C.2   1 <1>   0.2030 
  8 C        0.4920    -4.3090    -0.5340 C.2   1 <1>  -0.1500 
  9 C       -0.9230    -6.3510    -0.1770 C.2   1 <1>   0.7160 
 10 O        0.0480    -7.0800    -0.3110 O.2   1 <1>  -0.5700 
 11 N       -2.1250    -6.9680     0.1190 N.am  1 <1>  -0.6600 
 12 C       -3.4030    -6.2990     0.4700 C.3   1 <1>   0.1400 
 13 C       -2.3010    -8.4440     0.1270 C.3   1 <1>   0.1400 
 14 C       -4.2310    -7.3910     1.1450 C.3   1 <1>   0.2000 
 15 C       -3.7850    -8.6710     0.4340 C.3   1 <1>  -0.0800 
 16 O       -3.8580    -7.4460     2.4810 O.3   1 <1>  -0.6800 
 17 C       -4.0690    -9.9830     1.1880 C.3   1 <1>   0.0210 
 18 C       -3.5870   -11.1800     0.3910 C.2   1 <1>   0.1080 
 19 N       -4.1110   -11.5290    -0.7420 N.2   1 <1>  -0.7070 
 20 C       -2.5420   -12.0170     0.7680 C.2   1 <1>  -0.1500 
 21 N       -3.4090   -12.6140    -1.1220 N.pl3 1 <1>   0.3000 
 22 C       -2.4510   -12.9280    -0.2240 C.2   1 <1>  -0.3320 
 23 C       -1.4950   -14.0960    -0.3710 C.3   1 <1>  -0.0600 
 24 H       -2.8250    -1.5520    -0.4030 H     1 <1>   0.0800 
 25 H        0.9760    -2.1830    -0.7910 H     1 <1>   0.1500 
 26 H        1.4230    -4.8470    -0.5980 H     1 <1>   0.1500 
 27 H       -3.2540    -5.4580     1.1260 H     1 <1>   0.0800 
 28 H       -3.8860    -5.9720    -0.4350 H     1 <1>   0.0800 
 29 H       -2.0290    -8.8690    -0.8250 H     1 <1>   0.0800 
 30 H       -1.6760    -8.8680     0.8950 H     1 <1>   0.0800 
 31 H       -5.2920    -7.2170     1.0900 H     1 <1>   0.0800 
 32 H       -4.2990    -8.7160    -0.5110 H     1 <1>   0.0800 
 33 H       -2.8810    -7.4310     2.5290 H     1 <1>   0.4000 
 34 H       -5.1270   -10.0820     1.3490 H     1 <1>   0.0800 
 35 H       -3.5860    -9.9840     2.1470 H     1 <1>   0.0800 
 36 H       -1.9510   -11.9320     1.6620 H     1 <1>   0.1500 
 37 H       -3.6080   -13.1150    -1.9950 H     1 <1>   0.2700 
 38 H       -0.8270   -14.1360     0.4710 H     1 <1>   0.0800 
 39 H       -0.9090   -13.9870    -1.2670 H     1 <1>   0.0800 
 40 H       -2.0410   -15.0210    -0.4190 H     1 <1>   0.0800 
@<TRIPOS>BOND
  1   1   2  1   
  2   2   3  1   
  3   2   4  1   
  4   2  24  1   
  5   4   5  1   
  6   4   6  1   
  7   5   7  2   
  8   6   8  2   
  9   6  25  1   
 10   7   8  1   
 11   7   9  1   
 12   8  26  1   
 13   9  10  2   
 14   9  11  am  
 15  11  12  1   
 16  11  13  1   
 17  12  14  1   
 18  12  27  1   
 19  12  28  1   
 20  13  15  1   
 21  13  29  1   
 22  13  30  1   
 23  14  15  1   
 24  14  16  1   
 25  14  31  1   
 26  15  17  1   
 27  15  32  1   
 28  16  33  1   
 29  17  18  1   
 30  17  34  1   
 31  17  35  1   
 32  18  19  2   
 33  18  20  1   
 34  19  21  1   
 35  20  22  2   
 36  20  36  1   
 37  21  22  1   
 38  21  37  1   
 39  22  23  1   
 40  23  38  1   
 41  23  39  1   
 42  23  40  1   
@<TRIPOS>SUBSTRUCTURE
  1 ****  11 GROUP 4 **** **** 0

# MOE 2024.06 (io_trps.svl 2023.06)
