@<TRIPOS>MOLECULE
NONAME
52 55 1 0 0 
SMALL
USER_CHARGES


@<TRIPOS>ATOM
  1 O        0.9280    -0.4310    -2.3570 O.2   1 <1>  -0.5700 
  2 C        1.6990    -0.9630    -1.5890 C.2   1 <1>   0.5690 
  3 N        2.5340    -0.2100    -0.8340 N.am  1 <1>  -0.7300 
  4 C        1.7150    -2.4990    -1.4940 C.3   1 <1>   0.1610 
  5 C        2.5910     1.2560    -0.8220 C.3   1 <1>   0.3200 
  6 C        0.4050    -3.0590    -0.9510 C.2   1 <1>  -0.3320 
  7 C        2.8800    -3.0810    -0.6500 C.3   1 <1>  -0.1600 
  8 C        3.6440     1.7080     0.1850 C.2   1 <1>   0.0060 
  9 N       -0.8310    -2.5540    -1.2350 N.pl3 1 <1>   0.0330 
 10 C        0.2830    -4.1250    -0.1300 C.2   1 <1>  -0.1810 
 11 C        2.7280    -4.5990    -0.4140 C.3   1 <1>  -0.1600 
 12 N        4.4000     0.8980     0.8680 N.2   1 <1>  -0.5650 
 13 N        3.8770     3.0170     0.4530 N.pl3 1 <1>   0.0480 
 14 C       -1.7610    -3.3140    -0.5700 C.ar  1 <1>  -0.1520 
 15 C       -1.0910    -4.3110     0.1350 C.ar  1 <1>   0.0000 
 16 C        1.4550    -4.9330     0.3880 C.3   1 <1>   0.0210 
 17 C        5.1590     1.7180     1.6160 C.2   1 <1>   0.0770 
 18 C        4.8550     3.0100     1.3770 C.2   1 <1>  -0.3020 
 19 C        3.2270     4.2190    -0.1130 C.3   1 <1>   0.0960 
 20 C       -3.1520    -3.2160    -0.5190 C.ar  1 <1>  -0.1500 
 21 C       -1.8220    -5.2240     0.9030 C.ar  1 <1>  -0.1500 
 22 C        1.9830     4.5930     0.7030 C.3   1 <1>  -0.1600 
 23 C       -3.8560    -4.1220     0.2410 C.ar  1 <1>  -0.1500 
 24 C       -3.1960    -5.1300     0.9550 C.ar  1 <1>  -0.1430 
 25 C        1.2840     5.8250     0.1180 C.3   1 <1>  -0.2400 
 26 C       -4.0160    -6.1060     1.7790 C.3   1 <1>  -0.0970 
 27 H        3.1850    -0.6150    -0.1500 H     1 <1>   0.3700 
 28 H        1.8200    -2.8650    -2.4990 H     1 <1>   0.0800 
 29 H        1.6250     1.6420    -0.5490 H     1 <1>   0.0800 
 30 H        2.8450     1.6070    -1.8070 H     1 <1>   0.0800 
 31 H        2.9010    -2.5970     0.3110 H     1 <1>   0.0800 
 32 H        3.8140    -2.8800    -1.1460 H     1 <1>   0.0800 
 33 H       -1.0150    -1.7290    -1.8190 H     1 <1>   0.2700 
 34 H        3.5880    -4.9760     0.1110 H     1 <1>   0.0800 
 35 H        2.6780    -5.0960    -1.3670 H     1 <1>   0.0800 
 36 H        1.2370    -5.9840     0.3080 H     1 <1>   0.0800 
 37 H        1.6020    -4.6930     1.4260 H     1 <1>   0.0800 
 38 H        5.8970     1.3290     2.2990 H     1 <1>   0.1500 
 39 H        5.2730     3.9020     1.8070 H     1 <1>   0.1500 
 40 H        2.9590     4.0250    -1.1360 H     1 <1>   0.0800 
 41 H        3.9330     5.0300    -0.0980 H     1 <1>   0.0800 
 42 H       -3.6550    -2.4400    -1.0680 H     1 <1>   0.1500 
 43 H       -1.2890    -5.9850     1.4400 H     1 <1>   0.1500 
 44 H        2.2730     4.8010     1.7190 H     1 <1>   0.0800 
 45 H        1.2910     3.7680     0.7110 H     1 <1>   0.0800 
 46 H       -4.9290    -4.0590     0.2900 H     1 <1>   0.1500 
 47 H        1.9480     6.6720     0.1190 H     1 <1>   0.0800 
 48 H        0.4190     6.0710     0.7090 H     1 <1>   0.0800 
 49 H        0.9630     5.6360    -0.8920 H     1 <1>   0.0800 
 50 H       -3.3820    -6.8210     2.2710 H     1 <1>   0.0800 
 51 H       -4.7010    -6.6360     1.1420 H     1 <1>   0.0800 
 52 H       -4.5750    -5.5720     2.5260 H     1 <1>   0.0800 
@<TRIPOS>BOND
  1   1   2  2   
  2   2   3  am  
  3   2   4  1   
  4   3   5  1   
  5   3  27  1   
  6   4   6  1   
  7   4   7  1   
  8   4  28  1   
  9   5   8  1   
 10   5  29  1   
 11   5  30  1   
 12   6   9  1   
 13   6  10  2   
 14   7  11  1   
 15   7  31  1   
 16   7  32  1   
 17   8  12  2   
 18   8  13  1   
 19   9  14  1   
 20   9  33  1   
 21  10  15  1   
 22  10  16  1   
 23  11  16  1   
 24  11  34  1   
 25  11  35  1   
 26  12  17  1   
 27  13  18  1   
 28  13  19  1   
 29  14  15  ar  
 30  14  20  ar  
 31  15  21  ar  
 32  16  36  1   
 33  16  37  1   
 34  17  18  2   
 35  17  38  1   
 36  18  39  1   
 37  19  22  1   
 38  19  40  1   
 39  19  41  1   
 40  20  23  ar  
 41  20  42  1   
 42  21  24  ar  
 43  21  43  1   
 44  22  25  1   
 45  22  44  1   
 46  22  45  1   
 47  23  24  ar  
 48  23  46  1   
 49  24  26  1   
 50  25  47  1   
 51  25  48  1   
 52  25  49  1   
 53  26  50  1   
 54  26  51  1   
 55  26  52  1   
@<TRIPOS>SUBSTRUCTURE
  1 ****   2 GROUP 4 **** **** 0

# MOE 2024.06 (io_trps.svl 2023.06)
