@<TRIPOS>MOLECULE
NONAME
42 44 1 0 0 
SMALL
USER_CHARGES


@<TRIPOS>ATOM
  1 O        1.2330    -0.0120    -1.1110 O.3   1 <1>  -0.6800 
  2 C        1.6720     0.0470     0.1990 C.3   1 <1>   0.2800 
  3 C        3.2280     0.0020     0.2530 C.3   1 <1>  -0.0800 
  4 C        1.0830    -1.1840     0.9130 C.3   1 <1>  -0.1600 
  5 C        1.0900     1.3400     0.8130 C.3   1 <1>  -0.1600 
  6 C        3.8380    -1.3910     0.4740 C.3   1 <1>  -0.0800 
  7 C        3.9640     0.5290    -0.9820 C.3   1 <1>   0.2090 
  8 C        1.5650    -2.5290     0.3280 C.3   1 <1>  -0.1600 
  9 C        1.5380     2.6530     0.1480 C.3   1 <1>  -0.2400 
 10 C        3.0020    -2.4770    -0.2220 C.3   1 <1>  -0.1600 
 11 C        5.2630    -1.2920    -0.0810 C.3   1 <1>   0.2090 
 12 N        5.3220    -0.0670    -0.9210 N.pl3 1 <1>  -0.8380 
 13 C        6.3560     0.8130    -0.6590 C.ar  1 <1>   0.4100 
 14 N        6.3910     1.4310     0.5300 N.ar  1 <1>  -0.3100 
 15 C        7.3170     1.0330    -1.6250 C.ar  1 <1>  -0.1500 
 16 N        7.3570     2.2740     0.8100 N.ar  1 <1>  -0.3100 
 17 C        8.3290     1.9150    -1.3350 C.ar  1 <1>  -0.1500 
 18 C        8.3020     2.5130    -0.0930 C.ar  1 <1>   0.1670 
 19 C        9.3800     3.4990     0.3090 C.3   1 <1>  -0.0970 
 20 H        0.2600    -0.0340    -1.1230 H     1 <1>   0.4000 
 21 H        3.5510     0.6030     1.0850 H     1 <1>   0.0800 
 22 H        1.3860    -1.1400     1.9450 H     1 <1>   0.0800 
 23 H        0.0080    -1.1490     0.9040 H     1 <1>   0.0800 
 24 H        0.0160     1.2880     0.7800 H     1 <1>   0.0800 
 25 H        1.3660     1.3800     1.8520 H     1 <1>   0.0800 
 26 H        3.8860    -1.6160     1.5250 H     1 <1>   0.0800 
 27 H        4.0070     1.6040    -0.9870 H     1 <1>   0.0800 
 28 H        3.4980     0.1940    -1.8920 H     1 <1>   0.0800 
 29 H        1.5000    -3.2810     1.0950 H     1 <1>   0.0800 
 30 H        0.9080    -2.8270    -0.4720 H     1 <1>   0.0800 
 31 H        1.3410     2.6350    -0.9090 H     1 <1>   0.0800 
 32 H        2.5880     2.8210     0.3040 H     1 <1>   0.0800 
 33 H        1.0030     3.4810     0.5780 H     1 <1>   0.0800 
 34 H        2.9640    -2.2570    -1.2760 H     1 <1>   0.0800 
 35 H        3.4680    -3.4410    -0.1080 H     1 <1>   0.0800 
 36 H        5.5130    -2.1530    -0.6760 H     1 <1>   0.0800 
 37 H        5.9680    -1.2150     0.7300 H     1 <1>   0.0800 
 38 H        7.2530     0.5190    -2.5650 H     1 <1>   0.1500 
 39 H        9.1040     2.1240    -2.0490 H     1 <1>   0.1500 
 40 H       10.0980     3.6310    -0.4790 H     1 <1>   0.0800 
 41 H        9.8870     3.1390     1.1860 H     1 <1>   0.0800 
 42 H        8.9310     4.4490     0.5350 H     1 <1>   0.0800 
@<TRIPOS>BOND
  1   1   2  1   
  2   1  20  1   
  3   2   3  1   
  4   2   4  1   
  5   2   5  1   
  6   3   6  1   
  7   3   7  1   
  8   3  21  1   
  9   4   8  1   
 10   4  22  1   
 11   4  23  1   
 12   5   9  1   
 13   5  24  1   
 14   5  25  1   
 15   6  10  1   
 16   6  11  1   
 17   6  26  1   
 18   7  12  1   
 19   7  27  1   
 20   7  28  1   
 21   8  10  1   
 22   8  29  1   
 23   8  30  1   
 24   9  31  1   
 25   9  32  1   
 26   9  33  1   
 27  10  34  1   
 28  10  35  1   
 29  11  12  1   
 30  11  36  1   
 31  11  37  1   
 32  12  13  1   
 33  13  14  ar  
 34  13  15  ar  
 35  14  16  ar  
 36  15  17  ar  
 37  15  38  1   
 38  16  18  ar  
 39  17  18  ar  
 40  17  39  1   
 41  18  19  1   
 42  19  40  1   
 43  19  41  1   
 44  19  42  1   
@<TRIPOS>SUBSTRUCTURE
  1 ****   7 GROUP 4 **** **** 0

# MOE 2024.06 (io_trps.svl 2023.06)
