@<TRIPOS>MOLECULE
NONAME
46 48 1 0 0 
SMALL
USER_CHARGES


@<TRIPOS>ATOM
  1 S       -3.3560     2.4520     1.4990 S.3   1 <1>  -0.0800 
  2 C       -1.6360     2.1490     1.3840 C.2   1 <1>   0.1980 
  3 C       -3.2410     3.5340     0.1430 C.2   1 <1>  -0.1100 
  4 N       -1.0580     2.7880     0.4430 N.2   1 <1>  -0.5650 
  5 C       -1.0500     1.1800     2.4000 C.3   1 <1>   0.0200 
  6 C       -1.9650     3.5700    -0.2720 C.2   1 <1>   0.0460 
  7 C        0.4770     1.0540     2.3020 C.3   1 <1>  -0.2400 
  8 C       -1.4020     4.4020    -1.4170 C.3   1 <1>   0.5240 
  9 N       -0.0850     4.9200    -0.9490 N.4   1 <1>  -0.9590 
 10 C       -0.0900     6.3550    -0.5470 C.3   1 <1>   0.4860 
 11 C        1.0260     4.5470    -1.8790 C.3   1 <1>   0.3430 
 12 C       -1.2690     6.6420     0.3660 C.ar  1 <1>  -0.1440 
 13 C        2.3970     4.5210    -1.1820 C.3   1 <1>   0.2000 
 14 C       -2.3100     7.4590    -0.0340 C.ar  1 <1>  -0.1500 
 15 C       -1.3720     6.0970     1.6330 C.ar  1 <1>  -0.1500 
 16 O        3.3350     4.0760    -2.0960 O.3   1 <1>  -0.5600 
 17 C        2.5020     3.5380    -0.0220 C.3   1 <1>  -0.1600 
 18 C       -3.3810     7.6700     0.8190 C.ar  1 <1>   0.1600 
 19 C       -2.4890     6.3670     2.4050 C.ar  1 <1>   0.1600 
 20 C        4.4330     3.5060    -1.4490 C.3   1 <1>   0.1200 
 21 C        3.9760     3.1740    -0.0300 C.3   1 <1>  -0.1600 
 22 N       -3.4950     7.1340     2.0200 N.ar  1 <1>  -0.6200 
 23 H       -4.1440     4.0210    -0.1790 H     1 <1>   0.1500 
 24 H       -1.4960     0.2130     2.2460 H     1 <1>   0.0800 
 25 H       -1.3150     1.5120     3.3870 H     1 <1>   0.0800 
 26 H        0.7590     0.7000     1.3260 H     1 <1>   0.0800 
 27 H        0.8360     0.3550     3.0370 H     1 <1>   0.0800 
 28 H        0.9420     2.0070     2.4770 H     1 <1>   0.0800 
 29 H       -2.0760     5.2020    -1.6730 H     1 <1>   0.0800 
 30 H       -1.2680     3.7620    -2.2730 H     1 <1>   0.0800 
 31 H        0.0340     4.3470    -0.0920 H     1 <1>   0.4500 
 32 H       -0.1560     6.9790    -1.4230 H     1 <1>   0.0800 
 33 H        0.8240     6.5960    -0.0300 H     1 <1>   0.0800 
 34 H        1.0630     5.2340    -2.7080 H     1 <1>   0.0800 
 35 H        0.8470     3.5570    -2.2650 H     1 <1>   0.0800 
 36 H        2.7010     5.5080    -0.8790 H     1 <1>   0.0800 
 37 H       -2.3110     7.9420    -0.9960 H     1 <1>   0.1500 
 38 H       -0.6080     5.4560     2.0350 H     1 <1>   0.1500 
 39 H        1.9100     2.6610    -0.2240 H     1 <1>   0.0800 
 40 H        2.1940     3.9690     0.9140 H     1 <1>   0.0800 
 41 H       -4.1860     8.3110     0.4980 H     1 <1>   0.1500 
 42 H       -2.5620     5.9300     3.3870 H     1 <1>   0.1500 
 43 H        5.2400     4.2200    -1.4490 H     1 <1>   0.0800 
 44 H        4.7250     2.6240    -1.9940 H     1 <1>   0.0800 
 45 H        4.1390     2.1360     0.2020 H     1 <1>   0.0800 
 46 H        4.5270     3.7770     0.6710 H     1 <1>   0.0800 
@<TRIPOS>BOND
  1   1   2  1   
  2   1   3  1   
  3   2   4  2   
  4   2   5  1   
  5   3   6  2   
  6   3  23  1   
  7   4   6  1   
  8   5   7  1   
  9   5  24  1   
 10   5  25  1   
 11   6   8  1   
 12   7  26  1   
 13   7  27  1   
 14   7  28  1   
 15   8   9  1   
 16   8  29  1   
 17   8  30  1   
 18   9  10  1   
 19   9  11  1   
 20   9  31  1   
 21  10  12  1   
 22  10  32  1   
 23  10  33  1   
 24  11  13  1   
 25  11  34  1   
 26  11  35  1   
 27  12  14  ar  
 28  12  15  ar  
 29  13  16  1   
 30  13  17  1   
 31  13  36  1   
 32  14  18  ar  
 33  14  37  1   
 34  15  19  ar  
 35  15  38  1   
 36  16  20  1   
 37  17  21  1   
 38  17  39  1   
 39  17  40  1   
 40  18  22  ar  
 41  18  41  1   
 42  19  22  ar  
 43  19  42  1   
 44  20  21  1   
 45  20  43  1   
 46  20  44  1   
 47  21  45  1   
 48  21  46  1   
@<TRIPOS>SUBSTRUCTURE
  1 ****   9 GROUP 4 **** **** 0

# MOE 2024.06 (io_trps.svl 2023.06)
