@<TRIPOS>MOLECULE
NONAME
53 55 1 0 0 
SMALL
USER_CHARGES


@<TRIPOS>ATOM
  1 O        0.0170     0.8820     1.2960 O.2   1 <1>  -0.5700 
  2 C        0.0480     2.0780     1.1520 C.2   1 <1>   0.5690 
  3 N       -1.0860     2.8090     1.2310 N.am  1 <1>  -0.7300 
  4 C        1.3740     2.7800     0.8370 C.3   1 <1>   0.1810 
  5 C       -1.1140     4.2840     1.0900 C.3   1 <1>   0.3640 
  6 O        1.3280     4.1790     1.0240 O.3   1 <1>  -0.5600 
  7 C       -2.3140     4.6890     0.2360 C.ar  1 <1>  -0.1440 
  8 C        0.1930     4.8170     0.4580 C.3   1 <1>   0.2610 
  9 C       -3.0660     5.7970     0.5990 C.ar  1 <1>  -0.1500 
 10 C       -2.6630     3.9840    -0.9100 C.ar  1 <1>  -0.1500 
 11 C        0.2670     6.3480     0.6100 C.2   1 <1>   0.5690 
 12 C       -4.1480     6.1950    -0.1670 C.ar  1 <1>  -0.1500 
 13 C       -3.7450     4.3800    -1.6760 C.ar  1 <1>  -0.1500 
 14 O       -0.0400     6.8170     1.6860 O.2   1 <1>  -0.5700 
 15 N        0.6390     7.1710    -0.4360 N.am  1 <1>  -0.6600 
 16 C       -4.4890     5.4860    -1.3050 C.ar  1 <1>  -0.1500 
 17 C        0.6050     8.6530    -0.2660 C.3   1 <1>   0.1400 
 18 C        1.0100     6.7020    -1.7990 C.3   1 <1>   0.1400 
 19 C        2.0120     9.1870     0.0080 C.3   1 <1>  -0.1600 
 20 C        2.4240     6.1200    -1.7980 C.3   1 <1>  -0.2400 
 21 C        1.9800    10.6720     0.3850 C.3   1 <1>  -0.0170 
 22 C        3.3900    11.1910     0.6130 C.ar  1 <1>  -0.1430 
 23 C        4.0220    10.9750     1.8270 C.ar  1 <1>  -0.1500 
 24 C        4.0580    11.8800    -0.3880 C.ar  1 <1>  -0.1500 
 25 C        5.3070    11.4430     2.0410 C.ar  1 <1>  -0.1500 
 26 C        5.3430    12.3500    -0.1750 C.ar  1 <1>  -0.1500 
 27 C        5.9680    12.1320     1.0400 C.ar  1 <1>  -0.1500 
 28 H       -1.9660     2.3440     1.4570 H     1 <1>   0.3700 
 29 H        1.6460     2.5850    -0.1840 H     1 <1>   0.0800 
 30 H        2.1420     2.3910     1.4800 H     1 <1>   0.0800 
 31 H       -1.2250     4.7040     2.0750 H     1 <1>   0.0800 
 32 H        0.1780     4.5650    -0.5830 H     1 <1>   0.0800 
 33 H       -2.8090     6.3640     1.4790 H     1 <1>   0.1500 
 34 H       -2.0980     3.1200    -1.2140 H     1 <1>   0.1500 
 35 H       -4.7240     7.0560     0.1240 H     1 <1>   0.1500 
 36 H       -4.0110     3.8280    -2.5600 H     1 <1>   0.1500 
 37 H       -5.3310     5.7950    -1.8990 H     1 <1>   0.1500 
 38 H        0.1960     9.1140    -1.1480 H     1 <1>   0.0800 
 39 H       -0.0390     8.9120     0.5580 H     1 <1>   0.0800 
 40 H        0.3010     5.9680    -2.1420 H     1 <1>   0.0800 
 41 H        0.9710     7.5270    -2.4900 H     1 <1>   0.0800 
 42 H        2.4490     8.6300     0.8190 H     1 <1>   0.0800 
 43 H        2.6250     9.0630    -0.8650 H     1 <1>   0.0800 
 44 H        2.4950     5.2710    -1.1450 H     1 <1>   0.0800 
 45 H        3.1360     6.8610    -1.4830 H     1 <1>   0.0800 
 46 H        2.6840     5.8040    -2.7920 H     1 <1>   0.0800 
 47 H        1.4020    10.8070     1.2830 H     1 <1>   0.0800 
 48 H        1.5070    11.2380    -0.3980 H     1 <1>   0.0800 
 49 H        3.5160    10.4380     2.6110 H     1 <1>   0.1500 
 50 H        3.5820    12.0530    -1.3360 H     1 <1>   0.1500 
 51 H        5.7910    11.2700     2.9860 H     1 <1>   0.1500 
 52 H        5.8560    12.8840    -0.9550 H     1 <1>   0.1500 
 53 H        6.9670    12.4960     1.2050 H     1 <1>   0.1500 
@<TRIPOS>BOND
  1   1   2  2   
  2   2   3  am  
  3   2   4  1   
  4   3   5  1   
  5   3  28  1   
  6   4   6  1   
  7   4  29  1   
  8   4  30  1   
  9   5   7  1   
 10   5   8  1   
 11   5  31  1   
 12   6   8  1   
 13   7   9  ar  
 14   7  10  ar  
 15   8  11  1   
 16   8  32  1   
 17   9  12  ar  
 18   9  33  1   
 19  10  13  ar  
 20  10  34  1   
 21  11  14  2   
 22  11  15  am  
 23  12  16  ar  
 24  12  35  1   
 25  13  16  ar  
 26  13  36  1   
 27  15  17  1   
 28  15  18  1   
 29  16  37  1   
 30  17  19  1   
 31  17  38  1   
 32  17  39  1   
 33  18  20  1   
 34  18  40  1   
 35  18  41  1   
 36  19  21  1   
 37  19  42  1   
 38  19  43  1   
 39  20  44  1   
 40  20  45  1   
 41  20  46  1   
 42  21  22  1   
 43  21  47  1   
 44  21  48  1   
 45  22  23  ar  
 46  22  24  ar  
 47  23  25  ar  
 48  23  49  1   
 49  24  26  ar  
 50  24  50  1   
 51  25  27  ar  
 52  25  51  1   
 53  26  27  ar  
 54  26  52  1   
 55  27  53  1   
@<TRIPOS>SUBSTRUCTURE
  1 ****  11 GROUP 4 **** **** 0

# MOE 2024.06 (io_trps.svl 2023.06)
