@<TRIPOS>MOLECULE
NONAME
44 46 1 0 0 
SMALL
USER_CHARGES


@<TRIPOS>ATOM
  1 O        0.5960    -0.1310    -0.5610 O.3   1 <1>  -0.5600 
  2 C        1.7540     0.2590    -1.2250 C.3   1 <1>   0.2000 
  3 C        0.1790    -1.4480    -0.8050 C.3   1 <1>   0.2640 
  4 C        2.9810    -0.1950    -0.4270 C.3   1 <1>  -0.1600 
  5 C        1.7140     1.7820    -1.3430 C.3   1 <1>  -0.1600 
  6 C       -1.0830    -1.8090    -0.0250 C.ar  1 <1>   0.1660 
  7 C        4.2690     0.3450    -1.0500 C.3   1 <1>   0.2090 
  8 C        3.0010     2.3050    -1.9780 C.3   1 <1>   0.2090 
  9 N       -1.5520    -3.0310    -0.2500 N.ar  1 <1>  -0.6200 
 10 C       -1.6790    -0.9100     0.8520 C.ar  1 <1>  -0.1500 
 11 N        4.1680     1.8230    -1.1910 N.pl3 1 <1>  -0.8380 
 12 C       -2.6450    -3.3640     0.4180 C.ar  1 <1>   0.1600 
 13 C       -2.8170    -1.2710     1.5410 C.ar  1 <1>  -0.1500 
 14 C        5.0400     2.6830    -0.5530 C.ar  1 <1>   0.7200 
 15 C       -3.3060    -2.5370     1.3090 C.ar  1 <1>  -0.1500 
 16 N        4.6200     3.9290    -0.3390 N.ar  1 <1>  -0.6200 
 17 N        6.2300     2.1920    -0.2050 N.ar  1 <1>  -0.6200 
 18 C        5.4530     4.7330     0.2690 C.ar  1 <1>   0.1670 
 19 C        7.0490     3.0130     0.4000 C.ar  1 <1>   0.1670 
 20 C        6.7010     4.3160     0.6650 C.ar  1 <1>  -0.1500 
 21 C        4.9800     6.1490     0.5180 C.3   1 <1>  -0.0970 
 22 C        8.4010     2.4630     0.7970 C.3   1 <1>  -0.0970 
 23 H        1.7610    -0.1730    -2.2120 H     1 <1>   0.0800 
 24 H        0.9650    -2.1230    -0.5210 H     1 <1>   0.0800 
 25 H       -0.0190    -1.5530    -1.8570 H     1 <1>   0.0800 
 26 H        3.0400    -1.2660    -0.4000 H     1 <1>   0.0800 
 27 H        2.9120     0.1720     0.5820 H     1 <1>   0.0800 
 28 H        1.6110     2.2230    -0.3670 H     1 <1>   0.0800 
 29 H        0.8750     2.0770    -1.9450 H     1 <1>   0.0800 
 30 H        4.4220    -0.0880    -2.0240 H     1 <1>   0.0800 
 31 H        5.1010     0.0640    -0.4290 H     1 <1>   0.0800 
 32 H        2.9710     3.3800    -2.0250 H     1 <1>   0.0800 
 33 H        3.0870     1.9390    -2.9860 H     1 <1>   0.0800 
 34 H       -1.2560     0.0680     0.9990 H     1 <1>   0.1500 
 35 H       -3.0370    -4.3510     0.2450 H     1 <1>   0.1500 
 36 H       -3.2970    -0.5940     2.2250 H     1 <1>   0.1500 
 37 H       -4.1900    -2.8820     1.8130 H     1 <1>   0.1500 
 38 H        7.3780     4.9820     1.1630 H     1 <1>   0.1500 
 39 H        4.0910     6.1270     1.1220 H     1 <1>   0.0800 
 40 H        4.7490     6.6190    -0.4200 H     1 <1>   0.0800 
 41 H        5.7320     6.7250     1.0240 H     1 <1>   0.0800 
 42 H        8.2680     1.6400     1.4740 H     1 <1>   0.0800 
 43 H        9.0010     3.2150     1.2740 H     1 <1>   0.0800 
 44 H        8.9150     2.1100    -0.0790 H     1 <1>   0.0800 
@<TRIPOS>BOND
  1   1   2  1   
  2   1   3  1   
  3   2   4  1   
  4   2   5  1   
  5   2  23  1   
  6   3   6  1   
  7   3  24  1   
  8   3  25  1   
  9   4   7  1   
 10   4  26  1   
 11   4  27  1   
 12   5   8  1   
 13   5  28  1   
 14   5  29  1   
 15   6   9  ar  
 16   6  10  ar  
 17   7  11  1   
 18   7  30  1   
 19   7  31  1   
 20   8  11  1   
 21   8  32  1   
 22   8  33  1   
 23   9  12  ar  
 24  10  13  ar  
 25  10  34  1   
 26  11  14  1   
 27  12  15  ar  
 28  12  35  1   
 29  13  15  ar  
 30  13  36  1   
 31  14  16  ar  
 32  14  17  ar  
 33  15  37  1   
 34  16  18  ar  
 35  17  19  ar  
 36  18  20  ar  
 37  18  21  1   
 38  19  20  ar  
 39  19  22  1   
 40  20  38  1   
 41  21  39  1   
 42  21  40  1   
 43  21  41  1   
 44  22  42  1   
 45  22  43  1   
 46  22  44  1   
@<TRIPOS>SUBSTRUCTURE
  1 ****   4 GROUP 4 **** **** 0

# MOE 2024.06 (io_trps.svl 2023.06)
