@<TRIPOS>MOLECULE
NONAME
45 46 1 0 0 
SMALL
USER_CHARGES


@<TRIPOS>ATOM
  1 CL       0.5180     4.1540    -3.8770 Cl    1 <1>  -0.1770 
  2 C        0.8160     4.7280    -2.2550 C.ar  1 <1>   0.1770 
  3 C        2.0470     4.5000    -1.6710 C.ar  1 <1>  -0.1500 
  4 C       -0.1840     5.4010    -1.5810 C.ar  1 <1>  -0.1500 
  5 C        2.2920     4.9530    -0.3840 C.ar  1 <1>  -0.1440 
  6 C        0.0530     5.8560    -0.2960 C.ar  1 <1>  -0.1500 
  7 C        1.2910     5.6350     0.3080 C.ar  1 <1>   0.0830 
  8 C        3.6490     4.6970     0.2580 C.3   1 <1>  -0.0960 
  9 O        1.5910     6.0720     1.5620 O.3   1 <1>  -0.3630 
 10 C        0.6860     6.8370     2.3540 C.3   1 <1>   0.1810 
 11 C        0.5620     8.2810     1.8760 C.2   1 <1>   0.5690 
 12 O       -0.2250     8.9940     2.4510 O.2   1 <1>  -0.5700 
 13 N        1.3440     8.6900     0.8370 N.am  1 <1>  -0.4930 
 14 C        1.5000     9.9480     0.2010 C.2   1 <1>   0.0630 
 15 C        0.5750    10.9680    -0.0510 C.2   1 <1>   0.1080 
 16 C        2.6560    10.3930    -0.3390 C.2   1 <1>  -0.3320 
 17 N        1.1090    11.9650    -0.6860 N.2   1 <1>  -0.7070 
 18 C       -0.8920    10.9760     0.3170 C.3   1 <1>  -0.0590 
 19 N        2.3940    11.6180    -0.8610 N.pl3 1 <1>   0.3140 
 20 C        4.0200     9.7170    -0.3860 C.3   1 <1>  -0.0600 
 21 C        3.3330    12.5250    -1.5530 C.3   1 <1>   0.0960 
 22 C        4.0430    13.4490    -0.5530 C.3   1 <1>  -0.1600 
 23 C        5.0310    14.3850    -1.2590 C.3   1 <1>  -0.2400 
 24 H        2.7980     3.9700    -2.2280 H     1 <1>   0.1500 
 25 H       -1.1330     5.5650    -2.0610 H     1 <1>   0.1500 
 26 H       -0.7390     6.3790     0.2070 H     1 <1>   0.1500 
 27 H        4.2930     4.1450    -0.4020 H     1 <1>   0.0800 
 28 H        3.5220     4.1300     1.1630 H     1 <1>   0.0800 
 29 H        4.1240     5.6300     0.4990 H     1 <1>   0.0800 
 30 H        1.0680     6.8420     3.3570 H     1 <1>   0.0800 
 31 H       -0.2720     6.3530     2.3610 H     1 <1>   0.0800 
 32 H        1.9630     7.9640     0.4720 H     1 <1>   0.3700 
 33 H       -1.3090     9.9950     0.1970 H     1 <1>   0.0800 
 34 H       -1.4230    11.6610    -0.3170 H     1 <1>   0.0800 
 35 H       -1.0020    11.2890     1.3380 H     1 <1>   0.0800 
 36 H        3.9960     8.7720     0.1260 H     1 <1>   0.0800 
 37 H        4.7580    10.3370     0.0890 H     1 <1>   0.0800 
 38 H        4.3110     9.5430    -1.4070 H     1 <1>   0.0800 
 39 H        2.7700    13.1120    -2.2560 H     1 <1>   0.0800 
 40 H        4.0470    11.9360    -2.0960 H     1 <1>   0.0800 
 41 H        4.5730    12.8580     0.1730 H     1 <1>   0.0800 
 42 H        3.3040    14.0380    -0.0360 H     1 <1>   0.0800 
 43 H        5.7900    13.8200    -1.7700 H     1 <1>   0.0800 
 44 H        5.5080    15.0250    -0.5380 H     1 <1>   0.0800 
 45 H        4.5160    15.0040    -1.9740 H     1 <1>   0.0800 
@<TRIPOS>BOND
  1   1   2  1   
  2   2   3  ar  
  3   2   4  ar  
  4   3   5  ar  
  5   3  24  1   
  6   4   6  ar  
  7   4  25  1   
  8   5   7  ar  
  9   5   8  1   
 10   6   7  ar  
 11   6  26  1   
 12   7   9  1   
 13   8  27  1   
 14   8  28  1   
 15   8  29  1   
 16   9  10  1   
 17  10  11  1   
 18  10  30  1   
 19  10  31  1   
 20  11  12  2   
 21  11  13  am  
 22  13  14  1   
 23  13  32  1   
 24  14  15  1   
 25  14  16  2   
 26  15  17  2   
 27  15  18  1   
 28  16  19  1   
 29  16  20  1   
 30  17  19  1   
 31  18  33  1   
 32  18  34  1   
 33  18  35  1   
 34  19  21  1   
 35  20  36  1   
 36  20  37  1   
 37  20  38  1   
 38  21  22  1   
 39  21  39  1   
 40  21  40  1   
 41  22  23  1   
 42  22  41  1   
 43  22  42  1   
 44  23  43  1   
 45  23  44  1   
 46  23  45  1   
@<TRIPOS>SUBSTRUCTURE
  1 ****  13 GROUP 4 **** **** 0

# MOE 2024.06 (io_trps.svl 2023.06)
