@<TRIPOS>MOLECULE
NONAME
55 58 1 0 0 
SMALL
USER_CHARGES


@<TRIPOS>ATOM
  1 O        0.4720    -0.2410     0.1660 O.2   1 <1>  -0.5700 
  2 C        1.0920    -1.2690     0.2210 C.2   1 <1>   0.5690 
  3 N        0.6590    -2.3180     0.9490 N.am  1 <1>  -0.7300 
  4 C        2.3980    -1.4230    -0.5240 C.3   1 <1>  -0.0990 
  5 C        1.4220    -3.5670     1.1430 C.3   1 <1>   0.1400 
  6 C        2.4920    -2.8280    -1.1490 C.3   1 <1>  -0.0800 
  7 C        2.1730    -3.9670    -0.1500 C.3   1 <1>  -0.0800 
  8 C        3.8870    -3.1170    -1.7270 C.3   1 <1>  -0.1600 
  9 C        3.5190    -4.6480     0.1250 C.3   1 <1>  -0.1600 
 10 C        4.2820    -4.4900    -1.1890 C.3   1 <1>   0.4230 
 11 N        5.7650    -4.7000    -1.1180 N.4   1 <1>  -0.9590 
 12 C        6.4900    -4.2210     0.1050 C.3   1 <1>   0.4860 
 13 C        6.0850    -6.1390    -1.3620 C.3   1 <1>   0.2630 
 14 C        6.5730    -2.7080     0.1120 C.ar  1 <1>  -0.1440 
 15 C        5.9130    -1.9740     1.0870 C.ar  1 <1>  -0.1500 
 16 C        7.3040    -2.0360    -0.8580 C.ar  1 <1>  -0.1500 
 17 C        5.9590    -0.5930     1.0710 C.ar  1 <1>  -0.1500 
 18 C        7.3420    -0.6540    -0.8680 C.ar  1 <1>  -0.1500 
 19 C        6.6650     0.0930     0.0890 C.ar  1 <1>   0.0000 
 20 C        6.6950     1.5380     0.0670 C.ar  1 <1>   0.0000 
 21 C        7.9020     2.2300     0.1150 C.ar  1 <1>  -0.1500 
 22 C        5.5190     2.2780    -0.0040 C.ar  1 <1>  -0.1500 
 23 C        7.9430     3.6140     0.0910 C.ar  1 <1>  -0.1440 
 24 C        5.5480     3.6600    -0.0290 C.ar  1 <1>  -0.1500 
 25 C        6.7590     4.3280     0.0180 C.ar  1 <1>  -0.1500 
 26 C        9.2700     4.3500     0.1430 C.3   1 <1>  -0.0970 
 27 H       -0.2100    -2.1880     1.4750 H     1 <1>   0.3700 
 28 H        2.4590    -0.6700    -1.2890 H     1 <1>   0.0800 
 29 H        3.1950    -1.2590     0.1760 H     1 <1>   0.0800 
 30 H        2.1160    -3.4070     1.9510 H     1 <1>   0.0800 
 31 H        0.7500    -4.3570     1.4330 H     1 <1>   0.0800 
 32 H        1.7620    -2.8730    -1.9420 H     1 <1>   0.0800 
 33 H        1.5490    -4.6760    -0.6710 H     1 <1>   0.0800 
 34 H        4.5710    -2.3500    -1.4220 H     1 <1>   0.0800 
 35 H        3.8490    -3.1320    -2.8020 H     1 <1>   0.0800 
 36 H        3.3850    -5.6820     0.3890 H     1 <1>   0.0800 
 37 H        4.0020    -4.1230     0.9240 H     1 <1>   0.0800 
 38 H        3.8680    -5.2090    -1.8790 H     1 <1>   0.0800 
 39 H        6.1540    -4.1450    -1.8920 H     1 <1>   0.4500 
 40 H        6.0030    -4.5740     0.9980 H     1 <1>   0.0800 
 41 H        7.4960    -4.6100     0.1040 H     1 <1>   0.0800 
 42 H        5.6900    -6.7510    -0.5670 H     1 <1>   0.0800 
 43 H        7.1520    -6.2840    -1.4110 H     1 <1>   0.0800 
 44 H        5.6540    -6.4660    -2.2940 H     1 <1>   0.0800 
 45 H        5.3580    -2.4590     1.8720 H     1 <1>   0.1500 
 46 H        7.8510    -2.5700    -1.6160 H     1 <1>   0.1500 
 47 H        5.4450    -0.0270     1.8300 H     1 <1>   0.1500 
 48 H        7.9020    -0.1360    -1.6280 H     1 <1>   0.1500 
 49 H        8.8180     1.6700     0.1750 H     1 <1>   0.1500 
 50 H        4.5730     1.7680    -0.0440 H     1 <1>   0.1500 
 51 H        4.6290     4.2180    -0.0850 H     1 <1>   0.1500 
 52 H        6.7750     5.4030    -0.0040 H     1 <1>   0.1500 
 53 H        9.1880     5.2190     0.7710 H     1 <1>   0.0800 
 54 H        9.5520     4.6600    -0.8470 H     1 <1>   0.0800 
 55 H       10.0420     3.7160     0.5410 H     1 <1>   0.0800 
@<TRIPOS>BOND
  1   1   2  2   
  2   2   3  am  
  3   2   4  1   
  4   3   5  1   
  5   3  27  1   
  6   4   6  1   
  7   4  28  1   
  8   4  29  1   
  9   5   7  1   
 10   5  30  1   
 11   5  31  1   
 12   6   7  1   
 13   6   8  1   
 14   6  32  1   
 15   7   9  1   
 16   7  33  1   
 17   8  10  1   
 18   8  34  1   
 19   8  35  1   
 20   9  10  1   
 21   9  36  1   
 22   9  37  1   
 23  10  11  1   
 24  10  38  1   
 25  11  12  1   
 26  11  13  1   
 27  11  39  1   
 28  12  14  1   
 29  12  40  1   
 30  12  41  1   
 31  13  42  1   
 32  13  43  1   
 33  13  44  1   
 34  14  15  ar  
 35  14  16  ar  
 36  15  17  ar  
 37  15  45  1   
 38  16  18  ar  
 39  16  46  1   
 40  17  19  ar  
 41  17  47  1   
 42  18  19  ar  
 43  18  48  1   
 44  19  20  1   
 45  20  21  ar  
 46  20  22  ar  
 47  21  23  ar  
 48  21  49  1   
 49  22  24  ar  
 50  22  50  1   
 51  23  25  ar  
 52  23  26  1   
 53  24  25  ar  
 54  24  51  1   
 55  25  52  1   
 56  26  53  1   
 57  26  54  1   
 58  26  55  1   
@<TRIPOS>SUBSTRUCTURE
  1 ****  17 GROUP 4 **** **** 0

# MOE 2024.06 (io_trps.svl 2023.06)
