@<TRIPOS>MOLECULE
NONAME
46 49 1 0 0 
SMALL
USER_CHARGES


@<TRIPOS>ATOM
  1 O        0.1930    -0.5350    -1.6310 O.2   1 <1>  -0.5700 
  2 C        1.1060    -1.1590    -1.1250 C.2   1 <1>   0.5440 
  3 N        2.0140    -0.5000    -0.3200 N.am  1 <1>  -0.6600 
  4 C        1.2040    -2.5810    -1.3860 C.ar  1 <1>   0.0860 
  5 C        2.0300     0.9880    -0.2190 C.3   1 <1>   0.1400 
  6 C        2.9160    -1.1850     0.6480 C.3   1 <1>   0.1400 
  7 C        0.1520    -3.4440    -1.1490 C.ar  1 <1>  -0.1500 
  8 C        2.3480    -3.1740    -1.9010 C.ar  1 <1>  -0.1500 
  9 C        1.6530     1.4150     1.2030 C.3   1 <1>  -0.1600 
 10 C        2.5510    -0.7720     2.0780 C.3   1 <1>  -0.1600 
 11 C        0.2740    -4.8030    -1.4010 C.ar  1 <1>   0.4100 
 12 C        2.3810    -4.5360    -2.1200 C.ar  1 <1>   0.1600 
 13 C        2.5590     0.7530     2.2500 C.3   1 <1>  -0.1600 
 14 N        1.3770    -5.3600    -1.8770 N.ar  1 <1>  -0.6200 
 15 N       -0.7920    -5.6290    -1.1500 N.pl3 1 <1>  -0.8690 
 16 C       -0.8400    -7.0000    -1.7240 C.3   1 <1>   0.3900 
 17 C       -2.0740    -7.7320    -1.2210 C.2   1 <1>   0.1080 
 18 N       -3.0060    -8.2010    -1.9750 N.2   1 <1>  -0.4100 
 19 C       -2.3550    -7.9820     0.1160 C.2   1 <1>  -0.1500 
 20 O       -3.8750    -8.7450    -1.1700 O.3   1 <1>  -0.0190 
 21 C       -3.5330    -8.6410     0.0960 C.2   1 <1>   0.1400 
 22 C       -4.3530    -9.1700     1.1500 C.2   1 <1>   0.1400 
 23 O       -5.4980    -9.7850     0.8760 O.3   1 <1>  -0.2800 
 24 C       -4.1730    -9.1660     2.4990 C.2   1 <1>  -0.1500 
 25 C       -6.0490   -10.1690     2.0080 C.2   1 <1>  -0.0100 
 26 C       -5.2760    -9.8150     3.0550 C.2   1 <1>  -0.1500 
 27 H        1.3440     1.4270    -0.9230 H     1 <1>   0.0800 
 28 H        3.0180     1.3420    -0.4570 H     1 <1>   0.0800 
 29 H        3.9340    -0.9050     0.4360 H     1 <1>   0.0800 
 30 H        2.8370    -2.2540     0.5640 H     1 <1>   0.0800 
 31 H       -0.7710    -3.0560    -0.7630 H     1 <1>   0.1500 
 32 H        3.2040    -2.5660    -2.1290 H     1 <1>   0.1500 
 33 H        0.6270     1.1430     1.3810 H     1 <1>   0.0800 
 34 H        1.7260     2.4850     1.2830 H     1 <1>   0.0800 
 35 H        3.2480    -1.2160     2.7660 H     1 <1>   0.0800 
 36 H        1.5730    -1.1560     2.3100 H     1 <1>   0.0800 
 37 H        3.2810    -4.9750    -2.5180 H     1 <1>   0.1500 
 38 H        2.2190     1.0100     3.2390 H     1 <1>   0.0800 
 39 H        3.5640     1.1210     2.1370 H     1 <1>   0.0800 
 40 H       -1.7090    -5.1780    -1.1760 H     1 <1>   0.4000 
 41 H        0.0400    -7.5470    -1.4340 H     1 <1>   0.0800 
 42 H       -0.8660    -6.9390    -2.7990 H     1 <1>   0.0800 
 43 H       -1.7480    -7.6950     0.9540 H     1 <1>   0.1500 
 44 H       -3.3510    -8.7500     3.0530 H     1 <1>   0.1500 
 45 H       -6.9920   -10.6890     1.9760 H     1 <1>   0.1500 
 46 H       -5.4470    -9.9830     4.1040 H     1 <1>   0.1500 
@<TRIPOS>BOND
  1   1   2  2   
  2   2   3  am  
  3   2   4  1   
  4   3   5  1   
  5   3   6  1   
  6   4   7  ar  
  7   4   8  ar  
  8   5   9  1   
  9   5  27  1   
 10   5  28  1   
 11   6  10  1   
 12   6  29  1   
 13   6  30  1   
 14   7  11  ar  
 15   7  31  1   
 16   8  12  ar  
 17   8  32  1   
 18   9  13  1   
 19   9  33  1   
 20   9  34  1   
 21  10  13  1   
 22  10  35  1   
 23  10  36  1   
 24  11  14  ar  
 25  11  15  1   
 26  12  14  ar  
 27  12  37  1   
 28  13  38  1   
 29  13  39  1   
 30  15  16  1   
 31  15  40  1   
 32  16  17  1   
 33  16  41  1   
 34  16  42  1   
 35  17  18  2   
 36  17  19  1   
 37  18  20  1   
 38  19  21  2   
 39  19  43  1   
 40  20  21  1   
 41  21  22  1   
 42  22  23  1   
 43  22  24  2   
 44  23  25  1   
 45  24  26  1   
 46  24  44  1   
 47  25  26  2   
 48  25  45  1   
 49  26  46  1   
@<TRIPOS>SUBSTRUCTURE
  1 ****  15 GROUP 4 **** **** 0

# MOE 2024.06 (io_trps.svl 2023.06)
