@<TRIPOS>MOLECULE
NONAME
31 33 1 0 0 
SMALL
USER_CHARGES


@<TRIPOS>ATOM
  1 CL      -0.5120    -0.1840    -0.5760 Cl    1 <1>  -0.1770 
  2 C       -0.4580    -1.9230    -0.4760 C.ar  1 <1>   0.1770 
  3 C        0.6510    -2.5380     0.0750 C.ar  1 <1>  -0.1500 
  4 C       -1.5220    -2.6660    -0.9490 C.ar  1 <1>  -0.1500 
  5 C        0.6880    -3.9190     0.1530 C.ar  1 <1>  -0.1500 
  6 C       -1.4710    -4.0470    -0.8670 C.ar  1 <1>  -0.1500 
  7 C       -0.3710    -4.7030    -0.3090 C.ar  1 <1>   0.0860 
  8 C       -0.3110    -6.1490    -0.2270 C.2   1 <1>   0.5440 
  9 O        0.6210    -6.7300    -0.7530 O.2   1 <1>  -0.5700 
 10 N       -1.2670    -6.8770     0.4330 N.am  1 <1>  -0.6600 
 11 C       -2.3850    -6.3370     1.2600 C.3   1 <1>   0.2350 
 12 C       -1.5450    -8.3100     0.1320 C.3   1 <1>   0.2350 
 13 C       -3.5840    -7.1930     0.9020 C.3   1 <1>  -0.2420 
 14 C       -3.0580    -8.4380     0.2260 C.3   1 <1>  -0.2420 
 15 C       -4.7180    -6.9460     1.8990 C.2   1 <1>   0.9470 
 16 C       -3.9470    -7.4860    -0.5340 C.3   1 <1>  -0.2000 
 17 C       -3.4760    -9.9040     0.3610 C.2   1 <1>   0.9470 
 18 O       -5.8120    -6.5370     1.4860 O.co2 1 <1>  -0.9000 
 19 O       -4.4640    -6.9780     3.1110 O.co2 1 <1>  -0.9000 
 20 O       -2.9310   -10.6060     1.2230 O.co2 1 <1>  -0.9000 
 21 O       -4.2310   -10.4030    -0.4860 O.co2 1 <1>  -0.9000 
 22 H        1.4700    -1.9410     0.4350 H     1 <1>   0.1500 
 23 H       -2.3770    -2.1710    -1.3740 H     1 <1>   0.1500 
 24 H        1.5460    -4.4150     0.5740 H     1 <1>   0.1500 
 25 H       -2.2940    -4.6380    -1.2350 H     1 <1>   0.1500 
 26 H       -2.1450    -6.4690     2.3020 H     1 <1>   0.0800 
 27 H       -2.5890    -5.3010     1.0730 H     1 <1>   0.0800 
 28 H       -1.1950    -8.5840    -0.8470 H     1 <1>   0.0800 
 29 H       -1.0700    -8.9290     0.8750 H     1 <1>   0.0800 
 30 H       -3.5300    -6.8960    -1.3270 H     1 <1>   0.1000 
 31 H       -4.9550    -7.8040    -0.7430 H     1 <1>   0.1000 
@<TRIPOS>BOND
  1   1   2  1   
  2   2   3  ar  
  3   2   4  ar  
  4   3   5  ar  
  5   3  22  1   
  6   4   6  ar  
  7   4  23  1   
  8   5   7  ar  
  9   5  24  1   
 10   6   7  ar  
 11   6  25  1   
 12   7   8  1   
 13   8   9  2   
 14   8  10  am  
 15  10  11  1   
 16  10  12  1   
 17  11  13  1   
 18  11  26  1   
 19  11  27  1   
 20  12  14  1   
 21  12  28  1   
 22  12  29  1   
 23  13  14  1   
 24  13  15  1   
 25  13  16  1   
 26  14  16  1   
 27  14  17  1   
 28  15  18  ar  
 29  15  19  ar  
 30  16  30  1   
 31  16  31  1   
 32  17  20  ar  
 33  17  21  ar  
@<TRIPOS>SUBSTRUCTURE
  1 ****  11 GROUP 4 **** **** 0

# MOE 2024.06 (io_trps.svl 2023.06)
