@<TRIPOS>MOLECULE
NONAME
44 46 1 0 0 
SMALL
USER_CHARGES


@<TRIPOS>ATOM
  1 O       -0.5960     0.1000     0.0820 O.2   1 <1>  -0.5700 
  2 C        0.5450     0.4980    -0.1040 C.2   1 <1>   0.5440 
  3 N        1.6100    -0.3400     0.1450 N.am  1 <1>  -0.4200 
  4 C        0.8240     1.8210    -0.5890 C.ar  1 <1>   0.0860 
  5 C        2.8890     0.1020    -0.0890 C.2   1 <1>   0.4500 
  6 C        1.3880    -1.7130     0.6650 C.3   1 <1>   0.1400 
  7 C        2.1680     2.1610    -0.7890 C.ar  1 <1>   0.1790 
  8 C       -0.1630     2.7710    -0.8680 C.ar  1 <1>  -0.1500 
  9 N        3.1860     1.2640    -0.5280 N.2   1 <1>  -0.6290 
 10 C        1.1260    -2.6790    -0.4900 C.3   1 <1>  -0.0990 
 11 C        2.4890     3.4300    -1.2600 C.ar  1 <1>  -0.1500 
 12 C        0.1710     4.0250    -1.3350 C.ar  1 <1>  -0.1500 
 13 C        0.5420    -3.9730     0.0390 C.2   1 <1>   0.5690 
 14 C        1.5040     4.3560    -1.5320 C.ar  1 <1>  -0.1500 
 15 O        1.3020    -4.9060     0.1510 O.2   1 <1>  -0.5700 
 16 N       -0.7810    -4.0900     0.3790 N.am  1 <1>  -0.6600 
 17 C       -1.2970    -5.3930     0.8980 C.3   1 <1>   0.3200 
 18 C       -1.8530    -3.0830     0.0930 C.3   1 <1>   0.1400 
 19 C       -1.5750    -6.3430    -0.2540 C.2   1 <1>   0.0060 
 20 C       -2.3120    -2.3880     1.3810 C.3   1 <1>   0.1200 
 21 N       -2.7430    -6.7910    -0.5870 N.2   1 <1>  -0.5650 
 22 N       -0.5760    -6.7990    -1.0380 N.pl3 1 <1>   0.0330 
 23 O       -2.8230    -1.1390     1.0690 O.3   1 <1>  -0.6800 
 24 C       -2.4910    -7.5820    -1.6480 C.2   1 <1>   0.0770 
 25 C       -1.1720    -7.5990    -1.9390 C.2   1 <1>  -0.3020 
 26 H        3.6810    -0.5990     0.1170 H     1 <1>   0.0600 
 27 H        0.5480    -1.7000     1.3370 H     1 <1>   0.0800 
 28 H        2.2460    -2.0400     1.2280 H     1 <1>   0.0800 
 29 H       -1.1970     2.5130    -0.7150 H     1 <1>   0.1500 
 30 H        2.0560    -2.8970    -0.9840 H     1 <1>   0.0800 
 31 H        0.4690    -2.2480    -1.2190 H     1 <1>   0.0800 
 32 H        3.5250     3.6760    -1.4080 H     1 <1>   0.1500 
 33 H       -0.5970     4.7500    -1.5470 H     1 <1>   0.1500 
 34 H        1.7660     5.3350    -1.8960 H     1 <1>   0.1500 
 35 H       -2.2040    -5.2390     1.4560 H     1 <1>   0.0800 
 36 H       -0.5730    -5.8370     1.5590 H     1 <1>   0.0800 
 37 H       -2.6950    -3.5780    -0.3620 H     1 <1>   0.0800 
 38 H       -1.5040    -2.3440    -0.6010 H     1 <1>   0.0800 
 39 H       -1.4920    -2.2420     2.0610 H     1 <1>   0.0800 
 40 H       -3.0890    -2.9540     1.8640 H     1 <1>   0.0800 
 41 H        0.4150    -6.5400    -0.9390 H     1 <1>   0.2700 
 42 H       -2.1040    -0.5630     0.6980 H     1 <1>   0.4000 
 43 H       -3.2850    -8.1060    -2.1550 H     1 <1>   0.1500 
 44 H       -0.6400    -8.1180    -2.7150 H     1 <1>   0.1500 
@<TRIPOS>BOND
  1   1   2  2   
  2   2   3  am  
  3   2   4  1   
  4   3   5  1   
  5   3   6  1   
  6   4   7  ar  
  7   4   8  ar  
  8   5   9  2   
  9   5  26  1   
 10   6  10  1   
 11   6  27  1   
 12   6  28  1   
 13   7   9  1   
 14   7  11  ar  
 15   8  12  ar  
 16   8  29  1   
 17  10  13  1   
 18  10  30  1   
 19  10  31  1   
 20  11  14  ar  
 21  11  32  1   
 22  12  14  ar  
 23  12  33  1   
 24  13  15  2   
 25  13  16  am  
 26  14  34  1   
 27  16  17  1   
 28  16  18  1   
 29  17  19  1   
 30  17  35  1   
 31  17  36  1   
 32  18  20  1   
 33  18  37  1   
 34  18  38  1   
 35  19  21  2   
 36  19  22  1   
 37  20  23  1   
 38  20  39  1   
 39  20  40  1   
 40  21  24  1   
 41  22  25  1   
 42  22  41  1   
 43  23  42  1   
 44  24  25  2   
 45  24  43  1   
 46  25  44  1   
@<TRIPOS>SUBSTRUCTURE
  1 ****  10 GROUP 4 **** **** 0

# MOE 2024.06 (io_trps.svl 2023.06)
