@<TRIPOS>MOLECULE
NONAME
45 47 1 0 0 
SMALL
USER_CHARGES


@<TRIPOS>ATOM
  1 O        5.0120    -0.7660    -0.0790 O.2   1 <1>  -0.5700 
  2 C        3.8200    -0.9640    -0.2450 C.2   1 <1>   0.5440 
  3 N        3.1940    -0.1750    -1.1830 N.am  1 <1>  -0.6600 
  4 C        3.0910    -1.9210     0.5680 C.ar  1 <1>   0.0860 
  5 C        3.8650     0.1250    -2.4950 C.3   1 <1>   0.1400 
  6 C        2.1220     0.7740    -0.7740 C.3   1 <1>   0.1400 
  7 C        1.8770    -2.4660     0.1820 C.ar  1 <1>  -0.1500 
  8 C        3.5600    -2.3640     1.7990 C.ar  1 <1>  -0.1500 
  9 C        4.6680     1.4460    -2.4780 C.3   1 <1>   0.3430 
 10 C        2.7050     1.9000     0.0980 C.3   1 <1>  -0.1600 
 11 C        1.2120    -3.3610     0.9990 C.ar  1 <1>   0.3920 
 12 C        2.8270    -3.2660     2.5450 C.ar  1 <1>   0.1600 
 13 N        4.8900     1.8870    -1.0750 N.4   1 <1>  -0.9590 
 14 C        3.8010     2.7560    -0.5520 C.3   1 <1>   0.3430 
 15 O        0.0320    -3.8320     0.5480 O.3   1 <1>  -0.3630 
 16 N        1.6620    -3.7700     2.1790 N.ar  1 <1>  -0.6200 
 17 C        6.2490     2.4000    -0.7710 C.3   1 <1>   0.5230 
 18 C       -0.7150    -4.7650     1.3050 C.3   1 <1>   0.0400 
 19 C        6.4380     2.3600     0.7340 C.2   1 <1>   0.0060 
 20 N        6.3950     3.4130     1.4840 N.2   1 <1>  -0.5650 
 21 N        6.6270     1.2100     1.4220 N.pl3 1 <1>   0.0330 
 22 C        6.5820     2.9310     2.7280 C.2   1 <1>   0.0770 
 23 C        6.7210     1.5880     2.7080 C.2   1 <1>  -0.3020 
 24 H        3.1310     0.1540    -3.2820 H     1 <1>   0.0800 
 25 H        4.5410    -0.6810    -2.7280 H     1 <1>   0.0800 
 26 H        1.3690     0.2460    -0.2130 H     1 <1>   0.0800 
 27 H        1.6440     1.1870    -1.6480 H     1 <1>   0.0800 
 28 H        1.4330    -2.2090    -0.7600 H     1 <1>   0.1500 
 29 H        4.5010    -2.0060     2.1760 H     1 <1>   0.1500 
 30 H        4.1330     2.2050    -3.0240 H     1 <1>   0.0800 
 31 H        5.6090     1.2820    -2.9760 H     1 <1>   0.0800 
 32 H        3.0830     1.4850     1.0150 H     1 <1>   0.0800 
 33 H        1.9000     2.5570     0.3760 H     1 <1>   0.0800 
 34 H        3.2160    -3.5910     3.4960 H     1 <1>   0.1500 
 35 H        4.8130     1.0030    -0.5340 H     1 <1>   0.4500 
 36 H        4.1930     3.4310     0.1940 H     1 <1>   0.0800 
 37 H        3.3860     3.3500    -1.3500 H     1 <1>   0.0800 
 38 H        6.3570     3.4140    -1.1210 H     1 <1>   0.0800 
 39 H        6.9990     1.7850    -1.2400 H     1 <1>   0.0800 
 40 H       -1.6100    -5.0050     0.7610 H     1 <1>   0.0800 
 41 H       -0.9660    -4.3230     2.2540 H     1 <1>   0.0800 
 42 H       -0.1210    -5.6510     1.4500 H     1 <1>   0.0800 
 43 H        6.6480     0.2480     1.0530 H     1 <1>   0.2700 
 44 H        6.6080     3.5850     3.5860 H     1 <1>   0.1500 
 45 H        6.8790     0.9020     3.5220 H     1 <1>   0.1500 
@<TRIPOS>BOND
  1   1   2  2   
  2   2   3  am  
  3   2   4  1   
  4   3   5  1   
  5   3   6  1   
  6   4   7  ar  
  7   4   8  ar  
  8   5   9  1   
  9   5  24  1   
 10   5  25  1   
 11   6  10  1   
 12   6  26  1   
 13   6  27  1   
 14   7  11  ar  
 15   7  28  1   
 16   8  12  ar  
 17   8  29  1   
 18   9  13  1   
 19   9  30  1   
 20   9  31  1   
 21  10  14  1   
 22  10  32  1   
 23  10  33  1   
 24  11  15  1   
 25  11  16  ar  
 26  12  16  ar  
 27  12  34  1   
 28  13  14  1   
 29  13  17  1   
 30  13  35  1   
 31  14  36  1   
 32  14  37  1   
 33  15  18  1   
 34  17  19  1   
 35  17  38  1   
 36  17  39  1   
 37  18  40  1   
 38  18  41  1   
 39  18  42  1   
 40  19  20  2   
 41  19  21  1   
 42  20  22  1   
 43  21  23  1   
 44  21  43  1   
 45  22  23  2   
 46  22  44  1   
 47  23  45  1   
@<TRIPOS>SUBSTRUCTURE
  1 ****   2 GROUP 4 **** **** 0

# MOE 2024.06 (io_trps.svl 2023.06)
