@<TRIPOS>MOLECULE
NONAME
48 51 1 0 0 
SMALL
USER_CHARGES


@<TRIPOS>ATOM
  1 S        0.8280    -0.5040     2.0710 S.o2  1 <1>   1.5010 
  2 O        0.5310     0.2680     3.2550 O.2   1 <1>  -0.6500 
  3 O        1.7690    -1.5990     2.1410 O.2   1 <1>  -0.6500 
  4 N        1.5180     0.5930     0.9700 N.am  1 <1>  -0.8490 
  5 C       -0.6960    -0.9820     1.2370 C.2   1 <1>  -0.0630 
  6 C        2.5410     1.4220     1.6450 C.3   1 <1>   0.1960 
  7 C        2.0210    -0.0750    -0.2380 C.3   1 <1>   0.1960 
  8 C       -1.3450    -2.1700     1.2000 C.2   1 <1>  -0.0400 
  9 C       -1.4890    -0.1260     0.4600 C.2   1 <1>  -0.1500 
 10 C        3.3040     2.4460     0.7610 C.3   1 <1>   0.4230 
 11 C        2.1970     0.9070    -1.4170 C.3   1 <1>  -0.0800 
 12 O       -2.4290    -2.0880     0.4560 O.3   1 <1>  -0.2800 
 13 C       -1.0320    -3.5060     1.8450 C.3   1 <1>  -0.0600 
 14 C       -2.5340    -0.8510    -0.0080 C.2   1 <1>   0.1410 
 15 N        2.4540     3.1730    -0.2620 N.4   1 <1>  -0.9590 
 16 C        4.5370     1.8130     0.0690 C.3   1 <1>   0.1200 
 17 C        3.6430     0.9470    -1.9600 C.3   1 <1>   0.1200 
 18 C        1.5960     2.2980    -1.1340 C.3   1 <1>   0.3430 
 19 C       -3.6230    -0.4540    -0.8680 C.2   1 <1>   0.2880 
 20 C        1.6480     4.2750     0.3380 C.3   1 <1>   0.2630 
 21 O        4.4360     1.9070    -1.3260 O.3   1 <1>  -0.5600 
 22 N       -3.7070     0.7230    -1.4460 N.2   1 <1>  -0.7070 
 23 C       -4.7210    -1.2510    -1.2040 C.2   1 <1>  -0.1500 
 24 N       -4.8580     0.6870    -2.1440 N.pl3 1 <1>   0.3000 
 25 C       -5.4870    -0.4960    -2.0150 C.2   1 <1>  -0.3020 
 26 H        2.0560     1.9860     2.4240 H     1 <1>   0.0800 
 27 H        3.2550     0.7810     2.1360 H     1 <1>   0.0800 
 28 H        2.9370    -0.6010    -0.0180 H     1 <1>   0.0800 
 29 H        1.3080    -0.8240    -0.5450 H     1 <1>   0.0800 
 30 H       -1.3010     0.9150     0.2750 H     1 <1>   0.1500 
 31 H        3.7060     3.1780     1.4420 H     1 <1>   0.0800 
 32 H        1.6080     0.4840    -2.2120 H     1 <1>   0.0800 
 33 H       -0.1390    -3.4500     2.4400 H     1 <1>   0.0800 
 34 H       -0.8960    -4.2530     1.0840 H     1 <1>   0.0800 
 35 H       -1.8500    -3.8020     2.4770 H     1 <1>   0.0800 
 36 H        3.1640     3.5540    -0.9110 H     1 <1>   0.4500 
 37 H        4.6910     0.7850     0.3500 H     1 <1>   0.0800 
 38 H        5.4180     2.3610     0.3570 H     1 <1>   0.0800 
 39 H        3.6270     1.2090    -3.0050 H     1 <1>   0.0800 
 40 H        4.1270    -0.0120    -1.8720 H     1 <1>   0.0800 
 41 H        0.6350     2.1590    -0.6650 H     1 <1>   0.0800 
 42 H        1.4270     2.8010    -2.0710 H     1 <1>   0.0800 
 43 H        0.9130     3.8710     1.0160 H     1 <1>   0.0800 
 44 H        1.1360     4.8270    -0.4340 H     1 <1>   0.0800 
 45 H        2.2850     4.9550     0.8800 H     1 <1>   0.0800 
 46 H       -4.8800    -2.2570    -0.8590 H     1 <1>   0.1500 
 47 H       -5.1910     1.4860    -2.6990 H     1 <1>   0.2700 
 48 H       -6.4210    -0.7250    -2.4960 H     1 <1>   0.1500 
@<TRIPOS>BOND
  1   1   2  2   
  2   1   3  2   
  3   1   4  am  
  4   1   5  1   
  5   4   6  1   
  6   4   7  1   
  7   5   8  2   
  8   5   9  1   
  9   6  10  1   
 10   6  26  1   
 11   6  27  1   
 12   7  11  1   
 13   7  28  1   
 14   7  29  1   
 15   8  12  1   
 16   8  13  1   
 17   9  14  2   
 18   9  30  1   
 19  10  15  1   
 20  10  16  1   
 21  10  31  1   
 22  11  17  1   
 23  11  18  1   
 24  11  32  1   
 25  12  14  1   
 26  13  33  1   
 27  13  34  1   
 28  13  35  1   
 29  14  19  1   
 30  15  18  1   
 31  15  20  1   
 32  15  36  1   
 33  16  21  1   
 34  16  37  1   
 35  16  38  1   
 36  17  21  1   
 37  17  39  1   
 38  17  40  1   
 39  18  41  1   
 40  18  42  1   
 41  19  22  2   
 42  19  23  1   
 43  20  43  1   
 44  20  44  1   
 45  20  45  1   
 46  22  24  1   
 47  23  25  2   
 48  23  46  1   
 49  24  25  1   
 50  24  47  1   
 51  25  48  1   
@<TRIPOS>SUBSTRUCTURE
  1 ****   9 GROUP 4 **** **** 0

# MOE 2024.06 (io_trps.svl 2023.06)
