@<TRIPOS>MOLECULE
NONAME
49 52 1 0 0 
SMALL
USER_CHARGES


@<TRIPOS>ATOM
  1 CL      -0.9470    -0.3690    -0.1260 Cl    1 <1>  -0.1230 
  2 C       -1.5070    -1.9930    -0.4570 C.2   1 <1>   0.4120 
  3 N       -2.2730    -2.3000    -1.4380 N.2   1 <1>  -0.4100 
  4 C       -1.1690    -3.0920     0.3210 C.2   1 <1>  -0.1500 
  5 O       -2.4520    -3.5890    -1.3320 O.3   1 <1>  -0.0190 
  6 C       -1.8150    -4.0920    -0.3010 C.2   1 <1>  -0.0400 
  7 C       -1.9010    -5.5770    -0.0020 C.3   1 <1>   0.0200 
  8 C       -3.3490    -5.9950     0.2900 C.3   1 <1>  -0.0990 
  9 C       -3.4890    -7.4610     0.6700 C.2   1 <1>   0.5690 
 10 O       -2.5240    -8.1830     0.5860 O.2   1 <1>  -0.5700 
 11 N       -4.6970    -7.9310     1.1030 N.am  1 <1>  -0.6600 
 12 C       -5.9720    -7.1790     1.1450 C.3   1 <1>   0.1400 
 13 C       -4.9350    -9.3510     1.4260 C.3   1 <1>   0.1400 
 14 C       -7.0770    -8.2400     1.0430 C.3   1 <1>  -0.0800 
 15 C       -6.3760    -9.6190     0.9920 C.3   1 <1>  -0.0800 
 16 C       -8.1100    -7.9760    -0.0830 C.3   1 <1>   0.4240 
 17 C       -6.4330   -10.2820    -0.3960 C.3   1 <1>  -0.1600 
 18 O       -7.4430    -7.5980    -1.2360 O.3   1 <1>  -0.6800 
 19 C       -9.0920    -6.8600     0.3310 C.ar  1 <1>  -0.1430 
 20 C       -8.8250    -9.2900    -0.4430 C.3   1 <1>  -0.1600 
 21 C       -7.8730   -10.4060    -0.9320 C.3   1 <1>  -0.1600 
 22 C      -10.0300    -7.0930     1.3340 C.ar  1 <1>  -0.1500 
 23 C       -9.0720    -5.5970    -0.2570 C.ar  1 <1>  -0.1500 
 24 C      -10.9160    -6.1070     1.7310 C.ar  1 <1>  -0.1500 
 25 C       -9.9560    -4.6080     0.1380 C.ar  1 <1>  -0.1500 
 26 C      -10.8810    -4.8620     1.1340 C.ar  1 <1>  -0.1500 
 27 H       -0.5430    -3.0880     1.1930 H     1 <1>   0.1500 
 28 H       -1.5260    -6.1300    -0.8460 H     1 <1>   0.0800 
 29 H       -1.2810    -5.8050     0.8480 H     1 <1>   0.0800 
 30 H       -3.9500    -5.8130    -0.5820 H     1 <1>   0.0800 
 31 H       -3.7290    -5.3960     1.0960 H     1 <1>   0.0800 
 32 H       -6.0480    -6.6560     2.0830 H     1 <1>   0.0800 
 33 H       -6.0190    -6.4600     0.3460 H     1 <1>   0.0800 
 34 H       -4.2320    -9.9930     0.9210 H     1 <1>   0.0800 
 35 H       -4.8320    -9.4850     2.4900 H     1 <1>   0.0800 
 36 H       -7.6110    -8.2100     1.9750 H     1 <1>   0.0800 
 37 H       -6.8360   -10.2900     1.6960 H     1 <1>   0.0800 
 38 H       -5.8380    -9.7050    -1.0840 H     1 <1>   0.0800 
 39 H       -5.9870   -11.2610    -0.3500 H     1 <1>   0.0800 
 40 H       -6.8900    -8.3500    -1.5120 H     1 <1>   0.4000 
 41 H       -9.3320    -9.6520     0.4330 H     1 <1>   0.0800 
 42 H       -9.5820    -9.0950    -1.1830 H     1 <1>   0.0800 
 43 H       -8.2830   -11.3560    -0.6330 H     1 <1>   0.0800 
 44 H       -7.8410   -10.4030    -2.0090 H     1 <1>   0.0800 
 45 H      -10.0820    -8.0490     1.8230 H     1 <1>   0.1500 
 46 H       -8.3660    -5.3660    -1.0360 H     1 <1>   0.1500 
 47 H      -11.6350    -6.3090     2.5070 H     1 <1>   0.1500 
 48 H       -9.9230    -3.6410    -0.3320 H     1 <1>   0.1500 
 49 H      -11.5690    -4.0940     1.4400 H     1 <1>   0.1500 
@<TRIPOS>BOND
  1   1   2  1   
  2   2   3  2   
  3   2   4  1   
  4   3   5  1   
  5   4   6  2   
  6   4  27  1   
  7   5   6  1   
  8   6   7  1   
  9   7   8  1   
 10   7  28  1   
 11   7  29  1   
 12   8   9  1   
 13   8  30  1   
 14   8  31  1   
 15   9  10  2   
 16   9  11  am  
 17  11  12  1   
 18  11  13  1   
 19  12  14  1   
 20  12  32  1   
 21  12  33  1   
 22  13  15  1   
 23  13  34  1   
 24  13  35  1   
 25  14  15  1   
 26  14  16  1   
 27  14  36  1   
 28  15  17  1   
 29  15  37  1   
 30  16  18  1   
 31  16  19  1   
 32  16  20  1   
 33  17  21  1   
 34  17  38  1   
 35  17  39  1   
 36  18  40  1   
 37  19  22  ar  
 38  19  23  ar  
 39  20  21  1   
 40  20  41  1   
 41  20  42  1   
 42  21  43  1   
 43  21  44  1   
 44  22  24  ar  
 45  22  45  1   
 46  23  25  ar  
 47  23  46  1   
 48  24  26  ar  
 49  24  47  1   
 50  25  26  ar  
 51  25  48  1   
 52  26  49  1   
@<TRIPOS>SUBSTRUCTURE
  1 ****  12 GROUP 4 **** **** 0

# MOE 2024.06 (io_trps.svl 2023.06)
