@<TRIPOS>MOLECULE
NONAME
47 50 1 0 0 
SMALL
USER_CHARGES


@<TRIPOS>ATOM
  1 O       -0.9860     0.0800    -1.1750 O.3   1 <1>  -0.5600 
  2 C       -1.9440    -0.6180    -1.9020 C.3   1 <1>   0.1200 
  3 C       -1.1410     1.4610    -1.1440 C.3   1 <1>   0.1200 
  4 C       -3.2940    -0.4500    -1.2040 C.3   1 <1>  -0.1600 
  5 C       -2.4300     1.7840    -0.3880 C.3   1 <1>  -0.1600 
  6 C       -3.6060     1.0390    -1.0340 C.3   1 <1>   0.4230 
  7 N       -4.8800     1.2130    -0.2760 N.4   1 <1>  -0.9590 
  8 C       -5.4530     2.5960    -0.4600 C.3   1 <1>   0.3430 
  9 C       -4.8230     0.8330     1.1660 C.3   1 <1>   0.3430 
 10 C       -6.6470     2.9090     0.4740 C.3   1 <1>   0.1430 
 11 C       -6.2480     0.7030     1.7210 C.3   1 <1>  -0.1600 
 12 C       -7.6760     3.6910    -0.3080 C.ar  1 <1>   0.1670 
 13 C       -7.2830     1.6170     1.0300 C.3   1 <1>  -0.1600 
 14 C       -6.2780     3.8980     1.6150 C.3   1 <1>  -0.1600 
 15 N       -8.1060     3.3640    -1.5050 N.ar  1 <1>  -0.6200 
 16 C       -8.1060     4.7900     0.3700 C.ar  1 <1>  -0.1430 
 17 C       -7.4330     4.9150     1.7130 C.3   1 <1>  -0.0170 
 18 C       -9.0160     4.1960    -1.9990 C.ar  1 <1>   0.4770 
 19 C       -9.0460     5.5850    -0.2380 C.ar  1 <1>   0.1600 
 20 N       -9.5080     5.2910    -1.4350 N.ar  1 <1>  -0.6200 
 21 C       -9.5580     3.8680    -3.3690 C.3   1 <1>  -0.0970 
 22 H       -1.6510    -1.6550    -1.9210 H     1 <1>   0.0800 
 23 H       -1.9580    -0.2410    -2.9120 H     1 <1>   0.0800 
 24 H       -1.1580     1.8320    -2.1560 H     1 <1>   0.0800 
 25 H       -0.2860     1.8750    -0.6360 H     1 <1>   0.0800 
 26 H       -3.2320    -0.9500    -0.2550 H     1 <1>   0.0800 
 27 H       -4.0540    -0.9250    -1.7970 H     1 <1>   0.0800 
 28 H       -2.5880     2.8460    -0.4180 H     1 <1>   0.0800 
 29 H       -2.2870     1.4820     0.6340 H     1 <1>   0.0800 
 30 H       -3.7410     1.4460    -2.0240 H     1 <1>   0.0800 
 31 H       -5.5640     0.5740    -0.7030 H     1 <1>   0.4500 
 32 H       -5.7840     2.6960    -1.4820 H     1 <1>   0.0800 
 33 H       -4.6890     3.3370    -0.3000 H     1 <1>   0.0800 
 34 H       -4.2920     1.5960     1.7130 H     1 <1>   0.0800 
 35 H       -4.2990    -0.0990     1.3000 H     1 <1>   0.0800 
 36 H       -6.2160     0.9260     2.7730 H     1 <1>   0.0800 
 37 H       -6.5700    -0.3200     1.6350 H     1 <1>   0.0800 
 38 H       -7.7260     1.0790     0.2080 H     1 <1>   0.0800 
 39 H       -8.0830     1.8540     1.7120 H     1 <1>   0.0800 
 40 H       -5.3850     4.4400     1.3570 H     1 <1>   0.0800 
 41 H       -6.1150     3.4100     2.5600 H     1 <1>   0.0800 
 42 H       -7.0720     5.9150     1.8870 H     1 <1>   0.0800 
 43 H       -8.1250     4.6380     2.4900 H     1 <1>   0.0800 
 44 H       -9.4230     6.4670     0.2540 H     1 <1>   0.1500 
 45 H       -9.2640     2.8790    -3.6670 H     1 <1>   0.0800 
 46 H       -9.1830     4.5790    -4.0800 H     1 <1>   0.0800 
 47 H      -10.6310     3.9220    -3.3530 H     1 <1>   0.0800 
@<TRIPOS>BOND
  1   1   2  1   
  2   1   3  1   
  3   2   4  1   
  4   2  22  1   
  5   2  23  1   
  6   3   5  1   
  7   3  24  1   
  8   3  25  1   
  9   4   6  1   
 10   4  26  1   
 11   4  27  1   
 12   5   6  1   
 13   5  28  1   
 14   5  29  1   
 15   6   7  1   
 16   6  30  1   
 17   7   8  1   
 18   7   9  1   
 19   7  31  1   
 20   8  10  1   
 21   8  32  1   
 22   8  33  1   
 23   9  11  1   
 24   9  34  1   
 25   9  35  1   
 26  10  12  1   
 27  10  13  1   
 28  10  14  1   
 29  11  13  1   
 30  11  36  1   
 31  11  37  1   
 32  12  15  ar  
 33  12  16  ar  
 34  13  38  1   
 35  13  39  1   
 36  14  17  1   
 37  14  40  1   
 38  14  41  1   
 39  15  18  ar  
 40  16  17  1   
 41  16  19  ar  
 42  17  42  1   
 43  17  43  1   
 44  18  20  ar  
 45  18  21  1   
 46  19  20  ar  
 47  19  44  1   
 48  21  45  1   
 49  21  46  1   
 50  21  47  1   
@<TRIPOS>SUBSTRUCTURE
  1 ****   8 GROUP 4 **** **** 0

# MOE 2024.06 (io_trps.svl 2023.06)
