@<TRIPOS>MOLECULE
NONAME
44 45 1 0 0 
SMALL
USER_CHARGES


@<TRIPOS>ATOM
  1 S       -0.1010     0.7100    -0.9020 S.o2  1 <1>   1.3330 
  2 O        0.1620     1.7920    -1.8240 O.2   1 <1>  -0.6500 
  3 O       -0.8620    -0.4430    -1.3120 O.2   1 <1>  -0.6500 
  4 N        1.3980     0.1720    -0.3140 N.am  1 <1>  -0.8490 
  5 C       -0.8700     1.4430     0.5510 C.3   1 <1>  -0.0550 
  6 C        2.3710     0.0020    -1.4040 C.3   1 <1>   0.1160 
  7 C        1.3030    -1.1040     0.4150 C.3   1 <1>   0.1160 
  8 C       -0.4140     2.8760     0.9300 C.3   1 <1>  -0.0800 
  9 C       -0.8870     3.9480    -0.0670 C.3   1 <1>   0.2000 
 10 C        1.1130     3.0560     1.0390 C.3   1 <1>   0.3430 
 11 O       -1.5220     4.9550     0.6520 O.3   1 <1>  -0.6800 
 12 C        0.3980     4.5200    -0.6770 C.3   1 <1>   0.3430 
 13 N        1.4510     4.3390     0.3660 N.4   1 <1>  -0.9590 
 14 C        1.4670     5.4880     1.3160 C.3   1 <1>   0.4860 
 15 C        1.9710     6.7190     0.5840 C.ar  1 <1>  -0.1440 
 16 C        3.3210     6.8710     0.3030 C.ar  1 <1>  -0.1500 
 17 C        1.0820     7.7060     0.1870 C.ar  1 <1>  -0.1500 
 18 C        3.7690     7.9920    -0.3740 C.ar  1 <1>  -0.1500 
 19 C        1.5370     8.8250    -0.4880 C.ar  1 <1>  -0.1500 
 20 C        2.8870     8.9860    -0.7810 C.ar  1 <1>   0.0730 
 21 C        3.3580    10.1450    -1.4850 C.1   1 <1>   0.4840 
 22 N        3.7340    11.0630    -2.0480 N.1   1 <1>  -0.5570 
 23 H       -1.9310     1.4700     0.3870 H     1 <1>   0.0800 
 24 H       -0.7120     0.7940     1.3900 H     1 <1>   0.0800 
 25 H        3.3170    -0.3360    -1.0150 H     1 <1>   0.0800 
 26 H        2.5310     0.9370    -1.9140 H     1 <1>   0.0800 
 27 H        2.0100    -0.7200    -2.1200 H     1 <1>   0.0800 
 28 H        2.2650    -1.3750     0.8160 H     1 <1>   0.0800 
 29 H        0.9690    -1.8920    -0.2410 H     1 <1>   0.0800 
 30 H        0.6090    -1.0240     1.2330 H     1 <1>   0.0800 
 31 H       -0.8350     3.0830     1.9000 H     1 <1>   0.0800 
 32 H       -1.5620     3.5900    -0.8280 H     1 <1>   0.0800 
 33 H        1.6210     2.2580     0.5280 H     1 <1>   0.0800 
 34 H        1.4330     3.0560     2.0690 H     1 <1>   0.0800 
 35 H       -2.4620     4.7300     0.8240 H     1 <1>   0.4000 
 36 H        0.2700     5.5510    -0.9630 H     1 <1>   0.0800 
 37 H        0.6610     3.9500    -1.5520 H     1 <1>   0.0800 
 38 H        2.3700     4.2930    -0.0910 H     1 <1>   0.4500 
 39 H        0.4780     5.6690     1.7040 H     1 <1>   0.0800 
 40 H        2.1230     5.2750     2.1440 H     1 <1>   0.0800 
 41 H        4.0380     6.1270     0.6090 H     1 <1>   0.1500 
 42 H        0.0280     7.6150     0.4010 H     1 <1>   0.1500 
 43 H        4.8210     8.1000    -0.5870 H     1 <1>   0.1500 
 44 H        0.8360     9.5870    -0.7910 H     1 <1>   0.1500 
@<TRIPOS>BOND
  1   1   2  2   
  2   1   3  2   
  3   1   4  am  
  4   1   5  1   
  5   4   6  1   
  6   4   7  1   
  7   5   8  1   
  8   5  23  1   
  9   5  24  1   
 10   6  25  1   
 11   6  26  1   
 12   6  27  1   
 13   7  28  1   
 14   7  29  1   
 15   7  30  1   
 16   8   9  1   
 17   8  10  1   
 18   8  31  1   
 19   9  11  1   
 20   9  12  1   
 21   9  32  1   
 22  10  13  1   
 23  10  33  1   
 24  10  34  1   
 25  11  35  1   
 26  12  13  1   
 27  12  36  1   
 28  12  37  1   
 29  13  14  1   
 30  13  38  1   
 31  14  15  1   
 32  14  39  1   
 33  14  40  1   
 34  15  16  ar  
 35  15  17  ar  
 36  16  18  ar  
 37  16  41  1   
 38  17  19  ar  
 39  17  42  1   
 40  18  20  ar  
 41  18  43  1   
 42  19  20  ar  
 43  19  44  1   
 44  20  21  1   
 45  21  22  3   
@<TRIPOS>SUBSTRUCTURE
  1 ****  13 GROUP 4 **** **** 0

# MOE 2024.06 (io_trps.svl 2023.06)
