@<TRIPOS>MOLECULE
NONAME
49 52 1 0 0 
SMALL
USER_CHARGES


@<TRIPOS>ATOM
  1 S        0.0660     0.6200    -0.9320 S.3   1 <1>  -0.0800 
  2 C        1.6650     1.0200    -0.2900 C.2   1 <1>  -0.0450 
  3 C        0.0000     2.1350    -1.8280 C.2   1 <1>  -0.1100 
  4 C        2.4790     0.2620     0.5870 C.2   1 <1>   0.8660 
  5 C        2.0550     2.2260    -0.7620 C.2   1 <1>   0.0830 
  6 C        1.1180     2.8610    -1.6320 C.2   1 <1>  -0.1500 
  7 O        2.1440    -0.8290     1.0250 O.2   1 <1>  -0.5700 
  8 N        3.7000     0.7700     0.9660 N.2   1 <1>  -0.6610 
  9 N        3.2820     2.6710    -0.3430 N.pl3 1 <1>  -0.5330 
 10 C        4.0520     1.9190     0.5030 C.2   1 <1>   0.4390 
 11 C        5.4050     2.5160     0.8950 C.3   1 <1>   0.2700 
 12 N        5.3640     4.0230     1.0610 N.pl3 1 <1>  -0.8380 
 13 C        6.3100     4.8210     0.4930 C.ar  1 <1>   0.4100 
 14 C        4.6040     4.4480     2.2780 C.3   1 <1>   0.1290 
 15 N        7.5000     4.2740     0.3510 N.ar  1 <1>  -0.6200 
 16 C        6.0490     6.1610     0.0910 C.ar  1 <1>  -0.1430 
 17 C        8.4880     5.0180    -0.1090 C.ar  1 <1>   0.7710 
 18 C        7.1010     6.9100    -0.3510 C.ar  1 <1>   0.2180 
 19 C        4.6210     6.7180     0.1260 C.3   1 <1>  -0.0960 
 20 N        8.3080     6.3050    -0.4320 N.ar  1 <1>  -0.1790 
 21 N        9.7160     4.4670    -0.2560 N.pl3 1 <1>  -0.8380 
 22 C        7.0480     8.3740    -0.7750 C.3   1 <1>  -0.0970 
 23 C        9.9890     3.0550     0.1370 C.3   1 <1>   0.2090 
 24 C       10.9500     5.0830    -0.8160 C.3   1 <1>   0.2090 
 25 C       11.4980     2.8920     0.0220 C.3   1 <1>  -0.1600 
 26 C       11.9150     3.9230    -1.0180 C.3   1 <1>  -0.1600 
 27 H       -0.8830     2.3210    -2.4150 H     1 <1>   0.1500 
 28 H        1.3230     3.8220    -2.0680 H     1 <1>   0.1500 
 29 H        3.6480     3.5900    -0.6060 H     1 <1>   0.4000 
 30 H        6.1040     2.2430     0.1240 H     1 <1>   0.0800 
 31 H        5.7410     2.0610     1.8100 H     1 <1>   0.0800 
 32 H        3.5490     4.4690     2.0670 H     1 <1>   0.0800 
 33 H        4.9190     5.4240     2.6020 H     1 <1>   0.0800 
 34 H        4.7810     3.7570     3.0860 H     1 <1>   0.0800 
 35 H        3.9000     5.9340    -0.0220 H     1 <1>   0.0800 
 36 H        4.4550     7.4360    -0.6570 H     1 <1>   0.0800 
 37 H        4.4260     7.1890     1.0730 H     1 <1>   0.0800 
 38 H        9.1380     6.7880    -0.7480 H     1 <1>   0.4570 
 39 H        6.1610     8.8620    -0.4150 H     1 <1>   0.0800 
 40 H        7.0640     8.4490    -1.8490 H     1 <1>   0.0800 
 41 H        7.8890     8.9130    -0.3770 H     1 <1>   0.0800 
 42 H        9.4890     2.3910    -0.5490 H     1 <1>   0.0800 
 43 H        9.6500     2.8540     1.1410 H     1 <1>   0.0800 
 44 H       11.3640     5.7740    -0.0990 H     1 <1>   0.0800 
 45 H       10.7610     5.5830    -1.7510 H     1 <1>   0.0800 
 46 H       11.7690     1.8900    -0.2600 H     1 <1>   0.0800 
 47 H       11.9490     3.1200     0.9720 H     1 <1>   0.0800 
 48 H       12.9410     4.2280    -0.9030 H     1 <1>   0.0800 
 49 H       11.7810     3.5190    -2.0070 H     1 <1>   0.0800 
@<TRIPOS>BOND
  1   1   2  1   
  2   1   3  1   
  3   2   4  1   
  4   2   5  2   
  5   3   6  2   
  6   3  27  1   
  7   4   7  2   
  8   4   8  1   
  9   5   6  1   
 10   5   9  1   
 11   6  28  1   
 12   8  10  2   
 13   9  10  1   
 14   9  29  1   
 15  10  11  1   
 16  11  12  1   
 17  11  30  1   
 18  11  31  1   
 19  12  13  1   
 20  12  14  1   
 21  13  15  ar  
 22  13  16  ar  
 23  14  32  1   
 24  14  33  1   
 25  14  34  1   
 26  15  17  ar  
 27  16  18  ar  
 28  16  19  1   
 29  17  20  ar  
 30  17  21  1   
 31  18  20  ar  
 32  18  22  1   
 33  19  35  1   
 34  19  36  1   
 35  19  37  1   
 36  20  38  1   
 37  21  23  1   
 38  21  24  1   
 39  22  39  1   
 40  22  40  1   
 41  22  41  1   
 42  23  25  1   
 43  23  42  1   
 44  23  43  1   
 45  24  26  1   
 46  24  44  1   
 47  24  45  1   
 48  25  26  1   
 49  25  46  1   
 50  25  47  1   
 51  26  48  1   
 52  26  49  1   
@<TRIPOS>SUBSTRUCTURE
  1 ****  12 GROUP 4 **** **** 0

# MOE 2024.06 (io_trps.svl 2023.06)
