@<TRIPOS>MOLECULE
NONAME
60 63 1 0 0 
SMALL
USER_CHARGES


@<TRIPOS>ATOM
  1 O        0.5550     0.3200    -0.8040 O.2   1 <1>  -0.5700 
  2 C        1.4120    -0.5430    -0.8060 C.2   1 <1>   0.5440 
  3 N        2.6940    -0.2290    -0.4020 N.am  1 <1>  -0.6600 
  4 C        1.0520    -1.8800    -1.2280 C.ar  1 <1>   0.0860 
  5 C        3.0970     1.1740    -0.0990 C.3   1 <1>   0.1400 
  6 C        3.7220    -1.2450    -0.0410 C.3   1 <1>   0.1400 
  7 C        0.0730    -2.6120    -0.5870 C.ar  1 <1>  -0.1500 
  8 C        1.6560    -2.5170    -2.3030 C.ar  1 <1>  -0.1500 
  9 C        3.4190     1.3060     1.3930 C.3   1 <1>  -0.1600 
 10 C        4.0520    -1.1350     1.4510 C.3   1 <1>  -0.1600 
 11 C       -0.2520    -3.8960    -1.0040 C.ar  1 <1>   0.4100 
 12 C        1.2770    -3.7980    -2.6460 C.ar  1 <1>   0.1600 
 13 C        4.4800     0.2880     1.8360 C.3   1 <1>  -0.1600 
 14 N        0.3500    -4.5000    -2.0210 N.ar  1 <1>  -0.6200 
 15 N       -1.2450    -4.5940    -0.3430 N.pl3 1 <1>  -0.8380 
 16 C       -2.6320    -4.0400    -0.4050 C.3   1 <1>   0.2090 
 17 C       -1.2550    -6.0890    -0.4280 C.3   1 <1>   0.2090 
 18 C       -3.5710    -4.7480     0.5950 C.3   1 <1>   0.2950 
 19 C       -2.2630    -6.7080     0.5670 C.3   1 <1>   0.2000 
 20 O       -3.5320    -6.1380     0.4000 O.3   1 <1>  -0.5600 
 21 C       -5.0200    -4.2470     0.4420 C.3   1 <1>  -0.1950 
 22 C       -2.4350    -8.2220     0.3890 C.3   1 <1>  -0.1600 
 23 C       -6.2040    -5.0620     0.8660 C.3   1 <1>  -0.2000 
 24 C       -5.9530    -4.7970    -0.5930 C.3   1 <1>  -0.2000 
 25 C       -1.1510    -9.0150     0.6850 C.3   1 <1>  -0.1600 
 26 C       -1.4010   -10.5240     0.5780 C.3   1 <1>  -0.1600 
 27 C       -0.1220   -11.3150     0.8660 C.3   1 <1>  -0.2400 
 28 H        3.9650     1.4220    -0.6840 H     1 <1>   0.0800 
 29 H        2.3130     1.8640    -0.3620 H     1 <1>   0.0800 
 30 H        3.3760    -2.2420    -0.2500 H     1 <1>   0.0800 
 31 H        4.6090    -1.0680    -0.6250 H     1 <1>   0.0800 
 32 H       -0.4430    -2.1850     0.2500 H     1 <1>   0.1500 
 33 H        2.4180    -2.0060    -2.8630 H     1 <1>   0.1500 
 34 H        3.7670     2.3040     1.5940 H     1 <1>   0.0800 
 35 H        2.5130     1.1570     1.9540 H     1 <1>   0.0800 
 36 H        3.1830    -1.4170     2.0200 H     1 <1>   0.0800 
 37 H        4.8400    -1.8260     1.6940 H     1 <1>   0.0800 
 38 H        1.7610    -4.2750    -3.4820 H     1 <1>   0.1500 
 39 H        4.6220     0.3510     2.9010 H     1 <1>   0.0800 
 40 H        5.4170     0.5200     1.3590 H     1 <1>   0.0800 
 41 H       -2.6170    -2.9870    -0.1890 H     1 <1>   0.0800 
 42 H       -3.0200    -4.1680    -1.4010 H     1 <1>   0.0800 
 43 H       -1.5130    -6.3880    -1.4300 H     1 <1>   0.0800 
 44 H       -0.2660    -6.4540    -0.2170 H     1 <1>   0.0800 
 45 H       -3.2380    -4.5460     1.5980 H     1 <1>   0.0800 
 46 H       -1.9390    -6.5040     1.5730 H     1 <1>   0.0800 
 47 H       -5.0850    -3.1900     0.6330 H     1 <1>   0.1000 
 48 H       -3.2080    -8.5510     1.0610 H     1 <1>   0.0800 
 49 H       -2.7580    -8.4230    -0.6180 H     1 <1>   0.0800 
 50 H       -6.0480    -6.0610     1.2350 H     1 <1>   0.1000 
 51 H       -7.0300    -4.5680     1.3480 H     1 <1>   0.1000 
 52 H       -6.6050    -4.1210    -1.1180 H     1 <1>   0.1000 
 53 H       -5.6280    -5.6190    -1.2080 H     1 <1>   0.1000 
 54 H       -0.3790    -8.7400    -0.0130 H     1 <1>   0.0800 
 55 H       -0.8060    -8.7820     1.6780 H     1 <1>   0.0800 
 56 H       -2.1640   -10.8160     1.2790 H     1 <1>   0.0800 
 57 H       -1.7490   -10.7630    -0.4130 H     1 <1>   0.0800 
 58 H        0.2320   -11.1090     1.8610 H     1 <1>   0.0800 
 59 H        0.6490   -11.0550     0.1620 H     1 <1>   0.0800 
 60 H       -0.3160   -12.3700     0.7850 H     1 <1>   0.0800 
@<TRIPOS>BOND
  1   1   2  2   
  2   2   3  am  
  3   2   4  1   
  4   3   5  1   
  5   3   6  1   
  6   4   7  ar  
  7   4   8  ar  
  8   5   9  1   
  9   5  28  1   
 10   5  29  1   
 11   6  10  1   
 12   6  30  1   
 13   6  31  1   
 14   7  11  ar  
 15   7  32  1   
 16   8  12  ar  
 17   8  33  1   
 18   9  13  1   
 19   9  34  1   
 20   9  35  1   
 21  10  13  1   
 22  10  36  1   
 23  10  37  1   
 24  11  14  ar  
 25  11  15  1   
 26  12  14  ar  
 27  12  38  1   
 28  13  39  1   
 29  13  40  1   
 30  15  16  1   
 31  15  17  1   
 32  16  18  1   
 33  16  41  1   
 34  16  42  1   
 35  17  19  1   
 36  17  43  1   
 37  17  44  1   
 38  18  20  1   
 39  18  21  1   
 40  18  45  1   
 41  19  20  1   
 42  19  22  1   
 43  19  46  1   
 44  21  23  1   
 45  21  24  1   
 46  21  47  1   
 47  22  25  1   
 48  22  48  1   
 49  22  49  1   
 50  23  24  1   
 51  23  50  1   
 52  23  51  1   
 53  24  52  1   
 54  24  53  1   
 55  25  26  1   
 56  25  54  1   
 57  25  55  1   
 58  26  27  1   
 59  26  56  1   
 60  26  57  1   
 61  27  58  1   
 62  27  59  1   
 63  27  60  1   
@<TRIPOS>SUBSTRUCTURE
  1 ****  11 GROUP 4 **** **** 0

# MOE 2024.06 (io_trps.svl 2023.06)
