@<TRIPOS>MOLECULE
Untitled Document
39 40 1 0 0 
SMALL
USER_CHARGES


@<TRIPOS>ATOM
  1 O       -4.0670     5.0490     1.9940 O.2   1 <1>  -0.5700 
  2 C       -4.0430     5.8870     1.1300 C.2   1 <1>   0.6590 
  3 O       -2.9390     6.1590     0.4490 O.3   1 <1>  -0.4300 
  4 C       -5.2760     6.6810     0.7490 C.3   1 <1>  -0.0990 
  5 C       -1.6930     5.5250     0.7000 C.3   1 <1>   0.2000 
  6 C       -5.8170     6.2860    -0.6340 C.3   1 <1>  -0.1600 
  7 C       -1.6510     4.1150     0.0570 C.3   1 <1>   0.2000 
  8 C       -0.5960     6.4340     0.1140 C.3   1 <1>   0.1100 
  9 C       -7.0650     7.0960    -0.9970 C.3   1 <1>  -0.2400 
 10 O       -2.5460     3.2320     0.6690 O.3   1 <1>  -0.6800 
 11 C       -0.2380     3.5010     0.1020 C.3   1 <1>   0.2000 
 12 N        0.7130     5.7820     0.2460 N.3   1 <1>  -0.8100 
 13 O       -0.2380     2.3280    -0.6470 O.3   1 <1>  -0.6800 
 14 C        0.7790     4.4990    -0.4700 C.3   1 <1>   0.1900 
 15 C        1.8680     6.5490    -0.2320 C.3   1 <1>   0.1100 
 16 C        2.2620     4.1450    -0.3700 C.3   1 <1>   0.2000 
 17 C        2.9080     5.4980    -0.6590 C.3   1 <1>  -0.1600 
 18 O        2.5750     3.8270     0.9420 O.3   1 <1>  -0.6800 
 19 H       -6.0330     6.5130     1.4950 H     1 <1>   0.0800 
 20 H       -5.0230     7.7250     0.7600 H     1 <1>   0.0800 
 21 H       -1.5470     5.4550     1.7640 H     1 <1>   0.0800 
 22 H       -5.0580     6.4500    -1.3800 H     1 <1>   0.0800 
 23 H       -6.0620     5.2360    -0.6360 H     1 <1>   0.0800 
 24 H       -1.9430     4.2120    -0.9740 H     1 <1>   0.0800 
 25 H       -0.5820     7.3660     0.6530 H     1 <1>   0.0800 
 26 H       -0.8000     6.6300    -0.9250 H     1 <1>   0.0800 
 27 H       -6.8390     8.1480    -1.0230 H     1 <1>   0.0800 
 28 H       -7.8480     6.9270    -0.2780 H     1 <1>   0.0800 
 29 H       -7.4250     6.8010    -1.9670 H     1 <1>   0.0800 
 30 H       -3.1940     3.7370     1.2230 H     1 <1>   0.4000 
 31 H        0.0270     3.2510     1.1150 H     1 <1>   0.0800 
 32 H       -0.9960     1.7870    -0.3380 H     1 <1>   0.4000 
 33 H        0.5380     4.6670    -1.5070 H     1 <1>   0.0800 
 34 H        1.5940     7.1610    -1.0760 H     1 <1>   0.0800 
 35 H        2.2450     7.1760     0.5590 H     1 <1>   0.0800 
 36 H        2.5720     3.3460    -1.0210 H     1 <1>   0.0800 
 37 H        3.8460     5.6200    -0.1450 H     1 <1>   0.0800 
 38 H        3.0850     5.5940    -1.7150 H     1 <1>   0.0800 
 39 H        2.1510     4.5150     1.4960 H     1 <1>   0.4000 
@<TRIPOS>BOND
  1   1   2  2   
  2   2   3  1   
  3   2   4  1   
  4   3   5  1   
  5   4   6  1   
  6   4  19  1   
  7   4  20  1   
  8   5   7  1   
  9   5   8  1   
 10   5  21  1   
 11   6   9  1   
 12   6  22  1   
 13   6  23  1   
 14   7  10  1   
 15   7  11  1   
 16   7  24  1   
 17   8  12  1   
 18   8  25  1   
 19   8  26  1   
 20   9  27  1   
 21   9  28  1   
 22   9  29  1   
 23  10  30  1   
 24  11  13  1   
 25  11  14  1   
 26  11  31  1   
 27  12  14  1   
 28  12  15  1   
 29  13  32  1   
 30  14  16  1   
 31  14  33  1   
 32  15  17  1   
 33  15  34  1   
 34  15  35  1   
 35  16  17  1   
 36  16  18  1   
 37  16  36  1   
 38  17  37  1   
 39  17  38  1   
 40  18  39  1   
@<TRIPOS>SUBSTRUCTURE
  1 ****   5 GROUP 4 **** **** 0

# MOE 2024.06 (io_trps.svl 2023.06)
