@<TRIPOS>MOLECULE
NONAME
51 54 1 0 0 
SMALL
USER_CHARGES


@<TRIPOS>ATOM
  1 O        1.6220     0.3020     1.6420 O.2   1 <1>  -0.5700 
  2 C        2.1620    -0.0880     0.6260 C.2   1 <1>   0.5440 
  3 N        2.2890     0.7780    -0.4430 N.am  1 <1>  -0.6600 
  4 C        2.6260    -1.4520     0.5900 C.ar  1 <1>   0.0860 
  5 C        2.6820     0.3400    -1.8270 C.3   1 <1>   0.1400 
  6 C        1.9970     2.2310    -0.2720 C.3   1 <1>   0.1400 
  7 C        1.7690    -2.5090     0.8180 C.ar  1 <1>   0.1600 
  8 C        3.9420    -1.8000     0.3530 C.ar  1 <1>   0.1600 
  9 C        3.6520     1.3020    -2.5370 C.3   1 <1>   0.1400 
 10 C        3.2720     2.9810     0.1380 C.3   1 <1>  -0.1600 
 11 N        2.1510    -3.7680     0.7880 N.ar  1 <1>  -0.6200 
 12 N        4.3620    -3.0460     0.3210 N.ar  1 <1>  -0.6200 
 13 N        4.6720     1.8610    -1.6020 N.am  1 <1>  -0.6600 
 14 C        4.2960     3.1650    -0.9900 C.3   1 <1>   0.1400 
 15 C        3.4380    -3.9690     0.5420 C.ar  1 <1>   0.5880 
 16 C        5.7850     1.1300    -1.2850 C.2   1 <1>   0.5690 
 17 C        3.9030    -5.4180     0.5020 C.3   1 <1>  -0.0680 
 18 O        5.9800     0.0430    -1.7790 O.2   1 <1>  -0.5700 
 19 C        6.8010     1.6620    -0.2920 C.3   1 <1>  -0.0990 
 20 C        3.6490    -6.3490     1.6530 C.3   1 <1>  -0.2000 
 21 C        5.0430    -5.8940     1.3570 C.3   1 <1>  -0.2000 
 22 C        7.8250     0.5980     0.1290 C.3   1 <1>   0.0960 
 23 N        8.8350     1.1740     1.0370 N.pl3 1 <1>   0.3140 
 24 N        8.5000     1.8120     2.1760 N.2   1 <1>  -0.7070 
 25 C       10.1720     1.1560     0.8660 C.2   1 <1>  -0.3020 
 26 C        9.6300     2.1780     2.6990 C.2   1 <1>   0.1390 
 27 C       10.7170     1.7960     1.9230 C.2   1 <1>  -0.1500 
 28 H        1.7940     0.2410    -2.4250 H     1 <1>   0.0800 
 29 H        3.1490    -0.6270    -1.7990 H     1 <1>   0.0800 
 30 H        1.2530     2.3620     0.4960 H     1 <1>   0.0800 
 31 H        1.5910     2.6390    -1.1810 H     1 <1>   0.0800 
 32 H        0.7350    -2.2990     1.0340 H     1 <1>   0.1500 
 33 H        4.6640    -1.0210     0.1830 H     1 <1>   0.1500 
 34 H        3.0950     2.1030    -2.9890 H     1 <1>   0.0800 
 35 H        4.1450     0.7740    -3.3360 H     1 <1>   0.0800 
 36 H        3.7300     2.4770     0.9710 H     1 <1>   0.0800 
 37 H        2.9870     3.9580     0.4830 H     1 <1>   0.0800 
 38 H        5.1670     3.6640    -0.6040 H     1 <1>   0.0800 
 39 H        3.8800     3.8030    -1.7520 H     1 <1>   0.0800 
 40 H        3.8250    -5.8250    -0.4890 H     1 <1>   0.1000 
 41 H        6.2820     2.0010     0.5860 H     1 <1>   0.0800 
 42 H        7.3130     2.4910    -0.7420 H     1 <1>   0.0800 
 43 H        3.3700    -7.3650     1.4360 H     1 <1>   0.1000 
 44 H        3.1470    -5.9600     2.5230 H     1 <1>   0.1000 
 45 H        5.5130    -5.1870     2.0180 H     1 <1>   0.1000 
 46 H        5.7440    -6.5900     0.9300 H     1 <1>   0.1000 
 47 H        8.3260     0.2020    -0.7350 H     1 <1>   0.0800 
 48 H        7.3320    -0.2090     0.6410 H     1 <1>   0.0800 
 49 H       10.6530     0.6990     0.0210 H     1 <1>   0.1500 
 50 H        9.7050     2.7150     3.6300 H     1 <1>   0.1500 
 51 H       11.7520     1.9830     2.1430 H     1 <1>   0.1500 
@<TRIPOS>BOND
  1   1   2  2   
  2   2   3  am  
  3   2   4  1   
  4   3   5  1   
  5   3   6  1   
  6   4   7  ar  
  7   4   8  ar  
  8   5   9  1   
  9   5  28  1   
 10   5  29  1   
 11   6  10  1   
 12   6  30  1   
 13   6  31  1   
 14   7  11  ar  
 15   7  32  1   
 16   8  12  ar  
 17   8  33  1   
 18   9  13  1   
 19   9  34  1   
 20   9  35  1   
 21  10  14  1   
 22  10  36  1   
 23  10  37  1   
 24  11  15  ar  
 25  12  15  ar  
 26  13  14  1   
 27  13  16  am  
 28  14  38  1   
 29  14  39  1   
 30  15  17  1   
 31  16  18  2   
 32  16  19  1   
 33  17  20  1   
 34  17  21  1   
 35  17  40  1   
 36  19  22  1   
 37  19  41  1   
 38  19  42  1   
 39  20  21  1   
 40  20  43  1   
 41  20  44  1   
 42  21  45  1   
 43  21  46  1   
 44  22  23  1   
 45  22  47  1   
 46  22  48  1   
 47  23  24  1   
 48  23  25  1   
 49  24  26  2   
 50  25  27  2   
 51  25  49  1   
 52  26  27  1   
 53  26  50  1   
 54  27  51  1   
@<TRIPOS>SUBSTRUCTURE
  1 ****   8 GROUP 4 **** **** 0

# MOE 2024.06 (io_trps.svl 2023.06)
