@<TRIPOS>MOLECULE
NONAME
42 44 1 0 0 
SMALL
USER_CHARGES


@<TRIPOS>ATOM
  1 BR       0.0710    -0.1330    -1.2800 Br    1 <1>  -0.1110 
  2 C        1.4490    -1.3830    -0.7750 C.ar  1 <1>   0.1110 
  3 C        2.6860    -0.8880    -0.3970 C.ar  1 <1>  -0.1500 
  4 C        1.1610    -2.7390    -0.8070 C.ar  1 <1>  -0.1500 
  5 C        3.6570    -1.8070    -0.0430 C.ar  1 <1>  -0.1440 
  6 C        2.1490    -3.6390    -0.4440 C.ar  1 <1>  -0.1500 
  7 C        3.3950    -3.1610    -0.0590 C.ar  1 <1>   0.1000 
  8 C        5.0840    -1.5710     0.3880 C.3   1 <1>   0.0640 
  9 N        4.4780    -3.9210     0.3310 N.pl3 1 <1>  -0.8690 
 10 C        5.6150    -3.0090     0.6140 C.3   1 <1>   0.2890 
 11 C        5.8760    -0.8070    -0.6780 C.3   1 <1>   0.1400 
 12 C        6.7930    -3.3810    -0.2920 C.3   1 <1>  -0.1600 
 13 N        7.3420    -0.9390    -0.4200 N.am  1 <1>  -0.6600 
 14 C        7.8900    -2.3120    -0.2290 C.3   1 <1>   0.1400 
 15 C        8.1550     0.1630    -0.3540 C.2   1 <1>   0.7800 
 16 O        7.7270     1.2920    -0.4880 O.2   1 <1>  -0.5700 
 17 O        9.4530    -0.0620    -0.1270 O.3   1 <1>  -0.4300 
 18 C       10.4820     0.8980    -0.0200 C.3   1 <1>   0.2800 
 19 C       10.6300     1.6690    -1.3370 C.3   1 <1>  -0.2400 
 20 C       11.7550     0.0900     0.2350 C.3   1 <1>  -0.2400 
 21 C       10.2240     1.8230     1.1750 C.3   1 <1>  -0.2400 
 22 H        2.8730     0.1710    -0.3850 H     1 <1>   0.1500 
 23 H        0.1860    -3.0770    -1.1070 H     1 <1>   0.1500 
 24 H        1.9660    -4.6980    -0.4470 H     1 <1>   0.1500 
 25 H        5.1040    -1.0260     1.3140 H     1 <1>   0.0800 
 26 H        4.7140    -4.6830    -0.3110 H     1 <1>   0.4000 
 27 H        5.9030    -3.1180     1.6460 H     1 <1>   0.0800 
 28 H        5.5750     0.2260    -0.6750 H     1 <1>   0.0800 
 29 H        5.6580    -1.2100    -1.6520 H     1 <1>   0.0800 
 30 H        7.2010    -4.3260     0.0160 H     1 <1>   0.0800 
 31 H        6.4600    -3.4740    -1.3110 H     1 <1>   0.0800 
 32 H        8.6310    -2.5060    -0.9870 H     1 <1>   0.0800 
 33 H        8.3770    -2.3560     0.7310 H     1 <1>   0.0800 
 34 H       11.5010     2.2970    -1.2990 H     1 <1>   0.0800 
 35 H        9.7810     2.3030    -1.5130 H     1 <1>   0.0800 
 36 H       10.7370     0.9860    -2.1600 H     1 <1>   0.0800 
 37 H       12.6020     0.7460     0.3300 H     1 <1>   0.0800 
 38 H       11.9390    -0.5840    -0.5820 H     1 <1>   0.0800 
 39 H       11.6620    -0.4770     1.1440 H     1 <1>   0.0800 
 40 H       11.0750     2.4590     1.3360 H     1 <1>   0.0800 
 41 H       10.0550     1.2460     2.0660 H     1 <1>   0.0800 
 42 H        9.3760     2.4580     0.9980 H     1 <1>   0.0800 
@<TRIPOS>BOND
  1   1   2  1   
  2   2   3  ar  
  3   2   4  ar  
  4   3   5  ar  
  5   3  22  1   
  6   4   6  ar  
  7   4  23  1   
  8   5   7  ar  
  9   5   8  1   
 10   6   7  ar  
 11   6  24  1   
 12   7   9  1   
 13   8  10  1   
 14   8  11  1   
 15   8  25  1   
 16   9  10  1   
 17   9  26  1   
 18  10  12  1   
 19  10  27  1   
 20  11  13  1   
 21  11  28  1   
 22  11  29  1   
 23  12  14  1   
 24  12  30  1   
 25  12  31  1   
 26  13  14  1   
 27  13  15  am  
 28  14  32  1   
 29  14  33  1   
 30  15  16  2   
 31  15  17  1   
 32  17  18  1   
 33  18  19  1   
 34  18  20  1   
 35  18  21  1   
 36  19  34  1   
 37  19  35  1   
 38  19  36  1   
 39  20  37  1   
 40  20  38  1   
 41  20  39  1   
 42  21  40  1   
 43  21  41  1   
 44  21  42  1   
@<TRIPOS>SUBSTRUCTURE
  1 ****  11 GROUP 4 **** **** 0

# MOE 2024.06 (io_trps.svl 2023.06)
