@<TRIPOS>MOLECULE
NONAME
63 67 1 0 0 
SMALL
USER_CHARGES


@<TRIPOS>ATOM
  1 O        0.9960    -0.7200     1.9420 O.3   1 <1>  -0.5600 
  2 C        2.0200    -1.0110     1.0190 C.3   1 <1>   0.4240 
  3 C       -0.3120    -1.0360     1.5770 C.3   1 <1>   0.1200 
  4 C        1.7670    -2.3450     0.2840 C.ar  1 <1>  -0.1440 
  5 C        2.1140     0.1610     0.0280 C.3   1 <1>  -0.1600 
  6 C        3.3050    -1.0990     1.8540 C.3   1 <1>  -0.1600 
  7 C       -0.4390    -2.5510     1.4560 C.3   1 <1>  -0.0160 
  8 C        0.6050    -3.0760     0.4910 C.ar  1 <1>  -0.1440 
  9 C        2.7050    -2.8440    -0.6110 C.ar  1 <1>  -0.1500 
 10 C        2.4520     1.4750     0.7320 C.3   1 <1>   0.2090 
 11 C        3.6270     0.2310     2.5320 C.3   1 <1>   0.2090 
 12 C        0.3940    -4.2720    -0.1770 C.ar  1 <1>  -0.1500 
 13 C        2.5150    -4.0390    -1.2830 C.ar  1 <1>   0.0820 
 14 N        3.7210     1.3000     1.4930 N.pl3 1 <1>  -0.8380 
 15 C        1.3340    -4.7680    -1.0770 C.ar  1 <1>   0.0820 
 16 O        3.5350    -4.3930    -2.1150 O.3   1 <1>  -0.3630 
 17 C        4.8970     1.9030     1.1620 C.ar  1 <1>   0.4100 
 18 O        1.1170    -5.9290    -1.7650 O.3   1 <1>  -0.3630 
 19 C        3.8670    -5.7480    -2.3240 C.3   1 <1>   0.0400 
 20 N        6.0070     1.1790     1.3050 N.ar  1 <1>  -0.6200 
 21 C        4.9390     3.2100     0.6960 C.ar  1 <1>  -0.1500 
 22 C       -0.1170    -6.6100    -1.7200 C.3   1 <1>   0.0400 
 23 C        7.1310     1.7410     0.9700 C.ar  1 <1>   0.7710 
 24 C        6.1410     3.7790     0.3510 C.ar  1 <1>   0.4610 
 25 N        7.2230     3.0000     0.5020 N.ar  1 <1>  -0.1790 
 26 N        8.2360     1.0020     1.1090 N.pl3 1 <1>  -0.9000 
 27 N        6.3040     5.0580    -0.1140 N.pl3 1 <1>  -0.8380 
 28 C        5.1930     6.0520    -0.1570 C.3   1 <1>   0.2090 
 29 C        7.5410     5.6600    -0.6910 C.3   1 <1>   0.2090 
 30 C        5.8490     7.3670    -0.5500 C.3   1 <1>  -0.1600 
 31 C        7.0830     6.9570    -1.3430 C.3   1 <1>  -0.1600 
 32 H       -0.5470    -0.5520     0.6460 H     1 <1>   0.0800 
 33 H       -0.9680    -0.6640     2.3450 H     1 <1>   0.0800 
 34 H        1.1940     0.2580    -0.5160 H     1 <1>   0.0800 
 35 H        2.8860    -0.0410    -0.6920 H     1 <1>   0.0800 
 36 H        4.1380    -1.3650     1.2310 H     1 <1>   0.0800 
 37 H        3.1930    -1.8700     2.5930 H     1 <1>   0.0800 
 38 H       -1.4260    -2.7950     1.1070 H     1 <1>   0.0800 
 39 H       -0.2990    -3.0010     2.4230 H     1 <1>   0.0800 
 40 H        3.6150    -2.3070    -0.8040 H     1 <1>   0.1500 
 41 H        1.6610     1.7450     1.4120 H     1 <1>   0.0800 
 42 H        2.5480     2.2520    -0.0050 H     1 <1>   0.0800 
 43 H        4.5480     0.1480     3.0830 H     1 <1>   0.0800 
 44 H        2.8490     0.4840     3.2330 H     1 <1>   0.0800 
 45 H       -0.5160    -4.8040     0.0170 H     1 <1>   0.1500 
 46 H        4.8780    -5.7930    -2.6860 H     1 <1>   0.0800 
 47 H        3.1990    -6.1590    -3.0590 H     1 <1>   0.0800 
 48 H        3.7840    -6.2780    -1.3920 H     1 <1>   0.0800 
 49 H        4.0290     3.7650     0.6210 H     1 <1>   0.1500 
 50 H       -0.0600    -7.4460    -2.3930 H     1 <1>   0.0800 
 51 H       -0.8980    -5.9410    -2.0350 H     1 <1>   0.0800 
 52 H       -0.2870    -6.9610    -0.7170 H     1 <1>   0.0800 
 53 H        8.1280     3.3810     0.2930 H     1 <1>   0.4570 
 54 H        9.2020     1.2440     0.8870 H     1 <1>   0.4000 
 55 H        8.1130     0.0490     1.4660 H     1 <1>   0.4000 
 56 H        4.7030     6.1360     0.7990 H     1 <1>   0.0800 
 57 H        4.4780     5.7590    -0.9080 H     1 <1>   0.0800 
 58 H        7.9990     5.0120    -1.4200 H     1 <1>   0.0800 
 59 H        8.2370     5.8830     0.1010 H     1 <1>   0.0800 
 60 H        6.1420     7.8950     0.3410 H     1 <1>   0.0800 
 61 H        5.1830     7.9910    -1.1210 H     1 <1>   0.0800 
 62 H        6.8120     6.7620    -2.3660 H     1 <1>   0.0800 
 63 H        7.8500     7.7110    -1.3240 H     1 <1>   0.0800 
@<TRIPOS>BOND
  1   1   2  1   
  2   1   3  1   
  3   2   4  1   
  4   2   5  1   
  5   2   6  1   
  6   3   7  1   
  7   3  32  1   
  8   3  33  1   
  9   4   8  ar  
 10   4   9  ar  
 11   5  10  1   
 12   5  34  1   
 13   5  35  1   
 14   6  11  1   
 15   6  36  1   
 16   6  37  1   
 17   7   8  1   
 18   7  38  1   
 19   7  39  1   
 20   8  12  ar  
 21   9  13  ar  
 22   9  40  1   
 23  10  14  1   
 24  10  41  1   
 25  10  42  1   
 26  11  14  1   
 27  11  43  1   
 28  11  44  1   
 29  12  15  ar  
 30  12  45  1   
 31  13  15  ar  
 32  13  16  1   
 33  14  17  1   
 34  15  18  1   
 35  16  19  1   
 36  17  20  ar  
 37  17  21  ar  
 38  18  22  1   
 39  19  46  1   
 40  19  47  1   
 41  19  48  1   
 42  20  23  ar  
 43  21  24  ar  
 44  21  49  1   
 45  22  50  1   
 46  22  51  1   
 47  22  52  1   
 48  23  25  ar  
 49  23  26  1   
 50  24  25  ar  
 51  24  27  1   
 52  25  53  1   
 53  26  54  1   
 54  26  55  1   
 55  27  28  1   
 56  27  29  1   
 57  28  30  1   
 58  28  56  1   
 59  28  57  1   
 60  29  31  1   
 61  29  58  1   
 62  29  59  1   
 63  30  31  1   
 64  30  60  1   
 65  30  61  1   
 66  31  62  1   
 67  31  63  1   
@<TRIPOS>SUBSTRUCTURE
  1 ****   5 GROUP 4 **** **** 0

# MOE 2024.06 (io_trps.svl 2023.06)
