@<TRIPOS>MOLECULE
NONAME
36 37 1 0 0 
SMALL
USER_CHARGES


@<TRIPOS>ATOM
  1 CL      -2.2480     0.2280     2.4280 Cl    1 <1>  -0.1770 
  2 C       -2.4880     0.9220     0.8380 C.ar  1 <1>   0.1770 
  3 C       -2.5430     2.2980     0.6840 C.ar  1 <1>   0.1770 
  4 C       -2.6310     0.0800    -0.2560 C.ar  1 <1>  -0.1440 
  5 CL      -2.3750     3.3550     2.0640 Cl    1 <1>  -0.1770 
  6 C       -2.7380     2.8540    -0.5660 C.ar  1 <1>  -0.1500 
  7 C       -2.8230     0.6440    -1.5120 C.ar  1 <1>  -0.1500 
  8 C       -2.5720    -1.4270    -0.0850 C.3   1 <1>   0.4870 
  9 C       -2.8780     2.0220    -1.6640 C.ar  1 <1>  -0.1500 
 10 N       -3.9570    -1.9740    -0.1150 N.4   1 <1>  -0.9590 
 11 C       -3.9390    -3.4550    -0.3050 C.3   1 <1>   0.3430 
 12 C       -4.7450    -1.5600     1.0950 C.3   1 <1>   0.3430 
 13 C       -5.3480    -3.9840    -0.6220 C.3   1 <1>  -0.0800 
 14 C       -5.9290    -2.4940     1.3720 C.3   1 <1>  -0.1600 
 15 C       -6.4390    -3.1510     0.0900 C.3   1 <1>   0.2000 
 16 C       -5.4050    -5.4920    -0.3270 C.3   1 <1>   0.1200 
 17 O       -7.5400    -3.9200     0.4010 O.3   1 <1>  -0.6800 
 18 O       -4.2560    -6.0810    -0.8290 O.3   1 <1>  -0.6800 
 19 H       -2.7790     3.9250    -0.6750 H     1 <1>   0.1500 
 20 H       -2.9250     0.0250    -2.3890 H     1 <1>   0.1500 
 21 H       -2.0860    -1.6870     0.8410 H     1 <1>   0.0800 
 22 H       -1.9940    -1.8460    -0.8940 H     1 <1>   0.0800 
 23 H       -3.0260     2.4520    -2.6420 H     1 <1>   0.1500 
 24 H       -4.4130    -1.5630    -0.9400 H     1 <1>   0.4500 
 25 H       -3.2750    -3.7330    -1.1090 H     1 <1>   0.0800 
 26 H       -3.5800    -3.9280     0.5950 H     1 <1>   0.0800 
 27 H       -4.1080    -1.5510     1.9660 H     1 <1>   0.0800 
 28 H       -5.1100    -0.5560     0.9480 H     1 <1>   0.0800 
 29 H       -5.5080    -3.8710    -1.6800 H     1 <1>   0.0800 
 30 H       -6.7170    -1.9240     1.8330 H     1 <1>   0.0800 
 31 H       -5.6140    -3.2500     2.0700 H     1 <1>   0.0800 
 32 H       -6.7860    -2.3840    -0.5840 H     1 <1>   0.0800 
 33 H       -6.2600    -5.9410    -0.8070 H     1 <1>   0.0800 
 34 H       -5.4430    -5.6870     0.7310 H     1 <1>   0.0800 
 35 H       -7.4190    -4.4210     1.2310 H     1 <1>   0.4000 
 36 H       -4.3320    -7.0600    -0.8150 H     1 <1>   0.4000 
@<TRIPOS>BOND
  1   1   2  1   
  2   2   3  ar  
  3   2   4  ar  
  4   3   5  1   
  5   3   6  ar  
  6   4   7  ar  
  7   4   8  1   
  8   6   9  ar  
  9   6  19  1   
 10   7   9  ar  
 11   7  20  1   
 12   8  10  1   
 13   8  21  1   
 14   8  22  1   
 15   9  23  1   
 16  10  11  1   
 17  10  12  1   
 18  10  24  1   
 19  11  13  1   
 20  11  25  1   
 21  11  26  1   
 22  12  14  1   
 23  12  27  1   
 24  12  28  1   
 25  13  15  1   
 26  13  16  1   
 27  13  29  1   
 28  14  15  1   
 29  14  30  1   
 30  14  31  1   
 31  15  17  1   
 32  15  32  1   
 33  16  18  1   
 34  16  33  1   
 35  16  34  1   
 36  17  35  1   
 37  18  36  1   
@<TRIPOS>SUBSTRUCTURE
  1 ****  10 GROUP 4 **** **** 0

# MOE 2024.06 (io_trps.svl 2023.06)
