@<TRIPOS>MOLECULE
NONAME
43 45 1 0 0 
SMALL
USER_CHARGES


@<TRIPOS>ATOM
  1 F        1.7330     2.2840    -2.8750 F     1 <1>  -0.3400 
  2 C        1.3290     2.0890    -1.6210 C.3   1 <1>   1.2010 
  3 F        0.0000     2.1710    -1.6490 F     1 <1>  -0.3400 
  4 F        1.6020     0.8130    -1.3510 F     1 <1>  -0.3400 
  5 C        1.9720     3.0900    -0.6140 C.2   1 <1>   0.3350 
  6 N        2.7100     2.7660     0.3840 N.2   1 <1>  -0.4100 
  7 N        1.8030     4.4190    -0.7000 N.2   1 <1>  -0.5650 
  8 O        3.0650     3.8590     0.9900 O.3   1 <1>  -0.0190 
  9 C        2.5000     4.8120     0.2940 C.2   1 <1>   0.2980 
 10 C        2.6860     6.2620     0.7400 C.3   1 <1>   0.2900 
 11 N        3.9920     6.8600     0.3570 N.3   1 <1>  -0.8100 
 12 C        5.1160     6.2980     1.1480 C.3   1 <1>   0.1100 
 13 C        3.9440     8.3240     0.4590 C.3   1 <1>   0.1100 
 14 C        6.4660     6.8650     0.6890 C.3   1 <1>   0.2000 
 15 C        5.2300     8.9240    -0.1110 C.3   1 <1>  -0.1600 
 16 O        7.4440     6.4300     1.5740 O.3   1 <1>  -0.6800 
 17 C        6.4520     8.4070     0.6500 C.3   1 <1>   0.2200 
 18 N        7.6750     8.9510     0.0030 N.am  1 <1>  -0.7300 
 19 C        8.8960     9.0880     0.5980 C.2   1 <1>   0.5440 
 20 O        9.0290     8.6590     1.7270 O.2   1 <1>  -0.5700 
 21 C       10.0100     9.6930    -0.1130 C.ar  1 <1>   0.0860 
 22 C        9.8170    10.6490    -1.1130 C.ar  1 <1>  -0.1500 
 23 C       11.3260     9.3350     0.1830 C.ar  1 <1>  -0.1500 
 24 C       10.8840    11.2080    -1.7930 C.ar  1 <1>  -0.1500 
 25 C       12.3970     9.8900    -0.4920 C.ar  1 <1>  -0.1500 
 26 C       12.1780    10.8280    -1.4850 C.ar  1 <1>  -0.1500 
 27 H        2.5530     6.3250     1.8060 H     1 <1>   0.0800 
 28 H        1.8980     6.8310     0.2780 H     1 <1>   0.0800 
 29 H        4.9730     6.5240     2.1910 H     1 <1>   0.0800 
 30 H        5.1530     5.2310     1.0250 H     1 <1>   0.0800 
 31 H        3.1070     8.6980    -0.1080 H     1 <1>   0.0800 
 32 H        3.8180     8.6210     1.4880 H     1 <1>   0.0800 
 33 H        6.7010     6.4740    -0.2850 H     1 <1>   0.0800 
 34 H        5.1840     9.9950    -0.0280 H     1 <1>   0.0800 
 35 H        5.2980     8.6590    -1.1510 H     1 <1>   0.0800 
 36 H        8.1350     7.1400     1.6610 H     1 <1>   0.4000 
 37 H        6.3980     8.7700     1.6630 H     1 <1>   0.0800 
 38 H        7.6000     9.1000    -1.0040 H     1 <1>   0.3700 
 39 H        8.8210    10.9680    -1.3590 H     1 <1>   0.1500 
 40 H       11.5050     8.6070     0.9570 H     1 <1>   0.1500 
 41 H       10.7120    11.9430    -2.5620 H     1 <1>   0.1500 
 42 H       13.4020     9.5940    -0.2450 H     1 <1>   0.1500 
 43 H       13.0100    11.2610    -2.0120 H     1 <1>   0.1500 
@<TRIPOS>BOND
  1   1   2  1   
  2   2   3  1   
  3   2   4  1   
  4   2   5  1   
  5   5   6  2   
  6   5   7  1   
  7   6   8  1   
  8   7   9  2   
  9   8   9  1   
 10   9  10  1   
 11  10  11  1   
 12  10  27  1   
 13  10  28  1   
 14  11  12  1   
 15  11  13  1   
 16  12  14  1   
 17  12  29  1   
 18  12  30  1   
 19  13  15  1   
 20  13  31  1   
 21  13  32  1   
 22  14  16  1   
 23  14  17  1   
 24  14  33  1   
 25  15  17  1   
 26  15  34  1   
 27  15  35  1   
 28  16  36  1   
 29  17  18  1   
 30  17  37  1   
 31  18  19  am  
 32  18  38  1   
 33  19  20  2   
 34  19  21  1   
 35  21  22  ar  
 36  21  23  ar  
 37  22  24  ar  
 38  22  39  1   
 39  23  25  ar  
 40  23  40  1   
 41  24  26  ar  
 42  24  41  1   
 43  25  26  ar  
 44  25  42  1   
 45  26  43  1   
@<TRIPOS>SUBSTRUCTURE
  1 ****  14 GROUP 4 **** **** 0

# MOE 2024.06 (io_trps.svl 2023.06)
