@<TRIPOS>MOLECULE
NONAME
51 53 1 0 0 
SMALL
USER_CHARGES


@<TRIPOS>ATOM
  1 S       -1.2230     2.1700     2.1680 S.3   1 <1>  -0.0800 
  2 C       -0.2990     3.5510     1.6150 C.2   1 <1>  -0.1400 
  3 C        0.1670     1.1200     1.9280 C.2   1 <1>  -0.1100 
  4 C        0.9500     3.2120     1.2680 C.2   1 <1>  -0.1810 
  5 C       -0.8750     4.9410     1.5630 C.3   1 <1>   0.0200 
  6 C        1.2210     1.8150     1.4570 C.2   1 <1>  -0.1500 
  7 C        1.9340     4.2640     0.7470 C.3   1 <1>   0.4610 
  8 C        0.3030     5.9220     1.4620 C.3   1 <1>   0.1200 
  9 O        1.2460     5.4790     0.5150 O.3   1 <1>  -0.5600 
 10 C        2.5310     3.8540    -0.6140 C.3   1 <1>  -0.1600 
 11 C        3.0540     4.5130     1.7660 C.3   1 <1>  -0.1600 
 12 C        3.9880     4.2980    -0.8140 C.3   1 <1>   0.1400 
 13 C        3.9870     5.6420     1.3130 C.3   1 <1>   0.1400 
 14 N        4.2300     5.6190    -0.1650 N.am  1 <1>  -0.6600 
 15 C        4.5160     6.7300    -0.9350 C.2   1 <1>   0.5690 
 16 O        4.6660     6.6310    -2.1330 O.2   1 <1>  -0.5700 
 17 C        4.6840     8.1610    -0.3640 C.3   1 <1>   0.2810 
 18 N        3.5170     8.6950     0.4020 N.am  1 <1>  -0.7300 
 19 C        5.9510     8.2930     0.4940 C.3   1 <1>  -0.1600 
 20 C        2.2120     8.7060     0.0540 C.2   1 <1>   0.5690 
 21 C        6.2810     9.7500     0.8290 C.3   1 <1>   0.0700 
 22 O        1.3920     9.0570     0.8610 O.2   1 <1>  -0.5700 
 23 C        1.7610     8.3000    -1.3280 C.3   1 <1>  -0.1790 
 24 S        7.7430     9.7360     1.8930 S.3   1 <1>  -0.4600 
 25 C        8.0570    11.4950     2.1930 C.3   1 <1>  -0.0100 
 26 H        0.0440     0.0800     2.1710 H     1 <1>   0.1500 
 27 H       -1.5150     5.0410     0.7050 H     1 <1>   0.0800 
 28 H       -1.4460     5.1480     2.4490 H     1 <1>   0.0800 
 29 H        2.1860     1.3950     1.2340 H     1 <1>   0.1500 
 30 H        0.7950     6.0260     2.4120 H     1 <1>   0.0800 
 31 H       -0.0470     6.8910     1.1510 H     1 <1>   0.0800 
 32 H        2.5060     2.7880    -0.7230 H     1 <1>   0.0800 
 33 H        1.9220     4.2580    -1.4030 H     1 <1>   0.0800 
 34 H        2.6370     4.7430     2.7280 H     1 <1>   0.0800 
 35 H        3.6240     3.6100     1.8860 H     1 <1>   0.0800 
 36 H        4.2110     4.3300    -1.8670 H     1 <1>   0.0800 
 37 H        4.6510     3.5770    -0.3680 H     1 <1>   0.0800 
 38 H        4.9260     5.5640     1.8320 H     1 <1>   0.0800 
 39 H        3.5240     6.5680     1.5910 H     1 <1>   0.0800 
 40 H        4.8150     8.8040    -1.2180 H     1 <1>   0.0800 
 41 H        3.7060     8.9730     1.3650 H     1 <1>   0.3700 
 42 H        6.7780     7.8750    -0.0520 H     1 <1>   0.0800 
 43 H        5.8410     7.7300     1.4020 H     1 <1>   0.0800 
 44 H        5.4930    10.2340     1.3790 H     1 <1>   0.0800 
 45 H        6.5250    10.3180    -0.0520 H     1 <1>   0.0800 
 46 H        2.4010     8.7290    -2.0740 H     1 <1>   0.0800 
 47 H        0.7560     8.6410    -1.4930 H     1 <1>   0.0800 
 48 H        1.7770     7.2300    -1.4140 H     1 <1>   0.0800 
 49 H        8.9200    11.5680     2.8290 H     1 <1>   0.0800 
 50 H        7.1900    11.9110     2.6750 H     1 <1>   0.0800 
 51 H        8.2390    11.9680     1.2450 H     1 <1>   0.0800 
@<TRIPOS>BOND
  1   1   2  1   
  2   1   3  1   
  3   2   4  2   
  4   2   5  1   
  5   3   6  2   
  6   3  26  1   
  7   4   6  1   
  8   4   7  1   
  9   5   8  1   
 10   5  27  1   
 11   5  28  1   
 12   6  29  1   
 13   7   9  1   
 14   7  10  1   
 15   7  11  1   
 16   8   9  1   
 17   8  30  1   
 18   8  31  1   
 19  10  12  1   
 20  10  32  1   
 21  10  33  1   
 22  11  13  1   
 23  11  34  1   
 24  11  35  1   
 25  12  14  1   
 26  12  36  1   
 27  12  37  1   
 28  13  14  1   
 29  13  38  1   
 30  13  39  1   
 31  14  15  am  
 32  15  16  2   
 33  15  17  1   
 34  17  18  1   
 35  17  19  1   
 36  17  40  1   
 37  18  20  am  
 38  18  41  1   
 39  19  21  1   
 40  19  42  1   
 41  19  43  1   
 42  20  22  2   
 43  20  23  1   
 44  21  24  1   
 45  21  44  1   
 46  21  45  1   
 47  23  46  1   
 48  23  47  1   
 49  23  48  1   
 50  24  25  1   
 51  25  49  1   
 52  25  50  1   
 53  25  51  1   
@<TRIPOS>SUBSTRUCTURE
  1 ****  13 GROUP 4 **** **** 0

# MOE 2024.06 (io_trps.svl 2023.06)
