@<TRIPOS>MOLECULE
NONAME
47 49 1 0 0 
SMALL
USER_CHARGES


@<TRIPOS>ATOM
  1 S        2.4380    -0.1980    -1.0060 S.3   1 <1>  -0.4600 
  2 C        2.6240     1.5280    -1.5310 C.3   1 <1>   0.0700 
  3 C        0.6790    -0.5460    -1.2760 C.3   1 <1>  -0.0100 
  4 C        2.3950     2.4500    -0.3210 C.3   1 <1>  -0.0800 
  5 C        2.3620     3.9190    -0.7730 C.3   1 <1>  -0.1600 
  6 C        3.4860     2.2610     0.7520 C.3   1 <1>  -0.1600 
  7 C        2.2100     4.8770     0.4090 C.3   1 <1>   0.3430 
  8 C        3.3290     3.2400     1.9130 C.3   1 <1>   0.3430 
  9 N        3.3020     4.6270     1.3850 N.4   1 <1>  -0.9590 
 10 C        3.3740     5.6850     2.4390 C.3   1 <1>   0.4860 
 11 C        4.0530     6.9270     1.8570 C.ar  1 <1>   0.1670 
 12 N        4.7960     6.7560     0.8010 N.ar  1 <1>  -0.6200 
 13 C        3.8580     8.1770     2.4640 C.ar  1 <1>  -0.1500 
 14 C        5.4110     7.8370     0.2420 C.ar  1 <1>   0.3100 
 15 C        4.4640     9.2790     1.9410 C.ar  1 <1>  -0.1500 
 16 C        6.2070     7.6810    -0.9230 C.ar  1 <1>   0.0820 
 17 C        5.2690     9.1290     0.7980 C.ar  1 <1>   0.0000 
 18 O        6.3120     6.4270    -1.4480 O.3   1 <1>  -0.3630 
 19 C        6.8380     8.7710    -1.4860 C.ar  1 <1>  -0.1500 
 20 C        5.9290    10.2150     0.1960 C.ar  1 <1>  -0.1500 
 21 C        7.1420     6.1410    -2.5530 C.3   1 <1>   0.0400 
 22 C        6.6980    10.0400    -0.9220 C.ar  1 <1>  -0.1500 
 23 H        1.9060     1.7010    -2.3130 H     1 <1>   0.0800 
 24 H        3.6200     1.6320    -1.9260 H     1 <1>   0.0800 
 25 H        0.4990    -1.5640    -0.9790 H     1 <1>   0.0800 
 26 H        0.4690    -0.4140    -2.3220 H     1 <1>   0.0800 
 27 H        0.1040     0.1350    -0.6750 H     1 <1>   0.0800 
 28 H        1.4370     2.2060     0.1090 H     1 <1>   0.0800 
 29 H        1.5380     4.0720    -1.4480 H     1 <1>   0.0800 
 30 H        3.2650     4.1670    -1.3050 H     1 <1>   0.0800 
 31 H        4.4610     2.3870     0.3140 H     1 <1>   0.0800 
 32 H        3.4420     1.2610     1.1480 H     1 <1>   0.0800 
 33 H        1.2520     4.7260     0.8810 H     1 <1>   0.0800 
 34 H        2.2630     5.8940     0.0520 H     1 <1>   0.0800 
 35 H        4.1540     3.1180     2.5970 H     1 <1>   0.0800 
 36 H        2.4120     3.0300     2.4400 H     1 <1>   0.0800 
 37 H        4.1780     4.8020     0.8520 H     1 <1>   0.4500 
 38 H        3.9690     5.3360     3.2660 H     1 <1>   0.0800 
 39 H        2.3890     5.9290     2.7980 H     1 <1>   0.0800 
 40 H        3.2360     8.2620     3.3380 H     1 <1>   0.1500 
 41 H        4.3420    10.2550     2.3780 H     1 <1>   0.1500 
 42 H        7.4490     8.6860    -2.3650 H     1 <1>   0.1500 
 43 H        5.8200    11.1940     0.6290 H     1 <1>   0.1500 
 44 H        7.0840     5.0870    -2.7530 H     1 <1>   0.0800 
 45 H        8.1550     6.4100    -2.3090 H     1 <1>   0.0800 
 46 H        6.7910     6.6940    -3.4070 H     1 <1>   0.0800 
 47 H        7.2010    10.8760    -1.3790 H     1 <1>   0.1500 
@<TRIPOS>BOND
  1   1   2  1   
  2   1   3  1   
  3   2   4  1   
  4   2  23  1   
  5   2  24  1   
  6   3  25  1   
  7   3  26  1   
  8   3  27  1   
  9   4   5  1   
 10   4   6  1   
 11   4  28  1   
 12   5   7  1   
 13   5  29  1   
 14   5  30  1   
 15   6   8  1   
 16   6  31  1   
 17   6  32  1   
 18   7   9  1   
 19   7  33  1   
 20   7  34  1   
 21   8   9  1   
 22   8  35  1   
 23   8  36  1   
 24   9  10  1   
 25   9  37  1   
 26  10  11  1   
 27  10  38  1   
 28  10  39  1   
 29  11  12  ar  
 30  11  13  ar  
 31  12  14  ar  
 32  13  15  ar  
 33  13  40  1   
 34  14  16  ar  
 35  14  17  ar  
 36  15  17  ar  
 37  15  41  1   
 38  16  18  1   
 39  16  19  ar  
 40  17  20  ar  
 41  18  21  1   
 42  19  22  ar  
 43  19  42  1   
 44  20  22  ar  
 45  20  43  1   
 46  21  44  1   
 47  21  45  1   
 48  21  46  1   
 49  22  47  1   
@<TRIPOS>SUBSTRUCTURE
  1 ****  12 GROUP 4 **** **** 0

# MOE 2024.06 (io_trps.svl 2023.06)
