@<TRIPOS>MOLECULE
NONAME
48 50 1 0 0 
SMALL
USER_CHARGES


@<TRIPOS>ATOM
  1 O       -0.1230     0.0610     0.8620 O.2   1 <1>  -0.5700 
  2 C        0.7910    -0.4950     0.2830 C.2   1 <1>   0.5440 
  3 N        1.7240     0.2420    -0.4000 N.am  1 <1>  -0.4930 
  4 C        0.8940    -1.9400     0.2970 C.ar  1 <1>   0.0860 
  5 C        1.8690     1.6480    -0.5220 C.2   1 <1>   0.0630 
  6 C       -0.2430    -2.7340     0.3050 C.ar  1 <1>  -0.1500 
  7 C        2.1520    -2.5860     0.2990 C.ar  1 <1>  -0.1500 
  8 C        0.9070     2.6290    -0.7850 C.2   1 <1>   0.1080 
  9 C        3.0350     2.3250    -0.4360 C.2   1 <1>  -0.3320 
 10 C       -0.1490    -4.1260     0.2920 C.ar  1 <1>   0.0000 
 11 C        2.2650    -3.9560     0.2860 C.ar  1 <1>  -0.1500 
 12 N        1.4250     3.8150    -0.8570 N.2   1 <1>  -0.7070 
 13 C       -0.5740     2.4030    -0.9910 C.3   1 <1>  -0.0590 
 14 N        2.7380     3.6350    -0.6330 N.pl3 1 <1>   0.3140 
 15 C        4.4370     1.7980    -0.1620 C.3   1 <1>  -0.0600 
 16 C        1.1020    -4.7280     0.2780 C.ar  1 <1>  -0.1520 
 17 C       -1.0990    -5.1730     0.2880 C.2   1 <1>  -0.1810 
 18 C        3.6650     4.7850    -0.6170 C.3   1 <1>   0.0960 
 19 N        0.9240    -6.0840     0.2640 N.pl3 1 <1>   0.0330 
 20 C       -0.4180    -6.3460     0.2700 C.2   1 <1>  -0.3320 
 21 C       -2.5950    -4.9230     0.3040 C.3   1 <1>  -0.0590 
 22 C        3.8110     5.3520     0.8030 C.3   1 <1>  -0.1600 
 23 C       -0.9290    -7.7770     0.2590 C.3   1 <1>  -0.0600 
 24 C        4.7840     6.5360     0.8360 C.3   1 <1>  -0.2400 
 25 H        2.4490    -0.2870    -0.8750 H     1 <1>   0.3700 
 26 H       -1.2160    -2.2790     0.3210 H     1 <1>   0.1500 
 27 H        3.0450    -1.9890     0.3240 H     1 <1>   0.1500 
 28 H        3.2260    -4.4380     0.2870 H     1 <1>   0.1500 
 29 H       -0.7440     1.4500    -1.4550 H     1 <1>   0.0800 
 30 H       -0.9780     3.1760    -1.6170 H     1 <1>   0.0800 
 31 H       -1.0720     2.4270    -0.0390 H     1 <1>   0.0800 
 32 H        4.4170     0.7380     0.0100 H     1 <1>   0.0800 
 33 H        4.8450     2.2710     0.7130 H     1 <1>   0.0800 
 34 H        5.0790     1.9980    -1.0010 H     1 <1>   0.0800 
 35 H        3.2700     5.5390    -1.2730 H     1 <1>   0.0800 
 36 H        4.6170     4.4670    -0.9970 H     1 <1>   0.0800 
 37 H        1.6750    -6.7810     0.2560 H     1 <1>   0.2700 
 38 H       -2.8760    -4.3520    -0.5620 H     1 <1>   0.0800 
 39 H       -2.8600    -4.3710     1.1870 H     1 <1>   0.0800 
 40 H       -3.1430    -5.8460     0.2990 H     1 <1>   0.0800 
 41 H        4.1660     4.5820     1.4650 H     1 <1>   0.0800 
 42 H        2.8440     5.6770     1.1500 H     1 <1>   0.0800 
 43 H       -2.0030    -7.8030     0.2650 H     1 <1>   0.0800 
 44 H       -0.5730    -8.3020     1.1270 H     1 <1>   0.0800 
 45 H       -0.5830    -8.2850    -0.6230 H     1 <1>   0.0800 
 46 H        5.7630     6.2320     0.5090 H     1 <1>   0.0800 
 47 H        4.8620     6.9180     1.8380 H     1 <1>   0.0800 
 48 H        4.4330     7.3280     0.1970 H     1 <1>   0.0800 
@<TRIPOS>BOND
  1   1   2  2   
  2   2   3  am  
  3   2   4  1   
  4   3   5  1   
  5   3  25  1   
  6   4   6  ar  
  7   4   7  ar  
  8   5   8  1   
  9   5   9  2   
 10   6  10  ar  
 11   6  26  1   
 12   7  11  ar  
 13   7  27  1   
 14   8  12  2   
 15   8  13  1   
 16   9  14  1   
 17   9  15  1   
 18  10  16  ar  
 19  10  17  1   
 20  11  16  ar  
 21  11  28  1   
 22  12  14  1   
 23  13  29  1   
 24  13  30  1   
 25  13  31  1   
 26  14  18  1   
 27  15  32  1   
 28  15  33  1   
 29  15  34  1   
 30  16  19  1   
 31  17  20  2   
 32  17  21  1   
 33  18  22  1   
 34  18  35  1   
 35  18  36  1   
 36  19  20  1   
 37  19  37  1   
 38  20  23  1   
 39  21  38  1   
 40  21  39  1   
 41  21  40  1   
 42  22  24  1   
 43  22  41  1   
 44  22  42  1   
 45  23  43  1   
 46  23  44  1   
 47  23  45  1   
 48  24  46  1   
 49  24  47  1   
 50  24  48  1   
@<TRIPOS>SUBSTRUCTURE
  1 ****   2 GROUP 4 **** **** 0

# MOE 2024.06 (io_trps.svl 2023.06)
