@<TRIPOS>MOLECULE
NONAME
46 48 1 0 0 
SMALL
USER_CHARGES


@<TRIPOS>ATOM
  1 O        0.8040    -0.0450     0.1040 O.3   1 <1>  -0.3630 
  2 C        0.3640    -1.3090     0.2050 C.ar  1 <1>   0.7020 
  3 C        2.0570     0.2980    -0.4530 C.3   1 <1>   0.2000 
  4 N        1.1430    -2.2890    -0.2530 N.ar  1 <1>  -0.6200 
  5 N       -0.8320    -1.4300     0.7660 N.ar  1 <1>  -0.6200 
  6 C        3.1520     0.1280     0.6070 C.3   1 <1>  -0.1600 
  7 C        1.9740     1.7510    -0.9230 C.3   1 <1>  -0.1600 
  8 C        0.6580    -3.5030    -0.1260 C.ar  1 <1>   0.1600 
  9 C       -1.2870    -2.6550     0.8770 C.ar  1 <1>   0.1600 
 10 C        4.4980     0.6050     0.0640 C.3   1 <1>   0.2090 
 11 C        3.3320     2.2270    -1.4410 C.3   1 <1>   0.2090 
 12 C       -0.5700    -3.7430     0.4410 C.ar  1 <1>  -0.1500 
 13 N        4.3730     2.0150    -0.3980 N.pl3 1 <1>  -0.8380 
 14 C        5.3750     2.9060    -0.2020 C.ar  1 <1>   0.4100 
 15 N        6.5830     2.4830    -0.5180 N.ar  1 <1>  -0.6200 
 16 C        5.1330     4.2170     0.2950 C.ar  1 <1>  -0.1440 
 17 C        7.5660     3.3440    -0.4290 C.ar  1 <1>   0.7710 
 18 C        6.1850     5.0860     0.3450 C.ar  1 <1>   0.2180 
 19 C        3.7240     4.5840     0.7800 C.3   1 <1>  -0.0960 
 20 N        7.3980     4.6120    -0.0300 N.ar  1 <1>  -0.1790 
 21 N        8.7740     2.8990    -0.7660 N.pl3 1 <1>  -0.9000 
 22 C        6.1360     6.5500     0.7940 C.3   1 <1>  -0.0170 
 23 C        6.7230     7.5100    -0.2520 C.3   1 <1>  -0.2400 
 24 H        2.2480    -0.3350    -1.3030 H     1 <1>   0.0800 
 25 H        3.2380    -0.9070     0.8830 H     1 <1>   0.0800 
 26 H        2.9060     0.6980     1.4840 H     1 <1>   0.0800 
 27 H        1.6640     2.3800    -0.1090 H     1 <1>   0.0800 
 28 H        1.2480     1.8300    -1.7120 H     1 <1>   0.0800 
 29 H        1.2550    -4.3250    -0.4820 H     1 <1>   0.1500 
 30 H       -2.2560    -2.7930     1.3280 H     1 <1>   0.1500 
 31 H        4.8060    -0.0140    -0.7610 H     1 <1>   0.0800 
 32 H        5.2460     0.5360     0.8370 H     1 <1>   0.0800 
 33 H        3.2800     3.2670    -1.7150 H     1 <1>   0.0800 
 34 H        3.6010     1.6660    -2.3200 H     1 <1>   0.0800 
 35 H       -0.9550    -4.7400     0.5390 H     1 <1>   0.1500 
 36 H        3.2280     3.7190     1.1820 H     1 <1>   0.0800 
 37 H        3.1350     4.9680    -0.0340 H     1 <1>   0.0800 
 38 H        3.7430     5.3100     1.5710 H     1 <1>   0.0800 
 39 H        8.2190     5.2040    -0.0150 H     1 <1>   0.4570 
 40 H        9.6670     3.3920    -0.7700 H     1 <1>   0.4000 
 41 H        8.8370     1.9210    -1.0690 H     1 <1>   0.4000 
 42 H        6.6720     6.6570     1.7210 H     1 <1>   0.0800 
 43 H        5.1240     6.8600     0.9780 H     1 <1>   0.0800 
 44 H        7.7760     7.3520    -0.3980 H     1 <1>   0.0800 
 45 H        6.5860     8.5270     0.0760 H     1 <1>   0.0800 
 46 H        6.2160     7.3960    -1.1950 H     1 <1>   0.0800 
@<TRIPOS>BOND
  1   1   2  1   
  2   1   3  1   
  3   2   4  ar  
  4   2   5  ar  
  5   3   6  1   
  6   3   7  1   
  7   3  24  1   
  8   4   8  ar  
  9   5   9  ar  
 10   6  10  1   
 11   6  25  1   
 12   6  26  1   
 13   7  11  1   
 14   7  27  1   
 15   7  28  1   
 16   8  12  ar  
 17   8  29  1   
 18   9  12  ar  
 19   9  30  1   
 20  10  13  1   
 21  10  31  1   
 22  10  32  1   
 23  11  13  1   
 24  11  33  1   
 25  11  34  1   
 26  12  35  1   
 27  13  14  1   
 28  14  15  ar  
 29  14  16  ar  
 30  15  17  ar  
 31  16  18  ar  
 32  16  19  1   
 33  17  20  ar  
 34  17  21  1   
 35  18  20  ar  
 36  18  22  1   
 37  19  36  1   
 38  19  37  1   
 39  19  38  1   
 40  20  39  1   
 41  21  40  1   
 42  21  41  1   
 43  22  23  1   
 44  22  42  1   
 45  22  43  1   
 46  23  44  1   
 47  23  45  1   
 48  23  46  1   
@<TRIPOS>SUBSTRUCTURE
  1 ****  13 GROUP 4 **** **** 0

# MOE 2024.06 (io_trps.svl 2023.06)
