@<TRIPOS>MOLECULE
NONAME
42 44 1 0 0 
SMALL
USER_CHARGES


@<TRIPOS>ATOM
  1 O        3.4370    -0.8990     0.8530 O.2   1 <1>  -0.5700 
  2 C        2.5350    -1.0260     0.0650 C.2   1 <1>   0.5690 
  3 N        1.9590     0.0220    -0.5830 N.am  1 <1>  -0.4940 
  4 C        1.9930    -2.4110    -0.1990 C.3   1 <1>  -0.0990 
  5 C        2.1700     1.3990    -0.4510 C.2   1 <1>   0.2510 
  6 C        1.0420    -2.8460     0.9190 C.3   1 <1>   0.0210 
  7 N        1.1950     2.2260    -0.6650 N.2   1 <1>  -0.3380 
  8 N        3.3140     2.0440    -0.1270 N.pl3 1 <1>   0.3340 
  9 C        0.4430    -4.1990     0.5870 C.2   1 <1>  -0.1810 
 10 N        1.6600     3.4570    -0.4640 N.2   1 <1>  -0.3380 
 11 C        2.9160     3.3500    -0.1450 C.2   1 <1>   0.3120 
 12 C        4.6570     1.7500     0.0900 C.2   1 <1>  -0.1810 
 13 C        1.0020    -5.4430     0.8690 C.2   1 <1>   0.1080 
 14 C       -0.7210    -4.4810    -0.0410 C.2   1 <1>  -0.3320 
 15 N        3.7680     4.3980     0.1280 N.2   1 <1>  -0.5760 
 16 C        5.5010     2.7800     0.3420 C.2   1 <1>  -0.1360 
 17 N        0.2600    -6.4180     0.4540 N.2   1 <1>  -0.7070 
 18 C        2.3170    -5.6870     1.5750 C.3   1 <1>  -0.0590 
 19 N       -0.8070    -5.8290    -0.1050 N.pl3 1 <1>   0.3140 
 20 C       -1.7820    -3.5420    -0.5960 C.3   1 <1>  -0.0600 
 21 C        5.0010     4.1120     0.3630 C.2   1 <1>   0.3750 
 22 C       -1.8890    -6.6300    -0.6890 C.3   1 <1>   0.0160 
 23 C        5.9670     5.2350     0.6700 C.3   1 <1>  -0.1790 
 24 H        1.1190    -0.1880    -1.1190 H     1 <1>   0.3700 
 25 H        2.8150    -3.1000    -0.2590 H     1 <1>   0.0800 
 26 H        1.4760    -2.4340    -1.1410 H     1 <1>   0.0800 
 27 H        0.2550    -2.1240     1.0370 H     1 <1>   0.0800 
 28 H        1.5740    -2.9010     1.8540 H     1 <1>   0.0800 
 29 H        4.9610     0.7210     0.0450 H     1 <1>   0.1500 
 30 H        6.5490     2.6260     0.5280 H     1 <1>   0.1500 
 31 H        3.1230    -5.2680     1.0040 H     1 <1>   0.0800 
 32 H        2.4810    -6.7440     1.6830 H     1 <1>   0.0800 
 33 H        2.2960    -5.2390     2.5510 H     1 <1>   0.0800 
 34 H       -1.4950    -2.5160    -0.4620 H     1 <1>   0.0800 
 35 H       -2.7170    -3.7030    -0.0890 H     1 <1>   0.0800 
 36 H       -1.9200    -3.7210    -1.6480 H     1 <1>   0.0800 
 37 H       -2.8090    -6.3990    -0.1860 H     1 <1>   0.0800 
 38 H       -1.6610    -7.6720    -0.5630 H     1 <1>   0.0800 
 39 H       -1.9700    -6.4030    -1.7350 H     1 <1>   0.0800 
 40 H        6.3990     5.0900     1.6430 H     1 <1>   0.0800 
 41 H        5.4530     6.1800     0.6580 H     1 <1>   0.0800 
 42 H        6.7470     5.2580    -0.0680 H     1 <1>   0.0800 
@<TRIPOS>BOND
  1   1   2  2   
  2   2   3  am  
  3   2   4  1   
  4   3   5  1   
  5   3  24  1   
  6   4   6  1   
  7   4  25  1   
  8   4  26  1   
  9   5   7  2   
 10   5   8  1   
 11   6   9  1   
 12   6  27  1   
 13   6  28  1   
 14   7  10  1   
 15   8  11  1   
 16   8  12  1   
 17   9  13  1   
 18   9  14  2   
 19  10  11  2   
 20  11  15  1   
 21  12  16  2   
 22  12  29  1   
 23  13  17  2   
 24  13  18  1   
 25  14  19  1   
 26  14  20  1   
 27  15  21  2   
 28  16  21  1   
 29  16  30  1   
 30  17  19  1   
 31  18  31  1   
 32  18  32  1   
 33  18  33  1   
 34  19  22  1   
 35  20  34  1   
 36  20  35  1   
 37  20  36  1   
 38  21  23  1   
 39  22  37  1   
 40  22  38  1   
 41  22  39  1   
 42  23  40  1   
 43  23  41  1   
 44  23  42  1   
@<TRIPOS>SUBSTRUCTURE
  1 ****   2 GROUP 4 **** **** 0

# MOE 2024.06 (io_trps.svl 2023.06)
