@<TRIPOS>MOLECULE
NONAME
47 49 1 0 0 
SMALL
USER_CHARGES


@<TRIPOS>ATOM
  1 CL      -2.0200    -0.2350     2.1610 Cl    1 <1>  -0.1770 
  2 C       -2.9150     0.8860     1.1620 C.ar  1 <1>   0.1770 
  3 C       -3.8690     0.4250     0.2720 C.ar  1 <1>  -0.1440 
  4 C       -2.6460     2.2330     1.2830 C.ar  1 <1>  -0.1500 
  5 C       -4.5500     1.3550    -0.4960 C.ar  1 <1>  -0.1500 
  6 C       -4.1680    -1.0600     0.1320 C.3   1 <1>  -0.0960 
  7 C       -3.3350     3.1560     0.5100 C.ar  1 <1>  -0.1430 
  8 C       -4.3080     2.7250    -0.4000 C.ar  1 <1>  -0.0090 
  9 C       -2.9920     4.6320     0.6840 C.3   1 <1>  -0.0960 
 10 S       -5.2870     3.8630    -1.4390 S.o2  1 <1>   1.4470 
 11 O       -6.1910     3.1030    -2.2720 O.2   1 <1>  -0.6500 
 12 O       -4.4010     4.8080    -2.0860 O.2   1 <1>  -0.6500 
 13 N       -6.2070     4.7510    -0.3190 N.am  1 <1>  -0.8490 
 14 C       -7.0080     4.0200     0.6840 C.3   1 <1>   0.1960 
 15 C       -6.8710     5.9350    -0.8610 C.3   1 <1>   0.1960 
 16 C       -8.4760     3.7120     0.2940 C.3   1 <1>   0.0000 
 17 C       -8.2590     5.5980    -1.4140 C.3   1 <1>  -0.1600 
 18 C       -9.2180     3.1890     1.5420 C.3   1 <1>   0.2000 
 19 C       -9.1430     4.9690    -0.3270 C.3   1 <1>  -0.1600 
 20 C       -8.6400     2.5070    -0.6530 C.3   1 <1>  -0.1600 
 21 O       -9.6220     4.1940     2.4010 O.3   1 <1>  -0.6800 
 22 C      -10.4240     2.4090     1.0350 C.3   1 <1>  -0.1600 
 23 C      -10.0020     1.8730    -0.3360 C.3   1 <1>  -0.1600 
 24 H       -1.8940     2.5480     1.9850 H     1 <1>   0.1500 
 25 H       -5.2940     1.0100    -1.1950 H     1 <1>   0.1500 
 26 H       -4.9330    -1.2350    -0.6030 H     1 <1>   0.0800 
 27 H       -4.5010    -1.4590     1.0740 H     1 <1>   0.0800 
 28 H       -3.2790    -1.5860    -0.1710 H     1 <1>   0.0800 
 29 H       -2.2650     4.7720     1.4640 H     1 <1>   0.0800 
 30 H       -3.8680     5.1970     0.9450 H     1 <1>   0.0800 
 31 H       -2.5800     5.0280    -0.2270 H     1 <1>   0.0800 
 32 H       -6.5080     3.1110     0.9680 H     1 <1>   0.0800 
 33 H       -7.0370     4.6370     1.5660 H     1 <1>   0.0800 
 34 H       -6.9760     6.6600    -0.0720 H     1 <1>   0.0800 
 35 H       -6.2670     6.3840    -1.6320 H     1 <1>   0.0800 
 36 H       -8.7200     6.5040    -1.7660 H     1 <1>   0.0800 
 37 H       -8.1600     4.9420    -2.2600 H     1 <1>   0.0800 
 38 H       -8.5760     2.5240     2.0970 H     1 <1>   0.0800 
 39 H      -10.1060     4.7260    -0.7410 H     1 <1>   0.0800 
 40 H       -9.2910     5.7180     0.4310 H     1 <1>   0.0800 
 41 H       -8.5880     2.7780    -1.6920 H     1 <1>   0.0800 
 42 H       -7.8680     1.7830    -0.4560 H     1 <1>   0.0800 
 43 H      -10.2920     4.7500     1.9600 H     1 <1>   0.4000 
 44 H      -10.6700     1.6070     1.7090 H     1 <1>   0.0800 
 45 H      -11.2750     3.0570     0.9180 H     1 <1>   0.0800 
 46 H       -9.9230     0.7990    -0.3270 H     1 <1>   0.0800 
 47 H      -10.7270     2.1590    -1.0790 H     1 <1>   0.0800 
@<TRIPOS>BOND
  1   1   2  1   
  2   2   3  ar  
  3   2   4  ar  
  4   3   5  ar  
  5   3   6  1   
  6   4   7  ar  
  7   4  24  1   
  8   5   8  ar  
  9   5  25  1   
 10   6  26  1   
 11   6  27  1   
 12   6  28  1   
 13   7   8  ar  
 14   7   9  1   
 15   8  10  1   
 16   9  29  1   
 17   9  30  1   
 18   9  31  1   
 19  10  11  2   
 20  10  12  2   
 21  10  13  am  
 22  13  14  1   
 23  13  15  1   
 24  14  16  1   
 25  14  32  1   
 26  14  33  1   
 27  15  17  1   
 28  15  34  1   
 29  15  35  1   
 30  16  18  1   
 31  16  19  1   
 32  16  20  1   
 33  17  19  1   
 34  17  36  1   
 35  17  37  1   
 36  18  21  1   
 37  18  22  1   
 38  18  38  1   
 39  19  39  1   
 40  19  40  1   
 41  20  23  1   
 42  20  41  1   
 43  20  42  1   
 44  21  43  1   
 45  22  23  1   
 46  22  44  1   
 47  22  45  1   
 48  23  46  1   
 49  23  47  1   
@<TRIPOS>SUBSTRUCTURE
  1 ****  14 GROUP 4 **** **** 0

# MOE 2024.06 (io_trps.svl 2023.06)
