@<TRIPOS>MOLECULE
NONAME
47 48 1 0 0 
SMALL
USER_CHARGES


@<TRIPOS>ATOM
  1 S       -0.3860    -0.3190    -0.2930 S.3   1 <1>  -0.0800 
  2 C       -1.6910    -1.0890     0.5450 C.2   1 <1>   0.4420 
  3 C       -0.8910     1.1700     0.4370 C.2   1 <1>   0.1980 
  4 N       -2.3630    -0.2650     1.2620 N.2   1 <1>  -0.3380 
  5 N       -1.8370    -2.4450     0.3380 N.am  1 <1>  -0.4940 
  6 N       -1.9020     1.0220     1.1950 N.2   1 <1>  -0.3380 
  7 C       -0.1170     2.4470     0.1290 C.3   1 <1>   0.3800 
  8 C       -2.7360    -3.3100     0.8900 C.2   1 <1>   0.5690 
  9 O        0.1050     2.5380    -1.2510 O.3   1 <1>  -0.5600 
 10 C        1.2400     2.4680     0.8370 C.3   1 <1>  -0.2400 
 11 O       -3.5640    -2.9990     1.7050 O.2   1 <1>  -0.5700 
 12 C       -2.7030    -4.7530     0.4360 C.3   1 <1>  -0.0990 
 13 C        0.1790     3.8320    -1.7630 C.3   1 <1>   0.0400 
 14 C       -3.8450    -5.0430    -0.5500 C.3   1 <1>  -0.0990 
 15 C       -3.8190    -6.4880    -0.9960 C.2   1 <1>   0.5690 
 16 O       -3.0300    -6.7930    -1.8550 O.2   1 <1>  -0.5700 
 17 N       -4.6860    -7.3540    -0.3900 N.am  1 <1>  -0.5470 
 18 C       -4.9110    -8.7320    -0.5630 C.ar  1 <1>   0.1170 
 19 C       -6.1370    -9.2900    -0.1770 C.ar  1 <1>  -0.1430 
 20 C       -3.9270    -9.5640    -1.0930 C.ar  1 <1>  -0.1500 
 21 C       -6.3360   -10.6570    -0.3320 C.ar  1 <1>  -0.1500 
 22 C       -7.2300    -8.3810     0.4040 C.3   1 <1>  -0.0170 
 23 C       -4.1410   -10.9190    -1.2450 C.ar  1 <1>  -0.1500 
 24 C       -5.3490   -11.4670    -0.8630 C.ar  1 <1>  -0.1500 
 25 C       -8.5860    -9.0450     0.6770 C.3   1 <1>  -0.2400 
 26 H       -1.1840    -2.8420    -0.3310 H     1 <1>   0.3700 
 27 H       -0.7160     3.2840     0.4440 H     1 <1>   0.0800 
 28 H        1.8600     1.6680     0.4760 H     1 <1>   0.0800 
 29 H        1.0940     2.3380     1.8940 H     1 <1>   0.0800 
 30 H        1.7370     3.4070     0.6780 H     1 <1>   0.0800 
 31 H       -2.8050    -5.3820     1.3020 H     1 <1>   0.0800 
 32 H       -1.7570    -4.9760    -0.0250 H     1 <1>   0.0800 
 33 H        0.3530     3.7620    -2.8230 H     1 <1>   0.0800 
 34 H        0.9930     4.3610    -1.3000 H     1 <1>   0.0800 
 35 H       -0.7550     4.3390    -1.5860 H     1 <1>   0.0800 
 36 H       -3.7440    -4.4170    -1.4190 H     1 <1>   0.0800 
 37 H       -4.7910    -4.8170    -0.0910 H     1 <1>   0.0800 
 38 H       -5.3140    -6.9240     0.2840 H     1 <1>   0.3700 
 39 H       -2.9790    -9.1580    -1.3890 H     1 <1>   0.1500 
 40 H       -7.2600   -11.1250    -0.0480 H     1 <1>   0.1500 
 41 H       -7.3980    -7.5700    -0.2830 H     1 <1>   0.0800 
 42 H       -6.8720    -7.9630     1.3290 H     1 <1>   0.0800 
 43 H       -3.3700   -11.5440    -1.6590 H     1 <1>   0.1500 
 44 H       -5.5210   -12.5230    -0.9780 H     1 <1>   0.1500 
 45 H       -8.9850    -9.4680    -0.2280 H     1 <1>   0.0800 
 46 H       -9.2830    -8.3130     1.0450 H     1 <1>   0.0800 
 47 H       -8.4860    -9.8170     1.4190 H     1 <1>   0.0800 
@<TRIPOS>BOND
  1   1   2  1   
  2   1   3  1   
  3   2   4  2   
  4   2   5  1   
  5   3   6  2   
  6   3   7  1   
  7   4   6  1   
  8   5   8  am  
  9   5  26  1   
 10   7   9  1   
 11   7  10  1   
 12   7  27  1   
 13   8  11  2   
 14   8  12  1   
 15   9  13  1   
 16  10  28  1   
 17  10  29  1   
 18  10  30  1   
 19  12  14  1   
 20  12  31  1   
 21  12  32  1   
 22  13  33  1   
 23  13  34  1   
 24  13  35  1   
 25  14  15  1   
 26  14  36  1   
 27  14  37  1   
 28  15  16  2   
 29  15  17  am  
 30  17  18  1   
 31  17  38  1   
 32  18  19  ar  
 33  18  20  ar  
 34  19  21  ar  
 35  19  22  1   
 36  20  23  ar  
 37  20  39  1   
 38  21  24  ar  
 39  21  40  1   
 40  22  25  1   
 41  22  41  1   
 42  22  42  1   
 43  23  24  ar  
 44  23  43  1   
 45  24  44  1   
 46  25  45  1   
 47  25  46  1   
 48  25  47  1   
@<TRIPOS>SUBSTRUCTURE
  1 ****  12 GROUP 4 **** **** 0

# MOE 2024.06 (io_trps.svl 2023.06)
