@<TRIPOS>MOLECULE
NONAME
51 54 1 0 0 
SMALL
USER_CHARGES


@<TRIPOS>ATOM
  1 O        0.7130     1.7040    -1.0070 O.2   1 <1>  -0.5700 
  2 C        0.1720     2.7830    -1.0770 C.2   1 <1>   0.5690 
  3 N       -0.4250     3.4050    -0.0130 N.am  1 <1>  -0.5090 
  4 C        0.1640     3.5010    -2.4200 C.3   1 <1>   0.1810 
  5 C       -1.0590     4.7550    -0.1690 C.3   1 <1>   0.3640 
  6 C       -0.2550     2.9140     1.3780 C.3   1 <1>   0.0490 
  7 O        0.3480     4.8810    -2.2390 O.3   1 <1>  -0.5600 
  8 C       -2.5820     4.6360    -0.1140 C.ar  1 <1>  -0.1440 
  9 C       -0.6640     5.5190    -1.4700 C.3   1 <1>   0.2610 
 10 C       -0.7130     1.5280     1.7090 C.3   1 <1>  -0.2000 
 11 C       -1.4410     2.7050     2.2710 C.3   1 <1>  -0.2000 
 12 C       -3.2560     3.5610    -0.6830 C.ar  1 <1>   0.1600 
 13 C       -3.3280     5.6240     0.5020 C.ar  1 <1>  -0.1500 
 14 C       -0.2380     6.9490    -1.1180 C.2   1 <1>   0.5690 
 15 N       -4.5690     3.4060    -0.6950 N.ar  1 <1>  -0.6200 
 16 C       -4.6970     5.4740     0.5050 C.ar  1 <1>  -0.1500 
 17 O       -0.9450     7.6200    -0.4030 O.2   1 <1>  -0.5700 
 18 N        0.9340     7.4340    -1.6070 N.am  1 <1>  -0.7300 
 19 C       -5.2590     4.3640    -0.1000 C.ar  1 <1>   0.1600 
 20 C        1.4670     8.8030    -1.3910 C.3   1 <1>   0.1400 
 21 C        2.4100     8.8160    -0.1900 C.3   1 <1>   0.1200 
 22 O        2.9910    10.0980    -0.0930 O.3   1 <1>  -0.3630 
 23 C        3.8810    10.3930     0.8870 C.ar  1 <1>   0.0820 
 24 C        4.2810     9.4900     1.8700 C.ar  1 <1>  -0.1500 
 25 C        4.4070    11.6750     0.8850 C.ar  1 <1>  -0.1500 
 26 C        5.1980     9.8770     2.8320 C.ar  1 <1>  -0.1500 
 27 C        5.3240    12.0600     1.8480 C.ar  1 <1>  -0.1500 
 28 C        5.7190    11.1600     2.8230 C.ar  1 <1>  -0.1500 
 29 H       -0.7670     3.3320    -2.9320 H     1 <1>   0.0800 
 30 H        0.9730     3.1360    -3.0270 H     1 <1>   0.0800 
 31 H       -0.7470     5.3450     0.6760 H     1 <1>   0.0800 
 32 H        0.6680     3.2510     1.8190 H     1 <1>   0.1000 
 33 H       -1.5280     5.5990    -2.1050 H     1 <1>   0.0800 
 34 H       -1.1810     0.9440     0.9360 H     1 <1>   0.1000 
 35 H       -0.1090     0.9310     2.3680 H     1 <1>   0.1000 
 36 H       -1.3390     2.9000     3.3240 H     1 <1>   0.1000 
 37 H       -2.4450     2.8670     1.9230 H     1 <1>   0.1000 
 38 H       -2.6900     2.7760    -1.1540 H     1 <1>   0.1500 
 39 H       -2.8690     6.4850     0.9620 H     1 <1>   0.1500 
 40 H       -5.3260     6.2120     0.9690 H     1 <1>   0.1500 
 41 H        1.4890     6.8030    -2.1980 H     1 <1>   0.3700 
 42 H       -6.3310     4.2590    -0.0930 H     1 <1>   0.1500 
 43 H        1.9940     9.1200    -2.2730 H     1 <1>   0.0800 
 44 H        0.6510     9.4820    -1.2080 H     1 <1>   0.0800 
 45 H        3.2010     8.0990    -0.3230 H     1 <1>   0.0800 
 46 H        1.8620     8.6220     0.7150 H     1 <1>   0.0800 
 47 H        3.8940     8.4910     1.9030 H     1 <1>   0.1500 
 48 H        4.0950    12.3680     0.1260 H     1 <1>   0.1500 
 49 H        5.5080     9.1800     3.5920 H     1 <1>   0.1500 
 50 H        5.7270    13.0570     1.8390 H     1 <1>   0.1500 
 51 H        6.4320    11.4570     3.5720 H     1 <1>   0.1500 
@<TRIPOS>BOND
  1   1   2  2   
  2   2   3  am  
  3   2   4  1   
  4   3   5  1   
  5   3   6  1   
  6   4   7  1   
  7   4  29  1   
  8   4  30  1   
  9   5   8  1   
 10   5   9  1   
 11   5  31  1   
 12   6  10  1   
 13   6  11  1   
 14   6  32  1   
 15   7   9  1   
 16   8  12  ar  
 17   8  13  ar  
 18   9  14  1   
 19   9  33  1   
 20  10  11  1   
 21  10  34  1   
 22  10  35  1   
 23  11  36  1   
 24  11  37  1   
 25  12  15  ar  
 26  12  38  1   
 27  13  16  ar  
 28  13  39  1   
 29  14  17  2   
 30  14  18  am  
 31  15  19  ar  
 32  16  19  ar  
 33  16  40  1   
 34  18  20  1   
 35  18  41  1   
 36  19  42  1   
 37  20  21  1   
 38  20  43  1   
 39  20  44  1   
 40  21  22  1   
 41  21  45  1   
 42  21  46  1   
 43  22  23  1   
 44  23  24  ar  
 45  23  25  ar  
 46  24  26  ar  
 47  24  47  1   
 48  25  27  ar  
 49  25  48  1   
 50  26  28  ar  
 51  26  49  1   
 52  27  28  ar  
 53  27  50  1   
 54  28  51  1   
@<TRIPOS>SUBSTRUCTURE
  1 ****  14 GROUP 4 **** **** 0

# MOE 2024.06 (io_trps.svl 2023.06)
