@<TRIPOS>MOLECULE
NONAME
52 54 1 0 0 
SMALL
USER_CHARGES


@<TRIPOS>ATOM
  1 O       -1.0030     0.5610     1.8520 O.2   1 <1>  -0.5700 
  2 C       -1.5440     1.1030     0.9060 C.2   1 <1>   0.5440 
  3 N       -2.2400     0.3210     0.0160 N.am  1 <1>  -0.6600 
  4 C       -1.4610     2.5360     0.7490 C.ar  1 <1>   0.0860 
  5 C       -3.0510     0.8160    -1.1250 C.3   1 <1>   0.1400 
  6 C       -2.3440    -1.1550     0.1220 C.3   1 <1>   0.1400 
  7 C       -0.8420     3.1640    -0.3420 C.ar  1 <1>   0.0830 
  8 C       -2.0490     3.3560     1.7090 C.ar  1 <1>  -0.1500 
  9 C       -4.0470    -0.3120    -1.3870 C.3   1 <1>   0.2000 
 10 C       -3.2500    -1.5740    -1.0420 C.3   1 <1>  -0.0800 
 11 O       -0.2000     2.4860    -1.3230 O.3   1 <1>  -0.3630 
 12 C       -0.8620     4.5430    -0.4720 C.ar  1 <1>  -0.1500 
 13 C       -2.0730     4.7320     1.5920 C.ar  1 <1>   0.0830 
 14 O       -5.0970    -0.1680    -0.4920 O.3   1 <1>  -0.6800 
 15 C       -4.0870    -2.8330    -0.7550 C.3   1 <1>   0.0210 
 16 C        0.8000     1.5470    -0.9760 C.3   1 <1>   0.0400 
 17 C       -1.4660     5.3490     0.4860 C.ar  1 <1>   0.0830 
 18 O       -2.7050     5.3930     2.6040 O.3   1 <1>  -0.3630 
 19 C       -3.1920    -4.0100    -0.4180 C.2   1 <1>   0.1080 
 20 O       -1.4620     6.7060     0.3830 O.3   1 <1>  -0.3630 
 21 C       -3.5340     6.4980     2.3160 C.3   1 <1>   0.0400 
 22 N       -2.3210    -4.4940    -1.2480 N.2   1 <1>  -0.7070 
 23 C       -3.1910    -4.6850     0.7980 C.2   1 <1>  -0.1500 
 24 C       -0.7440     7.3850    -0.6240 C.3   1 <1>   0.0400 
 25 N       -1.7370    -5.5050    -0.5770 N.pl3 1 <1>   0.3000 
 26 C       -2.2460    -5.6390     0.6660 C.2   1 <1>  -0.3320 
 27 C       -1.7910    -6.6860     1.6650 C.3   1 <1>  -0.0600 
 28 H       -3.5470     1.7450    -0.9000 H     1 <1>   0.0800 
 29 H       -2.4080     0.9460    -1.9790 H     1 <1>   0.0800 
 30 H       -1.3720    -1.6140     0.0480 H     1 <1>   0.0800 
 31 H       -2.7840    -1.4110     1.0710 H     1 <1>   0.0800 
 32 H       -2.5080     2.9010     2.5690 H     1 <1>   0.1500 
 33 H       -4.4410    -0.3100    -2.3880 H     1 <1>   0.0800 
 34 H       -2.6070    -1.7900    -1.8780 H     1 <1>   0.0800 
 35 H       -0.3850     4.9610    -1.3360 H     1 <1>   0.1500 
 36 H       -4.7210    -0.0170     0.3990 H     1 <1>   0.4000 
 37 H       -4.6710    -3.0820    -1.6220 H     1 <1>   0.0800 
 38 H       -4.7630    -2.6610     0.0630 H     1 <1>   0.0800 
 39 H        1.5090     1.5000    -1.7830 H     1 <1>   0.0800 
 40 H        0.3470     0.5820    -0.8390 H     1 <1>   0.0800 
 41 H        1.2920     1.8650    -0.0730 H     1 <1>   0.0800 
 42 H       -4.2340     6.6100     3.1230 H     1 <1>   0.0800 
 43 H       -4.0570     6.3180     1.3940 H     1 <1>   0.0800 
 44 H       -2.9230     7.3800     2.2420 H     1 <1>   0.0800 
 45 H       -3.8190    -4.4710     1.6440 H     1 <1>   0.1500 
 46 H       -0.8530     8.4420    -0.4560 H     1 <1>   0.0800 
 47 H       -1.1540     7.1240    -1.5830 H     1 <1>   0.0800 
 48 H        0.2940     7.1110    -0.5590 H     1 <1>   0.0800 
 49 H       -0.9970    -6.0810    -0.9940 H     1 <1>   0.2700 
 50 H       -2.3460    -6.5890     2.5810 H     1 <1>   0.0800 
 51 H       -0.7450    -6.5620     1.8840 H     1 <1>   0.0800 
 52 H       -1.9530    -7.6730     1.2700 H     1 <1>   0.0800 
@<TRIPOS>BOND
  1   1   2  2   
  2   2   3  am  
  3   2   4  1   
  4   3   5  1   
  5   3   6  1   
  6   4   7  ar  
  7   4   8  ar  
  8   5   9  1   
  9   5  28  1   
 10   5  29  1   
 11   6  10  1   
 12   6  30  1   
 13   6  31  1   
 14   7  11  1   
 15   7  12  ar  
 16   8  13  ar  
 17   8  32  1   
 18   9  10  1   
 19   9  14  1   
 20   9  33  1   
 21  10  15  1   
 22  10  34  1   
 23  11  16  1   
 24  12  17  ar  
 25  12  35  1   
 26  13  17  ar  
 27  13  18  1   
 28  14  36  1   
 29  15  19  1   
 30  15  37  1   
 31  15  38  1   
 32  16  39  1   
 33  16  40  1   
 34  16  41  1   
 35  17  20  1   
 36  18  21  1   
 37  19  22  2   
 38  19  23  1   
 39  20  24  1   
 40  21  42  1   
 41  21  43  1   
 42  21  44  1   
 43  22  25  1   
 44  23  26  2   
 45  23  45  1   
 46  24  46  1   
 47  24  47  1   
 48  24  48  1   
 49  25  26  1   
 50  25  49  1   
 51  26  27  1   
 52  27  50  1   
 53  27  51  1   
 54  27  52  1   
@<TRIPOS>SUBSTRUCTURE
  1 ****   3 GROUP 4 **** **** 0

# MOE 2024.06 (io_trps.svl 2023.06)
