@<TRIPOS>MOLECULE
NONAME
45 47 1 0 0 
SMALL
USER_CHARGES


@<TRIPOS>ATOM
  1 O        1.2590    -0.5540    -2.2410 O.3   1 <1>  -0.6800 
  2 C        2.4610    -0.4600    -1.5490 C.3   1 <1>   0.2000 
  3 C        2.5410    -1.5260    -0.4640 C.3   1 <1>  -0.0800 
  4 C        2.5690     0.8520    -0.7810 C.3   1 <1>   0.2090 
  5 C        3.5090    -0.9260     0.5610 C.3   1 <1>   0.2090 
  6 C        2.9760    -2.9040    -0.9920 C.3   1 <1>  -0.0170 
  7 N        3.4760     0.5500     0.3630 N.pl3 1 <1>  -0.8380 
  8 C        3.0370    -3.9360     0.1230 C.ar  1 <1>   0.1660 
  9 C        4.7040     1.1870     0.3800 C.ar  1 <1>   0.4100 
 10 N        4.1740    -4.0130     0.7970 N.ar  1 <1>  -0.6200 
 11 C        1.9300    -4.7400     0.3900 C.ar  1 <1>   0.1600 
 12 N        5.4310     1.0220    -0.7160 N.ar  1 <1>  -0.6200 
 13 C        5.1260     1.9260     1.4910 C.ar  1 <1>   0.0730 
 14 C        4.1290    -4.9360     1.7440 C.ar  1 <1>   0.1600 
 15 N        1.8840    -5.6640     1.3350 N.ar  1 <1>  -0.6200 
 16 C        6.6110     1.6060    -0.7430 C.ar  1 <1>   0.1670 
 17 C        4.2470     2.0280     2.6190 C.1   1 <1>   0.4840 
 18 C        6.3770     2.5330     1.4560 C.ar  1 <1>  -0.1430 
 19 C        3.0220    -5.7340     2.0040 C.ar  1 <1>   0.1600 
 20 C        7.1280     2.3810     0.2950 C.ar  1 <1>  -0.1430 
 21 C        7.3870     1.3570    -2.0240 C.3   1 <1>  -0.0970 
 22 N        3.6010     2.1450     3.5540 N.1   1 <1>  -0.5570 
 23 C        6.9100     3.3390     2.6460 C.3   1 <1>  -0.0970 
 24 C        8.4970     3.0560     0.1680 C.3   1 <1>  -0.0970 
 25 H        1.2750    -1.3130    -2.8540 H     1 <1>   0.4000 
 26 H        3.2800    -0.5320    -2.2450 H     1 <1>   0.0800 
 27 H        1.5810    -1.6060     0.0160 H     1 <1>   0.0800 
 28 H        1.6070     1.1420    -0.3970 H     1 <1>   0.0800 
 29 H        2.9660     1.6340    -1.4050 H     1 <1>   0.0800 
 30 H        4.5100    -1.2920     0.3930 H     1 <1>   0.0800 
 31 H        3.2120    -1.1780     1.5650 H     1 <1>   0.0800 
 32 H        3.9450    -2.8290    -1.4550 H     1 <1>   0.0800 
 33 H        2.2820    -3.2350    -1.7420 H     1 <1>   0.0800 
 34 H        1.0420    -4.6120    -0.2030 H     1 <1>   0.1500 
 35 H        5.0130    -5.0670     2.3440 H     1 <1>   0.1500 
 36 H        3.0820    -6.4580     2.7960 H     1 <1>   0.1500 
 37 H        8.3990     1.0720    -1.8020 H     1 <1>   0.0800 
 38 H        7.3850     2.2450    -2.6290 H     1 <1>   0.0800 
 39 H        6.9360     0.5600    -2.5890 H     1 <1>   0.0800 
 40 H        7.9490     3.1200     2.8140 H     1 <1>   0.0800 
 41 H        6.3960     3.1140     3.5620 H     1 <1>   0.0800 
 42 H        6.8030     4.3910     2.4500 H     1 <1>   0.0800 
 43 H        8.4970     4.0210     0.6400 H     1 <1>   0.0800 
 44 H        8.7730     3.2210    -0.8570 H     1 <1>   0.0800 
 45 H        9.2490     2.4420     0.6310 H     1 <1>   0.0800 
@<TRIPOS>BOND
  1   1   2  1   
  2   1  25  1   
  3   2   3  1   
  4   2   4  1   
  5   2  26  1   
  6   3   5  1   
  7   3   6  1   
  8   3  27  1   
  9   4   7  1   
 10   4  28  1   
 11   4  29  1   
 12   5   7  1   
 13   5  30  1   
 14   5  31  1   
 15   6   8  1   
 16   6  32  1   
 17   6  33  1   
 18   7   9  1   
 19   8  10  ar  
 20   8  11  ar  
 21   9  12  ar  
 22   9  13  ar  
 23  10  14  ar  
 24  11  15  ar  
 25  11  34  1   
 26  12  16  ar  
 27  13  17  1   
 28  13  18  ar  
 29  14  19  ar  
 30  14  35  1   
 31  15  19  ar  
 32  16  20  ar  
 33  16  21  1   
 34  17  22  3   
 35  18  20  ar  
 36  18  23  1   
 37  19  36  1   
 38  20  24  1   
 39  21  37  1   
 40  21  38  1   
 41  21  39  1   
 42  23  40  1   
 43  23  41  1   
 44  23  42  1   
 45  24  43  1   
 46  24  44  1   
 47  24  45  1   
@<TRIPOS>SUBSTRUCTURE
  1 ****   5 GROUP 4 **** **** 0

# MOE 2024.06 (io_trps.svl 2023.06)
