@<TRIPOS>MOLECULE
NONAME
47 49 1 0 0 
SMALL
USER_CHARGES


@<TRIPOS>ATOM
  1 S        0.2440     0.1840    -0.6730 S.o2  1 <1>   1.3330 
  2 O        0.0960     0.7360    -2.0000 O.2   1 <1>  -0.6500 
  3 O        0.1830    -1.2480    -0.4830 O.2   1 <1>  -0.6500 
  4 N       -0.9340     0.8910     0.3240 N.am  1 <1>  -0.8490 
  5 C        1.7710     0.8450    -0.0080 C.3   1 <1>  -0.0550 
  6 C       -2.2300     1.0020    -0.3510 C.3   1 <1>   0.1160 
  7 C       -1.1020     0.1910     1.6030 C.3   1 <1>   0.1160 
  8 C        3.0330     0.3480    -0.7540 C.3   1 <1>  -0.0800 
  9 C        4.3090     1.1080    -0.4050 C.3   1 <1>   0.2200 
 10 C        3.4120    -1.0440    -0.2550 C.3   1 <1>   0.1200 
 11 N        4.1000     2.5690    -0.2260 N.am  1 <1>  -0.7300 
 12 C        4.7990     0.3930     0.8600 C.3   1 <1>   0.1200 
 13 O        4.0930    -0.8140     0.9350 O.3   1 <1>  -0.5600 
 14 C        5.0710     3.4460     0.1740 C.2   1 <1>   0.5440 
 15 O        6.1690     3.0040     0.4470 O.2   1 <1>  -0.5700 
 16 C        4.7980     4.8700     0.2460 C.ar  1 <1>   0.0860 
 17 C        5.8250     5.8030     0.0850 C.ar  1 <1>  -0.1500 
 18 C        3.5090     5.3640     0.4740 C.ar  1 <1>  -0.1500 
 19 C        5.5780     7.1610     0.1340 C.ar  1 <1>   0.0820 
 20 C        3.2510     6.7220     0.5310 C.ar  1 <1>  -0.1500 
 21 O        6.6080     8.0240    -0.0530 O.3   1 <1>  -0.3620 
 22 C        4.2830     7.6280     0.3670 C.ar  1 <1>   0.0820 
 23 C        6.2760     9.3730    -0.3230 C.3   1 <1>   0.1200 
 24 O        4.0170     8.9520     0.4430 O.3   1 <1>  -0.3630 
 25 C        5.1200     9.8280     0.5790 C.3   1 <1>   0.1200 
 26 H        1.7020     1.9110    -0.0790 H     1 <1>   0.0800 
 27 H        1.8530     0.5990     1.0330 H     1 <1>   0.0800 
 28 H       -2.9520     1.4670     0.2990 H     1 <1>   0.0800 
 29 H       -2.5870     0.0270    -0.6400 H     1 <1>   0.0800 
 30 H       -2.1350     1.6110    -1.2350 H     1 <1>   0.0800 
 31 H       -1.7970     0.7250     2.2290 H     1 <1>   0.0800 
 32 H       -0.1610     0.1260     2.1210 H     1 <1>   0.0800 
 33 H       -1.4750    -0.8080     1.4410 H     1 <1>   0.0800 
 34 H        2.8690     0.3440    -1.8180 H     1 <1>   0.0800 
 35 H        5.0440     0.9590    -1.1790 H     1 <1>   0.0800 
 36 H        4.0910    -1.5300    -0.9360 H     1 <1>   0.0800 
 37 H        2.5740    -1.6900    -0.0620 H     1 <1>   0.0800 
 38 H        3.2940     2.9530    -0.7190 H     1 <1>   0.3700 
 39 H        4.5830     0.9610     1.7470 H     1 <1>   0.0800 
 40 H        5.8520     0.1780     0.8040 H     1 <1>   0.0800 
 41 H        6.8310     5.4610    -0.0840 H     1 <1>   0.1500 
 42 H        2.6940     4.6780     0.6200 H     1 <1>   0.1500 
 43 H        2.2560     7.0890     0.7090 H     1 <1>   0.1500 
 44 H        7.1530     9.9700    -0.1530 H     1 <1>   0.0800 
 45 H        5.9940     9.4460    -1.3580 H     1 <1>   0.0800 
 46 H        4.7930    10.8170     0.3130 H     1 <1>   0.0800 
 47 H        5.4270     9.8210     1.6100 H     1 <1>   0.0800 
@<TRIPOS>BOND
  1   1   2  2   
  2   1   3  2   
  3   1   4  am  
  4   1   5  1   
  5   4   6  1   
  6   4   7  1   
  7   5   8  1   
  8   5  26  1   
  9   5  27  1   
 10   6  28  1   
 11   6  29  1   
 12   6  30  1   
 13   7  31  1   
 14   7  32  1   
 15   7  33  1   
 16   8   9  1   
 17   8  10  1   
 18   8  34  1   
 19   9  11  1   
 20   9  12  1   
 21   9  35  1   
 22  10  13  1   
 23  10  36  1   
 24  10  37  1   
 25  11  14  am  
 26  11  38  1   
 27  12  13  1   
 28  12  39  1   
 29  12  40  1   
 30  14  15  2   
 31  14  16  1   
 32  16  17  ar  
 33  16  18  ar  
 34  17  19  ar  
 35  17  41  1   
 36  18  20  ar  
 37  18  42  1   
 38  19  21  1   
 39  19  22  ar  
 40  20  22  ar  
 41  20  43  1   
 42  21  23  1   
 43  22  24  1   
 44  23  25  1   
 45  23  44  1   
 46  23  45  1   
 47  24  25  1   
 48  25  46  1   
 49  25  47  1   
@<TRIPOS>SUBSTRUCTURE
  1 ****  11 GROUP 4 **** **** 0

# MOE 2024.06 (io_trps.svl 2023.06)
