@<TRIPOS>MOLECULE
NONAME
47 49 1 0 0 
SMALL
USER_CHARGES


@<TRIPOS>ATOM
  1 F        0.4670     1.5950     1.6350 F     1 <1>  -0.3400 
  2 C        0.3050     0.5070     0.8960 C.3   1 <1>   1.1640 
  3 F        1.5280     0.1350     0.5320 F     1 <1>  -0.3400 
  4 F       -0.1340    -0.4380     1.7180 F     1 <1>  -0.3400 
  5 C       -0.6580     0.7220    -0.2950 C.ar  1 <1>  -0.1440 
  6 C       -1.9290     1.2970    -0.1540 C.ar  1 <1>  -0.1440 
  7 C       -0.2530     0.3190    -1.5670 C.ar  1 <1>  -0.1500 
  8 C       -2.7440     1.4480    -1.2680 C.ar  1 <1>  -0.1500 
  9 C       -2.4890     1.8180     1.1790 C.3   1 <1>   0.0450 
 10 C       -1.0730     0.4770    -2.6680 C.ar  1 <1>  -0.1500 
 11 C       -2.3220     1.0420    -2.5190 C.ar  1 <1>  -0.1500 
 12 C       -2.1550     3.2810     1.4350 C.2   1 <1>   0.5690 
 13 O       -2.5090     3.7650     2.4850 O.2   1 <1>  -0.5700 
 14 N       -1.4690     3.9560     0.4740 N.am  1 <1>  -0.4930 
 15 C       -0.7740     5.1870     0.5030 C.2   1 <1>   0.0630 
 16 C        0.4520     5.3550    -0.1480 C.2   1 <1>   0.3720 
 17 C       -1.0410     6.3880     1.0610 C.2   1 <1>  -0.3320 
 18 N        0.9310     6.5510    -0.0090 N.2   1 <1>  -0.7070 
 19 N        1.0950     4.3330    -0.8760 N.pl3 1 <1>  -0.8210 
 20 N        0.0100     7.1890     0.7500 N.pl3 1 <1>   0.3140 
 21 C       -2.2490     6.8360     1.8710 C.3   1 <1>  -0.0600 
 22 C        1.3670     4.7250    -2.2850 C.3   1 <1>   0.2090 
 23 C        2.3850     3.9400    -0.2490 C.3   1 <1>   0.2090 
 24 C        0.2020     8.5890     1.1440 C.3   1 <1>   0.0160 
 25 C        2.8780     4.6680    -2.4680 C.3   1 <1>  -0.1600 
 26 C        3.3460     3.6930    -1.4010 C.3   1 <1>  -0.1600 
 27 H        0.7140    -0.1280    -1.7240 H     1 <1>   0.1500 
 28 H       -3.7210     1.8920    -1.1730 H     1 <1>   0.1500 
 29 H       -2.1300     1.2360     2.0070 H     1 <1>   0.0800 
 30 H       -3.5590     1.7230     1.1830 H     1 <1>   0.0800 
 31 H       -0.7390     0.1600    -3.6410 H     1 <1>   0.1500 
 32 H       -2.9650     1.1670    -3.3730 H     1 <1>   0.1500 
 33 H       -1.1360     3.3830    -0.3080 H     1 <1>   0.3700 
 34 H       -3.0550     6.1350     1.7590 H     1 <1>   0.0800 
 35 H       -2.5960     7.7950     1.5330 H     1 <1>   0.0800 
 36 H       -1.9910     6.8960     2.9130 H     1 <1>   0.0800 
 37 H        0.9880     5.7090    -2.5090 H     1 <1>   0.0800 
 38 H        0.8890     4.0120    -2.9340 H     1 <1>   0.0800 
 39 H        2.2590     3.0570     0.3520 H     1 <1>   0.0800 
 40 H        2.7570     4.7380     0.3730 H     1 <1>   0.0800 
 41 H        0.0770     8.6780     2.2060 H     1 <1>   0.0800 
 42 H       -0.5190     9.1990     0.6340 H     1 <1>   0.0800 
 43 H        1.1940     8.8980     0.8710 H     1 <1>   0.0800 
 44 H        3.2830     5.6450    -2.2740 H     1 <1>   0.0800 
 45 H        3.1520     4.3600    -3.4610 H     1 <1>   0.0800 
 46 H        3.2290     2.6800    -1.7440 H     1 <1>   0.0800 
 47 H        4.3680     3.8580    -1.1100 H     1 <1>   0.0800 
@<TRIPOS>BOND
  1   1   2  1   
  2   2   3  1   
  3   2   4  1   
  4   2   5  1   
  5   5   6  ar  
  6   5   7  ar  
  7   6   8  ar  
  8   6   9  1   
  9   7  10  ar  
 10   7  27  1   
 11   8  11  ar  
 12   8  28  1   
 13   9  12  1   
 14   9  29  1   
 15   9  30  1   
 16  10  11  ar  
 17  10  31  1   
 18  11  32  1   
 19  12  13  2   
 20  12  14  am  
 21  14  15  1   
 22  14  33  1   
 23  15  16  1   
 24  15  17  2   
 25  16  18  2   
 26  16  19  1   
 27  17  20  1   
 28  17  21  1   
 29  18  20  1   
 30  19  22  1   
 31  19  23  1   
 32  20  24  1   
 33  21  34  1   
 34  21  35  1   
 35  21  36  1   
 36  22  25  1   
 37  22  37  1   
 38  22  38  1   
 39  23  26  1   
 40  23  39  1   
 41  23  40  1   
 42  24  41  1   
 43  24  42  1   
 44  24  43  1   
 45  25  26  1   
 46  25  44  1   
 47  25  45  1   
 48  26  46  1   
 49  26  47  1   
@<TRIPOS>SUBSTRUCTURE
  1 ****  14 GROUP 4 **** **** 0

# MOE 2024.06 (io_trps.svl 2023.06)
