@<TRIPOS>MOLECULE
NONAME
47 49 1 0 0 
SMALL
USER_CHARGES


@<TRIPOS>ATOM
  1 S        1.0210     0.7110    -1.6460 S.3   1 <1>  -0.0800 
  2 C        0.8900     1.4710    -0.0880 C.2   1 <1>   0.4620 
  3 C       -0.7150     0.6660    -1.7050 C.2   1 <1>   0.1980 
  4 N       -0.3390     1.6330     0.2590 N.2   1 <1>  -0.3380 
  5 N        2.0220     1.8240     0.6220 N.pl3 1 <1>  -0.8220 
  6 N       -1.2410     1.1780    -0.6590 N.2   1 <1>  -0.3380 
  7 C       -1.3600     0.0470    -2.9500 C.3   1 <1>   1.2000 
  8 C        3.4150     1.8670     0.0620 C.3   1 <1>   0.2090 
  9 C        1.9020     2.3900     2.0060 C.3   1 <1>   0.2090 
 10 F       -1.0030    -1.2220    -3.1260 F     1 <1>  -0.3400 
 11 F       -2.6890     0.0560    -2.9230 F     1 <1>  -0.3400 
 12 F       -1.0100     0.6830    -4.0640 F     1 <1>  -0.3400 
 13 C        4.0160     3.2860     0.1660 C.3   1 <1>   0.3430 
 14 C        2.4990     3.8100     2.0870 C.3   1 <1>   0.3430 
 15 N        3.8900     3.8620     1.5450 N.4   1 <1>  -0.9590 
 16 C        4.5330     5.2290     1.7320 C.3   1 <1>   0.4600 
 17 C        4.7050     5.9390     0.3840 C.ar  1 <1>  -0.1430 
 18 C        5.8260     5.0440     2.5680 C.2   1 <1>   0.9060 
 19 C        3.6060     6.5720    -0.1910 C.ar  1 <1>   0.0830 
 20 C        5.9260     5.9540    -0.2770 C.ar  1 <1>  -0.1500 
 21 O        6.1030     3.8630     2.8590 O.co2 1 <1>  -0.9000 
 22 O        6.4980     6.0010     2.9570 O.co2 1 <1>  -0.9000 
 23 O        2.4300     6.5370     0.4910 O.3   1 <1>  -0.3630 
 24 C        3.7420     7.1980    -1.4270 C.ar  1 <1>  -0.1500 
 25 C        6.0600     6.5780    -1.5060 C.ar  1 <1>  -0.1430 
 26 C        1.3200     7.3060     0.0780 C.3   1 <1>   0.0400 
 27 C        4.9620     7.1960    -2.0780 C.ar  1 <1>  -0.1500 
 28 C        7.4060     6.5880    -2.2070 C.3   1 <1>  -0.0970 
 29 H        3.4300     1.5640    -0.9680 H     1 <1>   0.0800 
 30 H        4.0360     1.1810     0.6120 H     1 <1>   0.0800 
 31 H        2.4220     1.7470     2.6960 H     1 <1>   0.0800 
 32 H        0.8720     2.4270     2.3160 H     1 <1>   0.0800 
 33 H        3.5010     3.9230    -0.5330 H     1 <1>   0.0800 
 34 H        5.0550     3.2560    -0.1180 H     1 <1>   0.0800 
 35 H        2.4950     4.1400     3.1120 H     1 <1>   0.0800 
 36 H        1.8700     4.4750     1.5190 H     1 <1>   0.0800 
 37 H        4.5330     3.3070     2.1620 H     1 <1>   0.4500 
 38 H        3.8900     5.8400     2.3370 H     1 <1>   0.0800 
 39 H        6.7910     5.4850     0.1640 H     1 <1>   0.1500 
 40 H        2.9150     7.6910    -1.9010 H     1 <1>   0.1500 
 41 H        0.5390     7.1910     0.8080 H     1 <1>   0.0800 
 42 H        0.9810     6.9480    -0.8780 H     1 <1>   0.0800 
 43 H        1.6140     8.3400     0.0190 H     1 <1>   0.0800 
 44 H        5.0550     7.6840    -3.0330 H     1 <1>   0.1500 
 45 H        8.1990     6.6850    -1.4860 H     1 <1>   0.0800 
 46 H        7.4710     7.4140    -2.8920 H     1 <1>   0.0800 
 47 H        7.5420     5.6720    -2.7520 H     1 <1>   0.0800 
@<TRIPOS>BOND
  1   1   2  1   
  2   1   3  1   
  3   2   4  2   
  4   2   5  1   
  5   3   6  2   
  6   3   7  1   
  7   4   6  1   
  8   5   8  1   
  9   5   9  1   
 10   7  10  1   
 11   7  11  1   
 12   7  12  1   
 13   8  13  1   
 14   8  29  1   
 15   8  30  1   
 16   9  14  1   
 17   9  31  1   
 18   9  32  1   
 19  13  15  1   
 20  13  33  1   
 21  13  34  1   
 22  14  15  1   
 23  14  35  1   
 24  14  36  1   
 25  15  16  1   
 26  15  37  1   
 27  16  17  1   
 28  16  18  1   
 29  16  38  1   
 30  17  19  ar  
 31  17  20  ar  
 32  18  21  ar  
 33  18  22  ar  
 34  19  23  1   
 35  19  24  ar  
 36  20  25  ar  
 37  20  39  1   
 38  23  26  1   
 39  24  27  ar  
 40  24  40  1   
 41  25  27  ar  
 42  25  28  1   
 43  26  41  1   
 44  26  42  1   
 45  26  43  1   
 46  27  44  1   
 47  28  45  1   
 48  28  46  1   
 49  28  47  1   
@<TRIPOS>SUBSTRUCTURE
  1 ****  13 GROUP 4 **** **** 0

# MOE 2024.06 (io_trps.svl 2023.06)
