@<TRIPOS>MOLECULE
NONAME
48 51 1 0 0 
SMALL
USER_CHARGES


@<TRIPOS>ATOM
  1 O       -0.2960     0.3010     1.7920 O.2   1 <1>  -0.5700 
  2 C       -1.1140     0.9800     1.2160 C.2   1 <1>   0.5690 
  3 N       -2.1080     0.4060     0.4660 N.am  1 <1>  -0.6600 
  4 C       -1.0250     2.4940     1.3900 C.3   1 <1>   0.1810 
  5 C       -3.1240     1.1150    -0.3530 C.3   1 <1>   0.1400 
  6 C       -2.2340    -1.0610     0.3090 C.3   1 <1>   0.1400 
  7 O       -0.8670     3.1550     0.1440 O.3   1 <1>  -0.3620 
  8 C       -3.8210     0.0140    -1.1530 C.3   1 <1>   0.2000 
  9 C       -3.5880    -1.2750    -0.3680 C.3   1 <1>  -0.0800 
 10 C       -0.7360     4.5020     0.0720 C.ar  1 <1>   0.0820 
 11 O       -5.1790     0.2540    -1.2810 O.3   1 <1>  -0.6800 
 12 C       -3.6430    -2.5330    -1.2490 C.3   1 <1>   0.0200 
 13 C       -0.5660     5.0420    -1.1910 C.ar  1 <1>  -0.1500 
 14 C       -0.7590     5.3470     1.1780 C.ar  1 <1>  -0.1500 
 15 C       -3.3360    -3.7770    -0.4390 C.2   1 <1>  -0.0400 
 16 C       -0.4230     6.4070    -1.3580 C.ar  1 <1>  -0.1500 
 17 C       -0.6150     6.7130     1.0090 C.ar  1 <1>  -0.1500 
 18 O       -4.1230    -4.1290     0.5430 O.3   1 <1>  -0.0190 
 19 C       -2.3400    -4.6730    -0.5110 C.2   1 <1>  -0.1500 
 20 C       -0.4480     7.2630    -0.2600 C.ar  1 <1>  -0.0230 
 21 N       -3.7050    -5.2100     1.1340 N.2   1 <1>  -0.4100 
 22 C       -2.6330    -5.5610     0.5200 C.2   1 <1>   0.1080 
 23 N       -0.3030     8.6710    -0.4380 N.pl3 1 <1>   0.5930 
 24 C       -1.8070    -6.7760     0.8790 C.3   1 <1>  -0.0590 
 25 N        0.4680     9.2460    -1.3480 N.2   1 <1>  -0.4180 
 26 C       -0.8850     9.6590     0.2260 C.2   1 <1>   0.0360 
 27 N        0.3370    10.5160    -1.2050 N.2   1 <1>   0.0000 
 28 N       -0.5090    10.7930    -0.2210 N.2   1 <1>  -0.3380 
 29 H       -0.1740     2.7270     2.0040 H     1 <1>   0.0800 
 30 H       -1.9240     2.8530     1.8560 H     1 <1>   0.0800 
 31 H       -3.8170     1.6190     0.2970 H     1 <1>   0.0800 
 32 H       -2.6540     1.8180    -1.0180 H     1 <1>   0.0800 
 33 H       -1.4280    -1.4140    -0.3120 H     1 <1>   0.0800 
 34 H       -2.1870    -1.5560     1.2650 H     1 <1>   0.0800 
 35 H       -3.3910    -0.0410    -2.1390 H     1 <1>   0.0800 
 36 H       -4.3220    -1.3570     0.4150 H     1 <1>   0.0800 
 37 H       -5.6140     0.2350    -0.4070 H     1 <1>   0.4000 
 38 H       -2.9340    -2.4500    -2.0530 H     1 <1>   0.0800 
 39 H       -4.6250    -2.6280    -1.6790 H     1 <1>   0.0800 
 40 H       -0.5430     4.3860    -2.0430 H     1 <1>   0.1500 
 41 H       -0.8830     4.9620     2.1730 H     1 <1>   0.1500 
 42 H       -0.2880     6.8060    -2.3500 H     1 <1>   0.1500 
 43 H       -0.6260     7.3470     1.8800 H     1 <1>   0.1500 
 44 H       -1.5030    -4.7250    -1.1820 H     1 <1>   0.1500 
 45 H       -1.7450    -7.4380     0.0360 H     1 <1>   0.0800 
 46 H       -2.2620    -7.2990     1.7000 H     1 <1>   0.0800 
 47 H       -0.8170    -6.4720     1.1660 H     1 <1>   0.0800 
 48 H       -1.5790     9.5000     1.0280 H     1 <1>   0.1500 
@<TRIPOS>BOND
  1   1   2  2   
  2   2   3  am  
  3   2   4  1   
  4   3   5  1   
  5   3   6  1   
  6   4   7  1   
  7   4  29  1   
  8   4  30  1   
  9   5   8  1   
 10   5  31  1   
 11   5  32  1   
 12   6   9  1   
 13   6  33  1   
 14   6  34  1   
 15   7  10  1   
 16   8   9  1   
 17   8  11  1   
 18   8  35  1   
 19   9  12  1   
 20   9  36  1   
 21  10  13  ar  
 22  10  14  ar  
 23  11  37  1   
 24  12  15  1   
 25  12  38  1   
 26  12  39  1   
 27  13  16  ar  
 28  13  40  1   
 29  14  17  ar  
 30  14  41  1   
 31  15  18  1   
 32  15  19  2   
 33  16  20  ar  
 34  16  42  1   
 35  17  20  ar  
 36  17  43  1   
 37  18  21  1   
 38  19  22  1   
 39  19  44  1   
 40  20  23  1   
 41  21  22  2   
 42  22  24  1   
 43  23  25  1   
 44  23  26  1   
 45  24  45  1   
 46  24  46  1   
 47  24  47  1   
 48  25  27  2   
 49  26  28  2   
 50  26  48  1   
 51  27  28  1   
@<TRIPOS>SUBSTRUCTURE
  1 ****   7 GROUP 4 **** **** 0

# MOE 2024.06 (io_trps.svl 2023.06)
