@<TRIPOS>MOLECULE
NONAME
45 46 1 0 0 
SMALL
USER_CHARGES


@<TRIPOS>ATOM
  1 S        0.5730     0.3980     0.2100 S.o2  1 <1>   1.3330 
  2 O       -0.5850    -0.4590     0.3290 O.2   1 <1>  -0.6500 
  3 O        1.4900     0.5000     1.3240 O.2   1 <1>  -0.6500 
  4 N        1.4680    -0.1160    -1.1380 N.am  1 <1>  -0.8490 
  5 C       -0.0080     2.0170    -0.2980 C.3   1 <1>  -0.0550 
  6 C        2.8190     0.4570    -1.1830 C.3   1 <1>   0.1160 
  7 C        1.5450    -1.5770    -1.2220 C.3   1 <1>   0.1160 
  8 C       -0.7770     2.7800     0.8010 C.3   1 <1>  -0.0800 
  9 C       -1.4700     4.0080     0.2120 C.3   1 <1>   0.2000 
 10 C        0.1890     3.4110     1.8050 C.3   1 <1>   0.1100 
 11 O       -2.5210     4.3550     1.0460 O.3   1 <1>  -0.6800 
 12 C       -0.4080     5.1140     0.2660 C.3   1 <1>   0.1100 
 13 N        0.6830     4.5980     1.1130 N.3   1 <1>  -0.8100 
 14 C        1.3250     5.5840     1.9890 C.3   1 <1>   0.2530 
 15 C        2.0140     6.6500     1.1500 C.ar  1 <1>  -0.1440 
 16 C        3.2560     6.4230     0.5760 C.ar  1 <1>   0.1900 
 17 C        1.4140     7.8850     0.9320 C.ar  1 <1>  -0.1500 
 18 F        3.8600     5.2760     0.7720 F     1 <1>  -0.1900 
 19 C        3.8750     7.3920    -0.1970 C.ar  1 <1>   0.1900 
 20 C        2.0360     8.8570     0.1580 C.ar  1 <1>  -0.1500 
 21 F        5.0470     7.1460    -0.7290 F     1 <1>  -0.1900 
 22 C        3.2770     8.6250    -0.4200 C.ar  1 <1>  -0.1440 
 23 C        3.9530     9.6920    -1.2680 C.3   1 <1>  -0.0970 
 24 H        0.8240     2.6110    -0.6240 H     1 <1>   0.0800 
 25 H       -0.6550     1.8810    -1.1410 H     1 <1>   0.0800 
 26 H        3.3110     0.1710    -2.0970 H     1 <1>   0.0800 
 27 H        3.4050     0.1110    -0.3470 H     1 <1>   0.0800 
 28 H        2.7720     1.5320    -1.1470 H     1 <1>   0.0800 
 29 H        2.1060    -1.8720    -2.0920 H     1 <1>   0.0800 
 30 H        0.5550    -1.9930    -1.3030 H     1 <1>   0.0800 
 31 H        2.0180    -1.9780    -0.3410 H     1 <1>   0.0800 
 32 H       -1.4810     2.1160     1.2730 H     1 <1>   0.0800 
 33 H       -1.8660     3.8550    -0.7770 H     1 <1>   0.0800 
 34 H        1.0040     2.7630     2.0800 H     1 <1>   0.0800 
 35 H       -0.3440     3.6970     2.6970 H     1 <1>   0.0800 
 36 H       -2.1790     4.5300     1.9430 H     1 <1>   0.4000 
 37 H       -0.8250     6.0260     0.6570 H     1 <1>   0.0800 
 38 H       -0.0160     5.3010    -0.7180 H     1 <1>   0.0800 
 39 H        0.5930     6.0310     2.6380 H     1 <1>   0.0800 
 40 H        2.0590     5.0880     2.6020 H     1 <1>   0.0800 
 41 H        0.4510     8.0970     1.3630 H     1 <1>   0.1500 
 42 H        1.5420     9.8020     0.0080 H     1 <1>   0.1500 
 43 H        3.3480    10.5780    -1.3310 H     1 <1>   0.0800 
 44 H        4.1180     9.3180    -2.2630 H     1 <1>   0.0800 
 45 H        4.9030     9.9550    -0.8370 H     1 <1>   0.0800 
@<TRIPOS>BOND
  1   1   2  2   
  2   1   3  2   
  3   1   4  am  
  4   1   5  1   
  5   4   6  1   
  6   4   7  1   
  7   5   8  1   
  8   5  24  1   
  9   5  25  1   
 10   6  26  1   
 11   6  27  1   
 12   6  28  1   
 13   7  29  1   
 14   7  30  1   
 15   7  31  1   
 16   8   9  1   
 17   8  10  1   
 18   8  32  1   
 19   9  11  1   
 20   9  12  1   
 21   9  33  1   
 22  10  13  1   
 23  10  34  1   
 24  10  35  1   
 25  11  36  1   
 26  12  13  1   
 27  12  37  1   
 28  12  38  1   
 29  13  14  1   
 30  14  15  1   
 31  14  39  1   
 32  14  40  1   
 33  15  16  ar  
 34  15  17  ar  
 35  16  18  1   
 36  16  19  ar  
 37  17  20  ar  
 38  17  41  1   
 39  19  21  1   
 40  19  22  ar  
 41  20  22  ar  
 42  20  42  1   
 43  22  23  1   
 44  23  43  1   
 45  23  44  1   
 46  23  45  1   
@<TRIPOS>SUBSTRUCTURE
  1 ****  13 GROUP 4 **** **** 0

# MOE 2024.06 (io_trps.svl 2023.06)
