@<TRIPOS>MOLECULE
NONAME
54 56 1 0 0 
SMALL
USER_CHARGES


@<TRIPOS>ATOM
  1 F       -2.6250    -0.7160     0.4430 F     1 <1>  -0.3400 
  2 C       -2.2900    -1.9150    -0.0060 C.3   1 <1>   0.8800 
  3 F       -3.3170    -2.3160    -0.7540 F     1 <1>  -0.3400 
  4 O       -2.1890    -2.7790     1.1050 O.3   1 <1>  -0.3630 
  5 C       -2.0170    -4.1090     0.9290 C.ar  1 <1>   0.0820 
  6 C       -1.4050    -4.6700    -0.1880 C.ar  1 <1>  -0.1500 
  7 C       -2.5100    -4.9350     1.9230 C.ar  1 <1>  -0.1500 
  8 C       -1.3460    -6.0480    -0.3250 C.ar  1 <1>  -0.1500 
  9 C       -2.4560    -6.3080     1.7800 C.ar  1 <1>  -0.1500 
 10 C       -1.9070    -6.8780     0.6390 C.ar  1 <1>  -0.1440 
 11 C       -1.9130    -8.3930     0.4920 C.3   1 <1>   0.4870 
 12 N       -2.6420    -8.8650    -0.7380 N.4   1 <1>  -0.9590 
 13 C       -4.0950    -8.5260    -0.9240 C.3   1 <1>   0.4230 
 14 C       -2.4600   -10.3440    -0.8690 C.3   1 <1>   0.2630 
 15 C       -4.2700    -7.2570    -1.7570 C.3   1 <1>  -0.1600 
 16 C       -4.9430    -8.3590     0.3440 C.3   1 <1>  -0.1600 
 17 C       -5.5120    -6.5340    -1.2230 C.3   1 <1>  -0.0800 
 18 C       -5.9870    -7.2720     0.0280 C.3   1 <1>  -0.0800 
 19 C       -5.2570    -5.0880    -0.7800 C.3   1 <1>  -0.1600 
 20 C       -6.1610    -6.1940     1.1170 C.3   1 <1>  -0.1600 
 21 C       -6.1980    -4.8370     0.4000 C.3   1 <1>   0.4230 
 22 N       -7.5780    -4.5020    -0.0770 N.4   1 <1>  -0.9590 
 23 C       -7.6050    -3.2280    -0.8690 C.3   1 <1>   0.2630 
 24 C       -8.5590    -4.3660     1.0480 C.3   1 <1>   0.2630 
 25 H       -1.3890    -1.8570    -0.5910 H     1 <1>   0.0800 
 26 H       -0.9700    -4.0540    -0.9530 H     1 <1>   0.1500 
 27 H       -2.9370    -4.4930     2.8070 H     1 <1>   0.1500 
 28 H       -0.8610    -6.4590    -1.1940 H     1 <1>   0.1500 
 29 H       -2.8470    -6.9220     2.5740 H     1 <1>   0.1500 
 30 H       -2.3620    -8.8320     1.3680 H     1 <1>   0.0800 
 31 H       -0.8890    -8.7300     0.4520 H     1 <1>   0.0800 
 32 H       -2.1570    -8.4250    -1.5290 H     1 <1>   0.4500 
 33 H       -4.5580    -9.3140    -1.4970 H     1 <1>   0.0800 
 34 H       -2.9590   -10.8560    -0.0610 H     1 <1>   0.0800 
 35 H       -1.4130   -10.5990    -0.8440 H     1 <1>   0.0800 
 36 H       -2.8730   -10.6920    -1.8020 H     1 <1>   0.0800 
 37 H       -3.4130    -6.6190    -1.7080 H     1 <1>   0.0800 
 38 H       -4.4230    -7.5250    -2.7880 H     1 <1>   0.0800 
 39 H       -5.4390    -9.2850     0.5770 H     1 <1>   0.0800 
 40 H       -4.3620    -8.0760     1.1940 H     1 <1>   0.0800 
 41 H       -6.2950    -6.5510    -1.9650 H     1 <1>   0.0800 
 42 H       -6.9380    -7.7360    -0.1840 H     1 <1>   0.0800 
 43 H       -5.3410    -4.3860    -1.5870 H     1 <1>   0.0800 
 44 H       -4.2570    -5.0070    -0.3970 H     1 <1>   0.0800 
 45 H       -5.2970    -6.1770     1.7560 H     1 <1>   0.0800 
 46 H       -7.0080    -6.3910     1.7460 H     1 <1>   0.0800 
 47 H       -5.8230    -4.0480     1.0340 H     1 <1>   0.0800 
 48 H       -7.8820    -5.2730    -0.6870 H     1 <1>   0.4500 
 49 H       -7.1990    -2.4160    -0.2870 H     1 <1>   0.0800 
 50 H       -8.6170    -2.9810    -1.1450 H     1 <1>   0.0800 
 51 H       -7.0280    -3.3250    -1.7740 H     1 <1>   0.0800 
 52 H       -8.2230    -3.6190     1.7490 H     1 <1>   0.0800 
 53 H       -8.6810    -5.3000     1.5680 H     1 <1>   0.0800 
 54 H       -9.5230    -4.0690     0.6660 H     1 <1>   0.0800 
@<TRIPOS>BOND
  1   1   2  1   
  2   2   3  1   
  3   2   4  1   
  4   2  25  1   
  5   4   5  1   
  6   5   6  ar  
  7   5   7  ar  
  8   6   8  ar  
  9   6  26  1   
 10   7   9  ar  
 11   7  27  1   
 12   8  10  ar  
 13   8  28  1   
 14   9  10  ar  
 15   9  29  1   
 16  10  11  1   
 17  11  12  1   
 18  11  30  1   
 19  11  31  1   
 20  12  13  1   
 21  12  14  1   
 22  12  32  1   
 23  13  15  1   
 24  13  16  1   
 25  13  33  1   
 26  14  34  1   
 27  14  35  1   
 28  14  36  1   
 29  15  17  1   
 30  15  37  1   
 31  15  38  1   
 32  16  18  1   
 33  16  39  1   
 34  16  40  1   
 35  17  18  1   
 36  17  19  1   
 37  17  41  1   
 38  18  20  1   
 39  18  42  1   
 40  19  21  1   
 41  19  43  1   
 42  19  44  1   
 43  20  21  1   
 44  20  45  1   
 45  20  46  1   
 46  21  22  1   
 47  21  47  1   
 48  22  23  1   
 49  22  24  1   
 50  22  48  1   
 51  23  49  1   
 52  23  50  1   
 53  23  51  1   
 54  24  52  1   
 55  24  53  1   
 56  24  54  1   
@<TRIPOS>SUBSTRUCTURE
  1 ****  19 GROUP 4 **** **** 0

# MOE 2024.06 (io_trps.svl 2023.06)
