@<TRIPOS>MOLECULE
NONAME
55 59 1 0 0 
SMALL
USER_CHARGES


@<TRIPOS>ATOM
  1 O       -0.1770     0.7220     1.4260 O.2   1 <1>  -0.5700 
  2 C       -0.1060     1.9350     1.3390 C.2   1 <1>   0.5440 
  3 N       -1.2630     2.6790     1.4620 N.am  1 <1>  -0.6600 
  4 C        1.1810     2.5550     1.0930 C.ar  1 <1>   0.0860 
  5 C       -2.5200     2.0960     2.0110 C.3   1 <1>   0.1400 
  6 C       -1.4280     4.0520     0.9090 C.3   1 <1>   0.1400 
  7 C        2.0130     2.1020     0.0810 C.ar  1 <1>  -0.1500 
  8 C        1.6280     3.6360     1.8840 C.ar  1 <1>  -0.1500 
  9 C       -3.5880     2.0620     0.9170 C.3   1 <1>  -0.1600 
 10 C       -2.4850     4.0250    -0.1970 C.3   1 <1>  -0.1600 
 11 C        3.2390     2.7230    -0.1550 C.ar  1 <1>  -0.1520 
 12 C        2.8340     4.2540     1.6580 C.ar  1 <1>  -0.1500 
 13 C       -3.8160     3.4470     0.3040 C.3   1 <1>   0.4180 
 14 N        4.2140     2.4600    -1.0880 N.pl3 1 <1>   0.0330 
 15 C        3.6550     3.8010     0.6210 C.ar  1 <1>   0.0000 
 16 O       -4.3190     4.2590     1.3380 O.3   1 <1>  -0.5600 
 17 C       -4.8290     3.3430    -0.8330 C.2   1 <1>  -0.2880 
 18 C        5.2240     3.3580    -0.9040 C.2   1 <1>  -0.3320 
 19 C        4.9130     4.1860     0.1170 C.2   1 <1>  -0.1810 
 20 C       -5.0070     5.4220     0.9690 C.3   1 <1>   0.1200 
 21 C       -5.9540     4.0590    -0.9030 C.2   1 <1>  -0.2760 
 22 C        6.4990     3.4260    -1.7230 C.3   1 <1>   0.0200 
 23 C        5.8070     5.3120     0.5970 C.3   1 <1>   0.0210 
 24 C       -6.2750     5.0730     0.1790 C.3   1 <1>  -0.0220 
 25 C       -6.9870     3.9330    -2.0090 C.3   1 <1>  -0.1020 
 26 C        7.5300     4.3220    -1.0110 C.3   1 <1>  -0.1600 
 27 C        6.8940     5.6120    -0.4530 C.3   1 <1>  -0.1600 
 28 H       -2.8580     2.7040     2.8330 H     1 <1>   0.0800 
 29 H       -2.3470     1.1010     2.3840 H     1 <1>   0.0800 
 30 H       -0.5030     4.4180     0.5000 H     1 <1>   0.0800 
 31 H       -1.7370     4.7160     1.6990 H     1 <1>   0.0800 
 32 H        1.7080     1.2660    -0.5230 H     1 <1>   0.1500 
 33 H        0.9930     3.9720     2.6850 H     1 <1>   0.1500 
 34 H       -4.5140     1.6970     1.3210 H     1 <1>   0.0800 
 35 H       -3.2700     1.3750     0.1550 H     1 <1>   0.0800 
 36 H       -2.1190     3.4150    -1.0020 H     1 <1>   0.0800 
 37 H       -2.6340     5.0120    -0.5910 H     1 <1>   0.0800 
 38 H        3.1670     5.0780     2.2620 H     1 <1>   0.1500 
 39 H        4.1810     1.7100    -1.7840 H     1 <1>   0.2700 
 40 H       -4.5460     2.6200    -1.5770 H     1 <1>   0.1500 
 41 H       -4.3520     6.0370     0.3780 H     1 <1>   0.0800 
 42 H       -5.2620     5.9530     1.8690 H     1 <1>   0.0800 
 43 H        6.2690     3.8350    -2.6910 H     1 <1>   0.0800 
 44 H        6.9100     2.4410    -1.8560 H     1 <1>   0.0800 
 45 H        6.2660     5.0130     1.5230 H     1 <1>   0.0800 
 46 H        5.2200     6.1950     0.7760 H     1 <1>   0.0800 
 47 H       -6.6640     5.9750    -0.2590 H     1 <1>   0.0800 
 48 H       -7.0190     4.6730     0.8440 H     1 <1>   0.0800 
 49 H       -7.9380     3.6500    -1.5950 H     1 <1>   0.0800 
 50 H       -6.6880     3.1840    -2.7200 H     1 <1>   0.0800 
 51 H       -7.0960     4.8700    -2.5250 H     1 <1>   0.0800 
 52 H        8.3210     4.5700    -1.6960 H     1 <1>   0.0800 
 53 H        7.9620     3.7700    -0.1940 H     1 <1>   0.0800 
 54 H        7.6530     6.2350    -0.0130 H     1 <1>   0.0800 
 55 H        6.4480     6.1570    -1.2670 H     1 <1>   0.0800 
@<TRIPOS>BOND
  1   1   2  2   
  2   2   3  am  
  3   2   4  1   
  4   3   5  1   
  5   3   6  1   
  6   4   7  ar  
  7   4   8  ar  
  8   5   9  1   
  9   5  28  1   
 10   5  29  1   
 11   6  10  1   
 12   6  30  1   
 13   6  31  1   
 14   7  11  ar  
 15   7  32  1   
 16   8  12  ar  
 17   8  33  1   
 18   9  13  1   
 19   9  34  1   
 20   9  35  1   
 21  10  13  1   
 22  10  36  1   
 23  10  37  1   
 24  11  14  1   
 25  11  15  ar  
 26  12  15  ar  
 27  12  38  1   
 28  13  16  1   
 29  13  17  1   
 30  14  18  1   
 31  14  39  1   
 32  15  19  1   
 33  16  20  1   
 34  17  21  2   
 35  17  40  1   
 36  18  19  2   
 37  18  22  1   
 38  19  23  1   
 39  20  24  1   
 40  20  41  1   
 41  20  42  1   
 42  21  24  1   
 43  21  25  1   
 44  22  26  1   
 45  22  43  1   
 46  22  44  1   
 47  23  27  1   
 48  23  45  1   
 49  23  46  1   
 50  24  47  1   
 51  24  48  1   
 52  25  49  1   
 53  25  50  1   
 54  25  51  1   
 55  26  27  1   
 56  26  52  1   
 57  26  53  1   
 58  27  54  1   
 59  27  55  1   
@<TRIPOS>SUBSTRUCTURE
  1 ****   4 GROUP 4 **** **** 0

# MOE 2024.06 (io_trps.svl 2023.06)
