@<TRIPOS>MOLECULE
NONAME
55 57 1 0 0 
SMALL
USER_CHARGES


@<TRIPOS>ATOM
  1 S        0.0520     0.2500     1.7740 S.o2  1 <1>   1.4470 
  2 O        0.2690    -0.7680     2.7790 O.2   1 <1>  -0.6500 
  3 O       -0.1610     1.6230     2.1840 O.2   1 <1>  -0.6500 
  4 N        1.4340     0.2660     0.7930 N.am  1 <1>  -0.8490 
  5 C       -1.2550    -0.2820     0.6340 C.ar  1 <1>  -0.0090 
  6 C        1.4350     1.3630    -0.2010 C.3   1 <1>   0.1960 
  7 C        2.6630     0.2090     1.6130 C.3   1 <1>   0.1960 
  8 C       -2.4100     0.4700     0.4580 C.ar  1 <1>  -0.1500 
  9 C       -1.1290    -1.4570    -0.0970 C.ar  1 <1>  -0.1500 
 10 C        2.3030     2.5670     0.2120 C.3   1 <1>   0.1400 
 11 C        3.9090     0.7390     0.8850 C.3   1 <1>   0.1400 
 12 C       -3.4010     0.0690    -0.4220 C.ar  1 <1>  -0.1500 
 13 C       -2.1160    -1.8650    -0.9780 C.ar  1 <1>  -0.1500 
 14 N        3.7310     2.1590     0.4290 N.am  1 <1>  -0.6600 
 15 C       -3.2570    -1.1010    -1.1470 C.ar  1 <1>  -0.1430 
 16 C        4.8450     2.9450     0.2360 C.2   1 <1>   0.5690 
 17 C       -4.3430    -1.5460    -2.1100 C.3   1 <1>  -0.0970 
 18 O        5.9500     2.4880     0.4180 O.2   1 <1>  -0.5700 
 19 C        4.7940     4.4130    -0.2120 C.3   1 <1>  -0.0190 
 20 C        3.9680     5.3420     0.7040 C.3   1 <1>  -0.1600 
 21 C        4.4360     4.5770    -1.7100 C.3   1 <1>  -0.1600 
 22 C        4.1500     6.8300     0.3360 C.3   1 <1>   0.2000 
 23 C        3.8730     5.9690    -2.0560 C.3   1 <1>  -0.1600 
 24 O        2.9500     7.4980     0.6410 O.3   1 <1>  -0.5600 
 25 C        4.4900     7.0500    -1.1630 C.3   1 <1>   0.2000 
 26 C        2.7920     7.8520     1.9800 C.3   1 <1>   0.0400 
 27 O        3.9950     8.2730    -1.5680 O.3   1 <1>  -0.6800 
 28 H        1.8220     0.9790    -1.1290 H     1 <1>   0.0800 
 29 H        0.4300     1.6970    -0.3950 H     1 <1>   0.0800 
 30 H        2.5330     0.7980     2.5070 H     1 <1>   0.0800 
 31 H        2.8310    -0.8090     1.9200 H     1 <1>   0.0800 
 32 H       -2.5390     1.3830     1.0160 H     1 <1>   0.1500 
 33 H       -0.2450    -2.0600     0.0270 H     1 <1>   0.1500 
 34 H        1.9100     2.9880     1.1220 H     1 <1>   0.0800 
 35 H        2.2370     3.3130    -0.5550 H     1 <1>   0.0800 
 36 H        4.1160     0.1160     0.0320 H     1 <1>   0.0800 
 37 H        4.7510     0.6750     1.5520 H     1 <1>   0.0800 
 38 H       -4.2860     0.6710    -0.5370 H     1 <1>   0.1500 
 39 H       -1.9910    -2.7810    -1.5290 H     1 <1>   0.1500 
 40 H       -4.8600    -0.6950    -2.5160 H     1 <1>   0.0800 
 41 H       -5.0520    -2.1700    -1.5950 H     1 <1>   0.0800 
 42 H       -3.9190    -2.1040    -2.9250 H     1 <1>   0.0800 
 43 H        5.8080     4.7650    -0.1170 H     1 <1>   0.0800 
 44 H        4.2690     5.1900     1.7260 H     1 <1>   0.0800 
 45 H        2.9270     5.0990     0.6200 H     1 <1>   0.0800 
 46 H        5.3330     4.4090    -2.2830 H     1 <1>   0.0800 
 47 H        3.7300     3.8300    -2.0240 H     1 <1>   0.0800 
 48 H        4.9470     7.2620     0.9180 H     1 <1>   0.0800 
 49 H        2.8070     5.9680    -1.9070 H     1 <1>   0.0800 
 50 H        4.0720     6.1920    -3.0900 H     1 <1>   0.0800 
 51 H        5.5570     7.0630    -1.3060 H     1 <1>   0.0800 
 52 H        1.8520     8.3660     2.0820 H     1 <1>   0.0800 
 53 H        3.5940     8.5070     2.2720 H     1 <1>   0.0800 
 54 H        2.7850     6.9650     2.5900 H     1 <1>   0.0800 
 55 H        3.2100     8.4410    -0.9980 H     1 <1>   0.4000 
@<TRIPOS>BOND
  1   1   2  2   
  2   1   3  2   
  3   1   4  am  
  4   1   5  1   
  5   4   6  1   
  6   4   7  1   
  7   5   8  ar  
  8   5   9  ar  
  9   6  10  1   
 10   6  28  1   
 11   6  29  1   
 12   7  11  1   
 13   7  30  1   
 14   7  31  1   
 15   8  12  ar  
 16   8  32  1   
 17   9  13  ar  
 18   9  33  1   
 19  10  14  1   
 20  10  34  1   
 21  10  35  1   
 22  11  14  1   
 23  11  36  1   
 24  11  37  1   
 25  12  15  ar  
 26  12  38  1   
 27  13  15  ar  
 28  13  39  1   
 29  14  16  am  
 30  15  17  1   
 31  16  18  2   
 32  16  19  1   
 33  17  40  1   
 34  17  41  1   
 35  17  42  1   
 36  19  20  1   
 37  19  21  1   
 38  19  43  1   
 39  20  22  1   
 40  20  44  1   
 41  20  45  1   
 42  21  23  1   
 43  21  46  1   
 44  21  47  1   
 45  22  24  1   
 46  22  25  1   
 47  22  48  1   
 48  23  25  1   
 49  23  49  1   
 50  23  50  1   
 51  24  26  1   
 52  25  27  1   
 53  25  51  1   
 54  26  52  1   
 55  26  53  1   
 56  26  54  1   
 57  27  55  1   
@<TRIPOS>SUBSTRUCTURE
  1 ****  10 GROUP 4 **** **** 0

# MOE 2024.06 (io_trps.svl 2023.06)
