@<TRIPOS>MOLECULE
NONAME
56 58 1 0 0 
SMALL
USER_CHARGES


@<TRIPOS>ATOM
  1 N       -0.1650     0.4610    -0.1390 N.ar  1 <1>  -0.6200 
  2 C       -0.5830     1.6480    -0.5200 C.ar  1 <1>   0.7710 
  3 C       -1.0700    -0.4580     0.1460 C.ar  1 <1>   0.4100 
  4 N       -1.8830     1.9620    -0.6490 N.ar  1 <1>  -0.1790 
  5 N        0.3770     2.5420    -0.7830 N.pl3 1 <1>  -0.8690 
  6 N       -0.6310    -1.6760     0.5660 N.pl3 1 <1>  -0.8380 
  7 C       -2.4480    -0.1850     0.0170 C.ar  1 <1>  -0.1500 
  8 C       -2.8450     1.0450    -0.3850 C.ar  1 <1>   0.2110 
  9 C        0.3840     3.9720    -1.1660 C.3   1 <1>   0.2090 
 10 C       -1.4430    -2.6400     1.3640 C.3   1 <1>   0.1290 
 11 C        0.7780    -2.1330     0.3530 C.3   1 <1>   0.1290 
 12 C        1.5730     4.6400    -0.4680 C.3   1 <1>  -0.1600 
 13 C        1.8190     6.1030    -0.8930 C.3   1 <1>  -0.0800 
 14 C        3.1480     6.5960    -0.2970 C.3   1 <1>  -0.1600 
 15 C        0.6830     7.0460    -0.4580 C.3   1 <1>  -0.1600 
 16 C        3.4150     8.0690    -0.6110 C.3   1 <1>   0.3430 
 17 C        1.0050     8.5130    -0.7620 C.3   1 <1>   0.3430 
 18 N        2.2870     8.9050    -0.1030 N.4   1 <1>  -0.9590 
 19 C        2.5580    10.3630    -0.2540 C.3   1 <1>   0.4230 
 20 C        3.8680    10.7700     0.4250 C.3   1 <1>  -0.1600 
 21 C        1.4720    11.2180     0.4180 C.3   1 <1>  -0.1600 
 22 C        3.6450    12.2050     0.8890 C.3   1 <1>  -0.1600 
 23 C        2.1850    12.2300     1.3220 C.3   1 <1>  -0.1600 
 24 H       -2.0920     2.8990    -0.9690 H     1 <1>   0.4570 
 25 H        1.3170     2.1390    -0.6820 H     1 <1>   0.4000 
 26 H       -3.1590    -0.9600     0.2280 H     1 <1>   0.1500 
 27 H       -3.8830     1.3140    -0.5060 H     1 <1>   0.1500 
 28 H       -0.5350     4.4490    -0.8740 H     1 <1>   0.0800 
 29 H        0.5000     4.0510    -2.2360 H     1 <1>   0.0800 
 30 H       -2.2400    -2.1360     1.8820 H     1 <1>   0.0800 
 31 H       -0.8240    -3.1210     2.1020 H     1 <1>   0.0800 
 32 H       -1.8570    -3.3930     0.7150 H     1 <1>   0.0800 
 33 H        1.2370    -1.6010    -0.4620 H     1 <1>   0.0800 
 34 H        0.7940    -3.1830     0.1160 H     1 <1>   0.0800 
 35 H        1.3530    -1.9640     1.2460 H     1 <1>   0.0800 
 36 H        2.4570     4.0710    -0.7040 H     1 <1>   0.0800 
 37 H        1.4280     4.5920     0.5990 H     1 <1>   0.0800 
 38 H        1.9040     6.1360    -1.9680 H     1 <1>   0.0800 
 39 H        3.9600     6.0130    -0.6970 H     1 <1>   0.0800 
 40 H        3.1550     6.4600     0.7710 H     1 <1>   0.0800 
 41 H        0.4940     6.9420     0.5970 H     1 <1>   0.0800 
 42 H       -0.2240     6.7910    -0.9760 H     1 <1>   0.0800 
 43 H        3.5160     8.2000    -1.6770 H     1 <1>   0.0800 
 44 H        4.3410     8.3660    -0.1450 H     1 <1>   0.0800 
 45 H        0.1980     9.1340    -0.4080 H     1 <1>   0.0800 
 46 H        1.0900     8.6510    -1.8280 H     1 <1>   0.0800 
 47 H        2.1950     8.7280     0.9040 H     1 <1>   0.4500 
 48 H        2.6110    10.6280    -1.2990 H     1 <1>   0.0800 
 49 H        4.7050    10.7120    -0.2470 H     1 <1>   0.0800 
 50 H        4.0520    10.1600     1.2930 H     1 <1>   0.0800 
 51 H        0.7840    10.6400     1.0090 H     1 <1>   0.0800 
 52 H        0.9240    11.7470    -0.3430 H     1 <1>   0.0800 
 53 H        3.7890    12.8840     0.0640 H     1 <1>   0.0800 
 54 H        4.3090    12.4840     1.6910 H     1 <1>   0.0800 
 55 H        2.1130    11.9110     2.3490 H     1 <1>   0.0800 
 56 H        1.7610    13.2170     1.2390 H     1 <1>   0.0800 
@<TRIPOS>BOND
  1   1   2  ar  
  2   1   3  ar  
  3   2   4  ar  
  4   2   5  1   
  5   3   6  1   
  6   3   7  ar  
  7   4   8  ar  
  8   4  24  1   
  9   5   9  1   
 10   5  25  1   
 11   6  10  1   
 12   6  11  1   
 13   7   8  ar  
 14   7  26  1   
 15   8  27  1   
 16   9  12  1   
 17   9  28  1   
 18   9  29  1   
 19  10  30  1   
 20  10  31  1   
 21  10  32  1   
 22  11  33  1   
 23  11  34  1   
 24  11  35  1   
 25  12  13  1   
 26  12  36  1   
 27  12  37  1   
 28  13  14  1   
 29  13  15  1   
 30  13  38  1   
 31  14  16  1   
 32  14  39  1   
 33  14  40  1   
 34  15  17  1   
 35  15  41  1   
 36  15  42  1   
 37  16  18  1   
 38  16  43  1   
 39  16  44  1   
 40  17  18  1   
 41  17  45  1   
 42  17  46  1   
 43  18  19  1   
 44  18  47  1   
 45  19  20  1   
 46  19  21  1   
 47  19  48  1   
 48  20  22  1   
 49  20  49  1   
 50  20  50  1   
 51  21  23  1   
 52  21  51  1   
 53  21  52  1   
 54  22  23  1   
 55  22  53  1   
 56  22  54  1   
 57  23  55  1   
 58  23  56  1   
@<TRIPOS>SUBSTRUCTURE
  1 ****  12 GROUP 4 **** **** 0

# MOE 2024.06 (io_trps.svl 2023.06)
