@<TRIPOS>MOLECULE
NONAME
61 65 1 0 0 
SMALL
USER_CHARGES


@<TRIPOS>ATOM
  1 O       -0.2810     4.1830    -0.0560 O.2   1 <1>  -0.5700 
  2 C       -0.6340     3.1750     0.5190 C.2   1 <1>   0.5690 
  3 N       -1.9570     2.7830     0.4570 N.am  1 <1>  -0.6600 
  4 C        0.4890     2.3580     1.2500 C.3   1 <1>   0.3410 
  5 C       -2.9570     3.5960    -0.3150 C.3   1 <1>   0.1400 
  6 C       -2.5790     1.6110     1.1670 C.3   1 <1>   0.1400 
  7 O        0.1410     2.0230     2.5510 O.3   1 <1>  -0.6800 
  8 C        0.7740     1.0400     0.5180 C.3   1 <1>  -0.1600 
  9 C        1.8150     3.1340     1.3880 C.3   1 <1>  -0.1600 
 10 C       -3.9930     4.2440     0.6310 C.3   1 <1>   0.1430 
 11 C       -4.0740     1.8340     1.4650 C.3   1 <1>  -0.1600 
 12 C        1.4030     1.3160    -0.8430 C.3   1 <1>   0.3430 
 13 C        2.4950     3.3530     0.0360 C.3   1 <1>   0.3430 
 14 C       -5.2000     4.6270    -0.2090 C.ar  1 <1>   0.1660 
 15 C       -4.3630     3.3030     1.8070 C.3   1 <1>  -0.1600 
 16 C       -3.5040     5.6230     1.1450 C.3   1 <1>  -0.1600 
 17 N        2.6910     2.0460    -0.6590 N.4   1 <1>  -0.9590 
 18 N       -6.0960     3.7920    -0.6790 N.ar  1 <1>  -0.6200 
 19 C       -5.2450     5.9670    -0.4410 C.ar  1 <1>  -0.1440 
 20 C       -4.0850     6.6880     0.1990 C.3   1 <1>  -0.0170 
 21 C        3.3650     2.2590    -1.9750 C.3   1 <1>   0.2630 
 22 C       -7.0860     4.3390    -1.3980 C.ar  1 <1>   0.6200 
 23 C       -6.2850     6.4500    -1.1910 C.ar  1 <1>   0.1600 
 24 N       -7.2070     5.6460    -1.6700 N.ar  1 <1>  -0.6200 
 25 C       -8.1070     3.4420    -1.9230 C.ar  1 <1>   0.0000 
 26 C       -7.8330     2.1000    -2.2050 C.ar  1 <1>  -0.1500 
 27 C       -9.4120     3.8810    -2.1700 C.ar  1 <1>  -0.1500 
 28 C       -8.8010     1.2470    -2.7030 C.ar  1 <1>  -0.1500 
 29 C      -10.3850     3.0340    -2.6670 C.ar  1 <1>  -0.1500 
 30 C      -10.0820     1.7120    -2.9360 C.ar  1 <1>  -0.1500 
 31 H       -3.4670     2.9380    -0.9990 H     1 <1>   0.0800 
 32 H       -2.4810     4.3550    -0.9110 H     1 <1>   0.0800 
 33 H       -2.0900     1.4420     2.1060 H     1 <1>   0.0800 
 34 H       -2.4690     0.7250     0.5670 H     1 <1>   0.0800 
 35 H       -0.1330     2.8220     3.0450 H     1 <1>   0.4000 
 36 H       -0.1410     0.4970     0.3710 H     1 <1>   0.0800 
 37 H        1.4340     0.4220     1.1000 H     1 <1>   0.0800 
 38 H        2.4930     2.6010     2.0310 H     1 <1>   0.0800 
 39 H        1.6240     4.0960     1.8320 H     1 <1>   0.0800 
 40 H       -4.3710     1.2000     2.2820 H     1 <1>   0.0800 
 41 H       -4.6600     1.5420     0.6100 H     1 <1>   0.0800 
 42 H        0.7280     1.9070    -1.4430 H     1 <1>   0.0800 
 43 H        1.5790     0.3820    -1.3530 H     1 <1>   0.0800 
 44 H        3.4470     3.8350     0.1900 H     1 <1>   0.0800 
 45 H        1.8910     4.0040    -0.5760 H     1 <1>   0.0800 
 46 H       -5.4010     3.4260     2.0640 H     1 <1>   0.0800 
 47 H       -3.7800     3.5590     2.6740 H     1 <1>   0.0800 
 48 H       -2.4310     5.6800     1.2020 H     1 <1>   0.0800 
 49 H       -3.9060     5.8040     2.1270 H     1 <1>   0.0800 
 50 H        3.3020     1.4650    -0.0670 H     1 <1>   0.4500 
 51 H       -3.3670     6.9610    -0.5550 H     1 <1>   0.0800 
 52 H       -4.4050     7.5640     0.7360 H     1 <1>   0.0800 
 53 H        2.7500     2.8700    -2.6160 H     1 <1>   0.0800 
 54 H        3.5420     1.3140    -2.4630 H     1 <1>   0.0800 
 55 H        4.3130     2.7540    -1.8340 H     1 <1>   0.0800 
 56 H       -6.3630     7.5030    -1.4020 H     1 <1>   0.1500 
 57 H       -6.8420     1.7190    -2.0320 H     1 <1>   0.1500 
 58 H       -9.6680     4.9070    -1.9670 H     1 <1>   0.1500 
 59 H       -8.5580     0.2190    -2.9090 H     1 <1>   0.1500 
 60 H      -11.3800     3.4040    -2.8460 H     1 <1>   0.1500 
 61 H      -10.8370     1.0510    -3.3230 H     1 <1>   0.1500 
@<TRIPOS>BOND
  1   1   2  2   
  2   2   3  am  
  3   2   4  1   
  4   3   5  1   
  5   3   6  1   
  6   4   7  1   
  7   4   8  1   
  8   4   9  1   
  9   5  10  1   
 10   5  31  1   
 11   5  32  1   
 12   6  11  1   
 13   6  33  1   
 14   6  34  1   
 15   7  35  1   
 16   8  12  1   
 17   8  36  1   
 18   8  37  1   
 19   9  13  1   
 20   9  38  1   
 21   9  39  1   
 22  10  14  1   
 23  10  15  1   
 24  10  16  1   
 25  11  15  1   
 26  11  40  1   
 27  11  41  1   
 28  12  17  1   
 29  12  42  1   
 30  12  43  1   
 31  13  17  1   
 32  13  44  1   
 33  13  45  1   
 34  14  18  ar  
 35  14  19  ar  
 36  15  46  1   
 37  15  47  1   
 38  16  20  1   
 39  16  48  1   
 40  16  49  1   
 41  17  21  1   
 42  17  50  1   
 43  18  22  ar  
 44  19  20  1   
 45  19  23  ar  
 46  20  51  1   
 47  20  52  1   
 48  21  53  1   
 49  21  54  1   
 50  21  55  1   
 51  22  24  ar  
 52  22  25  1   
 53  23  24  ar  
 54  23  56  1   
 55  25  26  ar  
 56  25  27  ar  
 57  26  28  ar  
 58  26  57  1   
 59  27  29  ar  
 60  27  58  1   
 61  28  30  ar  
 62  28  59  1   
 63  29  30  ar  
 64  29  60  1   
 65  30  61  1   
@<TRIPOS>SUBSTRUCTURE
  1 ****   5 GROUP 4 **** **** 0

# MOE 2024.06 (io_trps.svl 2023.06)
