@<TRIPOS>MOLECULE
NONAME
51 53 1 0 0 
SMALL
USER_CHARGES


@<TRIPOS>ATOM
  1 S        0.6450     0.4200     0.4780 S.3   1 <1>  -0.0800 
  2 C        2.3250    -0.0060     0.1850 C.2   1 <1>  -0.1400 
  3 C        0.3990    -1.0270     1.4390 C.2   1 <1>  -0.1100 
  4 C        2.6270    -1.1700     0.7900 C.2   1 <1>  -0.1500 
  5 C        3.1530     0.9360    -0.6680 C.3   1 <1>   0.0200 
  6 C        1.5310    -1.7510     1.5050 C.2   1 <1>  -0.1500 
  7 C        3.4470     2.2470     0.0730 C.3   1 <1>  -0.1600 
  8 C        4.3210     3.1970    -0.7710 C.3   1 <1>  -0.0990 
  9 C        4.6740     4.5130    -0.0840 C.2   1 <1>   0.5690 
 10 O        4.1560     4.7720     0.9770 O.2   1 <1>  -0.5700 
 11 N        5.5720     5.3710    -0.6670 N.am  1 <1>  -0.6600 
 12 C        6.2810     5.1440    -1.9670 C.3   1 <1>   0.1400 
 13 C        5.9540     6.6400     0.0110 C.3   1 <1>   0.1400 
 14 C        7.7310     4.6760    -1.7630 C.3   1 <1>   0.1400 
 15 C        7.0840     6.4120     1.0240 C.3   1 <1>  -0.1600 
 16 N        8.5050     5.6010    -0.8770 N.am  1 <1>  -0.6600 
 17 C        8.1940     5.4510     0.5740 C.3   1 <1>   0.1400 
 18 C        9.4240     6.4770    -1.3990 C.2   1 <1>   0.5690 
 19 O        9.6050     6.5570    -2.5930 O.2   1 <1>  -0.5700 
 20 C       10.2450     7.3970    -0.5150 C.3   1 <1>   0.0440 
 21 C       11.3550     6.6450     0.1960 C.ar  1 <1>   0.1670 
 22 N       11.4090     6.7830     1.5130 N.ar  1 <1>  -0.6200 
 23 C       12.2430     5.8730    -0.5390 C.ar  1 <1>  -0.1500 
 24 C       12.3830     6.1230     2.1190 C.ar  1 <1>   0.1600 
 25 C       13.2500     5.1890     0.1060 C.ar  1 <1>  -0.1500 
 26 C       13.3130     5.3250     1.4750 C.ar  1 <1>  -0.1500 
 27 H       -0.5790    -1.1830     1.8570 H     1 <1>   0.1500 
 28 H        3.5860    -1.6550     0.7680 H     1 <1>   0.1500 
 29 H        2.6230     1.1380    -1.5820 H     1 <1>   0.0800 
 30 H        4.0790     0.4510    -0.9180 H     1 <1>   0.0800 
 31 H        1.6480    -2.6820     2.0320 H     1 <1>   0.1500 
 32 H        3.9490     2.0270     0.9990 H     1 <1>   0.0800 
 33 H        2.5190     2.7390     0.3140 H     1 <1>   0.0800 
 34 H        3.8020     3.4290    -1.6820 H     1 <1>   0.0800 
 35 H        5.2360     2.6910    -1.0160 H     1 <1>   0.0800 
 36 H        6.2910     6.0600    -2.5320 H     1 <1>   0.0800 
 37 H        5.7580     4.4180    -2.5610 H     1 <1>   0.0800 
 38 H        5.0980     7.0560     0.5150 H     1 <1>   0.0800 
 39 H        6.2750     7.3560    -0.7260 H     1 <1>   0.0800 
 40 H        8.2080     4.6030    -2.7250 H     1 <1>   0.0800 
 41 H        7.7310     3.6890    -1.3360 H     1 <1>   0.0800 
 42 H        6.6540     6.0260     1.9310 H     1 <1>   0.0800 
 43 H        7.5170     7.3630     1.2720 H     1 <1>   0.0800 
 44 H        7.8680     4.4410     0.7580 H     1 <1>   0.0800 
 45 H        9.0740     5.6060     1.1720 H     1 <1>   0.0800 
 46 H        9.6030     7.8790     0.1960 H     1 <1>   0.0800 
 47 H       10.6870     8.1660    -1.1210 H     1 <1>   0.0800 
 48 H       12.1470     5.8050    -1.6090 H     1 <1>   0.1500 
 49 H       12.4450     6.2230     3.1900 H     1 <1>   0.1500 
 50 H       13.9530     4.5800    -0.4360 H     1 <1>   0.1500 
 51 H       14.0750     4.8200     2.0400 H     1 <1>   0.1500 
@<TRIPOS>BOND
  1   1   2  1   
  2   1   3  1   
  3   2   4  2   
  4   2   5  1   
  5   3   6  2   
  6   3  27  1   
  7   4   6  1   
  8   4  28  1   
  9   5   7  1   
 10   5  29  1   
 11   5  30  1   
 12   6  31  1   
 13   7   8  1   
 14   7  32  1   
 15   7  33  1   
 16   8   9  1   
 17   8  34  1   
 18   8  35  1   
 19   9  10  2   
 20   9  11  am  
 21  11  12  1   
 22  11  13  1   
 23  12  14  1   
 24  12  36  1   
 25  12  37  1   
 26  13  15  1   
 27  13  38  1   
 28  13  39  1   
 29  14  16  1   
 30  14  40  1   
 31  14  41  1   
 32  15  17  1   
 33  15  42  1   
 34  15  43  1   
 35  16  17  1   
 36  16  18  am  
 37  17  44  1   
 38  17  45  1   
 39  18  19  2   
 40  18  20  1   
 41  20  21  1   
 42  20  46  1   
 43  20  47  1   
 44  21  22  ar  
 45  21  23  ar  
 46  22  24  ar  
 47  23  25  ar  
 48  23  48  1   
 49  24  26  ar  
 50  24  49  1   
 51  25  26  ar  
 52  25  50  1   
 53  26  51  1   
@<TRIPOS>SUBSTRUCTURE
  1 ****  17 GROUP 4 **** **** 0

# MOE 2024.06 (io_trps.svl 2023.06)
