@<TRIPOS>MOLECULE
NONAME
44 46 1 0 0 
SMALL
USER_CHARGES


@<TRIPOS>ATOM
  1 O        0.3530     0.5670     0.9090 O.3   1 <1>  -0.0190 
  2 N        1.2260    -0.3950     0.8220 N.2   1 <1>  -0.4100 
  3 C        0.7720     1.6630     0.3350 C.2   1 <1>  -0.0400 
  4 C        2.2260     0.0900     0.1790 C.2   1 <1>   0.1080 
  5 C        1.9940     1.4180    -0.1670 C.2   1 <1>  -0.1500 
  6 C       -0.1310     2.8860     0.3450 C.3   1 <1>   0.0200 
  7 C        3.4820    -0.6850    -0.1530 C.3   1 <1>  -0.0590 
  8 C        0.5320     4.1340    -0.2670 C.3   1 <1>  -0.0800 
  9 C       -0.4020     5.3350    -0.4480 C.3   1 <1>   0.2000 
 10 C        1.6840     4.6870     0.5730 C.3   1 <1>   0.2090 
 11 O       -1.2470     5.4210     0.6670 O.3   1 <1>  -0.5600 
 12 C        0.5540     6.5390    -0.5080 C.3   1 <1>   0.2090 
 13 N        1.8120     6.0950     0.1400 N.pl3 1 <1>  -0.8380 
 14 C       -2.3640     6.2380     0.5070 C.3   1 <1>   0.0400 
 15 C        3.0020     6.7680     0.0200 C.ar  1 <1>   0.7200 
 16 N        4.0870     6.1730     0.5120 N.ar  1 <1>  -0.6200 
 17 N        2.9590     7.9560    -0.5800 N.ar  1 <1>  -0.6200 
 18 C        5.2100     6.8370     0.3980 C.ar  1 <1>   0.1600 
 19 C        4.1000     8.5930    -0.6780 C.ar  1 <1>   0.1600 
 20 C        5.2810     8.0750    -0.1990 C.ar  1 <1>  -0.1430 
 21 C        6.5950     8.8300    -0.3210 C.3   1 <1>  -0.0170 
 22 C        6.8200     9.7180     0.9050 C.3   1 <1>  -0.2400 
 23 H        2.6660     2.0550    -0.7100 H     1 <1>   0.1500 
 24 H       -1.0230     2.6510    -0.2070 H     1 <1>   0.0800 
 25 H       -0.4220     3.0900     1.3610 H     1 <1>   0.0800 
 26 H        3.6480    -0.6740    -1.2140 H     1 <1>   0.0800 
 27 H        3.3810    -1.7040     0.1750 H     1 <1>   0.0800 
 28 H        4.3240    -0.2400     0.3440 H     1 <1>   0.0800 
 29 H        0.9270     3.8800    -1.2340 H     1 <1>   0.0800 
 30 H       -1.0020     5.2430    -1.3370 H     1 <1>   0.0800 
 31 H        2.5940     4.1360     0.4120 H     1 <1>   0.0800 
 32 H        1.4340     4.6700     1.6210 H     1 <1>   0.0800 
 33 H        0.1550     7.3990    -0.0020 H     1 <1>   0.0800 
 34 H        0.7600     6.7900    -1.5340 H     1 <1>   0.0800 
 35 H       -2.9290     6.2120     1.4220 H     1 <1>   0.0800 
 36 H       -2.9680     5.8620    -0.3000 H     1 <1>   0.0800 
 37 H       -2.0500     7.2480     0.3090 H     1 <1>   0.0800 
 38 H        6.1010     6.3810     0.7950 H     1 <1>   0.1500 
 39 H        4.0920     9.5590    -1.1530 H     1 <1>   0.1500 
 40 H        7.4090     8.1320    -0.4150 H     1 <1>   0.0800 
 41 H        6.5830     9.4380    -1.2100 H     1 <1>   0.0800 
 42 H        6.8520     9.1200     1.7980 H     1 <1>   0.0800 
 43 H        6.0210    10.4330     0.9990 H     1 <1>   0.0800 
 44 H        7.7500    10.2500     0.8110 H     1 <1>   0.0800 
@<TRIPOS>BOND
  1   1   2  1   
  2   1   3  1   
  3   2   4  2   
  4   3   5  2   
  5   3   6  1   
  6   4   5  1   
  7   4   7  1   
  8   5  23  1   
  9   6   8  1   
 10   6  24  1   
 11   6  25  1   
 12   7  26  1   
 13   7  27  1   
 14   7  28  1   
 15   8   9  1   
 16   8  10  1   
 17   8  29  1   
 18   9  11  1   
 19   9  12  1   
 20   9  30  1   
 21  10  13  1   
 22  10  31  1   
 23  10  32  1   
 24  11  14  1   
 25  12  13  1   
 26  12  33  1   
 27  12  34  1   
 28  13  15  1   
 29  14  35  1   
 30  14  36  1   
 31  14  37  1   
 32  15  16  ar  
 33  15  17  ar  
 34  16  18  ar  
 35  17  19  ar  
 36  18  20  ar  
 37  18  38  1   
 38  19  20  ar  
 39  19  39  1   
 40  20  21  1   
 41  21  22  1   
 42  21  40  1   
 43  21  41  1   
 44  22  42  1   
 45  22  43  1   
 46  22  44  1   
@<TRIPOS>SUBSTRUCTURE
  1 ****  10 GROUP 4 **** **** 0

# MOE 2024.06 (io_trps.svl 2023.06)
