@<TRIPOS>MOLECULE
NONAME
48 51 1 0 0 
SMALL
USER_CHARGES


@<TRIPOS>ATOM
  1 CL      -2.0450     0.8500    -0.3360 Cl    1 <1>  -0.1770 
  2 C       -1.0990     2.2780     0.0180 C.ar  1 <1>   0.1770 
  3 C       -1.6460     3.2810     0.8190 C.ar  1 <1>  -0.1440 
  4 C        0.1730     2.3770    -0.5250 C.ar  1 <1>  -0.1500 
  5 C       -0.8970     4.4230     1.0900 C.ar  1 <1>  -0.1500 
  6 C       -3.0420     3.1280     1.3910 C.3   1 <1>   0.4870 
  7 C        0.8880     3.5220    -0.2410 C.ar  1 <1>   0.0830 
  8 C        0.3680     4.5130     0.5410 C.ar  1 <1>   0.0830 
  9 N       -4.0340     3.2080     0.2890 N.4   1 <1>  -0.9590 
 10 O        2.1190     3.8520    -0.6420 O.3   1 <1>  -0.3630 
 11 O        1.2480     5.5100     0.6650 O.3   1 <1>  -0.3620 
 12 C       -5.3980     2.8300     0.7710 C.3   1 <1>   0.3430 
 13 C       -4.0370     4.5370    -0.3870 C.3   1 <1>   0.3430 
 14 C        2.4100     5.1280    -0.0710 C.3   1 <1>   0.4000 
 15 C       -6.4070     2.7510    -0.3940 C.3   1 <1>   0.0000 
 16 C       -4.9930     4.5070    -1.5810 C.3   1 <1>  -0.1600 
 17 C       -7.7960     2.4090     0.1660 C.3   1 <1>   0.2000 
 18 C       -6.4130     4.0860    -1.1680 C.3   1 <1>  -0.1600 
 19 C       -6.1060     1.5440    -1.2990 C.3   1 <1>  -0.1600 
 20 O       -7.9690     3.0210     1.4080 O.3   1 <1>  -0.5600 
 21 C       -7.8370     0.8810     0.2960 C.3   1 <1>  -0.1600 
 22 C       -6.6800     0.3380    -0.5540 C.3   1 <1>  -0.1600 
 23 C       -9.2900     3.0720     1.8540 C.3   1 <1>   0.0400 
 24 H        0.5910     1.6010    -1.1410 H     1 <1>   0.1500 
 25 H       -1.2590     5.2280     1.7070 H     1 <1>   0.1500 
 26 H       -3.2310     3.9010     2.1180 H     1 <1>   0.0800 
 27 H       -3.1180     2.1720     1.8840 H     1 <1>   0.0800 
 28 H       -3.7540     2.5060    -0.4080 H     1 <1>   0.4500 
 29 H       -5.3670     1.8760     1.2710 H     1 <1>   0.0800 
 30 H       -5.7440     3.5640     1.4810 H     1 <1>   0.0800 
 31 H       -4.3550     5.2980     0.3080 H     1 <1>   0.0800 
 32 H       -3.0440     4.7840    -0.7300 H     1 <1>   0.0800 
 33 H        3.2500     5.0420     0.5960 H     1 <1>   0.0800 
 34 H        2.5950     5.8410    -0.8550 H     1 <1>   0.0800 
 35 H       -5.0310     5.4880    -2.0220 H     1 <1>   0.0800 
 36 H       -4.6090     3.8360    -2.3300 H     1 <1>   0.0800 
 37 H       -8.5610     2.7490    -0.5140 H     1 <1>   0.0800 
 38 H       -7.0390     4.0110    -2.0410 H     1 <1>   0.0800 
 39 H       -6.8340     4.8520    -0.5370 H     1 <1>   0.0800 
 40 H       -6.6390     1.6510    -2.2300 H     1 <1>   0.0800 
 41 H       -5.0630     1.4130    -1.5230 H     1 <1>   0.0800 
 42 H       -7.7170     0.5730     1.3200 H     1 <1>   0.0800 
 43 H       -8.7760     0.5110    -0.0770 H     1 <1>   0.0800 
 44 H       -5.9300    -0.0920     0.0890 H     1 <1>   0.0800 
 45 H       -7.0160    -0.4210    -1.2410 H     1 <1>   0.0800 
 46 H       -9.3040     3.5630     2.8110 H     1 <1>   0.0800 
 47 H       -9.6760     2.0730     1.9580 H     1 <1>   0.0800 
 48 H       -9.8830     3.6340     1.1530 H     1 <1>   0.0800 
@<TRIPOS>BOND
  1   1   2  1   
  2   2   3  ar  
  3   2   4  ar  
  4   3   5  ar  
  5   3   6  1   
  6   4   7  ar  
  7   4  24  1   
  8   5   8  ar  
  9   5  25  1   
 10   6   9  1   
 11   6  26  1   
 12   6  27  1   
 13   7   8  ar  
 14   7  10  1   
 15   8  11  1   
 16   9  12  1   
 17   9  13  1   
 18   9  28  1   
 19  10  14  1   
 20  11  14  1   
 21  12  15  1   
 22  12  29  1   
 23  12  30  1   
 24  13  16  1   
 25  13  31  1   
 26  13  32  1   
 27  14  33  1   
 28  14  34  1   
 29  15  17  1   
 30  15  18  1   
 31  15  19  1   
 32  16  18  1   
 33  16  35  1   
 34  16  36  1   
 35  17  20  1   
 36  17  21  1   
 37  17  37  1   
 38  18  38  1   
 39  18  39  1   
 40  19  22  1   
 41  19  40  1   
 42  19  41  1   
 43  20  23  1   
 44  21  22  1   
 45  21  42  1   
 46  21  43  1   
 47  22  44  1   
 48  22  45  1   
 49  23  46  1   
 50  23  47  1   
 51  23  48  1   
@<TRIPOS>SUBSTRUCTURE
  1 ****   9 GROUP 4 **** **** 0

# MOE 2024.06 (io_trps.svl 2023.06)
