@<TRIPOS>MOLECULE
NONAME
55 57 1 0 0 
SMALL
USER_CHARGES


@<TRIPOS>ATOM
  1 O       -1.0270     0.4260    -1.3000 O.2   1 <1>  -0.5700 
  2 C       -1.2310     0.5580    -0.1180 C.2   1 <1>   0.5690 
  3 N       -1.7230    -0.4620     0.6270 N.am  1 <1>  -0.7300 
  4 C       -0.9520     1.8910     0.5790 C.3   1 <1>  -0.0190 
  5 C       -2.0730    -1.7970     0.0970 C.3   1 <1>   0.2200 
  6 C       -2.2640     2.6380     0.8860 C.3   1 <1>  -0.1600 
  7 C       -0.0080     2.8050    -0.2290 C.3   1 <1>  -0.1600 
  8 C       -3.5730    -1.8600    -0.1380 C.3   1 <1>  -0.0800 
  9 C       -1.8890    -2.8410     1.1910 C.3   1 <1>   0.1200 
 10 C       -2.0010     3.9770     1.5790 C.3   1 <1>   0.1400 
 11 C        0.2250     4.1470     0.4700 C.3   1 <1>   0.1400 
 12 C       -4.1100    -2.2420     1.2490 C.3   1 <1>   0.1200 
 13 C       -3.9310    -2.9030    -1.2130 C.3   1 <1>  -0.0170 
 14 O       -3.0360    -2.7600     1.9810 O.3   1 <1>  -0.5600 
 15 N       -1.0870     4.8020     0.7400 N.am  1 <1>  -0.6600 
 16 C       -5.4300    -2.9520    -1.4660 C.ar  1 <1>  -0.1440 
 17 C       -1.5010     6.0190     0.2420 C.2   1 <1>   0.5690 
 18 C       -6.0780    -1.9610    -2.1760 C.ar  1 <1>  -0.1500 
 19 C       -6.2210    -3.9850    -1.0050 C.ar  1 <1>  -0.1500 
 20 O       -2.6240     6.4230     0.4450 O.2   1 <1>  -0.5700 
 21 C       -0.5610     6.9080    -0.5960 C.3   1 <1>  -0.0190 
 22 C       -7.4450    -2.0460    -2.3810 C.ar  1 <1>   0.1600 
 23 C       -7.5820    -3.9750    -1.2640 C.ar  1 <1>   0.1600 
 24 C       -0.9160     8.4050    -0.5130 C.3   1 <1>  -0.2400 
 25 C       -0.5540     6.4720    -2.0720 C.3   1 <1>  -0.2400 
 26 N       -8.2130    -3.0290    -1.9390 N.ar  1 <1>  -0.6200 
 27 H       -1.9490    -0.3330     1.6150 H     1 <1>   0.3700 
 28 H       -0.4670     1.6650     1.5120 H     1 <1>   0.0800 
 29 H       -1.4920    -2.0150    -0.7840 H     1 <1>   0.0800 
 30 H       -2.8920     2.0350     1.5170 H     1 <1>   0.0800 
 31 H       -2.8000     2.8220    -0.0290 H     1 <1>   0.0800 
 32 H       -0.4280     2.9920    -1.2020 H     1 <1>   0.0800 
 33 H        0.9360     2.3090    -0.3730 H     1 <1>   0.0800 
 34 H       -3.9560    -0.9040    -0.4480 H     1 <1>   0.0800 
 35 H       -1.0170    -2.6640     1.7950 H     1 <1>   0.0800 
 36 H       -1.8480    -3.8310     0.7720 H     1 <1>   0.0800 
 37 H       -1.5420     3.8140     2.5390 H     1 <1>   0.0800 
 38 H       -2.9360     4.4840     1.7450 H     1 <1>   0.0800 
 39 H        0.8550     4.7560    -0.1510 H     1 <1>   0.0800 
 40 H        0.7350     3.9900     1.4050 H     1 <1>   0.0800 
 41 H       -4.8910    -2.9800     1.2090 H     1 <1>   0.0800 
 42 H       -4.4700    -1.3730     1.7710 H     1 <1>   0.0800 
 43 H       -3.5830    -3.8780    -0.9200 H     1 <1>   0.0800 
 44 H       -3.4370    -2.6460    -2.1350 H     1 <1>   0.0800 
 45 H       -5.5320    -1.1240    -2.5730 H     1 <1>   0.1500 
 46 H       -5.7940    -4.7980    -0.4470 H     1 <1>   0.1500 
 47 H        0.4320     6.8160    -0.1990 H     1 <1>   0.0800 
 48 H       -7.9320    -1.2630    -2.9370 H     1 <1>   0.1500 
 49 H       -8.1820    -4.7890    -0.8960 H     1 <1>   0.1500 
 50 H       -1.8930     8.5830    -0.9270 H     1 <1>   0.0800 
 51 H       -0.1980     8.9960    -1.0530 H     1 <1>   0.0800 
 52 H       -0.9220     8.7250     0.5140 H     1 <1>   0.0800 
 53 H       -1.5370     6.5870    -2.4940 H     1 <1>   0.0800 
 54 H       -0.2680     5.4400    -2.1600 H     1 <1>   0.0800 
 55 H        0.1380     7.0690    -2.6390 H     1 <1>   0.0800 
@<TRIPOS>BOND
  1   1   2  2   
  2   2   3  am  
  3   2   4  1   
  4   3   5  1   
  5   3  27  1   
  6   4   6  1   
  7   4   7  1   
  8   4  28  1   
  9   5   8  1   
 10   5   9  1   
 11   5  29  1   
 12   6  10  1   
 13   6  30  1   
 14   6  31  1   
 15   7  11  1   
 16   7  32  1   
 17   7  33  1   
 18   8  12  1   
 19   8  13  1   
 20   8  34  1   
 21   9  14  1   
 22   9  35  1   
 23   9  36  1   
 24  10  15  1   
 25  10  37  1   
 26  10  38  1   
 27  11  15  1   
 28  11  39  1   
 29  11  40  1   
 30  12  14  1   
 31  12  41  1   
 32  12  42  1   
 33  13  16  1   
 34  13  43  1   
 35  13  44  1   
 36  15  17  am  
 37  16  18  ar  
 38  16  19  ar  
 39  17  20  2   
 40  17  21  1   
 41  18  22  ar  
 42  18  45  1   
 43  19  23  ar  
 44  19  46  1   
 45  21  24  1   
 46  21  25  1   
 47  21  47  1   
 48  22  26  ar  
 49  22  48  1   
 50  23  26  ar  
 51  23  49  1   
 52  24  50  1   
 53  24  51  1   
 54  24  52  1   
 55  25  53  1   
 56  25  54  1   
 57  25  55  1   
@<TRIPOS>SUBSTRUCTURE
  1 ****   2 GROUP 4 **** **** 0

# MOE 2024.06 (io_trps.svl 2023.06)
