@<TRIPOS>MOLECULE
NONAME
52 56 1 0 0 
SMALL
USER_CHARGES


@<TRIPOS>ATOM
  1 O       -2.1170    -0.1180     0.9390 O.2   1 <1>  -0.5700 
  2 C       -2.0290     0.2170    -0.2150 C.2   1 <1>   0.5690 
  3 N       -2.0490    -0.6810    -1.2390 N.am  1 <1>  -0.7300 
  4 C       -1.9250     1.6950    -0.5560 C.3   1 <1>  -0.0190 
  5 C       -2.1310    -2.1720    -1.1600 C.3   1 <1>   0.2200 
  6 C       -0.8200     2.4480     0.2110 C.3   1 <1>  -0.0170 
  7 C       -3.2250     2.4730    -0.2830 C.3   1 <1>  -0.0170 
  8 C       -3.4580    -2.7250    -0.6220 C.3   1 <1>  -0.0800 
  9 C       -1.0740    -2.7850    -0.2270 C.3   1 <1>   0.1200 
 10 C       -1.3740     3.8500     0.2850 C.ar  1 <1>  -0.1440 
 11 C       -2.7190     3.8640     0.0090 C.ar  1 <1>  -0.1440 
 12 C       -3.0560    -3.2670     0.7470 C.3   1 <1>   0.1200 
 13 C       -4.6600    -1.7580    -0.5720 C.3   1 <1>  -0.0170 
 14 O       -1.7500    -3.7010     0.5760 O.3   1 <1>  -0.5600 
 15 C       -0.7000     5.0200     0.5810 C.ar  1 <1>  -0.1500 
 16 C       -3.4310     5.0500     0.0200 C.ar  1 <1>  -0.1500 
 17 C       -6.0230    -2.3630    -0.2120 C.ar  1 <1>  -0.1440 
 18 C       -1.4040     6.2140     0.5940 C.ar  1 <1>  -0.1500 
 19 C       -2.7640     6.2290     0.3150 C.ar  1 <1>  -0.1500 
 20 C       -7.1240    -1.5060     0.0410 C.ar  1 <1>   0.0000 
 21 C       -6.2570    -3.7080    -0.1280 C.ar  1 <1>  -0.1500 
 22 C       -8.3670    -2.0990     0.3730 C.ar  1 <1>   0.3100 
 23 C       -7.0660    -0.0930    -0.0190 C.ar  1 <1>  -0.1500 
 24 C       -7.5270    -4.1910     0.2070 C.ar  1 <1>   0.1600 
 25 N       -8.5520    -3.4400     0.4520 N.ar  1 <1>  -0.6200 
 26 C       -9.4720    -1.2710     0.6320 C.ar  1 <1>  -0.1500 
 27 C       -8.1620     0.6860     0.2380 C.ar  1 <1>  -0.1500 
 28 C       -9.3810     0.0920     0.5690 C.ar  1 <1>  -0.1500 
 29 H       -1.9780    -0.3230    -2.1920 H     1 <1>   0.3700 
 30 H       -1.7050     1.8000    -1.6030 H     1 <1>   0.0800 
 31 H       -1.9710    -2.5610    -2.1500 H     1 <1>   0.0800 
 32 H        0.1210     2.4130    -0.3090 H     1 <1>   0.0800 
 33 H       -0.7030     2.0630     1.2090 H     1 <1>   0.0800 
 34 H       -3.7270     2.0910     0.5890 H     1 <1>   0.0800 
 35 H       -3.8870     2.4550    -1.1290 H     1 <1>   0.0800 
 36 H       -3.7110    -3.5650    -1.2430 H     1 <1>   0.0800 
 37 H       -0.6240    -2.0510     0.4170 H     1 <1>   0.0800 
 38 H       -0.3130    -3.3120    -0.7740 H     1 <1>   0.0800 
 39 H       -3.6630    -4.0920     1.0750 H     1 <1>   0.0800 
 40 H       -3.0540    -2.4910     1.4950 H     1 <1>   0.0800 
 41 H       -4.7570    -1.2790    -1.5300 H     1 <1>   0.0800 
 42 H       -4.4410    -0.9990     0.1560 H     1 <1>   0.0800 
 43 H        0.3530     5.0050     0.7980 H     1 <1>   0.1500 
 44 H       -4.4840     5.0590    -0.1950 H     1 <1>   0.1500 
 45 H       -0.8950     7.1330     0.8220 H     1 <1>   0.1500 
 46 H       -3.3030     7.1590     0.3280 H     1 <1>   0.1500 
 47 H       -5.4990    -4.4450    -0.3100 H     1 <1>   0.1500 
 48 H       -6.1420     0.3900    -0.2720 H     1 <1>   0.1500 
 49 H       -7.6600    -5.2580     0.2640 H     1 <1>   0.1500 
 50 H      -10.3990    -1.7520     0.8830 H     1 <1>   0.1500 
 51 H       -8.1000     1.7600     0.1910 H     1 <1>   0.1500 
 52 H      -10.2370     0.7140     0.7700 H     1 <1>   0.1500 
@<TRIPOS>BOND
  1   1   2  2   
  2   2   3  am  
  3   2   4  1   
  4   3   5  1   
  5   3  29  1   
  6   4   6  1   
  7   4   7  1   
  8   4  30  1   
  9   5   8  1   
 10   5   9  1   
 11   5  31  1   
 12   6  10  1   
 13   6  32  1   
 14   6  33  1   
 15   7  11  1   
 16   7  34  1   
 17   7  35  1   
 18   8  12  1   
 19   8  13  1   
 20   8  36  1   
 21   9  14  1   
 22   9  37  1   
 23   9  38  1   
 24  10  11  ar  
 25  10  15  ar  
 26  11  16  ar  
 27  12  14  1   
 28  12  39  1   
 29  12  40  1   
 30  13  17  1   
 31  13  41  1   
 32  13  42  1   
 33  15  18  ar  
 34  15  43  1   
 35  16  19  ar  
 36  16  44  1   
 37  17  20  ar  
 38  17  21  ar  
 39  18  19  ar  
 40  18  45  1   
 41  19  46  1   
 42  20  22  ar  
 43  20  23  ar  
 44  21  24  ar  
 45  21  47  1   
 46  22  25  ar  
 47  22  26  ar  
 48  23  27  ar  
 49  23  48  1   
 50  24  25  ar  
 51  24  49  1   
 52  26  28  ar  
 53  26  50  1   
 54  27  28  ar  
 55  27  51  1   
 56  28  52  1   
@<TRIPOS>SUBSTRUCTURE
  1 ****  13 GROUP 4 **** **** 0

# MOE 2024.06 (io_trps.svl 2023.06)
