@<TRIPOS>MOLECULE
NONAME
40 42 1 0 0 
SMALL
USER_CHARGES


@<TRIPOS>ATOM
  1 CL       1.1340     1.0170    -0.8270 Cl    1 <1>  -0.1770 
  2 C        2.0890    -0.3060    -0.2000 C.ar  1 <1>   0.1770 
  3 C        3.1530    -0.0560     0.6650 C.ar  1 <1>   0.0860 
  4 C        1.7540    -1.5860    -0.6000 C.ar  1 <1>  -0.1500 
  5 C        3.5160     1.2800     1.0780 C.2   1 <1>   0.5440 
  6 C        3.8720    -1.1590     1.1260 C.ar  1 <1>  -0.1500 
  7 C        2.4860    -2.6630    -0.1320 C.ar  1 <1>  -0.1500 
  8 O        3.4420     1.5690     2.2580 O.2   1 <1>  -0.5700 
  9 N        3.9940     2.2340     0.1940 N.am  1 <1>  -0.6600 
 10 C        3.5460    -2.4460     0.7330 C.ar  1 <1>  -0.1500 
 11 C        4.2870     3.6120     0.7030 C.3   1 <1>   0.1400 
 12 C        4.4930     1.8640    -1.1690 C.3   1 <1>   0.1400 
 13 C        5.7930     3.8690     0.9750 C.3   1 <1>   0.4230 
 14 C        5.9590     2.2640    -1.4500 C.3   1 <1>  -0.0800 
 15 N        6.5290     4.4070    -0.2280 N.4   1 <1>  -0.9590 
 16 C        6.5620     2.6600     1.5750 C.3   1 <1>   0.1200 
 17 C        7.0190     1.5720    -0.5640 C.3   1 <1>   0.1200 
 18 C        6.1250     3.7840    -1.5240 C.3   1 <1>   0.3430 
 19 C        6.4300     5.8970    -0.3100 C.3   1 <1>   0.2630 
 20 O        6.6390     1.5050     0.7740 O.3   1 <1>  -0.5600 
 21 H        0.9250    -1.7380    -1.2680 H     1 <1>   0.1500 
 22 H        4.6940    -0.9950     1.8020 H     1 <1>   0.1500 
 23 H        2.2330    -3.6650    -0.4350 H     1 <1>   0.1500 
 24 H        4.1170    -3.2810     1.1030 H     1 <1>   0.1500 
 25 H        3.8970     4.3390     0.0140 H     1 <1>   0.0800 
 26 H        3.7580     3.7690     1.6270 H     1 <1>   0.0800 
 27 H        4.4160     0.8000    -1.3100 H     1 <1>   0.0800 
 28 H        3.8470     2.3220    -1.8980 H     1 <1>   0.0800 
 29 H        5.8260     4.6360     1.7300 H     1 <1>   0.0800 
 30 H        6.1510     1.9210    -2.4510 H     1 <1>   0.0800 
 31 H        7.5150     4.1560    -0.0740 H     1 <1>   0.4500 
 32 H        6.0700     2.3600     2.4850 H     1 <1>   0.0800 
 33 H        7.5660     2.9480     1.8310 H     1 <1>   0.0800 
 34 H        7.9830     2.0450    -0.6320 H     1 <1>   0.0800 
 35 H        7.1300     0.5510    -0.8900 H     1 <1>   0.0800 
 36 H        5.1960     4.2140    -1.8620 H     1 <1>   0.0800 
 37 H        6.8750     4.0120    -2.2640 H     1 <1>   0.0800 
 38 H        5.4060     6.1980    -0.4640 H     1 <1>   0.0800 
 39 H        7.0230     6.2680    -1.1310 H     1 <1>   0.0800 
 40 H        6.7880     6.3490     0.6010 H     1 <1>   0.0800 
@<TRIPOS>BOND
  1   1   2  1   
  2   2   3  ar  
  3   2   4  ar  
  4   3   5  1   
  5   3   6  ar  
  6   4   7  ar  
  7   4  21  1   
  8   5   8  2   
  9   5   9  am  
 10   6  10  ar  
 11   6  22  1   
 12   7  10  ar  
 13   7  23  1   
 14   9  11  1   
 15   9  12  1   
 16  10  24  1   
 17  11  13  1   
 18  11  25  1   
 19  11  26  1   
 20  12  14  1   
 21  12  27  1   
 22  12  28  1   
 23  13  15  1   
 24  13  16  1   
 25  13  29  1   
 26  14  17  1   
 27  14  18  1   
 28  14  30  1   
 29  15  18  1   
 30  15  19  1   
 31  15  31  1   
 32  16  20  1   
 33  16  32  1   
 34  16  33  1   
 35  17  20  1   
 36  17  34  1   
 37  17  35  1   
 38  18  36  1   
 39  18  37  1   
 40  19  38  1   
 41  19  39  1   
 42  19  40  1   
@<TRIPOS>SUBSTRUCTURE
  1 ****   9 GROUP 4 **** **** 0

# MOE 2024.06 (io_trps.svl 2023.06)
