@<TRIPOS>MOLECULE
NONAME
52 54 1 0 0 
SMALL
USER_CHARGES


@<TRIPOS>ATOM
  1 S       -0.8190    -0.1870     1.7280 S.o2  1 <1>   1.2040 
  2 O       -1.1420    -0.8780     2.9560 O.2   1 <1>  -0.6500 
  3 O       -0.8560     1.2570     1.6790 O.2   1 <1>  -0.6500 
  4 C       -1.8280    -0.8650     0.3860 C.ar  1 <1>  -0.0090 
  5 C        0.8230    -0.6910     1.2540 C.3   1 <1>  -0.1350 
  6 C       -2.1670    -2.2110     0.3570 C.ar  1 <1>  -0.1500 
  7 C       -2.2650    -0.0630    -0.6610 C.ar  1 <1>  -0.1500 
  8 C       -2.9200    -2.7780    -0.6710 C.ar  1 <1>   0.0860 
  9 C       -3.0110    -0.5910    -1.6980 C.ar  1 <1>  -0.1500 
 10 C       -3.2460    -4.1940    -0.6650 C.2   1 <1>   0.5440 
 11 C       -3.3300    -1.9350    -1.7030 C.ar  1 <1>  -0.1500 
 12 O       -2.4640    -5.0030    -0.1990 O.2   1 <1>  -0.5700 
 13 N       -4.4410    -4.6790    -1.1500 N.am  1 <1>  -0.6600 
 14 C       -4.5600    -6.1240    -1.4790 C.3   1 <1>   0.1400 
 15 C       -5.7330    -4.0410    -0.7760 C.3   1 <1>   0.1400 
 16 C       -5.0870    -6.8770    -0.2370 C.3   1 <1>   0.4230 
 17 C       -6.2910    -4.7710     0.4540 C.3   1 <1>  -0.1600 
 18 N       -5.0540    -8.3930    -0.3730 N.4   1 <1>  -0.9590 
 19 C       -6.4530    -6.3080     0.2530 C.3   1 <1>   0.0000 
 20 C       -5.9230    -9.1150     0.6130 C.3   1 <1>   0.3430 
 21 C       -5.2900    -8.9260    -1.7540 C.3   1 <1>   0.2630 
 22 C       -6.8160    -6.9550     1.6230 C.3   1 <1>  -0.1600 
 23 C       -7.5630    -6.6020    -0.7960 C.3   1 <1>   0.1200 
 24 C       -6.1020    -8.2950     1.8890 C.3   1 <1>  -0.1600 
 25 O       -8.7420    -5.9410    -0.4940 O.3   1 <1>  -0.6800 
 26 H        0.8840    -1.7610     1.1940 H     1 <1>   0.0800 
 27 H        1.5340    -0.3490     1.9800 H     1 <1>   0.0800 
 28 H        1.0810    -0.2750     0.3000 H     1 <1>   0.0800 
 29 H       -1.8400    -2.8480     1.1630 H     1 <1>   0.1500 
 30 H       -2.0220     0.9880    -0.6640 H     1 <1>   0.1500 
 31 H       -3.3400     0.0460    -2.5030 H     1 <1>   0.1500 
 32 H       -3.9020    -2.3400    -2.5200 H     1 <1>   0.1500 
 33 H       -5.2170    -6.2330    -2.3220 H     1 <1>   0.0800 
 34 H       -3.5910    -6.5050    -1.7530 H     1 <1>   0.0800 
 35 H       -5.5870    -3.0000    -0.5380 H     1 <1>   0.0800 
 36 H       -6.4230    -4.0980    -1.6010 H     1 <1>   0.0800 
 37 H       -4.3850    -6.6330     0.5450 H     1 <1>   0.0800 
 38 H       -5.6160    -4.5800     1.2700 H     1 <1>   0.0800 
 39 H       -7.2310    -4.3210     0.7250 H     1 <1>   0.0800 
 40 H       -4.0830    -8.6380    -0.1240 H     1 <1>   0.4500 
 41 H       -6.8950    -9.2910     0.1820 H     1 <1>   0.0800 
 42 H       -5.4880   -10.0730     0.8520 H     1 <1>   0.0800 
 43 H       -6.2770    -8.6610    -2.0980 H     1 <1>   0.0800 
 44 H       -5.2030   -10.0010    -1.7590 H     1 <1>   0.0800 
 45 H       -4.5640    -8.5270    -2.4440 H     1 <1>   0.0800 
 46 H       -6.5630    -6.2930     2.4350 H     1 <1>   0.0800 
 47 H       -7.8790    -7.1090     1.6890 H     1 <1>   0.0800 
 48 H       -7.7880    -7.6510    -0.8500 H     1 <1>   0.0800 
 49 H       -7.2760    -6.2660    -1.7760 H     1 <1>   0.0800 
 50 H       -6.6760    -8.8650     2.6000 H     1 <1>   0.0800 
 51 H       -5.1370    -8.1190     2.3330 H     1 <1>   0.0800 
 52 H       -9.1200    -6.2270     0.3610 H     1 <1>   0.4000 
@<TRIPOS>BOND
  1   1   2  2   
  2   1   3  2   
  3   1   4  1   
  4   1   5  1   
  5   4   6  ar  
  6   4   7  ar  
  7   5  26  1   
  8   5  27  1   
  9   5  28  1   
 10   6   8  ar  
 11   6  29  1   
 12   7   9  ar  
 13   7  30  1   
 14   8  10  1   
 15   8  11  ar  
 16   9  11  ar  
 17   9  31  1   
 18  10  12  2   
 19  10  13  am  
 20  11  32  1   
 21  13  14  1   
 22  13  15  1   
 23  14  16  1   
 24  14  33  1   
 25  14  34  1   
 26  15  17  1   
 27  15  35  1   
 28  15  36  1   
 29  16  18  1   
 30  16  19  1   
 31  16  37  1   
 32  17  19  1   
 33  17  38  1   
 34  17  39  1   
 35  18  20  1   
 36  18  21  1   
 37  18  40  1   
 38  19  22  1   
 39  19  23  1   
 40  20  24  1   
 41  20  41  1   
 42  20  42  1   
 43  21  43  1   
 44  21  44  1   
 45  21  45  1   
 46  22  24  1   
 47  22  46  1   
 48  22  47  1   
 49  23  25  1   
 50  23  48  1   
 51  23  49  1   
 52  24  50  1   
 53  24  51  1   
 54  25  52  1   
@<TRIPOS>SUBSTRUCTURE
  1 ****  10 GROUP 4 **** **** 0

# MOE 2024.06 (io_trps.svl 2023.06)
