@<TRIPOS>MOLECULE
NONAME
26 27 1 0 0 
SMALL
USER_CHARGES


@<TRIPOS>ATOM
  1 O       -4.5090     3.5820     1.0470 O.3   1 <1>  -0.6800 
  2 C       -4.9140     2.2420     1.0190 C.3   1 <1>   0.2000 
  3 C       -3.9240     1.3850     0.1770 C.3   1 <1>   0.5030 
  4 C       -6.2820     2.1430     0.3270 C.3   1 <1>  -0.1600 
  5 N       -3.1490     2.2550    -0.7310 N.4   1 <1>  -0.9060 
  6 C       -2.8650     0.6290     0.9790 C.3   1 <1>  -0.1600 
  7 C       -4.8190     0.4940    -0.6850 C.3   1 <1>  -0.1600 
  8 C       -6.0630     1.3420    -0.9620 C.3   1 <1>  -0.1600 
  9 C       -1.7230     1.8500    -0.7540 C.3   1 <1>   0.3430 
 10 C       -1.6590     0.5580     0.0490 C.3   1 <1>  -0.1600 
 11 H       -5.1310     4.1120     1.5930 H     1 <1>   0.4000 
 12 H       -4.9800     1.8770     2.0310 H     1 <1>   0.0800 
 13 H       -6.9510     1.5910     0.9650 H     1 <1>   0.0800 
 14 H       -6.7220     3.1040     0.1210 H     1 <1>   0.0800 
 15 H       -3.5890     2.2720    -1.6520 H     1 <1>   0.4500 
 16 H       -3.2700     3.1940    -0.3100 H     1 <1>   0.4500 
 17 H       -2.6090     1.1980     1.8560 H     1 <1>   0.0800 
 18 H       -3.2000    -0.3450     1.2920 H     1 <1>   0.0800 
 19 H       -4.3400     0.1480    -1.5840 H     1 <1>   0.0800 
 20 H       -5.1210    -0.3670    -0.1110 H     1 <1>   0.0800 
 21 H       -6.9190     0.7340    -1.2050 H     1 <1>   0.0800 
 22 H       -5.8790     2.0170    -1.7810 H     1 <1>   0.0800 
 23 H       -1.3680     1.7020    -1.7610 H     1 <1>   0.0800 
 24 H       -1.1240     2.6070    -0.2730 H     1 <1>   0.0800 
 25 H       -1.7500    -0.2810    -0.6200 H     1 <1>   0.0800 
 26 H       -0.7300     0.4710     0.5870 H     1 <1>   0.0800 
@<TRIPOS>BOND
  1   1   2  1   
  2   1  11  1   
  3   2   3  1   
  4   2   4  1   
  5   2  12  1   
  6   3   5  1   
  7   3   6  1   
  8   3   7  1   
  9   4   8  1   
 10   4  13  1   
 11   4  14  1   
 12   5   9  1   
 13   5  15  1   
 14   5  16  1   
 15   6  10  1   
 16   6  17  1   
 17   6  18  1   
 18   7   8  1   
 19   7  19  1   
 20   7  20  1   
 21   8  21  1   
 22   8  22  1   
 23   9  10  1   
 24   9  23  1   
 25   9  24  1   
 26  10  25  1   
 27  10  26  1   
@<TRIPOS>SUBSTRUCTURE
  1 ****   3 GROUP 4 **** **** 0

# MOE 2024.06 (io_trps.svl 2023.06)
