@<TRIPOS>MOLECULE
NONAME
46 48 1 0 0 
SMALL
USER_CHARGES


@<TRIPOS>ATOM
  1 CL      -0.9000    -0.8750     1.7320 Cl    1 <1>  -0.1770 
  2 C       -2.0020    -1.2490     0.4340 C.ar  1 <1>   0.1770 
  3 C       -2.4090    -2.5550     0.2530 C.ar  1 <1>  -0.1500 
  4 C       -2.4490    -0.2330    -0.3880 C.ar  1 <1>  -0.1500 
  5 C       -3.3000    -2.8850    -0.7700 C.ar  1 <1>   0.0860 
  6 C       -3.3220    -0.5410    -1.4170 C.ar  1 <1>  -0.1500 
  7 C       -3.7630    -4.2490    -0.9650 C.2   1 <1>   0.5440 
  8 C       -3.7350    -1.8500    -1.6010 C.ar  1 <1>  -0.1500 
  9 O       -4.1390    -4.6340    -2.0550 O.2   1 <1>  -0.5700 
 10 N       -3.8690    -5.1400     0.0780 N.am  1 <1>  -0.6600 
 11 C       -4.7020    -4.8010     1.2700 C.3   1 <1>   0.1400 
 12 C       -3.8180    -6.6030    -0.2100 C.3   1 <1>   0.1400 
 13 C       -6.1350    -5.3800     1.1390 C.3   1 <1>   0.4230 
 14 C       -5.2430    -7.1480    -0.4030 C.3   1 <1>   0.3430 
 15 N       -6.1280    -6.8630     0.7940 N.4   1 <1>  -0.9590 
 16 C       -6.9650    -4.5780     0.1090 C.3   1 <1>   0.1200 
 17 C       -7.5470    -7.3360     0.6100 C.3   1 <1>   0.4230 
 18 O       -8.2590    -5.0990     0.0230 O.3   1 <1>  -0.5600 
 19 C       -8.3230    -6.4370    -0.3830 C.3   1 <1>   0.1200 
 20 C       -7.5780    -8.8230     0.2200 C.3   1 <1>  -0.1600 
 21 C       -8.9710    -9.4470     0.3970 C.3   1 <1>  -0.1600 
 22 C       -8.9420   -10.9440     0.0790 C.3   1 <1>  -0.2400 
 23 H       -2.0250    -3.3150     0.9080 H     1 <1>   0.1500 
 24 H       -2.1160     0.7770    -0.2260 H     1 <1>   0.1500 
 25 H       -3.6760     0.2360    -2.0740 H     1 <1>   0.1500 
 26 H       -4.4090    -2.0780    -2.4110 H     1 <1>   0.1500 
 27 H       -4.2330    -5.1970     2.1530 H     1 <1>   0.0800 
 28 H       -4.7600    -3.7320     1.3900 H     1 <1>   0.0800 
 29 H       -3.2460    -6.7770    -1.1070 H     1 <1>   0.0800 
 30 H       -3.3240    -7.1170     0.5960 H     1 <1>   0.0800 
 31 H       -6.6220    -5.2480     2.0910 H     1 <1>   0.0800 
 32 H       -5.1870    -8.2090    -0.5780 H     1 <1>   0.0800 
 33 H       -5.6590    -6.6890    -1.2850 H     1 <1>   0.0800 
 34 H       -5.7380    -7.3670     1.5970 H     1 <1>   0.4500 
 35 H       -6.5190    -4.6010    -0.8710 H     1 <1>   0.0800 
 36 H       -7.0510    -3.5510     0.4180 H     1 <1>   0.0800 
 37 H       -8.0520    -7.2490     1.5590 H     1 <1>   0.0800 
 38 H       -9.3630    -6.7110    -0.4040 H     1 <1>   0.0800 
 39 H       -7.9300    -6.5170    -1.3820 H     1 <1>   0.0800 
 40 H       -7.2780    -8.9460    -0.8070 H     1 <1>   0.0800 
 41 H       -6.8920    -9.3660     0.8460 H     1 <1>   0.0800 
 42 H       -9.3100    -9.3150     1.4120 H     1 <1>   0.0800 
 43 H       -9.6860    -8.9740    -0.2560 H     1 <1>   0.0800 
 44 H       -8.2670   -11.4630     0.7360 H     1 <1>   0.0800 
 45 H       -8.6350   -11.1130    -0.9390 H     1 <1>   0.0800 
 46 H       -9.9250   -11.3660     0.2070 H     1 <1>   0.0800 
@<TRIPOS>BOND
  1   1   2  1   
  2   2   3  ar  
  3   2   4  ar  
  4   3   5  ar  
  5   3  23  1   
  6   4   6  ar  
  7   4  24  1   
  8   5   7  1   
  9   5   8  ar  
 10   6   8  ar  
 11   6  25  1   
 12   7   9  2   
 13   7  10  am  
 14   8  26  1   
 15  10  11  1   
 16  10  12  1   
 17  11  13  1   
 18  11  27  1   
 19  11  28  1   
 20  12  14  1   
 21  12  29  1   
 22  12  30  1   
 23  13  15  1   
 24  13  16  1   
 25  13  31  1   
 26  14  15  1   
 27  14  32  1   
 28  14  33  1   
 29  15  17  1   
 30  15  34  1   
 31  16  18  1   
 32  16  35  1   
 33  16  36  1   
 34  17  19  1   
 35  17  20  1   
 36  17  37  1   
 37  18  19  1   
 38  19  38  1   
 39  19  39  1   
 40  20  21  1   
 41  20  40  1   
 42  20  41  1   
 43  21  22  1   
 44  21  42  1   
 45  21  43  1   
 46  22  44  1   
 47  22  45  1   
 48  22  46  1   
@<TRIPOS>SUBSTRUCTURE
  1 ****  10 GROUP 4 **** **** 0

# MOE 2024.06 (io_trps.svl 2023.06)
