@<TRIPOS>MOLECULE
NONAME
43 45 1 0 0 
SMALL
USER_CHARGES


@<TRIPOS>ATOM
  1 O       -0.2000    -0.0920     0.8970 O.2   1 <1>  -0.5700 
  2 C        0.7920    -0.7020     0.5790 C.2   1 <1>   0.5690 
  3 N        1.9680    -0.1140     0.2180 N.am  1 <1>  -0.4930 
  4 C        0.7190    -2.2130     0.5680 C.3   1 <1>  -0.0990 
  5 C        2.2810     1.2660     0.1200 C.2   1 <1>   0.0630 
  6 C       -0.3690    -2.7030    -0.3980 C.3   1 <1>   0.0200 
  7 C        3.5010     1.8250    -0.2710 C.2   1 <1>   0.1080 
  8 C        1.4940     2.3310     0.3720 C.2   1 <1>  -0.3020 
  9 C       -0.3640    -4.2150    -0.4970 C.2   1 <1>   0.2980 
 10 N        3.4740     3.1210    -0.2640 N.2   1 <1>  -0.7070 
 11 C        4.7390     1.0520    -0.6670 C.3   1 <1>  -0.0590 
 12 N        2.2300     3.4350     0.1360 N.pl3 1 <1>   0.3140 
 13 O        0.6250    -4.7980    -1.1230 O.3   1 <1>  -0.0190 
 14 N       -1.2400    -4.9930    -0.0160 N.2   1 <1>  -0.5650 
 15 C        1.7850     4.8250     0.2770 C.3   1 <1>   0.0160 
 16 N        0.3570    -6.0610    -1.0270 N.2   1 <1>  -0.4100 
 17 C       -0.7480    -6.1820    -0.3790 C.2   1 <1>   0.4620 
 18 C       -1.3830    -7.4450    -0.0430 C.ar  1 <1>   0.0540 
 19 C       -2.7530    -7.7030    -0.2090 C.ar  1 <1>  -0.1430 
 20 C       -0.5910    -8.4720     0.4720 C.ar  1 <1>  -0.1500 
 21 C       -3.2820    -8.9340     0.1490 C.ar  1 <1>  -0.1500 
 22 C       -3.6980    -6.6590    -0.7910 C.3   1 <1>  -0.0970 
 23 C       -1.1220    -9.6980     0.8240 C.ar  1 <1>  -0.1500 
 24 C       -2.4740    -9.9300     0.6650 C.ar  1 <1>  -0.1500 
 25 H        2.7390    -0.7350    -0.0140 H     1 <1>   0.3700 
 26 H        0.4890    -2.5510     1.5620 H     1 <1>   0.0800 
 27 H        1.6700    -2.6250     0.2850 H     1 <1>   0.0800 
 28 H       -0.2110    -2.2890    -1.3780 H     1 <1>   0.0800 
 29 H       -1.3340    -2.3770    -0.0500 H     1 <1>   0.0800 
 30 H        0.4720     2.3570     0.6990 H     1 <1>   0.1500 
 31 H        5.0470     0.4150     0.1400 H     1 <1>   0.0800 
 32 H        5.5380     1.7380    -0.8900 H     1 <1>   0.0800 
 33 H        4.5380     0.4620    -1.5410 H     1 <1>   0.0800 
 34 H        1.3060     4.9480     1.2290 H     1 <1>   0.0800 
 35 H        1.0970     5.0540    -0.5150 H     1 <1>   0.0800 
 36 H        2.6390     5.4750     0.2140 H     1 <1>   0.0800 
 37 H        0.4640    -8.3020     0.6000 H     1 <1>   0.1500 
 38 H       -4.3330    -9.1290     0.0270 H     1 <1>   0.1500 
 39 H       -3.2690    -6.2170    -1.6730 H     1 <1>   0.0800 
 40 H       -3.8770    -5.8850    -0.0660 H     1 <1>   0.0800 
 41 H       -4.6410    -7.0960    -1.0620 H     1 <1>   0.0800 
 42 H       -0.4850   -10.4690     1.2220 H     1 <1>   0.1500 
 43 H       -2.8960   -10.8810     0.9390 H     1 <1>   0.1500 
@<TRIPOS>BOND
  1   1   2  2   
  2   2   3  am  
  3   2   4  1   
  4   3   5  1   
  5   3  25  1   
  6   4   6  1   
  7   4  26  1   
  8   4  27  1   
  9   5   7  1   
 10   5   8  2   
 11   6   9  1   
 12   6  28  1   
 13   6  29  1   
 14   7  10  2   
 15   7  11  1   
 16   8  12  1   
 17   8  30  1   
 18   9  13  1   
 19   9  14  2   
 20  10  12  1   
 21  11  31  1   
 22  11  32  1   
 23  11  33  1   
 24  12  15  1   
 25  13  16  1   
 26  14  17  1   
 27  15  34  1   
 28  15  35  1   
 29  15  36  1   
 30  16  17  2   
 31  17  18  1   
 32  18  19  ar  
 33  18  20  ar  
 34  19  21  ar  
 35  19  22  1   
 36  20  23  ar  
 37  20  37  1   
 38  21  24  ar  
 39  21  38  1   
 40  22  39  1   
 41  22  40  1   
 42  22  41  1   
 43  23  24  ar  
 44  23  42  1   
 45  24  43  1   
@<TRIPOS>SUBSTRUCTURE
  1 ****   6 GROUP 4 **** **** 0

# MOE 2024.06 (io_trps.svl 2023.06)
