@<TRIPOS>MOLECULE
NONAME
42 42 1 0 0 
SMALL
USER_CHARGES


@<TRIPOS>ATOM
  1 O       -0.7850     1.4810    -2.3270 O.2   1 <1>  -0.5700 
  2 C       -1.5000     1.7900    -1.4070 C.2   1 <1>   0.5690 
  3 N       -2.6330     1.0960    -1.1660 N.am  1 <1>  -0.8000 
  4 C       -1.0570     2.9770    -0.5330 C.3   1 <1>   0.4040 
  5 N        0.3960     3.3250    -0.7550 N.4   1 <1>  -0.9590 
  6 C        0.6440     4.7810    -0.9630 C.3   1 <1>   0.5610 
  7 C        1.4270     2.6640     0.1220 C.3   1 <1>   0.4230 
  8 C        2.0550     4.9120    -1.4980 C.2   1 <1>  -0.2880 
  9 C        0.5160     5.6410     0.3110 C.3   1 <1>  -0.1600 
 10 C        2.7910     2.6900    -0.6050 C.3   1 <1>  -0.0220 
 11 C        1.0660     1.2200     0.5320 C.3   1 <1>  -0.0220 
 12 C        3.0150     3.9930    -1.3540 C.2   1 <1>  -0.2880 
 13 C       -0.8880     5.8000     0.9240 C.3   1 <1>  -0.1600 
 14 C        2.1290     0.6060     1.4280 C.2   1 <1>  -0.2880 
 15 C       -1.8950     6.4280    -0.0510 C.3   1 <1>  -0.1600 
 16 C        2.8710    -0.4560     1.1050 C.2   1 <1>  -0.3000 
 17 C       -3.2770     6.5420     0.5960 C.3   1 <1>  -0.2400 
 18 H       -2.8740     0.3170    -1.7900 H     1 <1>   0.3700 
 19 H       -3.3190     1.2750    -0.4300 H     1 <1>   0.3700 
 20 H       -1.2330     2.7500     0.5030 H     1 <1>   0.0800 
 21 H       -1.6750     3.8140    -0.8030 H     1 <1>   0.0800 
 22 H        0.5880     2.9170    -1.6880 H     1 <1>   0.4500 
 23 H       -0.0370     5.1500    -1.7130 H     1 <1>   0.0800 
 24 H        1.5240     3.2410     1.0260 H     1 <1>   0.0800 
 25 H        2.2190     5.8440    -2.0140 H     1 <1>   0.1500 
 26 H        1.1940     5.2810     1.0620 H     1 <1>   0.0800 
 27 H        0.8590     6.6300     0.0580 H     1 <1>   0.0800 
 28 H        3.5760     2.5580     0.1190 H     1 <1>   0.0800 
 29 H        2.8550     1.8720    -1.3020 H     1 <1>   0.0800 
 30 H        0.1430     1.2020     1.0810 H     1 <1>   0.0800 
 31 H        0.9550     0.6100    -0.3480 H     1 <1>   0.0800 
 32 H        4.0130     4.1020    -1.7520 H     1 <1>   0.1500 
 33 H       -1.2540     4.8600     1.2950 H     1 <1>   0.0800 
 34 H       -0.8030     6.4490     1.7800 H     1 <1>   0.0800 
 35 H        2.2370     1.1080     2.3780 H     1 <1>   0.1500 
 36 H       -1.5600     7.4160    -0.3240 H     1 <1>   0.0800 
 37 H       -1.9840     5.8530    -0.9540 H     1 <1>   0.0800 
 38 H        3.6200    -0.8840     1.7520 H     1 <1>   0.1500 
 39 H        2.8010    -0.9980     0.1760 H     1 <1>   0.1500 
 40 H       -3.2300     7.1530     1.4810 H     1 <1>   0.0800 
 41 H       -3.6590     5.5730     0.8660 H     1 <1>   0.0800 
 42 H       -3.9690     7.0010    -0.0900 H     1 <1>   0.0800 
@<TRIPOS>BOND
  1   1   2  2   
  2   2   3  am  
  3   2   4  1   
  4   3  18  1   
  5   3  19  1   
  6   4   5  1   
  7   4  20  1   
  8   4  21  1   
  9   5   6  1   
 10   5   7  1   
 11   5  22  1   
 12   6   8  1   
 13   6   9  1   
 14   6  23  1   
 15   7  10  1   
 16   7  11  1   
 17   7  24  1   
 18   8  12  2   
 19   8  25  1   
 20   9  13  1   
 21   9  26  1   
 22   9  27  1   
 23  10  12  1   
 24  10  28  1   
 25  10  29  1   
 26  11  14  1   
 27  11  30  1   
 28  11  31  1   
 29  12  32  1   
 30  13  15  1   
 31  13  33  1   
 32  13  34  1   
 33  14  16  2   
 34  14  35  1   
 35  15  17  1   
 36  15  36  1   
 37  15  37  1   
 38  16  38  1   
 39  16  39  1   
 40  17  40  1   
 41  17  41  1   
 42  17  42  1   
@<TRIPOS>SUBSTRUCTURE
  1 ****   5 GROUP 4 **** **** 0

# MOE 2024.06 (io_trps.svl 2023.06)
