@<TRIPOS>MOLECULE
NONAME
42 44 1 0 0 
SMALL
USER_CHARGES


@<TRIPOS>ATOM
  1 O       -0.4220    -0.1640     1.4430 O.2   1 <1>  -0.5700 
  2 C       -1.1960     0.6010     0.8880 C.2   1 <1>   0.7160 
  3 N       -2.2630     0.0280     0.2170 N.am  1 <1>  -0.6600 
  4 C       -0.9570     2.0440     0.9560 C.2   1 <1>   0.2030 
  5 C       -3.2600     0.7500    -0.6110 C.3   1 <1>   0.1400 
  6 C       -2.5240    -1.4290     0.2050 C.3   1 <1>   0.1400 
  7 N       -1.7120     3.0220     0.4740 N.2   1 <1>  -0.7070 
  8 C        0.1700     2.5940     1.5830 C.2   1 <1>  -0.1500 
  9 C       -4.1150    -0.3460    -1.2480 C.3   1 <1>   0.2000 
 10 C       -3.9370    -1.5760    -0.3590 C.3   1 <1>  -0.0800 
 11 N       -1.0810     4.1620     0.7820 N.pl3 1 <1>   0.3140 
 12 C        0.0590     3.9290     1.4540 C.2   1 <1>  -0.3020 
 13 O       -5.4530     0.0120    -1.3000 O.3   1 <1>  -0.6800 
 14 C       -4.1690    -2.8960    -1.1100 C.3   1 <1>  -0.0170 
 15 C       -1.6200     5.4850     0.4090 C.3   1 <1>   0.0960 
 16 C       -3.9620    -4.0900    -0.1920 C.ar  1 <1>  -0.1430 
 17 C       -0.9350     6.0260    -0.8520 C.3   1 <1>  -0.2400 
 18 C       -2.7810    -4.8050    -0.1690 C.ar  1 <1>  -0.1500 
 19 C       -4.9500    -4.5180     0.6710 C.ar  1 <1>  -0.1500 
 20 C       -2.6480    -5.8790     0.6960 C.ar  1 <1>   0.1600 
 21 C       -4.7160    -5.6060     1.4950 C.ar  1 <1>   0.1600 
 22 N       -3.5870    -6.2950     1.5290 N.ar  1 <1>  -0.6200 
 23 H       -3.8520     1.3870     0.0230 H     1 <1>   0.0800 
 24 H       -2.7650     1.3370    -1.3650 H     1 <1>   0.0800 
 25 H       -1.7990    -1.9050    -0.4340 H     1 <1>   0.0800 
 26 H       -2.4500    -1.8430     1.1980 H     1 <1>   0.0800 
 27 H        0.9470     2.0230     2.0610 H     1 <1>   0.1500 
 28 H       -3.7740    -0.5340    -2.2520 H     1 <1>   0.0800 
 29 H       -4.6170    -1.5150     0.4730 H     1 <1>   0.0800 
 30 H        0.7140     4.7100     1.7940 H     1 <1>   0.1500 
 31 H       -5.7750     0.2420    -0.4070 H     1 <1>   0.4000 
 32 H       -3.4990    -2.9640    -1.9500 H     1 <1>   0.0800 
 33 H       -5.1740    -2.9140    -1.4960 H     1 <1>   0.0800 
 34 H       -2.6760     5.3810     0.2370 H     1 <1>   0.0800 
 35 H       -1.4720     6.1590     1.2330 H     1 <1>   0.0800 
 36 H       -1.0910     5.3500    -1.6740 H     1 <1>   0.0800 
 37 H        0.1200     6.1460    -0.6850 H     1 <1>   0.0800 
 38 H       -1.3530     6.9820    -1.1130 H     1 <1>   0.0800 
 39 H       -1.9620    -4.5390    -0.8120 H     1 <1>   0.1500 
 40 H       -5.8990    -4.0150     0.7110 H     1 <1>   0.1500 
 41 H       -1.7200    -6.4240     0.7020 H     1 <1>   0.1500 
 42 H       -5.4980    -5.9250     2.1620 H     1 <1>   0.1500 
@<TRIPOS>BOND
  1   1   2  2   
  2   2   3  am  
  3   2   4  1   
  4   3   5  1   
  5   3   6  1   
  6   4   7  2   
  7   4   8  1   
  8   5   9  1   
  9   5  23  1   
 10   5  24  1   
 11   6  10  1   
 12   6  25  1   
 13   6  26  1   
 14   7  11  1   
 15   8  12  2   
 16   8  27  1   
 17   9  10  1   
 18   9  13  1   
 19   9  28  1   
 20  10  14  1   
 21  10  29  1   
 22  11  12  1   
 23  11  15  1   
 24  12  30  1   
 25  13  31  1   
 26  14  16  1   
 27  14  32  1   
 28  14  33  1   
 29  15  17  1   
 30  15  34  1   
 31  15  35  1   
 32  16  18  ar  
 33  16  19  ar  
 34  17  36  1   
 35  17  37  1   
 36  17  38  1   
 37  18  20  ar  
 38  18  39  1   
 39  19  21  ar  
 40  19  40  1   
 41  20  22  ar  
 42  20  41  1   
 43  21  22  ar  
 44  21  42  1   
@<TRIPOS>SUBSTRUCTURE
  1 ****   3 GROUP 4 **** **** 0

# MOE 2024.06 (io_trps.svl 2023.06)
