@<TRIPOS>MOLECULE
NONAME
47 49 1 0 0 
SMALL
USER_CHARGES


@<TRIPOS>ATOM
  1 S        0.2980     0.9740     1.2190 S.o2  1 <1>   1.5010 
  2 O        0.4950     2.3930     0.9940 O.2   1 <1>  -0.6500 
  3 O       -0.0350     0.5460     2.5660 O.2   1 <1>  -0.6500 
  4 N       -1.0150     0.5140     0.2420 N.am  1 <1>  -0.8490 
  5 C        1.7240    -0.0290     0.6250 C.2   1 <1>   0.1640 
  6 C       -2.2850     1.0070     0.7960 C.3   1 <1>   0.1960 
  7 C       -0.8560     0.9810    -1.1390 C.3   1 <1>   0.1960 
  8 N        2.4100     0.1900    -0.5370 N.2   1 <1>  -0.5650 
  9 C        2.2590    -1.1170     1.2400 C.2   1 <1>  -0.3020 
 10 C       -3.4960     0.4360     0.0330 C.3   1 <1>   0.0000 
 11 C       -1.9790     0.4310    -2.0240 C.3   1 <1>  -0.1600 
 12 C        3.3070    -0.7370    -0.5780 C.2   1 <1>   0.0060 
 13 N        3.2690    -1.5730     0.4830 N.pl3 1 <1>   0.0480 
 14 C       -4.8100     0.9360     0.6600 C.3   1 <1>   0.2000 
 15 C       -3.3670     0.7950    -1.4710 C.3   1 <1>  -0.1600 
 16 C       -3.6360    -1.0860     0.2220 C.3   1 <1>  -0.1600 
 17 C        4.3050    -0.8690    -1.7100 C.3   1 <1>  -0.0600 
 18 C        4.1280    -2.7340     0.7740 C.3   1 <1>   0.0160 
 19 O       -5.1350     2.2250     0.2330 O.3   1 <1>  -0.5600 
 20 C       -5.8750    -0.0810     0.2430 C.3   1 <1>  -0.1600 
 21 C       -5.1230    -1.3990     0.0100 C.3   1 <1>  -0.1600 
 22 C       -6.1310     2.8580     0.9730 C.3   1 <1>   0.0400 
 23 H       -2.3650     0.7200     1.8310 H     1 <1>   0.0800 
 24 H       -2.3070     2.0850     0.7520 H     1 <1>   0.0800 
 25 H       -0.8650     2.0590    -1.1670 H     1 <1>   0.0800 
 26 H        0.0870     0.6460    -1.5370 H     1 <1>   0.0800 
 27 H        1.9580    -1.5680     2.1680 H     1 <1>   0.1500 
 28 H       -1.8740     0.8340    -3.0150 H     1 <1>   0.0800 
 29 H       -1.8700    -0.6360    -2.0980 H     1 <1>   0.0800 
 30 H       -4.7100     0.9370     1.7330 H     1 <1>   0.0800 
 31 H       -4.1310     0.3090    -2.0500 H     1 <1>   0.0800 
 32 H       -3.4980     1.8560    -1.5930 H     1 <1>   0.0800 
 33 H       -3.0080    -1.6550    -0.4390 H     1 <1>   0.0800 
 34 H       -3.3700    -1.3450     1.2330 H     1 <1>   0.0800 
 35 H        4.1390    -0.0900    -2.4330 H     1 <1>   0.0800 
 36 H        4.1890    -1.8200    -2.1970 H     1 <1>   0.0800 
 37 H        5.3060    -0.7790    -1.3330 H     1 <1>   0.0800 
 38 H        3.8300    -3.1790     1.7060 H     1 <1>   0.0800 
 39 H        5.1510    -2.4120     0.8420 H     1 <1>   0.0800 
 40 H        4.0270    -3.4570    -0.0150 H     1 <1>   0.0800 
 41 H       -6.6190    -0.1930     1.0110 H     1 <1>   0.0800 
 42 H       -6.3420     0.2320    -0.6740 H     1 <1>   0.0800 
 43 H       -5.4510    -2.1670     0.6890 H     1 <1>   0.0800 
 44 H       -5.2870    -1.7350    -1.0000 H     1 <1>   0.0800 
 45 H       -6.2730     3.8430     0.5660 H     1 <1>   0.0800 
 46 H       -5.8190     2.9320     2.0000 H     1 <1>   0.0800 
 47 H       -7.0470     2.3000     0.8930 H     1 <1>   0.0800 
@<TRIPOS>BOND
  1   1   2  2   
  2   1   3  2   
  3   1   4  am  
  4   1   5  1   
  5   4   6  1   
  6   4   7  1   
  7   5   8  1   
  8   5   9  2   
  9   6  10  1   
 10   6  23  1   
 11   6  24  1   
 12   7  11  1   
 13   7  25  1   
 14   7  26  1   
 15   8  12  2   
 16   9  13  1   
 17   9  27  1   
 18  10  14  1   
 19  10  15  1   
 20  10  16  1   
 21  11  15  1   
 22  11  28  1   
 23  11  29  1   
 24  12  13  1   
 25  12  17  1   
 26  13  18  1   
 27  14  19  1   
 28  14  20  1   
 29  14  30  1   
 30  15  31  1   
 31  15  32  1   
 32  16  21  1   
 33  16  33  1   
 34  16  34  1   
 35  17  35  1   
 36  17  36  1   
 37  17  37  1   
 38  18  38  1   
 39  18  39  1   
 40  18  40  1   
 41  19  22  1   
 42  20  21  1   
 43  20  41  1   
 44  20  42  1   
 45  21  43  1   
 46  21  44  1   
 47  22  45  1   
 48  22  46  1   
 49  22  47  1   
@<TRIPOS>SUBSTRUCTURE
  1 ****   4 GROUP 4 **** **** 0

# MOE 2024.06 (io_trps.svl 2023.06)
