@<TRIPOS>MOLECULE
NONAME
43 45 1 0 0 
SMALL
USER_CHARGES


@<TRIPOS>ATOM
  1 S       -1.4750    -0.0950    -1.0130 S.3   1 <1>  -0.4600 
  2 C       -1.1900    -1.0280     0.5370 C.3   1 <1>   0.1310 
  3 C       -0.9220     1.5810    -0.6020 C.3   1 <1>  -0.0100 
  4 C       -1.3050    -2.5390     0.3410 C.2   1 <1>   0.5690 
  5 O       -0.3120    -3.1910     0.5690 O.2   1 <1>  -0.5700 
  6 N       -2.4830    -3.1380    -0.0360 N.am  1 <1>  -0.6600 
  7 C       -3.7650    -2.4250    -0.3330 C.3   1 <1>   0.1400 
  8 C       -2.5670    -4.6110    -0.2810 C.3   1 <1>   0.1400 
  9 C       -4.9560    -3.0950     0.3800 C.3   1 <1>   0.1900 
 10 C       -3.7880    -5.2250     0.4230 C.3   1 <1>   0.1100 
 11 N       -5.0400    -4.5360     0.0370 N.3   1 <1>  -0.8100 
 12 C       -6.2700    -2.3770     0.0170 C.3   1 <1>   0.1200 
 13 C       -6.2290    -5.1420     0.6840 C.3   1 <1>   0.3330 
 14 O       -7.3520    -2.9780     0.6700 O.3   1 <1>  -0.5600 
 15 C       -6.4180    -6.5920     0.2420 C.ar  1 <1>  -0.1440 
 16 C       -7.5020    -4.3360     0.3490 C.3   1 <1>   0.1200 
 17 C       -6.3420    -6.9440    -1.0990 C.ar  1 <1>  -0.1500 
 18 C       -6.6760    -7.5790     1.1830 C.ar  1 <1>  -0.1500 
 19 C       -6.5210    -8.2580    -1.4940 C.ar  1 <1>  -0.1500 
 20 C       -6.8560    -8.8940     0.7900 C.ar  1 <1>  -0.1500 
 21 C       -6.7790    -9.2340    -0.5490 C.ar  1 <1>  -0.1500 
 22 H       -0.1980    -0.7830     0.8690 H     1 <1>   0.0800 
 23 H       -1.9060    -0.6860     1.2590 H     1 <1>   0.0800 
 24 H       -1.0690     2.1960    -1.4720 H     1 <1>   0.0800 
 25 H        0.1210     1.5330    -0.3410 H     1 <1>   0.0800 
 26 H       -1.5130     1.9370     0.2230 H     1 <1>   0.0800 
 27 H       -3.7120    -1.3990    -0.0200 H     1 <1>   0.0800 
 28 H       -3.9320    -2.4400    -1.3960 H     1 <1>   0.0800 
 29 H       -2.6460    -4.7860    -1.3390 H     1 <1>   0.0800 
 30 H       -1.6760    -5.1030     0.0680 H     1 <1>   0.0800 
 31 H       -4.8060    -2.9890     1.4410 H     1 <1>   0.0800 
 32 H       -3.6460    -5.1670     1.4890 H     1 <1>   0.0800 
 33 H       -3.8450    -6.2650     0.1510 H     1 <1>   0.0800 
 34 H       -6.4440    -2.4150    -1.0440 H     1 <1>   0.0800 
 35 H       -6.2350    -1.3480     0.3290 H     1 <1>   0.0800 
 36 H       -6.0950    -5.1170     1.7520 H     1 <1>   0.0800 
 37 H       -8.3350    -4.7170     0.9110 H     1 <1>   0.0800 
 38 H       -7.7290    -4.4170    -0.6990 H     1 <1>   0.0800 
 39 H       -6.1350    -6.1870    -1.8370 H     1 <1>   0.1500 
 40 H       -6.7400    -7.3300     2.2280 H     1 <1>   0.1500 
 41 H       -6.4590    -8.5190    -2.5360 H     1 <1>   0.1500 
 42 H       -7.0560    -9.6530     1.5260 H     1 <1>   0.1500 
 43 H       -6.9180   -10.2570    -0.8540 H     1 <1>   0.1500 
@<TRIPOS>BOND
  1   1   2  1   
  2   1   3  1   
  3   2   4  1   
  4   2  22  1   
  5   2  23  1   
  6   3  24  1   
  7   3  25  1   
  8   3  26  1   
  9   4   5  2   
 10   4   6  am  
 11   6   7  1   
 12   6   8  1   
 13   7   9  1   
 14   7  27  1   
 15   7  28  1   
 16   8  10  1   
 17   8  29  1   
 18   8  30  1   
 19   9  11  1   
 20   9  12  1   
 21   9  31  1   
 22  10  11  1   
 23  10  32  1   
 24  10  33  1   
 25  11  13  1   
 26  12  14  1   
 27  12  34  1   
 28  12  35  1   
 29  13  15  1   
 30  13  16  1   
 31  13  36  1   
 32  14  16  1   
 33  15  17  ar  
 34  15  18  ar  
 35  16  37  1   
 36  16  38  1   
 37  17  19  ar  
 38  17  39  1   
 39  18  20  ar  
 40  18  40  1   
 41  19  21  ar  
 42  19  41  1   
 43  20  21  ar  
 44  20  42  1   
 45  21  43  1   
@<TRIPOS>SUBSTRUCTURE
  1 ****  11 GROUP 4 **** **** 0

# MOE 2024.06 (io_trps.svl 2023.06)
