@<TRIPOS>MOLECULE
NONAME
54 56 1 0 0 
SMALL
USER_CHARGES


@<TRIPOS>ATOM
  1 O        1.3670     0.2400    -0.8270 O.2   1 <1>  -0.5700 
  2 C        2.2830    -0.0400    -0.0750 C.2   1 <1>   0.7030 
  3 N        2.5890     0.8270     0.9530 N.am  1 <1>  -0.6600 
  4 C        3.0080    -1.2840    -0.2800 C.2   1 <1>   0.2770 
  5 C        3.1250     0.3630     2.2780 C.3   1 <1>   0.1400 
  6 C        2.3750     2.2930     0.7930 C.3   1 <1>   0.1400 
  7 N        2.4720    -2.5660    -0.4340 N.pl3 1 <1>  -0.7640 
  8 C        4.3520    -1.4350    -0.3810 C.2   1 <1>   0.2000 
  9 C        4.2210     1.2700     2.8620 C.3   1 <1>   0.1400 
 10 C        3.6450     2.9430     0.2270 C.3   1 <1>  -0.1600 
 11 C        3.4790    -3.4140    -0.5960 C.cat 1 <1>   0.6500 
 12 C        1.0100    -2.8480    -0.4570 C.3   1 <1>   0.2740 
 13 N        4.6290    -2.7620    -0.5610 N.pl3 1 <1>  -0.7000 
 14 N        5.1690     1.7280     1.8080 N.am  1 <1>  -0.6600 
 15 C        4.8220     3.0490     1.2080 C.3   1 <1>   0.1400 
 16 C        6.1860     0.9010     1.3870 C.2   1 <1>   0.5690 
 17 O        6.2730    -0.2200     1.8430 O.2   1 <1>  -0.5700 
 18 C        7.1960     1.3550     0.3010 C.3   1 <1>   0.2610 
 19 O        6.5810     1.4220    -0.9590 O.3   1 <1>  -0.6800 
 20 C        8.4890     0.5050     0.1780 C.3   1 <1>  -0.0800 
 21 C        9.5850     1.2790    -0.5860 C.3   1 <1>  -0.1600 
 22 C        8.2810    -0.8860    -0.4690 C.3   1 <1>  -0.1600 
 23 C       10.8960     0.4850    -0.6510 C.3   1 <1>  -0.1600 
 24 C        9.5940    -1.6780    -0.5350 C.3   1 <1>  -0.1600 
 25 C       10.6790    -0.8940    -1.2830 C.3   1 <1>  -0.1600 
 26 H        2.3130     0.3090     2.9820 H     1 <1>   0.0800 
 27 H        3.5310    -0.6290     2.1880 H     1 <1>   0.0800 
 28 H        1.5590     2.4670     0.1100 H     1 <1>   0.0800 
 29 H        2.1040     2.7380     1.7350 H     1 <1>   0.0800 
 30 H        5.1060    -0.6700    -0.3460 H     1 <1>   0.1500 
 31 H        4.7590     0.7290     3.6220 H     1 <1>   0.0800 
 32 H        3.7690     2.1190     3.3430 H     1 <1>   0.0800 
 33 H        3.3950     3.9410    -0.0850 H     1 <1>   0.0800 
 34 H        3.9580     2.4140    -0.6560 H     1 <1>   0.0800 
 35 H        3.3780    -4.4820    -0.7400 H     1 <1>   0.1500 
 36 H        0.5570    -2.5180     0.4630 H     1 <1>   0.0800 
 37 H        0.8290    -3.9020    -0.5780 H     1 <1>   0.0800 
 38 H        0.5490    -2.3190    -1.2760 H     1 <1>   0.0800 
 39 H        5.5700    -3.1590    -0.6500 H     1 <1>   0.4500 
 40 H        4.5690     3.7360     1.9980 H     1 <1>   0.0800 
 41 H        5.6680     3.4640     0.6920 H     1 <1>   0.0800 
 42 H        7.4950     2.3550     0.5570 H     1 <1>   0.0800 
 43 H        7.2560     1.6360    -1.6320 H     1 <1>   0.4000 
 44 H        8.8540     0.3470     1.1800 H     1 <1>   0.0800 
 45 H        9.2600     1.4870    -1.5900 H     1 <1>   0.0800 
 46 H        9.7760     2.2200    -0.0980 H     1 <1>   0.0800 
 47 H        7.5700    -1.4560     0.0990 H     1 <1>   0.0800 
 48 H        7.8950    -0.7740    -1.4670 H     1 <1>   0.0800 
 49 H       11.6230     1.0330    -1.2260 H     1 <1>   0.0800 
 50 H       11.2910     0.3620     0.3440 H     1 <1>   0.0800 
 51 H        9.9330    -1.8880     0.4660 H     1 <1>   0.0800 
 52 H        9.4270    -2.6190    -1.0290 H     1 <1>   0.0800 
 53 H       11.6020    -1.4490    -1.2630 H     1 <1>   0.0800 
 54 H       10.3890    -0.7750    -2.3130 H     1 <1>   0.0800 
@<TRIPOS>BOND
  1   1   2  2   
  2   2   3  am  
  3   2   4  1   
  4   3   5  1   
  5   3   6  1   
  6   4   7  1   
  7   4   8  2   
  8   5   9  1   
  9   5  26  1   
 10   5  27  1   
 11   6  10  1   
 12   6  28  1   
 13   6  29  1   
 14   7  11  ar  
 15   7  12  1   
 16   8  13  1   
 17   8  30  1   
 18   9  14  1   
 19   9  31  1   
 20   9  32  1   
 21  10  15  1   
 22  10  33  1   
 23  10  34  1   
 24  11  13  ar  
 25  11  35  1   
 26  12  36  1   
 27  12  37  1   
 28  12  38  1   
 29  13  39  1   
 30  14  15  1   
 31  14  16  am  
 32  15  40  1   
 33  15  41  1   
 34  16  17  2   
 35  16  18  1   
 36  18  19  1   
 37  18  20  1   
 38  18  42  1   
 39  19  43  1   
 40  20  21  1   
 41  20  22  1   
 42  20  44  1   
 43  21  23  1   
 44  21  45  1   
 45  21  46  1   
 46  22  24  1   
 47  22  47  1   
 48  22  48  1   
 49  23  25  1   
 50  23  49  1   
 51  23  50  1   
 52  24  25  1   
 53  24  51  1   
 54  24  52  1   
 55  25  53  1   
 56  25  54  1   
@<TRIPOS>SUBSTRUCTURE
  1 ****  16 GROUP 4 **** **** 0

# MOE 2024.06 (io_trps.svl 2023.06)
