@<TRIPOS>MOLECULE
NONAME
41 43 1 0 0 
SMALL
USER_CHARGES


@<TRIPOS>ATOM
  1 O        0.0840    -0.1520     0.7850 O.2   1 <1>  -0.5700 
  2 C        1.2240    -0.5360     0.6140 C.2   1 <1>   0.5440 
  3 N        2.2870     0.3280     0.7260 N.am  1 <1>  -0.4940 
  4 C        1.4940    -1.9150     0.2840 C.ar  1 <1>   0.0860 
  5 C        2.3170     1.7110     1.0340 C.2   1 <1>  -0.0880 
  6 C        1.0210    -2.5140    -0.8900 C.ar  1 <1>   0.1670 
  7 C        2.2600    -2.6990     1.1380 C.ar  1 <1>  -0.1500 
  8 N        3.4370     2.4910     1.0800 N.pl3 1 <1>   0.3140 
  9 C        1.2810     2.5280     1.3390 C.2   1 <1>  -0.1500 
 10 N        1.2650    -3.7650    -1.2480 N.ar  1 <1>  -0.6200 
 11 C        0.1660    -1.7250    -1.8690 C.3   1 <1>  -0.0970 
 12 C        2.5130    -4.0020     0.7760 C.ar  1 <1>  -0.1500 
 13 N        3.1300     3.7700     1.4120 N.2   1 <1>  -0.7070 
 14 C        4.8630     2.1060     0.8630 C.3   1 <1>   0.2710 
 15 C        1.8450     3.7760     1.5600 C.2   1 <1>   0.1080 
 16 C        1.9990    -4.4820    -0.4140 C.ar  1 <1>   0.1600 
 17 C        5.0780     1.4320    -0.5070 C.3   1 <1>  -0.1950 
 18 C        5.3780     1.2170     2.0040 C.3   1 <1>  -0.2400 
 19 C        1.0790     5.0230     1.9330 C.3   1 <1>  -0.0590 
 20 C        6.3250     1.6970    -1.2930 C.3   1 <1>  -0.2000 
 21 C        5.0030     2.2250    -1.7740 C.3   1 <1>  -0.2000 
 22 H        3.1880    -0.0890     0.4990 H     1 <1>   0.3700 
 23 H        2.6380    -2.2970     2.0630 H     1 <1>   0.1500 
 24 H        0.2370     2.2820     1.4040 H     1 <1>   0.1500 
 25 H        0.5850    -0.7510    -2.0430 H     1 <1>   0.0800 
 26 H       -0.8260    -1.6140    -1.4710 H     1 <1>   0.0800 
 27 H        0.1010    -2.2380    -2.8120 H     1 <1>   0.0800 
 28 H        3.0990    -4.6470     1.4070 H     1 <1>   0.1500 
 29 H        5.4270     3.0220     0.8750 H     1 <1>   0.0800 
 30 H        2.1980    -5.5030    -0.6950 H     1 <1>   0.1500 
 31 H        4.7220     0.4190    -0.5380 H     1 <1>   0.1000 
 32 H        4.8430     0.2860     2.0420 H     1 <1>   0.0800 
 33 H        5.2630     1.7310     2.9420 H     1 <1>   0.0800 
 34 H        6.4220     1.0090     1.8580 H     1 <1>   0.0800 
 35 H        0.0280     4.8120     2.0010 H     1 <1>   0.0800 
 36 H        1.2410     5.7790     1.1870 H     1 <1>   0.0800 
 37 H        1.4280     5.3880     2.8810 H     1 <1>   0.0800 
 38 H        6.7810     0.8880    -1.8390 H     1 <1>   0.1000 
 39 H        7.0500     2.4040    -0.9270 H     1 <1>   0.1000 
 40 H        4.8110     3.2840    -1.7120 H     1 <1>   0.1000 
 41 H        4.5440     1.7760    -2.6370 H     1 <1>   0.1000 
@<TRIPOS>BOND
  1   1   2  2   
  2   2   3  am  
  3   2   4  1   
  4   3   5  1   
  5   3  22  1   
  6   4   6  ar  
  7   4   7  ar  
  8   5   8  1   
  9   5   9  2   
 10   6  10  ar  
 11   6  11  1   
 12   7  12  ar  
 13   7  23  1   
 14   8  13  1   
 15   8  14  1   
 16   9  15  1   
 17   9  24  1   
 18  10  16  ar  
 19  11  25  1   
 20  11  26  1   
 21  11  27  1   
 22  12  16  ar  
 23  12  28  1   
 24  13  15  2   
 25  14  17  1   
 26  14  18  1   
 27  14  29  1   
 28  15  19  1   
 29  16  30  1   
 30  17  20  1   
 31  17  21  1   
 32  17  31  1   
 33  18  32  1   
 34  18  33  1   
 35  18  34  1   
 36  19  35  1   
 37  19  36  1   
 38  19  37  1   
 39  20  21  1   
 40  20  38  1   
 41  20  39  1   
 42  21  40  1   
 43  21  41  1   
@<TRIPOS>SUBSTRUCTURE
  1 ****   3 GROUP 4 **** **** 0

# MOE 2024.06 (io_trps.svl 2023.06)
