@<TRIPOS>MOLECULE
NONAME
40 40 1 0 0 
SMALL
USER_CHARGES


@<TRIPOS>ATOM
  1 O       -0.2950    -0.3780     0.4900 O.2   1 <1>  -0.5700 
  2 C       -1.3640    -0.9560     0.4610 C.2   1 <1>   0.7800 
  3 O       -2.4550    -0.3500    -0.0180 O.3   1 <1>  -0.4300 
  4 N       -1.5100    -2.2440     0.9120 N.am  1 <1>  -0.6600 
  5 C       -2.5510     0.9560    -0.5440 C.3   1 <1>   0.2800 
  6 C       -2.7980    -2.9820     0.8880 C.3   1 <1>   0.1400 
  7 C       -0.3600    -3.0230     1.4370 C.3   1 <1>   0.1400 
  8 C       -2.2050     1.9900     0.5330 C.3   1 <1>  -0.2400 
  9 C       -4.0190     1.1160    -0.9430 C.3   1 <1>  -0.2400 
 10 C       -1.6710     1.0910    -1.7930 C.3   1 <1>  -0.2400 
 11 C       -2.6450    -4.2600     0.0560 C.3   1 <1>  -0.1600 
 12 C       -0.1860    -4.2970     0.6050 C.3   1 <1>  -0.1600 
 13 C       -1.4770    -5.1350     0.5520 C.3   1 <1>  -0.0800 
 14 C       -1.2530    -6.3730    -0.3380 C.3   1 <1>  -0.1600 
 15 C       -2.4290    -7.3610    -0.3290 C.3   1 <1>   0.0400 
 16 C       -2.0890    -8.5800    -1.1160 C.1   1 <1>  -0.2000 
 17 C       -1.8160    -9.5510    -1.7450 C.1   1 <1>  -0.1770 
 18 H       -3.5850    -2.3760     0.4730 H     1 <1>   0.0800 
 19 H       -3.0720    -3.2340     1.8980 H     1 <1>   0.0800 
 20 H       -0.5500    -3.2770     2.4660 H     1 <1>   0.0800 
 21 H        0.5450    -2.4410     1.3980 H     1 <1>   0.0800 
 22 H       -2.7900     1.8170     1.4180 H     1 <1>   0.0800 
 23 H       -2.4150     2.9800     0.1720 H     1 <1>   0.0800 
 24 H       -1.1620     1.9520     0.7860 H     1 <1>   0.0800 
 25 H       -4.6530     0.9990    -0.0830 H     1 <1>   0.0800 
 26 H       -4.2870     0.3820    -1.6810 H     1 <1>   0.0800 
 27 H       -4.1890     2.0930    -1.3590 H     1 <1>   0.0800 
 28 H       -0.6280     1.0550    -1.5380 H     1 <1>   0.0800 
 29 H       -1.8560     2.0360    -2.2700 H     1 <1>   0.0800 
 30 H       -1.8920     0.3060    -2.4920 H     1 <1>   0.0800 
 31 H       -2.4840    -3.9820    -0.9710 H     1 <1>   0.0800 
 32 H       -3.5690    -4.8050     0.1090 H     1 <1>   0.0800 
 33 H        0.6110    -4.8810     1.0300 H     1 <1>   0.0800 
 34 H        0.1110    -4.0150    -0.3900 H     1 <1>   0.0800 
 35 H       -1.6990    -5.4670     1.5530 H     1 <1>   0.0800 
 36 H       -0.3760    -6.8940     0.0090 H     1 <1>   0.0800 
 37 H       -1.0630    -6.0610    -1.3510 H     1 <1>   0.0800 
 38 H       -3.3030    -6.9110    -0.7630 H     1 <1>   0.0800 
 39 H       -2.6580    -7.6510     0.6810 H     1 <1>   0.0800 
 40 H       -1.5680   -10.4290    -2.3150 H     1 <1>   0.1770 
@<TRIPOS>BOND
  1   1   2  2   
  2   2   3  1   
  3   2   4  am  
  4   3   5  1   
  5   4   6  1   
  6   4   7  1   
  7   5   8  1   
  8   5   9  1   
  9   5  10  1   
 10   6  11  1   
 11   6  18  1   
 12   6  19  1   
 13   7  12  1   
 14   7  20  1   
 15   7  21  1   
 16   8  22  1   
 17   8  23  1   
 18   8  24  1   
 19   9  25  1   
 20   9  26  1   
 21   9  27  1   
 22  10  28  1   
 23  10  29  1   
 24  10  30  1   
 25  11  13  1   
 26  11  31  1   
 27  11  32  1   
 28  12  13  1   
 29  12  33  1   
 30  12  34  1   
 31  13  14  1   
 32  13  35  1   
 33  14  15  1   
 34  14  36  1   
 35  14  37  1   
 36  15  16  1   
 37  15  38  1   
 38  15  39  1   
 39  16  17  3   
 40  17  40  1   
@<TRIPOS>SUBSTRUCTURE
  1 ****   4 GROUP 4 **** **** 0

# MOE 2024.06 (io_trps.svl 2023.06)
