@<TRIPOS>MOLECULE
NONAME
51 53 1 0 0 
SMALL
USER_CHARGES


@<TRIPOS>ATOM
  1 O        0.0420     1.3500     1.6240 O.2   1 <1>  -0.5700 
  2 C        0.1370     2.0760     0.6520 C.2   1 <1>   0.6900 
  3 N       -0.9230     2.8590     0.2600 N.am  1 <1>  -0.6600 
  4 N        1.2990     2.1280    -0.0610 N.am  1 <1>  -0.5470 
  5 C       -2.2630     2.6790     0.9120 C.3   1 <1>   0.1400 
  6 C       -0.8590     3.8120    -0.8880 C.3   1 <1>   0.1400 
  7 C        2.4940     1.4250     0.1460 C.ar  1 <1>   0.1170 
  8 C       -3.4250     2.7820    -0.1050 C.3   1 <1>   0.0000 
  9 C       -1.9980     4.8310    -0.8210 C.3   1 <1>  -0.1600 
 10 C        2.5670     0.0430    -0.0530 C.ar  1 <1>  -0.1430 
 11 C        3.6420     2.1250     0.5270 C.ar  1 <1>  -0.1430 
 12 C       -4.7580     2.5060     0.6230 C.3   1 <1>   0.2000 
 13 C       -3.3910     4.1740    -0.7950 C.3   1 <1>  -0.1600 
 14 C       -3.3620     1.6130    -1.1110 C.3   1 <1>  -0.1600 
 15 C        3.7710    -0.6160     0.1300 C.ar  1 <1>  -0.1500 
 16 C        1.3480    -0.7690    -0.4730 C.3   1 <1>  -0.0970 
 17 C        4.8370     1.4490     0.7010 C.ar  1 <1>  -0.1500 
 18 C        3.6020     3.6290     0.7710 C.3   1 <1>  -0.0970 
 19 O       -5.8220     2.9560    -0.1680 O.3   1 <1>  -0.5600 
 20 C       -4.8500     0.9780     0.7310 C.3   1 <1>  -0.1600 
 21 C       -3.9790     0.4070    -0.3950 C.3   1 <1>  -0.1600 
 22 C        4.9040     0.0820     0.5040 C.ar  1 <1>  -0.1500 
 23 C       -6.9930     3.2470     0.5270 C.3   1 <1>   0.0400 
 24 H        1.3520     2.8970    -0.7140 H     1 <1>   0.3700 
 25 H       -2.2990     1.7240     1.4070 H     1 <1>   0.0800 
 26 H       -2.3770     3.4380     1.6660 H     1 <1>   0.0800 
 27 H        0.0790     4.3390    -0.8700 H     1 <1>   0.0800 
 28 H       -0.9250     3.2570    -1.8090 H     1 <1>   0.0800 
 29 H       -1.8660     5.4210     0.0690 H     1 <1>   0.0800 
 30 H       -1.9340     5.5000    -1.6610 H     1 <1>   0.0800 
 31 H       -4.7960     2.9960     1.5810 H     1 <1>   0.0800 
 32 H       -3.7670     4.0850    -1.7990 H     1 <1>   0.0800 
 33 H       -4.0540     4.8470    -0.2800 H     1 <1>   0.0800 
 34 H       -3.9760     1.8430    -1.9640 H     1 <1>   0.0800 
 35 H       -2.3660     1.3990    -1.4550 H     1 <1>   0.0800 
 36 H        3.8340    -1.6790    -0.0150 H     1 <1>   0.1500 
 37 H        1.6350    -1.7400    -0.8330 H     1 <1>   0.0800 
 38 H        0.8110    -0.2650    -1.2560 H     1 <1>   0.0800 
 39 H        0.6920    -0.8980     0.3700 H     1 <1>   0.0800 
 40 H        5.7260     1.9790     0.9960 H     1 <1>   0.1500 
 41 H        4.5360     3.9790     1.1710 H     1 <1>   0.0800 
 42 H        2.8260     3.8630     1.4790 H     1 <1>   0.0800 
 43 H        3.4080     4.1470    -0.1490 H     1 <1>   0.0800 
 44 H       -4.4480     0.6640     1.6780 H     1 <1>   0.0800 
 45 H       -5.8650     0.6290     0.6580 H     1 <1>   0.0800 
 46 H       -3.2010    -0.2120     0.0210 H     1 <1>   0.0800 
 47 H       -4.5640    -0.1800    -1.0820 H     1 <1>   0.0800 
 48 H        5.8350    -0.4380     0.6440 H     1 <1>   0.1500 
 49 H       -7.7380     3.5490    -0.1870 H     1 <1>   0.0800 
 50 H       -6.8040     4.0520     1.2150 H     1 <1>   0.0800 
 51 H       -7.3290     2.3700     1.0520 H     1 <1>   0.0800 
@<TRIPOS>BOND
  1   1   2  2   
  2   2   3  am  
  3   2   4  am  
  4   3   5  1   
  5   3   6  1   
  6   4   7  1   
  7   4  24  1   
  8   5   8  1   
  9   5  25  1   
 10   5  26  1   
 11   6   9  1   
 12   6  27  1   
 13   6  28  1   
 14   7  10  ar  
 15   7  11  ar  
 16   8  12  1   
 17   8  13  1   
 18   8  14  1   
 19   9  13  1   
 20   9  29  1   
 21   9  30  1   
 22  10  15  ar  
 23  10  16  1   
 24  11  17  ar  
 25  11  18  1   
 26  12  19  1   
 27  12  20  1   
 28  12  31  1   
 29  13  32  1   
 30  13  33  1   
 31  14  21  1   
 32  14  34  1   
 33  14  35  1   
 34  15  22  ar  
 35  15  36  1   
 36  16  37  1   
 37  16  38  1   
 38  16  39  1   
 39  17  22  ar  
 40  17  40  1   
 41  18  41  1   
 42  18  42  1   
 43  18  43  1   
 44  19  23  1   
 45  20  21  1   
 46  20  44  1   
 47  20  45  1   
 48  21  46  1   
 49  21  47  1   
 50  22  48  1   
 51  23  49  1   
 52  23  50  1   
 53  23  51  1   
@<TRIPOS>SUBSTRUCTURE
  1 ****   2 GROUP 4 **** **** 0

# MOE 2024.06 (io_trps.svl 2023.06)
