@<TRIPOS>MOLECULE
NONAME
46 47 1 0 0 
SMALL
USER_CHARGES


@<TRIPOS>ATOM
  1 F       -2.4920    -1.3800     0.6530 F     1 <1>  -0.1900 
  2 C       -2.7300    -0.1280     0.3600 C.ar  1 <1>   0.1900 
  3 C       -3.4500     0.1620    -0.7870 C.ar  1 <1>  -0.1440 
  4 C       -2.2540     0.8490     1.2120 C.ar  1 <1>  -0.1500 
  5 C       -3.7040     1.4950    -1.0790 C.ar  1 <1>  -0.1500 
  6 C       -3.9450    -0.9530    -1.6850 C.3   1 <1>   0.4870 
  7 C       -2.5040     2.1760     0.9070 C.ar  1 <1>   0.0820 
  8 C       -3.2540     2.4980    -0.2330 C.ar  1 <1>   0.0820 
  9 N       -5.0820    -1.6470    -1.0330 N.4   1 <1>  -0.9590 
 10 O       -1.9950     3.1100     1.7430 O.3   1 <1>  -0.3620 
 11 O       -3.5800     3.7690    -0.5740 O.3   1 <1>  -0.3620 
 12 C       -5.4480    -2.9060    -1.7360 C.3   1 <1>   0.5240 
 13 C       -6.2460    -0.7480    -0.7380 C.3   1 <1>   0.3430 
 14 C       -0.9670     3.9260     1.2230 C.3   1 <1>   0.0400 
 15 C       -4.3660     4.5030     0.3430 C.3   1 <1>   0.0400 
 16 C       -5.7540    -3.9500    -0.6720 C.2   1 <1>   0.0460 
 17 C       -7.1840    -1.3000     0.3450 C.3   1 <1>   0.1200 
 18 N       -5.1120    -3.9060     0.5160 N.2   1 <1>  -0.5650 
 19 C       -6.6300    -4.9780    -0.7040 C.2   1 <1>  -0.3020 
 20 O       -8.1800    -0.3630     0.5560 O.3   1 <1>  -0.6800 
 21 C       -5.5980    -4.9080     1.1720 C.2   1 <1>   0.0060 
 22 N       -6.5290    -5.6040     0.4840 N.pl3 1 <1>   0.0330 
 23 C       -5.1700    -5.2830     2.5760 C.3   1 <1>  -0.0600 
 24 H       -1.6950     0.5890     2.0930 H     1 <1>   0.1500 
 25 H       -4.2550     1.7820    -1.9580 H     1 <1>   0.1500 
 26 H       -3.1380    -1.6490    -1.8530 H     1 <1>   0.0800 
 27 H       -4.2510    -0.5470    -2.6360 H     1 <1>   0.0800 
 28 H       -4.7280    -2.0090    -0.1240 H     1 <1>   0.4500 
 29 H       -4.6120    -3.2600    -2.3170 H     1 <1>   0.0800 
 30 H       -6.2940    -2.7620    -2.3870 H     1 <1>   0.0800 
 31 H       -6.8120    -0.5750    -1.6380 H     1 <1>   0.0800 
 32 H       -5.8820     0.2020    -0.3840 H     1 <1>   0.0800 
 33 H       -0.6220     4.5740     2.0090 H     1 <1>   0.0800 
 34 H       -1.3520     4.5120     0.4080 H     1 <1>   0.0800 
 35 H       -0.1620     3.2970     0.8850 H     1 <1>   0.0800 
 36 H       -4.6830     5.4110    -0.1380 H     1 <1>   0.0800 
 37 H       -3.7790     4.7400     1.2120 H     1 <1>   0.0800 
 38 H       -5.2230     3.9150     0.6200 H     1 <1>   0.0800 
 39 H       -6.6550    -1.4450     1.2720 H     1 <1>   0.0800 
 40 H       -7.6540    -2.2160     0.0360 H     1 <1>   0.0800 
 41 H       -7.3030    -5.3050    -1.4790 H     1 <1>   0.1500 
 42 H       -8.7790    -0.6360     1.2840 H     1 <1>   0.4000 
 43 H       -7.0360    -6.4350     0.8050 H     1 <1>   0.2700 
 44 H       -4.4220    -4.5950     2.9290 H     1 <1>   0.0800 
 45 H       -4.7530    -6.2730     2.5830 H     1 <1>   0.0800 
 46 H       -6.0120    -5.2480     3.2440 H     1 <1>   0.0800 
@<TRIPOS>BOND
  1   1   2  1   
  2   2   3  ar  
  3   2   4  ar  
  4   3   5  ar  
  5   3   6  1   
  6   4   7  ar  
  7   4  24  1   
  8   5   8  ar  
  9   5  25  1   
 10   6   9  1   
 11   6  26  1   
 12   6  27  1   
 13   7   8  ar  
 14   7  10  1   
 15   8  11  1   
 16   9  12  1   
 17   9  13  1   
 18   9  28  1   
 19  10  14  1   
 20  11  15  1   
 21  12  16  1   
 22  12  29  1   
 23  12  30  1   
 24  13  17  1   
 25  13  31  1   
 26  13  32  1   
 27  14  33  1   
 28  14  34  1   
 29  14  35  1   
 30  15  36  1   
 31  15  37  1   
 32  15  38  1   
 33  16  18  1   
 34  16  19  2   
 35  17  20  1   
 36  17  39  1   
 37  17  40  1   
 38  18  21  2   
 39  19  22  1   
 40  19  41  1   
 41  20  42  1   
 42  21  22  1   
 43  21  23  1   
 44  22  43  1   
 45  23  44  1   
 46  23  45  1   
 47  23  46  1   
@<TRIPOS>SUBSTRUCTURE
  1 ****   3 GROUP 4 **** **** 0

# MOE 2024.06 (io_trps.svl 2023.06)
