@<TRIPOS>MOLECULE
NONAME
47 49 1 0 0 
SMALL
USER_CHARGES


@<TRIPOS>ATOM
  1 S        0.3790     0.3500    -0.5390 S.3   1 <1>  -0.3320 
  2 C        1.7760    -0.7670    -0.3770 C.ar  1 <1>   0.4120 
  3 C       -1.1060    -0.6880    -0.1740 C.3   1 <1>   0.0700 
  4 N        1.4550    -2.0050    -0.0310 N.ar  1 <1>  -0.6200 
  5 C        3.0650    -0.2850    -0.6160 C.ar  1 <1>   0.0860 
  6 C       -2.3480     0.1910    -0.3090 C.3   1 <1>  -0.0160 
  7 C        2.4740    -2.8420     0.0650 C.ar  1 <1>   0.1600 
  8 C        3.3300     1.0920    -0.9570 C.2   1 <1>   0.5440 
  9 C        4.1040    -1.2000    -0.5130 C.ar  1 <1>  -0.1500 
 10 C       -3.5960    -0.6090     0.0210 C.ar  1 <1>  -0.1440 
 11 C        3.7950    -2.4970    -0.1650 C.ar  1 <1>  -0.1500 
 12 O        3.7400     1.3490    -2.0710 O.2   1 <1>  -0.5700 
 13 N        3.1810     2.1200    -0.0460 N.am  1 <1>  -0.6600 
 14 C       -4.0720    -0.6560     1.3220 C.ar  1 <1>  -0.1500 
 15 C       -4.2670    -1.3030    -0.9740 C.ar  1 <1>  -0.1500 
 16 C        3.1800     3.5450    -0.5570 C.3   1 <1>   0.2200 
 17 C        2.9050     1.8560     1.4030 C.3   1 <1>   0.0600 
 18 C       -5.2070    -1.3890     1.6250 C.ar  1 <1>  -0.1500 
 19 C       -5.4020    -2.0360    -0.6720 C.ar  1 <1>  -0.1500 
 20 C        4.5870     4.1280    -0.5740 C.3   1 <1>   0.2000 
 21 C        2.4600     4.5450     0.3590 C.3   1 <1>   0.1200 
 22 C       -5.8720    -2.0790     0.6280 C.ar  1 <1>  -0.1500 
 23 O        4.6500     5.1960    -1.4680 O.3   1 <1>  -0.6800 
 24 C        4.7160     4.6930     0.8370 C.3   1 <1>   0.1200 
 25 O        3.4250     5.0810     1.2290 O.3   1 <1>  -0.5600 
 26 H       -1.1170    -1.5000    -0.8800 H     1 <1>   0.0800 
 27 H       -0.9980    -1.0700     0.8250 H     1 <1>   0.0800 
 28 H       -2.2680     1.0300     0.3580 H     1 <1>   0.0800 
 29 H       -2.4120     0.5690    -1.3140 H     1 <1>   0.0800 
 30 H        2.2450    -3.8600     0.3380 H     1 <1>   0.1500 
 31 H        5.1180    -0.8930    -0.7060 H     1 <1>   0.1500 
 32 H        4.5700    -3.2380    -0.0740 H     1 <1>   0.1500 
 33 H       -3.5610    -0.1240     2.1050 H     1 <1>   0.1500 
 34 H       -3.9090    -1.2770    -1.9890 H     1 <1>   0.1500 
 35 H        2.7500     3.5590    -1.5440 H     1 <1>   0.0800 
 36 H        3.4090     2.5730     2.0250 H     1 <1>   0.0800 
 37 H        3.2490     0.8770     1.6860 H     1 <1>   0.0800 
 38 H        1.8470     1.9170     1.5890 H     1 <1>   0.0800 
 39 H       -5.5710    -1.4220     2.6370 H     1 <1>   0.1500 
 40 H       -5.9180    -2.5720    -1.4490 H     1 <1>   0.1500 
 41 H        5.3440     3.4110    -0.8400 H     1 <1>   0.0800 
 42 H        1.6560     4.1090     0.9220 H     1 <1>   0.0800 
 43 H        2.0740     5.3600    -0.2270 H     1 <1>   0.0800 
 44 H       -6.7540    -2.6490     0.8630 H     1 <1>   0.1500 
 45 H        4.1250     5.9410    -1.1150 H     1 <1>   0.4000 
 46 H        5.3820     5.5360     0.8870 H     1 <1>   0.0800 
 47 H        5.0520     3.9300     1.5170 H     1 <1>   0.0800 
@<TRIPOS>BOND
  1   1   2  1   
  2   1   3  1   
  3   2   4  ar  
  4   2   5  ar  
  5   3   6  1   
  6   3  26  1   
  7   3  27  1   
  8   4   7  ar  
  9   5   8  1   
 10   5   9  ar  
 11   6  10  1   
 12   6  28  1   
 13   6  29  1   
 14   7  11  ar  
 15   7  30  1   
 16   8  12  2   
 17   8  13  am  
 18   9  11  ar  
 19   9  31  1   
 20  10  14  ar  
 21  10  15  ar  
 22  11  32  1   
 23  13  16  1   
 24  13  17  1   
 25  14  18  ar  
 26  14  33  1   
 27  15  19  ar  
 28  15  34  1   
 29  16  20  1   
 30  16  21  1   
 31  16  35  1   
 32  17  36  1   
 33  17  37  1   
 34  17  38  1   
 35  18  22  ar  
 36  18  39  1   
 37  19  22  ar  
 38  19  40  1   
 39  20  23  1   
 40  20  24  1   
 41  20  41  1   
 42  21  25  1   
 43  21  42  1   
 44  21  43  1   
 45  22  44  1   
 46  23  45  1   
 47  24  25  1   
 48  24  46  1   
 49  24  47  1   
@<TRIPOS>SUBSTRUCTURE
  1 ****   1 GROUP 4 **** **** 0

# MOE 2024.06 (io_trps.svl 2023.06)
