@<TRIPOS>MOLECULE
NONAME
45 46 1 0 0 
SMALL
USER_CHARGES


@<TRIPOS>ATOM
  1 O       -3.4850     1.9390     1.4800 O.2   1 <1>  -0.5700 
  2 C       -2.3300     1.8460     1.0930 C.2   1 <1>   0.5440 
  3 N       -1.6530     0.6650     1.3800 N.am  1 <1>  -0.6600 
  4 C       -1.7480     2.9610     0.3310 C.ar  1 <1>   0.3960 
  5 C       -2.1950    -0.3440     2.3330 C.3   1 <1>   0.0600 
  6 C       -0.3510     0.2950     0.7620 C.3   1 <1>   0.0600 
  7 N       -0.4490     3.2760     0.4690 N.ar  1 <1>  -0.6200 
  8 C       -2.5800     3.6790    -0.5280 C.ar  1 <1>  -0.1500 
  9 C        0.0210     4.2880    -0.2440 C.ar  1 <1>   0.4100 
 10 C       -2.0980     4.7360    -1.2690 C.ar  1 <1>  -0.1500 
 11 N        1.3650     4.5890    -0.1010 N.pl3 1 <1>  -0.8380 
 12 C       -0.7680     5.0350    -1.1130 C.ar  1 <1>  -0.1500 
 13 C        2.2270     4.6070    -1.3070 C.3   1 <1>   0.2090 
 14 C        2.0180     4.3020     1.2060 C.3   1 <1>   0.2090 
 15 C        2.7350     6.0300    -1.5560 C.3   1 <1>  -0.1600 
 16 C        3.4130     4.9240     1.3530 C.3   1 <1>  -0.1600 
 17 C        3.8850     6.4910    -0.6370 C.3   1 <1>  -0.0800 
 18 C        3.5330     6.3790     0.8630 C.3   1 <1>  -0.1600 
 19 C        4.2670     7.9360    -1.0210 C.3   1 <1>  -0.1600 
 20 C        5.5920     8.4140    -0.4110 C.3   1 <1>  -0.2400 
 21 H       -3.0120     0.0650     2.9020 H     1 <1>   0.0800 
 22 H       -1.4240    -0.6480     3.0190 H     1 <1>   0.0800 
 23 H       -2.5470    -1.2020     1.7890 H     1 <1>   0.0800 
 24 H       -0.2620     0.7310    -0.2170 H     1 <1>   0.0800 
 25 H       -0.2760    -0.7740     0.6660 H     1 <1>   0.0800 
 26 H        0.4540     0.6540     1.3790 H     1 <1>   0.0800 
 27 H       -3.6160     3.4010    -0.6050 H     1 <1>   0.1500 
 28 H       -2.7330     5.2980    -1.9310 H     1 <1>   0.1500 
 29 H       -0.3250     5.8510    -1.6490 H     1 <1>   0.1500 
 30 H        1.6510     4.2840    -2.1580 H     1 <1>   0.0800 
 31 H        3.0490     3.9220    -1.1930 H     1 <1>   0.0800 
 32 H        2.0860     3.2360     1.3410 H     1 <1>   0.0800 
 33 H        1.3830     4.6890     1.9850 H     1 <1>   0.0800 
 34 H        1.9080     6.7130    -1.4740 H     1 <1>   0.0800 
 35 H        3.0820     6.0710    -2.5730 H     1 <1>   0.0800 
 36 H        4.1390     4.3040     0.8590 H     1 <1>   0.0800 
 37 H        3.6560     4.8980     2.4000 H     1 <1>   0.0800 
 38 H        4.7370     5.8630    -0.8340 H     1 <1>   0.0800 
 39 H        4.3150     6.8360     1.4400 H     1 <1>   0.0800 
 40 H        2.6240     6.9160     1.0740 H     1 <1>   0.0800 
 41 H        3.4770     8.6090    -0.7320 H     1 <1>   0.0800 
 42 H        4.3640     7.9980    -2.0920 H     1 <1>   0.0800 
 43 H        5.5140     8.5250     0.6550 H     1 <1>   0.0800 
 44 H        5.8560     9.3710    -0.8240 H     1 <1>   0.0800 
 45 H        6.3820     7.7190    -0.6340 H     1 <1>   0.0800 
@<TRIPOS>BOND
  1   1   2  2   
  2   2   3  am  
  3   2   4  1   
  4   3   5  1   
  5   3   6  1   
  6   4   7  ar  
  7   4   8  ar  
  8   5  21  1   
  9   5  22  1   
 10   5  23  1   
 11   6  24  1   
 12   6  25  1   
 13   6  26  1   
 14   7   9  ar  
 15   8  10  ar  
 16   8  27  1   
 17   9  11  1   
 18   9  12  ar  
 19  10  12  ar  
 20  10  28  1   
 21  11  13  1   
 22  11  14  1   
 23  12  29  1   
 24  13  15  1   
 25  13  30  1   
 26  13  31  1   
 27  14  16  1   
 28  14  32  1   
 29  14  33  1   
 30  15  17  1   
 31  15  34  1   
 32  15  35  1   
 33  16  18  1   
 34  16  36  1   
 35  16  37  1   
 36  17  18  1   
 37  17  19  1   
 38  17  38  1   
 39  18  39  1   
 40  18  40  1   
 41  19  20  1   
 42  19  41  1   
 43  19  42  1   
 44  20  43  1   
 45  20  44  1   
 46  20  45  1   
@<TRIPOS>SUBSTRUCTURE
  1 ****   9 GROUP 4 **** **** 0

# MOE 2024.06 (io_trps.svl 2023.06)
