@<TRIPOS>MOLECULE
NONAME
50 51 1 0 0 
SMALL
USER_CHARGES


@<TRIPOS>ATOM
  1 O        0.3520     0.3340    -0.9110 O.2   1 <1>  -0.5700 
  2 C        1.0130    -0.4680    -0.2970 C.2   1 <1>   0.5690 
  3 N        1.9000    -0.0870     0.6520 N.am  1 <1>  -0.7300 
  4 C        0.8600    -1.9370    -0.6020 C.3   1 <1>  -0.0990 
  5 C        2.1360     1.3080     1.0590 C.3   1 <1>   0.3200 
  6 C       -0.1120    -2.5950     0.3870 C.3   1 <1>   0.1760 
  7 C        3.0410     1.9570     0.0410 C.2   1 <1>  -0.3320 
  8 N        0.0360    -4.0790     0.3340 N.pl3 1 <1>   0.3140 
  9 C       -1.5690    -2.1260     0.2230 C.3   1 <1>  -0.2400 
 10 N        2.6770     2.1060    -1.2470 N.pl3 1 <1>   0.3000 
 11 C        4.2760     2.4900     0.1590 C.2   1 <1>  -0.1500 
 12 N        0.7850    -4.6610     1.2840 N.2   1 <1>  -0.7070 
 13 C       -0.4190    -4.9990    -0.5490 C.2   1 <1>  -0.3320 
 14 N        3.6370     2.7210    -1.9680 N.2   1 <1>  -0.7070 
 15 C        4.5950     2.9480    -1.1170 C.2   1 <1>   0.1080 
 16 C        0.7800    -5.9210     1.0060 C.2   1 <1>   0.1080 
 17 C        0.0250    -6.2290    -0.1330 C.2   1 <1>  -0.0860 
 18 C       -1.2440    -4.6730    -1.7900 C.3   1 <1>  -0.0600 
 19 C        5.8960     3.6380    -1.5120 C.3   1 <1>   0.3010 
 20 C        1.5270    -6.9160     1.8690 C.3   1 <1>  -0.0590 
 21 C       -0.1790    -7.5620    -0.6450 C.2   1 <1>   0.5950 
 22 O        6.7780     3.7170    -0.4240 O.3   1 <1>  -0.5600 
 23 O        0.6270    -8.4520    -0.5430 O.2   1 <1>  -0.5700 
 24 C       -1.4830    -7.9160    -1.3260 C.3   1 <1>  -0.1790 
 25 C        7.9860     4.3370    -0.7230 C.3   1 <1>   0.0400 
 26 H        2.5550    -0.7660     1.0450 H     1 <1>   0.3700 
 27 H        1.8250    -2.4040    -0.5260 H     1 <1>   0.0800 
 28 H        0.5080    -2.0470    -1.6100 H     1 <1>   0.0800 
 29 H        2.5920     1.3300     2.0340 H     1 <1>   0.0800 
 30 H        1.1980     1.8380     1.1060 H     1 <1>   0.0800 
 31 H        0.1950    -2.3100     1.3790 H     1 <1>   0.0800 
 32 H       -1.8980    -2.2060    -0.7960 H     1 <1>   0.0800 
 33 H       -1.6520    -1.0930     0.5100 H     1 <1>   0.0800 
 34 H       -2.2170    -2.7020     0.8600 H     1 <1>   0.0800 
 35 H        1.7830     1.7740    -1.6440 H     1 <1>   0.2700 
 36 H        4.9120     2.5690     1.0230 H     1 <1>   0.1500 
 37 H       -0.8630    -3.7970    -2.2810 H     1 <1>   0.0800 
 38 H       -2.2710    -4.5060    -1.5200 H     1 <1>   0.0800 
 39 H       -1.2020    -5.4750    -2.5020 H     1 <1>   0.0800 
 40 H        5.6780     4.6330    -1.8540 H     1 <1>   0.0800 
 41 H        6.3680     3.0790    -2.3000 H     1 <1>   0.0800 
 42 H        1.9230    -6.4260     2.7400 H     1 <1>   0.0800 
 43 H        2.3400    -7.3420     1.3100 H     1 <1>   0.0800 
 44 H        0.8650    -7.7020     2.1830 H     1 <1>   0.0800 
 45 H       -2.2630    -7.2470    -1.0160 H     1 <1>   0.0800 
 46 H       -1.7630    -8.9180    -1.0580 H     1 <1>   0.0800 
 47 H       -1.3580    -7.8660    -2.3910 H     1 <1>   0.0800 
 48 H        8.5860     4.3470     0.1700 H     1 <1>   0.0800 
 49 H        7.7980     5.3470    -1.0440 H     1 <1>   0.0800 
 50 H        8.4910     3.7790    -1.4930 H     1 <1>   0.0800 
@<TRIPOS>BOND
  1   1   2  2   
  2   2   3  am  
  3   2   4  1   
  4   3   5  1   
  5   3  26  1   
  6   4   6  1   
  7   4  27  1   
  8   4  28  1   
  9   5   7  1   
 10   5  29  1   
 11   5  30  1   
 12   6   8  1   
 13   6   9  1   
 14   6  31  1   
 15   7  10  1   
 16   7  11  2   
 17   8  12  1   
 18   8  13  1   
 19   9  32  1   
 20   9  33  1   
 21   9  34  1   
 22  10  14  1   
 23  10  35  1   
 24  11  15  1   
 25  11  36  1   
 26  12  16  2   
 27  13  17  2   
 28  13  18  1   
 29  14  15  2   
 30  15  19  1   
 31  16  17  1   
 32  16  20  1   
 33  17  21  1   
 34  18  37  1   
 35  18  38  1   
 36  18  39  1   
 37  19  22  1   
 38  19  40  1   
 39  19  41  1   
 40  20  42  1   
 41  20  43  1   
 42  20  44  1   
 43  21  23  2   
 44  21  24  1   
 45  22  25  1   
 46  24  45  1   
 47  24  46  1   
 48  24  47  1   
 49  25  48  1   
 50  25  49  1   
 51  25  50  1   
@<TRIPOS>SUBSTRUCTURE
  1 ****   4 GROUP 4 **** **** 0

# MOE 2024.06 (io_trps.svl 2023.06)
