@<TRIPOS>MOLECULE
NONAME
54 56 1 0 0 
SMALL
USER_CHARGES


@<TRIPOS>ATOM
  1 O        0.7010    -0.8350     0.0870 O.3   1 <1>  -0.5600 
  2 C       -0.0320    -1.9050     0.6420 C.3   1 <1>   0.2800 
  3 C        0.1670     0.4530     0.2240 C.3   1 <1>   0.1200 
  4 C       -1.5500    -1.7140     0.3900 C.3   1 <1>  -0.1600 
  5 C        0.3050    -1.9990     2.1420 C.3   1 <1>  -0.1600 
  6 C        0.4940    -3.1840    -0.0450 C.3   1 <1>  -0.1600 
  7 C       -1.1600     0.5780    -0.5410 C.3   1 <1>  -0.1600 
  8 C       -1.8430    -0.7730    -0.7820 C.3   1 <1>   0.2800 
  9 C        1.8120    -2.1290     2.4120 C.3   1 <1>   0.3430 
 10 C        1.8490    -3.6770     0.4750 C.3   1 <1>   0.3430 
 11 O       -1.2800    -1.3130    -1.9080 O.3   1 <1>  -0.6800 
 12 C       -3.3350    -0.6300    -1.0630 C.3   1 <1>  -0.2400 
 13 N        2.5350    -2.5790     1.1970 N.4   1 <1>  -0.9590 
 14 C        3.9810    -2.8270     1.4110 C.3   1 <1>   0.4860 
 15 C        4.6520    -2.9240     0.0580 C.ar  1 <1>  -0.1430 
 16 C        5.1810    -4.1360    -0.3630 C.ar  1 <1>   0.0820 
 17 C        4.7270    -1.8020    -0.7580 C.ar  1 <1>   0.0820 
 18 O        5.0470    -5.1960     0.4750 O.3   1 <1>  -0.3630 
 19 C        5.8030    -4.2190    -1.6050 C.ar  1 <1>  -0.1500 
 20 O        4.1620    -0.6550    -0.2930 O.3   1 <1>  -0.3630 
 21 C        5.3530    -1.8950    -1.9980 C.ar  1 <1>  -0.1500 
 22 C        5.6750    -6.4320     0.1990 C.3   1 <1>   0.0400 
 23 C        5.8880    -3.1010    -2.4150 C.ar  1 <1>  -0.1500 
 24 C        4.1410     0.5220    -1.0750 C.3   1 <1>   0.0400 
 25 H        0.8860     1.1550    -0.1620 H     1 <1>   0.0800 
 26 H        0.0220     0.6550     1.2710 H     1 <1>   0.0800 
 27 H       -2.0050    -1.2930     1.2680 H     1 <1>   0.0800 
 28 H       -2.0390    -2.6580     0.2290 H     1 <1>   0.0800 
 29 H       -0.1880    -2.8620     2.5520 H     1 <1>   0.0800 
 30 H       -0.0780    -1.1490     2.6760 H     1 <1>   0.0800 
 31 H        0.5630    -3.0260    -1.1060 H     1 <1>   0.0800 
 32 H       -0.2050    -3.9880     0.0960 H     1 <1>   0.0800 
 33 H       -1.0060     1.0850    -1.4770 H     1 <1>   0.0800 
 34 H       -1.8090     1.2060     0.0430 H     1 <1>   0.0800 
 35 H        1.9740    -2.8220     3.2220 H     1 <1>   0.0800 
 36 H        2.1990    -1.1670     2.7090 H     1 <1>   0.0800 
 37 H        2.4480    -4.0140    -0.3560 H     1 <1>   0.0800 
 38 H        1.7050    -4.5090     1.1440 H     1 <1>   0.0800 
 39 H       -0.3100    -1.2380    -1.8100 H     1 <1>   0.4000 
 40 H       -3.8410    -0.2180    -0.2090 H     1 <1>   0.0800 
 41 H       -3.7670    -1.5900    -1.2840 H     1 <1>   0.0800 
 42 H       -3.4940     0.0250    -1.9010 H     1 <1>   0.0800 
 43 H        2.4970    -1.7740     0.5390 H     1 <1>   0.4500 
 44 H        4.1280    -3.7330     1.9740 H     1 <1>   0.0800 
 45 H        4.4180    -2.0060     1.9550 H     1 <1>   0.0800 
 46 H        6.2260    -5.1400    -1.9630 H     1 <1>   0.1500 
 47 H        5.4340    -1.0480    -2.6530 H     1 <1>   0.1500 
 48 H        5.4840    -7.0990     1.0210 H     1 <1>   0.0800 
 49 H        6.7340    -6.2730     0.0990 H     1 <1>   0.0800 
 50 H        5.2610    -6.8430    -0.7050 H     1 <1>   0.0800 
 51 H        6.3720    -3.1690    -3.3740 H     1 <1>   0.1500 
 52 H        3.6370     1.2890    -0.5160 H     1 <1>   0.0800 
 53 H        3.6080     0.3270    -1.9890 H     1 <1>   0.0800 
 54 H        5.1530     0.8260    -1.2770 H     1 <1>   0.0800 
@<TRIPOS>BOND
  1   1   2  1   
  2   1   3  1   
  3   2   4  1   
  4   2   5  1   
  5   2   6  1   
  6   3   7  1   
  7   3  25  1   
  8   3  26  1   
  9   4   8  1   
 10   4  27  1   
 11   4  28  1   
 12   5   9  1   
 13   5  29  1   
 14   5  30  1   
 15   6  10  1   
 16   6  31  1   
 17   6  32  1   
 18   7   8  1   
 19   7  33  1   
 20   7  34  1   
 21   8  11  1   
 22   8  12  1   
 23   9  13  1   
 24   9  35  1   
 25   9  36  1   
 26  10  13  1   
 27  10  37  1   
 28  10  38  1   
 29  11  39  1   
 30  12  40  1   
 31  12  41  1   
 32  12  42  1   
 33  13  14  1   
 34  13  43  1   
 35  14  15  1   
 36  14  44  1   
 37  14  45  1   
 38  15  16  ar  
 39  15  17  ar  
 40  16  18  1   
 41  16  19  ar  
 42  17  20  1   
 43  17  21  ar  
 44  18  22  1   
 45  19  23  ar  
 46  19  46  1   
 47  20  24  1   
 48  21  23  ar  
 49  21  47  1   
 50  22  48  1   
 51  22  49  1   
 52  22  50  1   
 53  23  51  1   
 54  24  52  1   
 55  24  53  1   
 56  24  54  1   
@<TRIPOS>SUBSTRUCTURE
  1 ****  13 GROUP 4 **** **** 0

# MOE 2024.06 (io_trps.svl 2023.06)
