@<TRIPOS>MOLECULE
NONAME
47 48 1 0 0 
SMALL
USER_CHARGES


@<TRIPOS>ATOM
  1 F       -2.1530    -0.8120     0.3790 F     1 <1>  -0.1900 
  2 C       -2.2670    -2.1100     0.2550 C.ar  1 <1>   0.1900 
  3 C       -1.2850    -2.9900     0.7230 C.ar  1 <1>   0.0820 
  4 C       -3.4100    -2.5700    -0.3680 C.ar  1 <1>  -0.1500 
  5 O       -0.1200    -2.6610     1.3520 O.3   1 <1>  -0.3630 
  6 C       -1.4980    -4.3470     0.5380 C.ar  1 <1>  -0.1500 
  7 C       -3.5890    -3.9310    -0.5360 C.ar  1 <1>  -0.1500 
  8 C        0.2380    -1.3320     1.6630 C.3   1 <1>   0.0400 
  9 C       -2.6410    -4.8540    -0.0880 C.ar  1 <1>   0.0530 
 10 C       -2.8200    -6.2790    -0.2620 C.2   1 <1>   0.0870 
 11 O       -1.8320    -7.1070     0.0020 O.3   1 <1>  -0.0190 
 12 C       -3.8670    -7.0510    -0.6550 C.2   1 <1>  -0.2330 
 13 N       -2.1480    -8.3640    -0.1840 N.2   1 <1>  -0.4100 
 14 C       -3.3620    -8.3430    -0.5970 C.2   1 <1>   0.3720 
 15 C       -5.2390    -6.8100    -0.9460 C.2   1 <1>   1.0330 
 16 N       -4.1140    -9.4600    -0.9300 N.pl3 1 <1>  -0.8520 
 17 O       -5.9520    -6.1510    -0.1680 O.co2 1 <1>  -0.9000 
 18 O       -5.8330    -7.4420    -1.8380 O.co2 1 <1>  -0.9000 
 19 C       -4.5120   -10.3680     0.1730 C.3   1 <1>   0.2090 
 20 C       -5.6490    -9.8170     1.0690 C.3   1 <1>  -0.0800 
 21 C       -6.8830    -9.4520     0.2020 C.3   1 <1>   0.3430 
 22 C       -5.1200    -8.7530     2.0610 C.3   1 <1>  -0.2400 
 23 N       -7.6240    -8.2080     0.5760 N.4   1 <1>  -0.9590 
 24 C       -8.3360    -8.2260     1.8800 C.3   1 <1>   0.2630 
 25 C       -8.5390    -7.8170    -0.5330 C.3   1 <1>   0.2630 
 26 H       -4.1510    -1.8740    -0.7170 H     1 <1>   0.1500 
 27 H       -0.7470    -5.0260     0.8970 H     1 <1>   0.1500 
 28 H       -4.4840    -4.2740    -1.0220 H     1 <1>   0.1500 
 29 H        1.1830    -1.3520     2.1750 H     1 <1>   0.0800 
 30 H       -0.5140    -0.9070     2.3040 H     1 <1>   0.0800 
 31 H        0.3310    -0.7720     0.7500 H     1 <1>   0.0800 
 32 H       -4.9130    -9.1150    -1.4960 H     1 <1>   0.4000 
 33 H       -3.6430   -10.5840     0.7730 H     1 <1>   0.0800 
 34 H       -4.8280   -11.2990    -0.2680 H     1 <1>   0.0800 
 35 H       -5.9500   -10.6510     1.6780 H     1 <1>   0.0800 
 36 H       -7.5650   -10.2850     0.2010 H     1 <1>   0.0800 
 37 H       -6.5460    -9.3310    -0.8130 H     1 <1>   0.0800 
 38 H       -5.0520    -7.7800     1.6180 H     1 <1>   0.0800 
 39 H       -4.1350    -9.0210     2.4050 H     1 <1>   0.0800 
 40 H       -5.7460    -8.6840     2.9300 H     1 <1>   0.0800 
 41 H       -6.9130    -7.4260     0.5540 H     1 <1>   0.4500 
 42 H       -9.1190    -8.9650     1.8650 H     1 <1>   0.0800 
 43 H       -8.7710    -7.2590     2.0700 H     1 <1>   0.0800 
 44 H       -7.6590    -8.4570     2.6810 H     1 <1>   0.0800 
 45 H       -9.3390    -8.5290    -0.6370 H     1 <1>   0.0800 
 46 H       -7.9930    -7.7660    -1.4620 H     1 <1>   0.0800 
 47 H       -8.9520    -6.8400    -0.3410 H     1 <1>   0.0800 
@<TRIPOS>BOND
  1   1   2  1   
  2   2   3  ar  
  3   2   4  ar  
  4   3   5  1   
  5   3   6  ar  
  6   4   7  ar  
  7   4  26  1   
  8   5   8  1   
  9   6   9  ar  
 10   6  27  1   
 11   7   9  ar  
 12   7  28  1   
 13   8  29  1   
 14   8  30  1   
 15   8  31  1   
 16   9  10  1   
 17  10  11  1   
 18  10  12  2   
 19  11  13  1   
 20  12  14  1   
 21  12  15  1   
 22  13  14  2   
 23  14  16  1   
 24  15  17  ar  
 25  15  18  ar  
 26  16  19  1   
 27  16  32  1   
 28  19  20  1   
 29  19  33  1   
 30  19  34  1   
 31  20  21  1   
 32  20  22  1   
 33  20  35  1   
 34  21  23  1   
 35  21  36  1   
 36  21  37  1   
 37  22  38  1   
 38  22  39  1   
 39  22  40  1   
 40  23  24  1   
 41  23  25  1   
 42  23  41  1   
 43  24  42  1   
 44  24  43  1   
 45  24  44  1   
 46  25  45  1   
 47  25  46  1   
 48  25  47  1   
@<TRIPOS>SUBSTRUCTURE
  1 ****  12 GROUP 4 **** **** 0

# MOE 2024.06 (io_trps.svl 2023.06)
