@<TRIPOS>MOLECULE
NONAME
52 55 1 0 0 
SMALL
USER_CHARGES


@<TRIPOS>ATOM
  1 O       -0.7160     1.5140    -2.0180 O.2   1 <1>  -0.5700 
  2 C       -0.5180     2.6830    -1.7840 C.2   1 <1>   0.5690 
  3 N       -0.6630     3.2350    -0.5380 N.am  1 <1>  -0.5090 
  4 C       -0.1100     3.5810    -2.9500 C.3   1 <1>   0.1810 
  5 C       -0.6070     4.7160    -0.3250 C.3   1 <1>   0.3640 
  6 C       -0.9560     2.4190     0.6670 C.3   1 <1>   0.0490 
  7 O        0.5040     4.7710    -2.5200 O.3   1 <1>  -0.5600 
  8 C       -1.9240     5.1910     0.2900 C.ar  1 <1>  -0.1440 
  9 C       -0.2840     5.5210    -1.6100 C.3   1 <1>   0.2610 
 10 C       -0.0160     2.4920     1.8310 C.3   1 <1>  -0.2000 
 11 C       -0.0810     1.2520     0.9980 C.3   1 <1>  -0.2000 
 12 C       -1.9080     6.0100     1.4110 C.ar  1 <1>   0.1600 
 13 C       -3.1490     4.8250    -0.2400 C.ar  1 <1>  -0.1500 
 14 C        0.4340     6.8180    -1.2230 C.2   1 <1>   0.5690 
 15 N       -2.9810     6.4740     2.0320 N.ar  1 <1>  -0.6200 
 16 C       -4.2760     5.3020     0.3920 C.ar  1 <1>  -0.1500 
 17 O       -0.1330     7.6220    -0.5230 O.2   1 <1>  -0.5700 
 18 N        1.7100     7.0380    -1.6400 N.am  1 <1>  -0.7300 
 19 C       -4.1390     6.1100     1.5080 C.ar  1 <1>   0.1600 
 20 C        2.4960     8.2610    -1.3440 C.3   1 <1>   0.1400 
 21 C        3.0630     8.1930     0.0760 C.3   1 <1>   0.0200 
 22 C        3.4120     9.5820     0.5720 C.2   1 <1>   0.0060 
 23 N        4.5990    10.0830     0.5240 N.2   1 <1>  -0.3380 
 24 N        2.5360    10.4410     1.1090 N.pl3 1 <1>   0.0480 
 25 N        4.5270    11.3100     1.0410 N.2   1 <1>  -0.3380 
 26 C        3.3000    11.5000     1.3810 C.2   1 <1>   0.0360 
 27 C        1.0800    10.3030     1.3440 C.3   1 <1>   0.0960 
 28 C        0.8020     9.6190     2.6860 C.3   1 <1>  -0.2400 
 29 H       -0.9750     3.8300    -3.5380 H     1 <1>   0.0800 
 30 H        0.5920     3.0570    -3.5720 H     1 <1>   0.0800 
 31 H        0.1840     4.9030     0.3790 H     1 <1>   0.0800 
 32 H       -2.0130     2.3290     0.8600 H     1 <1>   0.1000 
 33 H       -1.1970     5.7880    -2.1120 H     1 <1>   0.0800 
 34 H        0.8810     3.0810     1.7710 H     1 <1>   0.1000 
 35 H       -0.4230     2.4530     2.8260 H     1 <1>   0.1000 
 36 H       -0.5400     0.3730     1.4160 H     1 <1>   0.1000 
 37 H        0.7310     1.0160     0.3330 H     1 <1>   0.1000 
 38 H       -0.9600     6.3090     1.8240 H     1 <1>   0.1500 
 39 H       -3.2310     4.1870    -1.1030 H     1 <1>   0.1500 
 40 H       -5.2560     5.0510     0.0280 H     1 <1>   0.1500 
 41 H        2.1410     6.3350    -2.2530 H     1 <1>   0.3700 
 42 H       -5.0280     6.4750     1.9940 H     1 <1>   0.1500 
 43 H        3.2950     8.3740    -2.0570 H     1 <1>   0.0800 
 44 H        1.8460     9.1160    -1.4330 H     1 <1>   0.0800 
 45 H        3.9470     7.5810     0.0780 H     1 <1>   0.0800 
 46 H        2.3470     7.7540     0.7460 H     1 <1>   0.0800 
 47 H        2.9210    12.3990     1.8300 H     1 <1>   0.1500 
 48 H        0.6340    11.2820     1.3340 H     1 <1>   0.0800 
 49 H        0.6470     9.7340     0.5420 H     1 <1>   0.0800 
 50 H        1.2080    10.2000     3.4950 H     1 <1>   0.0800 
 51 H        1.2290     8.6330     2.7050 H     1 <1>   0.0800 
 52 H       -0.2600     9.5280     2.8300 H     1 <1>   0.0800 
@<TRIPOS>BOND
  1   1   2  2   
  2   2   3  am  
  3   2   4  1   
  4   3   5  1   
  5   3   6  1   
  6   4   7  1   
  7   4  29  1   
  8   4  30  1   
  9   5   8  1   
 10   5   9  1   
 11   5  31  1   
 12   6  10  1   
 13   6  11  1   
 14   6  32  1   
 15   7   9  1   
 16   8  12  ar  
 17   8  13  ar  
 18   9  14  1   
 19   9  33  1   
 20  10  11  1   
 21  10  34  1   
 22  10  35  1   
 23  11  36  1   
 24  11  37  1   
 25  12  15  ar  
 26  12  38  1   
 27  13  16  ar  
 28  13  39  1   
 29  14  17  2   
 30  14  18  am  
 31  15  19  ar  
 32  16  19  ar  
 33  16  40  1   
 34  18  20  1   
 35  18  41  1   
 36  19  42  1   
 37  20  21  1   
 38  20  43  1   
 39  20  44  1   
 40  21  22  1   
 41  21  45  1   
 42  21  46  1   
 43  22  23  2   
 44  22  24  1   
 45  23  25  1   
 46  24  26  1   
 47  24  27  1   
 48  25  26  2   
 49  26  47  1   
 50  27  28  1   
 51  27  48  1   
 52  27  49  1   
 53  28  50  1   
 54  28  51  1   
 55  28  52  1   
@<TRIPOS>SUBSTRUCTURE
  1 ****  14 GROUP 4 **** **** 0

# MOE 2024.06 (io_trps.svl 2023.06)
