@<TRIPOS>MOLECULE
NONAME
47 48 1 0 0 
SMALL
USER_CHARGES


@<TRIPOS>ATOM
  1 S        0.2700    -0.2060    -0.4660 S.o2  1 <1>   1.3330 
  2 O        0.0050    -0.0060    -1.8730 O.2   1 <1>  -0.6500 
  3 O        1.5560     0.1230     0.1000 O.2   1 <1>  -0.6500 
  4 N       -0.9330     0.5990     0.4240 N.am  1 <1>  -0.8490 
  5 C       -0.0890    -1.9320    -0.1190 C.3   1 <1>  -0.0550 
  6 C       -0.5490     0.8420     1.8210 C.3   1 <1>   0.1160 
  7 C       -1.3140     1.8730    -0.1990 C.3   1 <1>   0.1160 
  8 C       -1.4840    -2.3650    -0.6130 C.3   1 <1>  -0.1600 
  9 C       -1.7530    -3.8420    -0.3320 C.3   1 <1>   0.3430 
 10 N       -3.0420    -4.2540    -0.9500 N.4   1 <1>  -0.9590 
 11 C       -4.2370    -3.6240    -0.2680 C.3   1 <1>   0.3430 
 12 C       -3.1790    -5.7570    -0.9390 C.3   1 <1>   0.3430 
 13 C       -5.5830    -4.0580    -0.8870 C.3   1 <1>   0.2090 
 14 C       -4.4980    -6.2480    -1.5760 C.3   1 <1>   0.2090 
 15 N       -5.6920    -5.5420    -1.0220 N.pl3 1 <1>  -0.8380 
 16 C       -6.4490    -6.2210    -0.0560 C.ar  1 <1>   0.1000 
 17 C       -6.0440    -6.4360     1.2680 C.ar  1 <1>   0.1900 
 18 C       -7.6930    -6.7220    -0.4190 C.ar  1 <1>  -0.1500 
 19 F       -4.8780    -5.9850     1.6680 F     1 <1>  -0.1900 
 20 C       -6.8200    -7.1100     2.1900 C.ar  1 <1>  -0.1500 
 21 C       -8.4870    -7.4010     0.4910 C.ar  1 <1>  -0.1500 
 22 C       -8.0550    -7.5960     1.7940 C.ar  1 <1>  -0.1500 
 23 H       -0.0120    -2.0960     0.9380 H     1 <1>   0.0800 
 24 H        0.6590    -2.5330    -0.5990 H     1 <1>   0.0800 
 25 H       -0.2780    -0.0820     2.3010 H     1 <1>   0.0800 
 26 H       -1.3720     1.2780     2.3620 H     1 <1>   0.0800 
 27 H        0.2940     1.5140     1.8700 H     1 <1>   0.0800 
 28 H       -1.7020     1.7010    -1.1890 H     1 <1>   0.0800 
 29 H       -0.4590     2.5250    -0.2730 H     1 <1>   0.0800 
 30 H       -2.0800     2.3590     0.3810 H     1 <1>   0.0800 
 31 H       -1.5390    -2.1840    -1.6730 H     1 <1>   0.0800 
 32 H       -2.2190    -1.7520    -0.1220 H     1 <1>   0.0800 
 33 H       -1.7790    -4.0190     0.7320 H     1 <1>   0.0800 
 34 H       -0.9510    -4.4280    -0.7520 H     1 <1>   0.0800 
 35 H       -3.0530    -3.9500    -1.9330 H     1 <1>   0.4500 
 36 H       -4.1690    -2.5510    -0.3200 H     1 <1>   0.0800 
 37 H       -4.2430    -3.9010     0.7730 H     1 <1>   0.0800 
 38 H       -3.1470    -6.1130     0.0770 H     1 <1>   0.0800 
 39 H       -2.3530    -6.2040    -1.4670 H     1 <1>   0.0800 
 40 H       -5.6950    -3.6100    -1.8590 H     1 <1>   0.0800 
 41 H       -6.3890    -3.6960    -0.2710 H     1 <1>   0.0800 
 42 H       -4.5990    -7.3070    -1.4070 H     1 <1>   0.0800 
 43 H       -4.4650    -6.0950    -2.6410 H     1 <1>   0.0800 
 44 H       -8.0360    -6.5750    -1.4270 H     1 <1>   0.1500 
 45 H       -6.4700    -7.2520     3.1960 H     1 <1>   0.1500 
 46 H       -9.4470    -7.7790     0.1840 H     1 <1>   0.1500 
 47 H       -8.6790    -8.1250     2.4960 H     1 <1>   0.1500 
@<TRIPOS>BOND
  1   1   2  2   
  2   1   3  2   
  3   1   4  am  
  4   1   5  1   
  5   4   6  1   
  6   4   7  1   
  7   5   8  1   
  8   5  23  1   
  9   5  24  1   
 10   6  25  1   
 11   6  26  1   
 12   6  27  1   
 13   7  28  1   
 14   7  29  1   
 15   7  30  1   
 16   8   9  1   
 17   8  31  1   
 18   8  32  1   
 19   9  10  1   
 20   9  33  1   
 21   9  34  1   
 22  10  11  1   
 23  10  12  1   
 24  10  35  1   
 25  11  13  1   
 26  11  36  1   
 27  11  37  1   
 28  12  14  1   
 29  12  38  1   
 30  12  39  1   
 31  13  15  1   
 32  13  40  1   
 33  13  41  1   
 34  14  15  1   
 35  14  42  1   
 36  14  43  1   
 37  15  16  1   
 38  16  17  ar  
 39  16  18  ar  
 40  17  19  1   
 41  17  20  ar  
 42  18  21  ar  
 43  18  44  1   
 44  20  22  ar  
 45  20  45  1   
 46  21  22  ar  
 47  21  46  1   
 48  22  47  1   
@<TRIPOS>SUBSTRUCTURE
  1 ****  11 GROUP 4 **** **** 0

# MOE 2024.06 (io_trps.svl 2023.06)
