@<TRIPOS>MOLECULE
NONAME
43 44 1 0 0 
SMALL
USER_CHARGES


@<TRIPOS>ATOM
  1 O        0.3360     0.5450     0.6830 O.3   1 <1>  -0.0190 
  2 N        1.3060     1.3480     0.3710 N.2   1 <1>  -0.4100 
  3 C        0.8800    -0.6460     0.6290 C.2   1 <1>   0.2980 
  4 C        2.3400     0.6280     0.1580 C.2   1 <1>   0.3350 
  5 N        2.1130    -0.6720     0.3170 N.2   1 <1>  -0.5650 
  6 C        0.0270    -1.8610     0.9470 C.3   1 <1>   0.0200 
  7 C        3.7250     1.1500    -0.2380 C.3   1 <1>   0.3900 
  8 C       -0.7340    -2.4050    -0.2780 C.3   1 <1>  -0.0800 
  9 N        3.7280     2.6230    -0.4800 N.pl3 1 <1>  -0.8690 
 10 C       -1.7530    -1.3960    -0.8290 C.3   1 <1>  -0.2400 
 11 C       -1.4530    -3.7120     0.0810 C.3   1 <1>  -0.2400 
 12 C        4.8380     3.3970    -0.2730 C.ar  1 <1>   0.4100 
 13 N        6.0070     2.7900    -0.2180 N.ar  1 <1>  -0.6200 
 14 C        4.7330     4.7590    -0.1340 C.ar  1 <1>  -0.1500 
 15 C        7.0420     3.5850    -0.0260 C.ar  1 <1>   0.4700 
 16 C        5.8800     5.4870     0.0710 C.ar  1 <1>   0.4100 
 17 N        7.0600     4.8940     0.1250 N.ar  1 <1>  -0.6200 
 18 N        5.8320     6.8580     0.2400 N.pl3 1 <1>  -0.8380 
 19 C        6.9620     7.7020    -0.2290 C.3   1 <1>   0.2090 
 20 C        5.0410     7.4060     1.3750 C.3   1 <1>   0.1290 
 21 C        6.4140     8.9250    -0.9580 C.3   1 <1>  -0.2400 
 22 H       -0.6640    -1.6090     1.7310 H     1 <1>   0.0800 
 23 H        0.6790    -2.6290     1.3230 H     1 <1>   0.0800 
 24 H        4.0450     0.6490    -1.1340 H     1 <1>   0.0800 
 25 H        4.4160     0.9070     0.5490 H     1 <1>   0.0800 
 26 H       -0.0150    -2.6180    -1.0530 H     1 <1>   0.0800 
 27 H        2.8130     3.0380    -0.2790 H     1 <1>   0.4000 
 28 H       -2.4610    -1.1140    -0.0690 H     1 <1>   0.0800 
 29 H       -2.2920    -1.8250    -1.6550 H     1 <1>   0.0800 
 30 H       -1.2590    -0.5100    -1.1860 H     1 <1>   0.0800 
 31 H       -2.1860    -3.5450     0.8510 H     1 <1>   0.0800 
 32 H       -0.7470    -4.4460     0.4300 H     1 <1>   0.0800 
 33 H       -1.9510    -4.1140    -0.7840 H     1 <1>   0.0800 
 34 H        3.7850     5.2490    -0.1910 H     1 <1>   0.1500 
 35 H        8.0020     3.0990     0.0150 H     1 <1>   0.1500 
 36 H        7.5810     7.1410    -0.9090 H     1 <1>   0.0800 
 37 H        7.5680     7.9990     0.6100 H     1 <1>   0.0800 
 38 H        4.5260     6.6140     1.8930 H     1 <1>   0.0800 
 39 H        4.3150     8.1080     1.0050 H     1 <1>   0.0800 
 40 H        5.6920     7.9020     2.0730 H     1 <1>   0.0800 
 41 H        5.7840     8.6120    -1.7700 H     1 <1>   0.0800 
 42 H        7.2300     9.4990    -1.3580 H     1 <1>   0.0800 
 43 H        5.8550     9.5500    -0.2870 H     1 <1>   0.0800 
@<TRIPOS>BOND
  1   1   2  1   
  2   1   3  1   
  3   2   4  2   
  4   3   5  2   
  5   3   6  1   
  6   4   5  1   
  7   4   7  1   
  8   6   8  1   
  9   6  22  1   
 10   6  23  1   
 11   7   9  1   
 12   7  24  1   
 13   7  25  1   
 14   8  10  1   
 15   8  11  1   
 16   8  26  1   
 17   9  12  1   
 18   9  27  1   
 19  10  28  1   
 20  10  29  1   
 21  10  30  1   
 22  11  31  1   
 23  11  32  1   
 24  11  33  1   
 25  12  13  ar  
 26  12  14  ar  
 27  13  15  ar  
 28  14  16  ar  
 29  14  34  1   
 30  15  17  ar  
 31  15  35  1   
 32  16  17  ar  
 33  16  18  1   
 34  18  19  1   
 35  18  20  1   
 36  19  21  1   
 37  19  36  1   
 38  19  37  1   
 39  20  38  1   
 40  20  39  1   
 41  20  40  1   
 42  21  41  1   
 43  21  42  1   
 44  21  43  1   
@<TRIPOS>SUBSTRUCTURE
  1 ****   9 GROUP 4 **** **** 0

# MOE 2024.06 (io_trps.svl 2023.06)
