@<TRIPOS>MOLECULE
NONAME
45 47 1 0 0 
SMALL
USER_CHARGES


@<TRIPOS>ATOM
  1 O        0.2360    -0.0140    -0.3760 O.2   1 <1>  -0.5700 
  2 C        1.3830    -0.3170    -0.5870 C.2   1 <1>   0.5690 
  3 N        2.4370     0.5400    -0.4610 N.am  1 <1>  -0.4940 
  4 C        1.6750    -1.7450    -0.9810 C.3   1 <1>  -0.0990 
  5 C        2.5310     1.8740    -0.0150 C.2   1 <1>  -0.0880 
  6 C        1.2970    -2.6810     0.1710 C.3   1 <1>   0.0960 
  7 N        1.6340     2.8840    -0.1590 N.pl3 1 <1>   0.3140 
  8 C        3.6180     2.3930     0.6240 C.2   1 <1>  -0.0540 
  9 N        1.6080    -4.0770    -0.1830 N.pl3 1 <1>   0.0480 
 10 N        2.1160     4.0400     0.3430 N.2   1 <1>  -0.7070 
 11 C        0.3240     2.8730    -0.8250 C.3   1 <1>   0.0160 
 12 C        4.8230     1.7050     1.0360 C.ar  1 <1>   0.0540 
 13 C        3.2870     3.7420     0.8020 C.2   1 <1>   0.1080 
 14 C        0.8400    -4.9720    -0.8060 C.2   1 <1>   0.0360 
 15 C        2.7370    -4.7570     0.0250 C.2   1 <1>   0.0360 
 16 C        5.5820     0.8950     0.1760 C.ar  1 <1>   0.0820 
 17 C        5.2550     1.8140     2.3560 C.ar  1 <1>  -0.1500 
 18 C        4.1690     4.7930     1.4410 C.3   1 <1>  -0.0590 
 19 N        1.4480    -6.0960    -0.9670 N.2   1 <1>  -0.3380 
 20 N        2.6640    -5.9580    -0.4340 N.2   1 <1>  -0.3380 
 21 O        5.2380     0.7100    -1.1200 O.3   1 <1>  -0.3630 
 22 C        6.7100     0.2310     0.6280 C.ar  1 <1>  -0.1500 
 23 C        6.3870     1.1590     2.8070 C.ar  1 <1>  -0.1500 
 24 C        5.4600     1.8000    -1.9910 C.3   1 <1>   0.0400 
 25 C        7.1180     0.3640     1.9430 C.ar  1 <1>  -0.1500 
 26 H        3.3640     0.1370    -0.6410 H     1 <1>   0.3700 
 27 H        2.7170    -1.8540    -1.2210 H     1 <1>   0.0800 
 28 H        1.0910    -1.9810    -1.8520 H     1 <1>   0.0800 
 29 H        0.2440    -2.6010     0.3820 H     1 <1>   0.0800 
 30 H        1.8430    -2.4170     1.0590 H     1 <1>   0.0800 
 31 H        0.3750     2.2580    -1.7020 H     1 <1>   0.0800 
 32 H        0.0600     3.8760    -1.1020 H     1 <1>   0.0800 
 33 H       -0.4090     2.4820    -0.1450 H     1 <1>   0.0800 
 34 H       -0.1640    -4.7660    -1.1310 H     1 <1>   0.1500 
 35 H        3.5980    -4.3400     0.5160 H     1 <1>   0.1500 
 36 H        4.6870     2.4160     3.0430 H     1 <1>   0.1500 
 37 H        5.2050     4.5600     1.2850 H     1 <1>   0.0800 
 38 H        3.9660     4.8410     2.4940 H     1 <1>   0.0800 
 39 H        3.9600     5.7520     1.0040 H     1 <1>   0.0800 
 40 H        7.2680    -0.3870    -0.0510 H     1 <1>   0.1500 
 41 H        6.6990     1.2650     3.8320 H     1 <1>   0.1500 
 42 H        5.2420     1.4820    -2.9940 H     1 <1>   0.0800 
 43 H        6.4900     2.1020    -1.9160 H     1 <1>   0.0800 
 44 H        4.8120     2.6150    -1.7180 H     1 <1>   0.0800 
 45 H        7.9980    -0.1490     2.2920 H     1 <1>   0.1500 
@<TRIPOS>BOND
  1   1   2  2   
  2   2   3  am  
  3   2   4  1   
  4   3   5  1   
  5   3  26  1   
  6   4   6  1   
  7   4  27  1   
  8   4  28  1   
  9   5   7  1   
 10   5   8  2   
 11   6   9  1   
 12   6  29  1   
 13   6  30  1   
 14   7  10  1   
 15   7  11  1   
 16   8  12  1   
 17   8  13  1   
 18   9  14  1   
 19   9  15  1   
 20  10  13  2   
 21  11  31  1   
 22  11  32  1   
 23  11  33  1   
 24  12  16  ar  
 25  12  17  ar  
 26  13  18  1   
 27  14  19  2   
 28  14  34  1   
 29  15  20  2   
 30  15  35  1   
 31  16  21  1   
 32  16  22  ar  
 33  17  23  ar  
 34  17  36  1   
 35  18  37  1   
 36  18  38  1   
 37  18  39  1   
 38  19  20  1   
 39  21  24  1   
 40  22  25  ar  
 41  22  40  1   
 42  23  25  ar  
 43  23  41  1   
 44  24  42  1   
 45  24  43  1   
 46  24  44  1   
 47  25  45  1   
@<TRIPOS>SUBSTRUCTURE
  1 ****   3 GROUP 4 **** **** 0

# MOE 2024.06 (io_trps.svl 2023.06)
