@<TRIPOS>MOLECULE
NONAME
47 49 1 0 0 
SMALL
USER_CHARGES


@<TRIPOS>ATOM
  1 S        0.7680     0.7770    -1.7270 S.o2  1 <1>   1.3330 
  2 O        0.9100    -0.5520    -2.2790 O.2   1 <1>  -0.6500 
  3 O        0.2840     1.8530    -2.5620 O.2   1 <1>  -0.6500 
  4 N       -0.2750     0.6730    -0.3880 N.am  1 <1>  -0.8490 
  5 C        2.3440     1.2530    -1.0120 C.3   1 <1>  -0.0550 
  6 C       -1.3810    -0.2610    -0.6220 C.3   1 <1>   0.1160 
  7 C       -0.8080     1.9730     0.0350 C.3   1 <1>   0.1160 
  8 C        2.9850     0.1770    -0.1110 C.3   1 <1>  -0.0800 
  9 C        4.4130     0.4730     0.3220 C.3   1 <1>   0.2200 
 10 C        2.2680    -0.0700     1.2240 C.3   1 <1>   0.1200 
 11 N        4.5660     1.8950     0.7140 N.am  1 <1>  -0.7300 
 12 C        4.5060    -0.3870     1.5730 C.3   1 <1>   0.1200 
 13 O        3.2650    -0.2440     2.1910 O.3   1 <1>  -0.5600 
 14 C        5.1590     2.8670    -0.0380 C.2   1 <1>   0.5440 
 15 O        5.4750     2.5890    -1.1780 O.2   1 <1>  -0.5700 
 16 C        5.3870     4.2020     0.4910 C.ar  1 <1>   0.0860 
 17 C        5.5760     5.2860    -0.3670 C.ar  1 <1>  -0.1500 
 18 C        5.4320     4.4610     1.8630 C.ar  1 <1>  -0.1500 
 19 C        5.7970     6.5750     0.1010 C.ar  1 <1>  -0.0230 
 20 C        5.6470     5.7380     2.3490 C.ar  1 <1>  -0.1500 
 21 N        5.9910     7.6520    -0.8040 N.pl3 1 <1>   0.3260 
 22 C        5.8290     6.7910     1.4740 C.ar  1 <1>  -0.1500 
 23 C        6.7620     7.7150    -1.8980 C.2   1 <1>   0.0360 
 24 C        5.4540     8.8800    -0.7870 C.2   1 <1>   0.0360 
 25 N        6.7010     8.8620    -2.4810 N.2   1 <1>  -0.3380 
 26 N        5.8590     9.6110    -1.7660 N.2   1 <1>  -0.3380 
 27 H        3.0250     1.4570    -1.8170 H     1 <1>   0.0800 
 28 H        2.2230     2.1650    -0.4610 H     1 <1>   0.0800 
 29 H       -2.0170    -0.3130     0.2440 H     1 <1>   0.0800 
 30 H       -0.9960    -1.2490    -0.8150 H     1 <1>   0.0800 
 31 H       -1.9630     0.0540    -1.4730 H     1 <1>   0.0800 
 32 H       -1.3870     1.8600     0.9350 H     1 <1>   0.0800 
 33 H       -1.4360     2.3910    -0.7350 H     1 <1>   0.0800 
 34 H       -0.0030     2.6590     0.2320 H     1 <1>   0.0800 
 35 H        2.9940    -0.7550    -0.6510 H     1 <1>   0.0800 
 36 H        5.1430     0.1980    -0.4230 H     1 <1>   0.0800 
 37 H        1.6540    -0.9540     1.1890 H     1 <1>   0.0800 
 38 H        1.6710     0.7740     1.5230 H     1 <1>   0.0800 
 39 H        4.1880     2.1030     1.6410 H     1 <1>   0.3700 
 40 H        5.2870    -0.0730     2.2420 H     1 <1>   0.0800 
 41 H        4.6340    -1.4250     1.3180 H     1 <1>   0.0800 
 42 H        5.5460     5.1050    -1.4300 H     1 <1>   0.1500 
 43 H        5.3070     3.6560     2.5650 H     1 <1>   0.1500 
 44 H        5.6790     5.9110     3.4120 H     1 <1>   0.1500 
 45 H        6.0020     7.7800     1.8650 H     1 <1>   0.1500 
 46 H        7.3600     6.8870    -2.2300 H     1 <1>   0.1500 
 47 H        4.7610     9.1950    -0.0300 H     1 <1>   0.1500 
@<TRIPOS>BOND
  1   1   2  2   
  2   1   3  2   
  3   1   4  am  
  4   1   5  1   
  5   4   6  1   
  6   4   7  1   
  7   5   8  1   
  8   5  27  1   
  9   5  28  1   
 10   6  29  1   
 11   6  30  1   
 12   6  31  1   
 13   7  32  1   
 14   7  33  1   
 15   7  34  1   
 16   8   9  1   
 17   8  10  1   
 18   8  35  1   
 19   9  11  1   
 20   9  12  1   
 21   9  36  1   
 22  10  13  1   
 23  10  37  1   
 24  10  38  1   
 25  11  14  am  
 26  11  39  1   
 27  12  13  1   
 28  12  40  1   
 29  12  41  1   
 30  14  15  2   
 31  14  16  1   
 32  16  17  ar  
 33  16  18  ar  
 34  17  19  ar  
 35  17  42  1   
 36  18  20  ar  
 37  18  43  1   
 38  19  21  1   
 39  19  22  ar  
 40  20  22  ar  
 41  20  44  1   
 42  21  23  1   
 43  21  24  1   
 44  22  45  1   
 45  23  25  2   
 46  23  46  1   
 47  24  26  2   
 48  24  47  1   
 49  25  26  1   
@<TRIPOS>SUBSTRUCTURE
  1 ****  14 GROUP 4 **** **** 0

# MOE 2024.06 (io_trps.svl 2023.06)
