@<TRIPOS>MOLECULE
NONAME
59 62 1 0 0 
SMALL
USER_CHARGES


@<TRIPOS>ATOM
  1 O       -0.4420    -0.0540     0.1790 O.3   1 <1>  -0.3630 
  2 C       -0.3830    -1.4000     0.0760 C.ar  1 <1>   0.0830 
  3 C        0.4690     0.7600    -0.5340 C.3   1 <1>   0.0400 
  4 C        0.8090    -2.1520     0.0660 C.ar  1 <1>   0.0830 
  5 C       -1.5880    -2.0550    -0.0280 C.ar  1 <1>  -0.1500 
  6 O        2.0240    -1.5810     0.2210 O.3   1 <1>  -0.3630 
  7 C        0.7620    -3.5160    -0.0990 C.ar  1 <1>  -0.1500 
  8 C       -1.6350    -3.4400    -0.1760 C.ar  1 <1>   0.3610 
  9 C        2.3920    -1.2730     1.5480 C.3   1 <1>   0.0400 
 10 C       -0.4620    -4.1920    -0.2260 C.ar  1 <1>   0.0000 
 11 N       -2.8190    -4.1260    -0.2840 N.ar  1 <1>  -0.1790 
 12 C       -0.6160    -5.6020    -0.4010 C.ar  1 <1>   0.4100 
 13 C       -2.8810    -5.4560    -0.4320 C.ar  1 <1>   0.7710 
 14 N       -1.7760    -6.1940    -0.4940 N.ar  1 <1>  -0.6200 
 15 N        0.4420    -6.4130    -0.4850 N.pl3 1 <1>  -0.9000 
 16 N       -4.0840    -6.0830    -0.5230 N.pl3 1 <1>  -0.8380 
 17 C       -4.1990    -7.5370    -0.9270 C.3   1 <1>   0.2090 
 18 C       -5.4220    -5.4770    -0.2220 C.3   1 <1>   0.2090 
 19 C       -4.9250    -8.3830     0.1560 C.3   1 <1>   0.4230 
 20 C       -6.0780    -6.2810     0.9050 C.3   1 <1>  -0.1600 
 21 N       -4.9770    -9.8810    -0.1390 N.4   1 <1>  -0.9590 
 22 C       -6.3060    -7.7760     0.5400 C.3   1 <1>   0.0000 
 23 C       -6.0030   -10.6290     0.6640 C.3   1 <1>   0.3430 
 24 C       -5.1040   -10.2620    -1.5860 C.3   1 <1>   0.2630 
 25 C       -6.8620    -8.5110     1.7940 C.3   1 <1>  -0.1600 
 26 C       -7.3060    -7.9080    -0.6460 C.3   1 <1>   0.1200 
 27 C       -6.2830    -9.9260     1.9910 C.3   1 <1>  -0.1600 
 28 O       -8.4150    -7.1000    -0.4660 O.3   1 <1>  -0.6800 
 29 H        0.0220     1.7300    -0.6630 H     1 <1>   0.0800 
 30 H        0.6680     0.3170    -1.4940 H     1 <1>   0.0800 
 31 H        1.3770     0.8560     0.0320 H     1 <1>   0.0800 
 32 H       -2.4890    -1.4700     0.0010 H     1 <1>   0.1500 
 33 H        1.6880    -4.0630    -0.1230 H     1 <1>   0.1500 
 34 H        3.3570    -0.7990     1.5290 H     1 <1>   0.0800 
 35 H        2.4420    -2.1850     2.1170 H     1 <1>   0.0800 
 36 H        1.6630    -0.6050     1.9720 H     1 <1>   0.0800 
 37 H       -3.6900    -3.6130    -0.2910 H     1 <1>   0.4570 
 38 H        0.3280    -7.4200    -0.6200 H     1 <1>   0.4000 
 39 H        1.4180    -6.1080    -0.4460 H     1 <1>   0.4000 
 40 H       -4.7380    -7.5800    -1.8560 H     1 <1>   0.0800 
 41 H       -3.2320    -7.9730    -1.1020 H     1 <1>   0.0800 
 42 H       -5.3370    -4.4530     0.0970 H     1 <1>   0.0800 
 43 H       -6.0430    -5.4930    -1.1040 H     1 <1>   0.0800 
 44 H       -4.3190    -8.2770     1.0400 H     1 <1>   0.0800 
 45 H       -5.4490    -6.2060     1.7770 H     1 <1>   0.0800 
 46 H       -7.0120    -5.8130     1.1650 H     1 <1>   0.0800 
 47 H       -4.0670   -10.2470     0.1800 H     1 <1>   0.4500 
 48 H       -6.9260   -10.6910     0.1100 H     1 <1>   0.0800 
 49 H       -5.6620   -11.6350     0.8490 H     1 <1>   0.0800 
 50 H       -6.0300    -9.8940    -1.9970 H     1 <1>   0.0800 
 51 H       -5.0890   -11.3360    -1.6910 H     1 <1>   0.0800 
 52 H       -4.2850    -9.8600    -2.1600 H     1 <1>   0.0800 
 53 H       -6.6510    -7.9520     2.6910 H     1 <1>   0.0800 
 54 H       -7.9350    -8.5760     1.7330 H     1 <1>   0.0800 
 55 H       -7.6560    -8.9180    -0.7660 H     1 <1>   0.0800 
 56 H       -6.8600    -7.5960    -1.5730 H     1 <1>   0.0800 
 57 H       -6.9820   -10.5140     2.5620 H     1 <1>   0.0800 
 58 H       -5.3730    -9.8800     2.5640 H     1 <1>   0.0800 
 59 H       -9.0400    -7.4650     0.1940 H     1 <1>   0.4000 
@<TRIPOS>BOND
  1   1   2  1   
  2   1   3  1   
  3   2   4  ar  
  4   2   5  ar  
  5   3  29  1   
  6   3  30  1   
  7   3  31  1   
  8   4   6  1   
  9   4   7  ar  
 10   5   8  ar  
 11   5  32  1   
 12   6   9  1   
 13   7  10  ar  
 14   7  33  1   
 15   8  10  ar  
 16   8  11  ar  
 17   9  34  1   
 18   9  35  1   
 19   9  36  1   
 20  10  12  ar  
 21  11  13  ar  
 22  11  37  1   
 23  12  14  ar  
 24  12  15  1   
 25  13  14  ar  
 26  13  16  1   
 27  15  38  1   
 28  15  39  1   
 29  16  17  1   
 30  16  18  1   
 31  17  19  1   
 32  17  40  1   
 33  17  41  1   
 34  18  20  1   
 35  18  42  1   
 36  18  43  1   
 37  19  21  1   
 38  19  22  1   
 39  19  44  1   
 40  20  22  1   
 41  20  45  1   
 42  20  46  1   
 43  21  23  1   
 44  21  24  1   
 45  21  47  1   
 46  22  25  1   
 47  22  26  1   
 48  23  27  1   
 49  23  48  1   
 50  23  49  1   
 51  24  50  1   
 52  24  51  1   
 53  24  52  1   
 54  25  27  1   
 55  25  53  1   
 56  25  54  1   
 57  26  28  1   
 58  26  55  1   
 59  26  56  1   
 60  27  57  1   
 61  27  58  1   
 62  28  59  1   
@<TRIPOS>SUBSTRUCTURE
  1 ****  13 GROUP 4 **** **** 0

# MOE 2024.06 (io_trps.svl 2023.06)
