@<TRIPOS>MOLECULE
NONAME
41 44 1 0 0 
SMALL
USER_CHARGES


@<TRIPOS>ATOM
  1 O       -1.1900     1.2410    -1.9320 O.co2 1 <1>  -0.9000 
  2 C       -1.3110     1.3400    -0.7050 C.2   1 <1>   0.9060 
  3 O       -1.8620     0.4460    -0.0410 O.co2 1 <1>  -0.9000 
  4 C       -0.8630     2.6100     0.0190 C.3   1 <1>  -0.1060 
  5 C       -2.1170     3.1800     0.7170 C.3   1 <1>   0.2000 
  6 C       -0.4210     3.6580    -1.0200 C.3   1 <1>   0.2090 
  7 C        0.2880     2.2970     1.0220 C.3   1 <1>  -0.0650 
  8 O       -2.5570     2.3120     1.6980 O.3   1 <1>  -0.6800 
  9 C       -1.9010     4.5520     1.3560 C.3   1 <1>  -0.1600 
 10 N       -0.2090     5.0090    -0.3890 N.pl3 1 <1>  -0.8380 
 11 C        1.5420     1.6740     0.3870 C.3   1 <1>  -0.1950 
 12 C       -1.3900     5.5580     0.3260 C.3   1 <1>   0.2090 
 13 C        0.9280     5.7680    -0.6440 C.ar  1 <1>   0.4100 
 14 C        1.6220     0.2070     0.1130 C.3   1 <1>  -0.2000 
 15 C        2.4570     0.8180     1.2030 C.3   1 <1>  -0.2000 
 16 N        2.0570     5.1030    -0.8040 N.ar  1 <1>  -0.6200 
 17 C        0.9320     7.1830    -0.7330 C.ar  1 <1>   0.2270 
 18 C        3.1650     5.8130    -1.0350 C.ar  1 <1>   0.4700 
 19 N       -0.0350     8.1640    -0.6450 N.2   1 <1>  -0.5650 
 20 C        2.1480     7.7710    -0.9770 C.ar  1 <1>   0.1050 
 21 N        3.3000     7.1140    -1.1330 N.ar  1 <1>  -0.5670 
 22 C        0.6080     9.2660    -0.8270 C.2   1 <1>   0.0360 
 23 N        1.9380     9.0980    -1.0330 N.pl3 1 <1>   0.0330 
 24 H       -2.9100     3.2530    -0.0100 H     1 <1>   0.0800 
 25 H       -1.1880     3.7550    -1.7690 H     1 <1>   0.0800 
 26 H        0.4630     3.3220    -1.5320 H     1 <1>   0.0800 
 27 H        0.5900     3.2000     1.5190 H     1 <1>   0.0800 
 28 H       -0.0800     1.6230     1.7750 H     1 <1>   0.0800 
 29 H       -2.4680     1.3990     1.2940 H     1 <1>   0.4000 
 30 H       -2.8310     4.9060     1.7600 H     1 <1>   0.0800 
 31 H       -1.1900     4.4810     2.1580 H     1 <1>   0.0800 
 32 H        2.0160     2.3330    -0.3190 H     1 <1>   0.1000 
 33 H       -1.1320     6.4660     0.8400 H     1 <1>   0.0800 
 34 H       -2.1610     5.7790    -0.3920 H     1 <1>   0.0800 
 35 H        0.7670    -0.3980     0.3690 H     1 <1>   0.1000 
 36 H        2.0690    -0.0960    -0.8160 H     1 <1>   0.1000 
 37 H        3.5180     0.9120     1.0520 H     1 <1>   0.1000 
 38 H        2.1980     0.6050     2.2250 H     1 <1>   0.1000 
 39 H        4.0600     5.2270    -1.1540 H     1 <1>   0.1500 
 40 H        0.1550    10.2430    -0.8210 H     1 <1>   0.1500 
 41 H        2.6570     9.8030    -1.2030 H     1 <1>   0.2700 
@<TRIPOS>BOND
  1   1   2  ar  
  2   2   3  ar  
  3   2   4  1   
  4   4   5  1   
  5   4   6  1   
  6   4   7  1   
  7   5   8  1   
  8   5   9  1   
  9   5  24  1   
 10   6  10  1   
 11   6  25  1   
 12   6  26  1   
 13   7  11  1   
 14   7  27  1   
 15   7  28  1   
 16   8  29  1   
 17   9  12  1   
 18   9  30  1   
 19   9  31  1   
 20  10  12  1   
 21  10  13  1   
 22  11  14  1   
 23  11  15  1   
 24  11  32  1   
 25  12  33  1   
 26  12  34  1   
 27  13  16  ar  
 28  13  17  ar  
 29  14  15  1   
 30  14  35  1   
 31  14  36  1   
 32  15  37  1   
 33  15  38  1   
 34  16  18  ar  
 35  17  19  1   
 36  17  20  ar  
 37  18  21  ar  
 38  18  39  1   
 39  19  22  2   
 40  20  21  ar  
 41  20  23  1   
 42  22  23  1   
 43  22  40  1   
 44  23  41  1   
@<TRIPOS>SUBSTRUCTURE
  1 ****  10 GROUP 4 **** **** 0

# MOE 2024.06 (io_trps.svl 2023.06)
