@<TRIPOS>MOLECULE
NONAME
51 54 1 0 0 
SMALL
USER_CHARGES


@<TRIPOS>ATOM
  1 O        1.1180    -0.0900     1.3080 O.3   1 <1>  -0.3630 
  2 C        1.4120    -0.1700    -0.0210 C.ar  1 <1>   0.0820 
  3 C        1.0520    -1.2440     2.1240 C.3   1 <1>   0.2580 
  4 C        1.9100     0.9540    -0.6800 C.ar  1 <1>   0.0820 
  5 C        1.1910    -1.3630    -0.7120 C.ar  1 <1>   0.0280 
  6 C        0.5640    -2.4680     1.3490 C.2   1 <1>  -0.2760 
  7 O        2.1020     2.0900     0.0490 O.3   1 <1>  -0.3620 
  8 C        2.1920     0.8750    -2.0410 C.ar  1 <1>  -0.1500 
  9 C        0.6640    -2.4890     0.0080 C.2   1 <1>  -0.1780 
 10 C        1.4780    -1.4150    -2.0710 C.ar  1 <1>  -0.1500 
 11 C        0.0290    -3.5620     2.2540 C.3   1 <1>   0.4810 
 12 C        2.5640     3.2820    -0.5460 C.3   1 <1>   0.0400 
 13 C        1.9750    -0.3070    -2.7300 C.ar  1 <1>  -0.1500 
 14 N       -0.8290    -4.4760     1.4730 N.4   1 <1>  -0.9590 
 15 C       -2.0940    -3.8640     0.9520 C.3   1 <1>   0.3430 
 16 C       -1.1900    -5.7580     2.1200 C.3   1 <1>   0.3430 
 17 C       -3.1740    -4.9490     1.0860 C.3   1 <1>   0.2000 
 18 C       -2.3990    -6.2490     1.3190 C.3   1 <1>  -0.0800 
 19 O       -3.9610    -4.6890     2.2030 O.3   1 <1>  -0.6800 
 20 C       -2.0370    -6.9320    -0.0320 C.3   1 <1>  -0.0170 
 21 C       -0.5510    -7.1800    -0.2670 C.ar  1 <1>   0.1670 
 22 N        0.1740    -6.1280    -0.6300 N.ar  1 <1>  -0.6200 
 23 C       -0.0360    -8.4560    -0.0980 C.ar  1 <1>  -0.1500 
 24 C        1.4590    -6.3700    -0.8580 C.ar  1 <1>   0.1600 
 25 C        1.3040    -8.6860    -0.3210 C.ar  1 <1>  -0.1500 
 26 C        2.0630    -7.6060    -0.7150 C.ar  1 <1>  -0.1500 
 27 H        2.0370    -1.4150     2.5220 H     1 <1>   0.0800 
 28 H        0.3840    -1.0040     2.9330 H     1 <1>   0.0800 
 29 H        2.5780     1.7170    -2.5820 H     1 <1>   0.1500 
 30 H        0.3730    -3.3210    -0.6080 H     1 <1>   0.1500 
 31 H        1.3140    -2.3260    -2.6190 H     1 <1>   0.1500 
 32 H       -0.5500    -3.1260     3.0520 H     1 <1>   0.0800 
 33 H        0.8550    -4.1040     2.6860 H     1 <1>   0.0800 
 34 H        2.6180     4.0360     0.2190 H     1 <1>   0.0800 
 35 H        1.8670     3.5850    -1.3080 H     1 <1>   0.0800 
 36 H        3.5410     3.1110    -0.9590 H     1 <1>   0.0800 
 37 H        2.1960    -0.3590    -3.7830 H     1 <1>   0.1500 
 38 H       -0.2790    -4.7630     0.6370 H     1 <1>   0.4500 
 39 H       -2.3750    -2.9860     1.5090 H     1 <1>   0.0800 
 40 H       -1.9620    -3.5980    -0.0850 H     1 <1>   0.0800 
 41 H       -0.3720    -6.4610     2.0920 H     1 <1>   0.0800 
 42 H       -1.4780    -5.5860     3.1440 H     1 <1>   0.0800 
 43 H       -3.8290    -4.9790     0.2310 H     1 <1>   0.0800 
 44 H       -2.9780    -6.9440     1.9040 H     1 <1>   0.0800 
 45 H       -3.4660    -4.7040     3.0430 H     1 <1>   0.4000 
 46 H       -2.3970    -6.3500    -0.8620 H     1 <1>   0.0800 
 47 H       -2.5590    -7.8720    -0.0870 H     1 <1>   0.0800 
 48 H       -0.6700    -9.2740     0.1980 H     1 <1>   0.1500 
 49 H        2.0700    -5.5410    -1.1780 H     1 <1>   0.1500 
 50 H        1.7380    -9.6650    -0.2020 H     1 <1>   0.1500 
 51 H        3.1140    -7.7220    -0.9160 H     1 <1>   0.1500 
@<TRIPOS>BOND
  1   1   2  1   
  2   1   3  1   
  3   2   4  ar  
  4   2   5  ar  
  5   3   6  1   
  6   3  27  1   
  7   3  28  1   
  8   4   7  1   
  9   4   8  ar  
 10   5   9  1   
 11   5  10  ar  
 12   6   9  2   
 13   6  11  1   
 14   7  12  1   
 15   8  13  ar  
 16   8  29  1   
 17   9  30  1   
 18  10  13  ar  
 19  10  31  1   
 20  11  14  1   
 21  11  32  1   
 22  11  33  1   
 23  12  34  1   
 24  12  35  1   
 25  12  36  1   
 26  13  37  1   
 27  14  15  1   
 28  14  16  1   
 29  14  38  1   
 30  15  17  1   
 31  15  39  1   
 32  15  40  1   
 33  16  18  1   
 34  16  41  1   
 35  16  42  1   
 36  17  18  1   
 37  17  19  1   
 38  17  43  1   
 39  18  20  1   
 40  18  44  1   
 41  19  45  1   
 42  20  21  1   
 43  20  46  1   
 44  20  47  1   
 45  21  22  ar  
 46  21  23  ar  
 47  22  24  ar  
 48  23  25  ar  
 49  23  48  1   
 50  24  26  ar  
 51  24  49  1   
 52  25  26  ar  
 53  25  50  1   
 54  26  51  1   
@<TRIPOS>SUBSTRUCTURE
  1 ****   9 GROUP 4 **** **** 0

# MOE 2024.06 (io_trps.svl 2023.06)
