@<TRIPOS>MOLECULE
NONAME
57 59 1 0 0 
SMALL
USER_CHARGES


@<TRIPOS>ATOM
  1 O       -0.3630     3.3190    -2.3600 O.co2 1 <1>  -0.9000 
  2 C       -0.8510     2.3240    -1.7880 C.2   1 <1>   0.9790 
  3 O       -0.0860     1.3710    -1.5540 O.co2 1 <1>  -0.9000 
  4 C       -2.2260     2.3500    -1.3740 C.ar  1 <1>  -0.1790 
  5 C       -2.5710     2.5180    -0.0280 C.ar  1 <1>   0.4100 
  6 C       -3.2520     2.2710    -2.3010 C.ar  1 <1>  -0.1500 
  7 N       -3.8150     2.6570     0.4120 N.ar  1 <1>  -0.6200 
  8 N       -1.6030     2.5500     0.9560 N.pl3 1 <1>  -0.8380 
  9 C       -4.5420     2.3860    -1.8420 C.ar  1 <1>  -0.1500 
 10 C       -4.7920     2.5900    -0.4880 C.ar  1 <1>   0.3100 
 11 C       -1.5560     3.6530     1.9400 C.3   1 <1>   0.2090 
 12 C       -0.9780     1.2540     1.3360 C.3   1 <1>   0.1290 
 13 C       -6.1570     2.7330    -0.0230 C.ar  1 <1>   0.0000 
 14 C       -0.2140     4.3730     1.7850 C.3   1 <1>  -0.1600 
 15 C       -6.6160     2.0270     1.0880 C.ar  1 <1>  -0.1500 
 16 C       -7.0630     3.5790    -0.6650 C.ar  1 <1>  -0.1500 
 17 C       -0.0460     4.8900     0.3440 C.3   1 <1>   0.4230 
 18 C       -7.9210     2.1470     1.5300 C.ar  1 <1>  -0.1500 
 19 C       -8.3700     3.7050    -0.2300 C.ar  1 <1>  -0.1500 
 20 N        1.3890     4.8960    -0.0550 N.4   1 <1>  -0.9590 
 21 C       -0.6430     6.2950     0.2180 C.3   1 <1>  -0.2400 
 22 C       -8.8100     2.9830     0.8760 C.ar  1 <1>   0.0830 
 23 C        1.5990     5.4480    -1.4190 C.3   1 <1>   0.3430 
 24 C        1.9060     3.5050    -0.1860 C.3   1 <1>   0.3430 
 25 O      -10.0710     3.0450     1.3660 O.3   1 <1>  -0.3630 
 26 C        2.9530     4.9110    -1.8570 C.3   1 <1>  -0.1600 
 27 C        3.1420     3.6180    -1.0650 C.3   1 <1>  -0.1600 
 28 C      -11.0490     3.8800     0.7870 C.3   1 <1>   0.0400 
 29 H       -3.0280     2.1320    -3.3450 H     1 <1>   0.1500 
 30 H       -5.3620     2.3190    -2.5310 H     1 <1>   0.1500 
 31 H       -1.6660     3.2570     2.9350 H     1 <1>   0.0800 
 32 H       -2.3690     4.3370     1.7610 H     1 <1>   0.0800 
 33 H       -1.2970     0.4790     0.6580 H     1 <1>   0.0800 
 34 H       -1.2670     0.9790     2.3340 H     1 <1>   0.0800 
 35 H        0.0920     1.3310     1.2720 H     1 <1>   0.0800 
 36 H        0.5530     3.6730     2.0490 H     1 <1>   0.0800 
 37 H       -0.1700     5.1860     2.4850 H     1 <1>   0.0800 
 38 H       -5.9310     1.3780     1.6060 H     1 <1>   0.1500 
 39 H       -6.7330     4.1500    -1.5140 H     1 <1>   0.1500 
 40 H       -0.5800     4.2370    -0.3240 H     1 <1>   0.0800 
 41 H       -8.2590     1.5930     2.3870 H     1 <1>   0.1500 
 42 H       -9.0290     4.3680    -0.7570 H     1 <1>   0.1500 
 43 H        1.9540     5.4130     0.6180 H     1 <1>   0.4500 
 44 H       -0.0730     7.0130     0.7790 H     1 <1>   0.0800 
 45 H       -1.6510     6.2910     0.5930 H     1 <1>   0.0800 
 46 H       -0.7000     6.5940    -0.8130 H     1 <1>   0.0800 
 47 H        1.5740     6.5250    -1.4240 H     1 <1>   0.0800 
 48 H        0.8380     5.0750    -2.0840 H     1 <1>   0.0800 
 49 H        1.1780     2.8970    -0.6900 H     1 <1>   0.0800 
 50 H        2.1300     3.0610     0.7680 H     1 <1>   0.0800 
 51 H        3.7270     5.6200    -1.6230 H     1 <1>   0.0800 
 52 H        2.9490     4.7270    -2.9170 H     1 <1>   0.0800 
 53 H        3.1940     2.7600    -1.7140 H     1 <1>   0.0800 
 54 H        4.0290     3.6590    -0.4590 H     1 <1>   0.0800 
 55 H      -11.9590     3.7650     1.3470 H     1 <1>   0.0800 
 56 H      -11.2070     3.5770    -0.2330 H     1 <1>   0.0800 
 57 H      -10.7130     4.9000     0.8400 H     1 <1>   0.0800 
@<TRIPOS>BOND
  1   1   2  ar  
  2   2   3  ar  
  3   2   4  1   
  4   4   5  ar  
  5   4   6  ar  
  6   5   7  ar  
  7   5   8  1   
  8   6   9  ar  
  9   6  29  1   
 10   7  10  ar  
 11   8  11  1   
 12   8  12  1   
 13   9  10  ar  
 14   9  30  1   
 15  10  13  1   
 16  11  14  1   
 17  11  31  1   
 18  11  32  1   
 19  12  33  1   
 20  12  34  1   
 21  12  35  1   
 22  13  15  ar  
 23  13  16  ar  
 24  14  17  1   
 25  14  36  1   
 26  14  37  1   
 27  15  18  ar  
 28  15  38  1   
 29  16  19  ar  
 30  16  39  1   
 31  17  20  1   
 32  17  21  1   
 33  17  40  1   
 34  18  22  ar  
 35  18  41  1   
 36  19  22  ar  
 37  19  42  1   
 38  20  23  1   
 39  20  24  1   
 40  20  43  1   
 41  21  44  1   
 42  21  45  1   
 43  21  46  1   
 44  22  25  1   
 45  23  26  1   
 46  23  47  1   
 47  23  48  1   
 48  24  27  1   
 49  24  49  1   
 50  24  50  1   
 51  25  28  1   
 52  26  27  1   
 53  26  51  1   
 54  26  52  1   
 55  27  53  1   
 56  27  54  1   
 57  28  55  1   
 58  28  56  1   
 59  28  57  1   
@<TRIPOS>SUBSTRUCTURE
  1 ****   5 GROUP 4 **** **** 0

# MOE 2024.06 (io_trps.svl 2023.06)
