@<TRIPOS>MOLECULE
NONAME
51 53 1 0 0 
SMALL
USER_CHARGES


@<TRIPOS>ATOM
  1 O       -0.4150     0.2680     0.7360 O.2   1 <1>  -0.5700 
  2 C        0.6380    -0.3080     0.6190 C.2   1 <1>   0.5690 
  3 N        1.8230     0.3070     0.3240 N.am  1 <1>  -0.4940 
  4 C        0.6550    -1.8100     0.7870 C.3   1 <1>  -0.0990 
  5 C        2.0870     1.6840     0.1110 C.2   1 <1>  -0.0880 
  6 C        0.1310    -2.5020    -0.4740 C.3   1 <1>   0.0210 
  7 N        3.2620     2.2030    -0.3500 N.pl3 1 <1>   0.3140 
  8 C        1.2660     2.7400     0.3190 C.2   1 <1>  -0.1500 
  9 C        0.3340    -4.0010    -0.3520 C.2   1 <1>  -0.1810 
 10 N        3.1990     3.5580    -0.4280 N.2   1 <1>  -0.7070 
 11 C        4.4680     1.4170    -0.7550 C.3   1 <1>   0.2710 
 12 C        2.0070     3.8600    -0.0280 C.2   1 <1>   0.1080 
 13 C        1.4120    -4.7370    -0.8370 C.2   1 <1>   0.1080 
 14 C       -0.4630    -4.9130     0.2460 C.2   1 <1>  -0.3320 
 15 C        5.2780     1.0220     0.5040 C.3   1 <1>  -0.1950 
 16 C        5.2890     2.1500    -1.8350 C.3   1 <1>  -0.2400 
 17 C        1.5130     5.2860     0.0390 C.3   1 <1>  -0.0590 
 18 N        1.3060    -5.9960    -0.5640 N.2   1 <1>  -0.7070 
 19 C        2.5950    -4.1880    -1.6010 C.3   1 <1>  -0.0590 
 20 N        0.1470    -6.1110     0.1020 N.pl3 1 <1>   0.3140 
 21 C       -1.7900    -4.7150     0.9630 C.3   1 <1>  -0.0600 
 22 C        6.2150     1.9590     1.2000 C.3   1 <1>  -0.2000 
 23 C        6.7500     0.7360     0.5080 C.3   1 <1>  -0.2000 
 24 C       -0.3260    -7.4150     0.5790 C.3   1 <1>   0.0160 
 25 H        2.6270    -0.3160     0.2870 H     1 <1>   0.3700 
 26 H        0.0340    -2.0740     1.6230 H     1 <1>   0.0800 
 27 H        1.6530    -2.1460     1.0000 H     1 <1>   0.0800 
 28 H        0.6470    -2.1370    -1.3440 H     1 <1>   0.0800 
 29 H       -0.9140    -2.2830    -0.6000 H     1 <1>   0.0800 
 30 H        0.2530     2.7320     0.6790 H     1 <1>   0.1500 
 31 H        4.1100     0.5110    -1.2080 H     1 <1>   0.0800 
 32 H        4.6860     0.4000     1.1520 H     1 <1>   0.1000 
 33 H        5.7120     3.0570    -1.4440 H     1 <1>   0.0800 
 34 H        4.6540     2.3990    -2.6660 H     1 <1>   0.0800 
 35 H        6.0830     1.5230    -2.1960 H     1 <1>   0.0800 
 36 H        0.4990     5.3160     0.3910 H     1 <1>   0.0800 
 37 H        1.5620     5.7280    -0.9380 H     1 <1>   0.0800 
 38 H        2.1370     5.8480     0.7090 H     1 <1>   0.0800 
 39 H        3.0390    -3.3760    -1.0590 H     1 <1>   0.0800 
 40 H        2.2720    -3.8460    -2.5670 H     1 <1>   0.0800 
 41 H        3.3300    -4.9610    -1.7350 H     1 <1>   0.0800 
 42 H       -2.0680    -3.6770     0.9710 H     1 <1>   0.0800 
 43 H       -1.7160    -5.0530     1.9810 H     1 <1>   0.0800 
 44 H       -2.5650    -5.2690     0.4640 H     1 <1>   0.0800 
 45 H        6.2040     1.9890     2.2760 H     1 <1>   0.1000 
 46 H        6.4030     2.9290     0.7720 H     1 <1>   0.1000 
 47 H        7.3560     0.8910    -0.3670 H     1 <1>   0.1000 
 48 H        7.1200    -0.0720     1.1160 H     1 <1>   0.1000 
 49 H       -1.2780    -7.6290     0.1330 H     1 <1>   0.0800 
 50 H       -0.4150    -7.3880     1.6480 H     1 <1>   0.0800 
 51 H        0.3830    -8.1710     0.2950 H     1 <1>   0.0800 
@<TRIPOS>BOND
  1   1   2  2   
  2   2   3  am  
  3   2   4  1   
  4   3   5  1   
  5   3  25  1   
  6   4   6  1   
  7   4  26  1   
  8   4  27  1   
  9   5   7  1   
 10   5   8  2   
 11   6   9  1   
 12   6  28  1   
 13   6  29  1   
 14   7  10  1   
 15   7  11  1   
 16   8  12  1   
 17   8  30  1   
 18   9  13  1   
 19   9  14  2   
 20  10  12  2   
 21  11  15  1   
 22  11  16  1   
 23  11  31  1   
 24  12  17  1   
 25  13  18  2   
 26  13  19  1   
 27  14  20  1   
 28  14  21  1   
 29  15  22  1   
 30  15  23  1   
 31  15  32  1   
 32  16  33  1   
 33  16  34  1   
 34  16  35  1   
 35  17  36  1   
 36  17  37  1   
 37  17  38  1   
 38  18  20  1   
 39  19  39  1   
 40  19  40  1   
 41  19  41  1   
 42  20  24  1   
 43  21  42  1   
 44  21  43  1   
 45  21  44  1   
 46  22  23  1   
 47  22  45  1   
 48  22  46  1   
 49  23  47  1   
 50  23  48  1   
 51  24  49  1   
 52  24  50  1   
 53  24  51  1   
@<TRIPOS>SUBSTRUCTURE
  1 ****   3 GROUP 4 **** **** 0

# MOE 2024.06 (io_trps.svl 2023.06)
