@<TRIPOS>MOLECULE
NONAME
59 62 1 0 0 
SMALL
USER_CHARGES


@<TRIPOS>ATOM
  1 O       -2.9770     0.5930    -1.3920 O.2   1 <1>  -0.5700 
  2 C       -2.1490     0.8640    -0.5420 C.2   1 <1>   0.7160 
  3 N       -1.5320    -0.1760     0.0970 N.am  1 <1>  -0.7300 
  4 C       -1.8120     2.2040    -0.1860 C.2   1 <1>  -0.0860 
  5 C       -1.6070    -1.6100    -0.3030 C.3   1 <1>   0.1400 
  6 C       -2.6940     3.2650     0.0410 C.2   1 <1>   0.3720 
  7 C       -0.5960     2.7460     0.0830 C.2   1 <1>   0.0870 
  8 C       -2.7650    -2.3490     0.4040 C.3   1 <1>   0.1900 
  9 N       -2.0600     4.3220     0.4140 N.2   1 <1>  -0.4100 
 10 N       -4.0840     3.1990    -0.0920 N.pl3 1 <1>  -0.8210 
 11 O       -0.7970     3.9890     0.4340 O.3   1 <1>  -0.0190 
 12 C        0.7320     2.1920     0.0500 C.ar  1 <1>   0.0530 
 13 N       -2.7980    -3.7920     0.0230 N.3   1 <1>  -0.8100 
 14 C       -4.0950    -1.6420     0.0350 C.3   1 <1>   0.3430 
 15 C       -4.8490     4.1090     0.8190 C.3   1 <1>   0.2090 
 16 C       -4.5390     3.4220    -1.4970 C.3   1 <1>   0.2090 
 17 C        1.1330     1.3240    -0.9650 C.ar  1 <1>  -0.1500 
 18 C        1.6600     2.4990     1.0450 C.ar  1 <1>  -0.1500 
 19 C       -4.0060    -4.4810     0.5280 C.3   1 <1>   0.1100 
 20 C       -1.5980    -4.5390     0.4450 C.3   1 <1>   0.0300 
 21 N       -5.3240    -2.3480     0.5380 N.4   1 <1>  -0.9590 
 22 C       -6.3650     3.9210     0.6290 C.3   1 <1>   0.1200 
 23 C       -6.0650     3.2560    -1.6100 C.3   1 <1>   0.1200 
 24 C        2.4000     0.7710    -0.9770 C.ar  1 <1>  -0.1500 
 25 C        2.9280     1.9500     1.0370 C.ar  1 <1>  -0.1500 
 26 C       -5.3050    -3.7780     0.0890 C.3   1 <1>   0.3430 
 27 C       -6.5510    -1.6390     0.0710 C.3   1 <1>   0.2630 
 28 O       -6.7340     4.0980    -0.7120 O.3   1 <1>  -0.5600 
 29 C        3.3000     1.0810     0.0270 C.ar  1 <1>  -0.1500 
 30 H       -0.7570     0.0650     0.7240 H     1 <1>   0.3700 
 31 H       -0.6660    -2.0680    -0.0560 H     1 <1>   0.0800 
 32 H       -1.7410    -1.6770    -1.3700 H     1 <1>   0.0800 
 33 H       -2.6140    -2.2730     1.4670 H     1 <1>   0.0800 
 34 H       -4.1400    -1.5650    -1.0390 H     1 <1>   0.0800 
 35 H       -4.0720    -0.6380     0.4230 H     1 <1>   0.0800 
 36 H       -4.5940     5.1350     0.6140 H     1 <1>   0.0800 
 37 H       -4.5850     3.8970     1.8400 H     1 <1>   0.0800 
 38 H       -4.0570     2.7220    -2.1560 H     1 <1>   0.0800 
 39 H       -4.2660     4.4150    -1.8140 H     1 <1>   0.0800 
 40 H        0.4510     1.0850    -1.7610 H     1 <1>   0.1500 
 41 H        1.3810     3.1760     1.8340 H     1 <1>   0.1500 
 42 H       -3.9750    -4.5400     1.6030 H     1 <1>   0.0800 
 43 H       -4.0220    -5.4870     0.1440 H     1 <1>   0.0800 
 44 H       -0.7250    -4.1830    -0.0730 H     1 <1>   0.0800 
 45 H       -1.7080    -5.5830     0.2010 H     1 <1>   0.0800 
 46 H       -1.4440    -4.4460     1.5070 H     1 <1>   0.0800 
 47 H       -5.2890    -2.3350     1.5660 H     1 <1>   0.4500 
 48 H       -6.9030     4.6450     1.2140 H     1 <1>   0.0800 
 49 H       -6.6620     2.9350     0.9380 H     1 <1>   0.0800 
 50 H       -6.3440     2.2390    -1.4000 H     1 <1>   0.0800 
 51 H       -6.3920     3.5090    -2.6020 H     1 <1>   0.0800 
 52 H        2.6910     0.1020    -1.7690 H     1 <1>   0.1500 
 53 H        3.6300     2.1990     1.8160 H     1 <1>   0.1500 
 54 H       -6.1500    -4.3040     0.4990 H     1 <1>   0.0800 
 55 H       -5.3700    -3.8240    -0.9860 H     1 <1>   0.0800 
 56 H       -6.5950    -1.6400    -1.0070 H     1 <1>   0.0800 
 57 H       -6.5430    -0.6160     0.4110 H     1 <1>   0.0800 
 58 H       -7.4340    -2.1230     0.4540 H     1 <1>   0.0800 
 59 H        4.2880     0.6530     0.0190 H     1 <1>   0.1500 
@<TRIPOS>BOND
  1   1   2  2   
  2   2   3  am  
  3   2   4  1   
  4   3   5  1   
  5   3  30  1   
  6   4   6  1   
  7   4   7  2   
  8   5   8  1   
  9   5  31  1   
 10   5  32  1   
 11   6   9  2   
 12   6  10  1   
 13   7  11  1   
 14   7  12  1   
 15   8  13  1   
 16   8  14  1   
 17   8  33  1   
 18   9  11  1   
 19  10  15  1   
 20  10  16  1   
 21  12  17  ar  
 22  12  18  ar  
 23  13  19  1   
 24  13  20  1   
 25  14  21  1   
 26  14  34  1   
 27  14  35  1   
 28  15  22  1   
 29  15  36  1   
 30  15  37  1   
 31  16  23  1   
 32  16  38  1   
 33  16  39  1   
 34  17  24  ar  
 35  17  40  1   
 36  18  25  ar  
 37  18  41  1   
 38  19  26  1   
 39  19  42  1   
 40  19  43  1   
 41  20  44  1   
 42  20  45  1   
 43  20  46  1   
 44  21  26  1   
 45  21  27  1   
 46  21  47  1   
 47  22  28  1   
 48  22  48  1   
 49  22  49  1   
 50  23  28  1   
 51  23  50  1   
 52  23  51  1   
 53  24  29  ar  
 54  24  52  1   
 55  25  29  ar  
 56  25  53  1   
 57  26  54  1   
 58  26  55  1   
 59  27  56  1   
 60  27  57  1   
 61  27  58  1   
 62  29  59  1   
@<TRIPOS>SUBSTRUCTURE
  1 ****   2 GROUP 4 **** **** 0

# MOE 2024.06 (io_trps.svl 2023.06)
