@<TRIPOS>MOLECULE
NONAME
46 48 1 0 0 
SMALL
USER_CHARGES


@<TRIPOS>ATOM
  1 F       -1.5230    -0.5090    -0.4910 F     1 <1>  -0.3400 
  2 C       -1.5730     0.2340     0.6040 C.3   1 <1>   1.1640 
  3 F       -0.5690    -0.1540     1.3770 F     1 <1>  -0.3400 
  4 F       -2.6900    -0.1010     1.2380 F     1 <1>  -0.3400 
  5 C       -1.5080     1.7410     0.2820 C.ar  1 <1>  -0.1440 
  6 C       -2.5300     2.6170     0.5790 C.ar  1 <1>  -0.1500 
  7 C       -0.3750     2.2560    -0.3570 C.ar  1 <1>  -0.1500 
  8 C       -2.4430     3.9840     0.2720 C.ar  1 <1>   0.3610 
  9 C       -0.2680     3.5940    -0.6360 C.ar  1 <1>  -0.1500 
 10 N       -3.5390     4.7950     0.4470 N.ar  1 <1>  -0.1790 
 11 C       -1.2590     4.5270    -0.2700 C.ar  1 <1>   0.0000 
 12 C       -3.5280     6.0940     0.1100 C.ar  1 <1>   0.2180 
 13 C       -1.1690     5.9520    -0.4540 C.ar  1 <1>   0.1000 
 14 C       -2.3690     6.6650    -0.3420 C.ar  1 <1>  -0.1500 
 15 C       -4.8120     6.8940     0.2610 C.3   1 <1>  -0.0970 
 16 N       -0.0070     6.6360    -0.6700 N.pl3 1 <1>  -0.8380 
 17 C        0.0680     8.0940    -1.0170 C.3   1 <1>   0.2090 
 18 C        1.3700     6.1770    -0.3330 C.3   1 <1>   0.2090 
 19 C        1.5480     8.4620    -1.0370 C.3   1 <1>  -0.0190 
 20 C        2.1700     7.4460    -0.0810 C.3   1 <1>  -0.1600 
 21 C        1.7870     9.9230    -0.6810 C.2   1 <1>   0.5690 
 22 O        0.8890    10.7180    -0.8190 O.2   1 <1>  -0.5700 
 23 N        3.0150    10.2980    -0.2360 N.am  1 <1>  -0.7300 
 24 C        3.3930    11.6690     0.1570 C.3   1 <1>   0.1400 
 25 C        4.1150    11.6080     1.4970 C.3   1 <1>  -0.2400 
 26 H       -3.4270     2.2490     1.0480 H     1 <1>   0.1500 
 27 H        0.4230     1.5860    -0.6410 H     1 <1>   0.1500 
 28 H        0.6000     3.9270    -1.1680 H     1 <1>   0.1500 
 29 H       -4.3940     4.3710     0.8100 H     1 <1>   0.4570 
 30 H       -2.3860     7.7090    -0.5900 H     1 <1>   0.1500 
 31 H       -5.5920     6.4730    -0.3490 H     1 <1>   0.0800 
 32 H       -4.6620     7.9140    -0.0480 H     1 <1>   0.0800 
 33 H       -5.1320     6.9020     1.2880 H     1 <1>   0.0800 
 34 H       -0.4310     8.6640    -0.2510 H     1 <1>   0.0800 
 35 H       -0.3910     8.2930    -1.9700 H     1 <1>   0.0800 
 36 H        1.7920     5.6650    -1.1810 H     1 <1>   0.0800 
 37 H        1.3720     5.5340     0.5310 H     1 <1>   0.0800 
 38 H        1.9190     8.2940    -2.0320 H     1 <1>   0.0800 
 39 H        3.2190     7.2960    -0.2620 H     1 <1>   0.0800 
 40 H        2.0250     7.7550     0.9400 H     1 <1>   0.0800 
 41 H        3.7570     9.6030    -0.1520 H     1 <1>   0.3700 
 42 H        2.5120    12.2860     0.2400 H     1 <1>   0.0800 
 43 H        4.0360    12.0930    -0.5960 H     1 <1>   0.0800 
 44 H        3.4690    11.1870     2.2480 H     1 <1>   0.0800 
 45 H        4.3870    12.6020     1.8040 H     1 <1>   0.0800 
 46 H        5.0110    11.0200     1.4190 H     1 <1>   0.0800 
@<TRIPOS>BOND
  1   1   2  1   
  2   2   3  1   
  3   2   4  1   
  4   2   5  1   
  5   5   6  ar  
  6   5   7  ar  
  7   6   8  ar  
  8   6  26  1   
  9   7   9  ar  
 10   7  27  1   
 11   8  10  ar  
 12   8  11  ar  
 13   9  11  ar  
 14   9  28  1   
 15  10  12  ar  
 16  10  29  1   
 17  11  13  ar  
 18  12  14  ar  
 19  12  15  1   
 20  13  14  ar  
 21  13  16  1   
 22  14  30  1   
 23  15  31  1   
 24  15  32  1   
 25  15  33  1   
 26  16  17  1   
 27  16  18  1   
 28  17  19  1   
 29  17  34  1   
 30  17  35  1   
 31  18  20  1   
 32  18  36  1   
 33  18  37  1   
 34  19  20  1   
 35  19  21  1   
 36  19  38  1   
 37  20  39  1   
 38  20  40  1   
 39  21  22  2   
 40  21  23  am  
 41  23  24  1   
 42  23  41  1   
 43  24  25  1   
 44  24  42  1   
 45  24  43  1   
 46  25  44  1   
 47  25  45  1   
 48  25  46  1   
@<TRIPOS>SUBSTRUCTURE
  1 ****  13 GROUP 4 **** **** 0

# MOE 2024.06 (io_trps.svl 2023.06)
