@<TRIPOS>MOLECULE
NONAME
38 40 1 0 0 
SMALL
USER_CHARGES


@<TRIPOS>ATOM
  1 O       -4.0300    -1.3250     1.8250 O.2   1 <1>  -0.5700 
  2 C       -3.7700    -0.2830     1.2400 C.2   1 <1>   0.7670 
  3 N       -3.7410     0.8550     2.0110 N.2   1 <1>  -0.6610 
  4 C       -3.5180    -0.2330    -0.1700 C.2   1 <1>   0.0290 
  5 C       -3.4990     1.9710     1.4370 C.2   1 <1>   0.4400 
  6 C       -3.5380    -1.4250    -0.9730 C.2   1 <1>   0.6160 
  7 C       -3.2750     0.9970    -0.7120 C.2   1 <1>  -0.0500 
  8 N       -3.2660     2.0930     0.0970 N.pl3 1 <1>  -0.5500 
  9 O       -3.7050    -1.3390    -2.1750 O.2   1 <1>  -0.5700 
 10 N       -3.3700    -2.6720    -0.4490 N.am  1 <1>  -0.7300 
 11 C       -3.5770    -3.9560    -1.1580 C.3   1 <1>   0.2200 
 12 C       -4.8560    -4.6320    -0.6840 C.3   1 <1>  -0.0800 
 13 C       -2.5340    -4.9620    -0.6880 C.3   1 <1>   0.1200 
 14 C       -4.4060    -5.3450     0.5940 C.3   1 <1>   0.1200 
 15 C       -6.0770    -3.7120    -0.4920 C.3   1 <1>  -0.0160 
 16 O       -3.0170    -5.4830     0.5140 O.3   1 <1>  -0.5600 
 17 C       -7.2940    -4.5080    -0.0470 C.ar  1 <1>  -0.1430 
 18 C       -8.0610    -5.2280    -0.9400 C.ar  1 <1>  -0.1500 
 19 C       -7.6910    -4.5510     1.2740 C.ar  1 <1>  -0.1500 
 20 C       -9.1560    -5.9410    -0.4800 C.ar  1 <1>   0.1600 
 21 C       -8.8040    -5.2960     1.6290 C.ar  1 <1>   0.1600 
 22 N       -9.5450    -5.9940     0.7830 N.ar  1 <1>  -0.6200 
 23 H       -3.4720     2.8770     2.0190 H     1 <1>   0.0600 
 24 H       -3.0890     1.1280    -1.7690 H     1 <1>   0.1500 
 25 H       -3.0870     3.0290    -0.2820 H     1 <1>   0.4000 
 26 H       -3.3410    -2.7640     0.5770 H     1 <1>   0.3700 
 27 H       -3.5500    -3.8140    -2.2250 H     1 <1>   0.0800 
 28 H       -5.1140    -5.3910    -1.4010 H     1 <1>   0.0800 
 29 H       -1.5680    -4.5150    -0.5280 H     1 <1>   0.0800 
 30 H       -2.4510    -5.7760    -1.3870 H     1 <1>   0.0800 
 31 H       -4.8530    -6.3200     0.6920 H     1 <1>   0.0800 
 32 H       -4.6210    -4.7570     1.4700 H     1 <1>   0.0800 
 33 H       -6.2960    -3.2100    -1.4180 H     1 <1>   0.0800 
 34 H       -5.8690    -2.9560     0.2450 H     1 <1>   0.0800 
 35 H       -7.8180    -5.2390    -1.9860 H     1 <1>   0.1500 
 36 H       -7.1490    -4.0130     2.0300 H     1 <1>   0.1500 
 37 H       -9.7440    -6.4970    -1.1910 H     1 <1>   0.1500 
 38 H       -9.0990    -5.3180     2.6640 H     1 <1>   0.1500 
@<TRIPOS>BOND
  1   1   2  2   
  2   2   3  1   
  3   2   4  1   
  4   3   5  2   
  5   4   6  1   
  6   4   7  2   
  7   5   8  1   
  8   5  23  1   
  9   6   9  2   
 10   6  10  am  
 11   7   8  1   
 12   7  24  1   
 13   8  25  1   
 14  10  11  1   
 15  10  26  1   
 16  11  12  1   
 17  11  13  1   
 18  11  27  1   
 19  12  14  1   
 20  12  15  1   
 21  12  28  1   
 22  13  16  1   
 23  13  29  1   
 24  13  30  1   
 25  14  16  1   
 26  14  31  1   
 27  14  32  1   
 28  15  17  1   
 29  15  33  1   
 30  15  34  1   
 31  17  18  ar  
 32  17  19  ar  
 33  18  20  ar  
 34  18  35  1   
 35  19  21  ar  
 36  19  36  1   
 37  20  22  ar  
 38  20  37  1   
 39  21  22  ar  
 40  21  38  1   
@<TRIPOS>SUBSTRUCTURE
  1 ****  15 GROUP 4 **** **** 0

# MOE 2024.06 (io_trps.svl 2023.06)
