@<TRIPOS>MOLECULE
NONAME
46 49 1 0 0 
SMALL
USER_CHARGES


@<TRIPOS>ATOM
  1 O        2.4660    -0.7120    -3.0520 O.2   1 <1>  -0.5700 
  2 C        2.1300    -1.5220    -2.2080 C.2   1 <1>   0.7800 
  3 O        0.8640    -1.7050    -1.8320 O.3   1 <1>  -0.2330 
  4 N        2.9740    -2.2950    -1.4690 N.am  1 <1>  -0.4770 
  5 C        0.8870    -2.5880    -0.8130 C.ar  1 <1>   0.0830 
  6 C        2.1870    -2.9690    -0.5610 C.ar  1 <1>   0.1170 
  7 C        4.4570    -2.3030    -1.5510 C.3   1 <1>   0.2010 
  8 C       -0.1750    -3.0780    -0.0750 C.ar  1 <1>  -0.1500 
  9 C        2.4720    -3.8630     0.4590 C.ar  1 <1>  -0.1500 
 10 C        5.1150    -1.6140    -0.3530 C.2   1 <1>   0.5690 
 11 C        0.1050    -3.9750     0.9450 C.ar  1 <1>  -0.1500 
 12 C        1.4180    -4.3630     1.2090 C.ar  1 <1>  -0.1500 
 13 O        5.9160    -2.2490     0.2900 O.2   1 <1>  -0.5700 
 14 N        4.8520    -0.3090    -0.0120 N.am  1 <1>  -0.6600 
 15 C        5.1980     0.1550     1.3840 C.3   1 <1>   0.2200 
 16 C        4.3390     0.6970    -0.9930 C.3   1 <1>   0.1400 
 17 C        4.1530     1.1080     1.9880 C.3   1 <1>   0.1200 
 18 C        6.6090     0.7860     1.4160 C.3   1 <1>   0.3430 
 19 C        4.8090     2.1420    -0.7320 C.3   1 <1>  -0.0800 
 20 O        4.4250     2.4310     1.6310 O.3   1 <1>  -0.5600 
 21 N        7.0820     1.1980     0.0470 N.4   1 <1>  -0.9590 
 22 C        3.9840     2.8170     0.3750 C.3   1 <1>   0.1200 
 23 C        6.3270     2.3580    -0.5330 C.3   1 <1>   0.3430 
 24 C        8.5540     1.4370     0.0400 C.3   1 <1>   0.2630 
 25 H        4.7910    -3.3250    -1.5890 H     1 <1>   0.0800 
 26 H        4.7700    -1.8230    -2.4590 H     1 <1>   0.0800 
 27 H       -1.1820    -2.7670    -0.2930 H     1 <1>   0.1500 
 28 H        3.4860    -4.1610     0.6610 H     1 <1>   0.1500 
 29 H       -0.6980    -4.3770     1.5390 H     1 <1>   0.1500 
 30 H        1.6130    -5.0600     2.0070 H     1 <1>   0.1500 
 31 H        5.2110    -0.7060     2.0310 H     1 <1>   0.0800 
 32 H        4.6490     0.4140    -1.9840 H     1 <1>   0.0800 
 33 H        3.2620     0.6750    -0.9780 H     1 <1>   0.0800 
 34 H        4.2180     1.0650     3.0620 H     1 <1>   0.0800 
 35 H        3.1500     0.8390     1.7030 H     1 <1>   0.0800 
 36 H        7.2840     0.0470     1.8140 H     1 <1>   0.0800 
 37 H        6.6150     1.6290     2.0870 H     1 <1>   0.0800 
 38 H        4.5490     2.6890    -1.6200 H     1 <1>   0.0800 
 39 H        6.8620     0.3750    -0.5360 H     1 <1>   0.4500 
 40 H        2.9330     2.5970     0.2860 H     1 <1>   0.0800 
 41 H        4.1040     3.8870     0.3200 H     1 <1>   0.0800 
 42 H        6.4720     3.2260     0.0910 H     1 <1>   0.0800 
 43 H        6.7530     2.5850    -1.4970 H     1 <1>   0.0800 
 44 H        8.8000     2.2740     0.6740 H     1 <1>   0.0800 
 45 H        8.8940     1.6490    -0.9610 H     1 <1>   0.0800 
 46 H        9.0750     0.5650     0.4010 H     1 <1>   0.0800 
@<TRIPOS>BOND
  1   1   2  2   
  2   2   3  1   
  3   2   4  am  
  4   3   5  1   
  5   4   6  1   
  6   4   7  1   
  7   5   6  ar  
  8   5   8  ar  
  9   6   9  ar  
 10   7  10  1   
 11   7  25  1   
 12   7  26  1   
 13   8  11  ar  
 14   8  27  1   
 15   9  12  ar  
 16   9  28  1   
 17  10  13  2   
 18  10  14  am  
 19  11  12  ar  
 20  11  29  1   
 21  12  30  1   
 22  14  15  1   
 23  14  16  1   
 24  15  17  1   
 25  15  18  1   
 26  15  31  1   
 27  16  19  1   
 28  16  32  1   
 29  16  33  1   
 30  17  20  1   
 31  17  34  1   
 32  17  35  1   
 33  18  21  1   
 34  18  36  1   
 35  18  37  1   
 36  19  22  1   
 37  19  23  1   
 38  19  38  1   
 39  20  22  1   
 40  21  23  1   
 41  21  24  1   
 42  21  39  1   
 43  22  40  1   
 44  22  41  1   
 45  23  42  1   
 46  23  43  1   
 47  24  44  1   
 48  24  45  1   
 49  24  46  1   
@<TRIPOS>SUBSTRUCTURE
  1 ****  14 GROUP 4 **** **** 0

# MOE 2024.06 (io_trps.svl 2023.06)
