@<TRIPOS>MOLECULE
NONAME
54 57 1 0 0 
SMALL
USER_CHARGES


@<TRIPOS>ATOM
  1 O        0.1960     0.0690    -0.5120 O.2   1 <1>  -0.5700 
  2 C        1.1190    -0.7140    -0.3890 C.2   1 <1>   0.5440 
  3 N        0.8110    -2.0190    -0.1440 N.am  1 <1>  -0.7300 
  4 C        2.5020    -0.2700    -0.4880 C.ar  1 <1>   0.0860 
  5 C       -0.5670    -2.5600     0.0300 C.3   1 <1>   0.2010 
  6 C        2.8310     1.0810    -0.3530 C.ar  1 <1>  -0.1500 
  7 C        3.5550    -1.1590    -0.7210 C.ar  1 <1>  -0.1500 
  8 C       -0.5800    -3.9660     0.6460 C.2   1 <1>   0.5690 
  9 C        4.1380     1.5230    -0.4370 C.ar  1 <1>  -0.1500 
 10 C        4.8650    -0.7240    -0.8060 C.ar  1 <1>  -0.1500 
 11 O        0.4740    -4.5560     0.7630 O.2   1 <1>  -0.5700 
 12 N       -1.7600    -4.5320     1.0500 N.am  1 <1>  -0.6600 
 13 C        5.1600     0.6200    -0.6630 C.ar  1 <1>  -0.1500 
 14 C       -3.1150    -3.9640     0.8600 C.3   1 <1>   0.1400 
 15 C       -1.8510    -5.9030     1.5860 C.3   1 <1>   0.1400 
 16 C       -4.0680    -5.1700     0.8670 C.3   1 <1>  -0.0800 
 17 C       -3.1970    -6.4300     1.0870 C.3   1 <1>  -0.0800 
 18 C       -5.0320    -5.2330    -0.3460 C.3   1 <1>   0.4240 
 19 C       -3.0330    -7.2840    -0.1830 C.3   1 <1>  -0.1600 
 20 O       -4.3330    -4.9320    -1.5020 O.3   1 <1>  -0.6800 
 21 C       -6.1920    -4.2290    -0.1720 C.ar  1 <1>  -0.1430 
 22 C       -5.5240    -6.6770    -0.5400 C.3   1 <1>  -0.1600 
 23 C       -4.3880    -7.6960    -0.7930 C.3   1 <1>  -0.1600 
 24 C       -6.2930    -3.0710    -0.9400 C.ar  1 <1>  -0.1500 
 25 C       -7.1750    -4.4600     0.7870 C.ar  1 <1>  -0.1500 
 26 C       -7.3380    -2.1820    -0.7590 C.ar  1 <1>  -0.1500 
 27 C       -8.2220    -3.5730     0.9690 C.ar  1 <1>  -0.1500 
 28 C       -8.3060    -2.4320     0.1950 C.ar  1 <1>  -0.1500 
 29 H        1.5380    -2.7020     0.0950 H     1 <1>   0.3700 
 30 H       -1.1260    -1.8940     0.6630 H     1 <1>   0.0800 
 31 H       -1.0470    -2.5980    -0.9310 H     1 <1>   0.0800 
 32 H        2.0420     1.7920    -0.1780 H     1 <1>   0.1500 
 33 H        3.3510    -2.2070    -0.8460 H     1 <1>   0.1500 
 34 H        4.3600     2.5710    -0.3280 H     1 <1>   0.1500 
 35 H        5.6570    -1.4300    -0.9850 H     1 <1>   0.1500 
 36 H        6.1790     0.9610    -0.7290 H     1 <1>   0.1500 
 37 H       -3.3480    -3.3060     1.6800 H     1 <1>   0.0800 
 38 H       -3.1670    -3.4020    -0.0560 H     1 <1>   0.0800 
 39 H       -1.0280    -6.5120     1.2530 H     1 <1>   0.0800 
 40 H       -1.8430    -5.8550     2.6620 H     1 <1>   0.0800 
 41 H       -4.6750    -5.0690     1.7480 H     1 <1>   0.0800 
 42 H       -3.6360    -7.0520     1.8490 H     1 <1>   0.0800 
 43 H       -2.4620    -6.7280    -0.9070 H     1 <1>   0.0800 
 44 H       -2.4640    -8.1700     0.0450 H     1 <1>   0.0800 
 45 H       -3.6880    -5.6470    -1.6460 H     1 <1>   0.4000 
 46 H       -6.0440    -6.9810     0.3490 H     1 <1>   0.0800 
 47 H       -6.2380    -6.7090    -1.3450 H     1 <1>   0.0800 
 48 H       -4.6880    -8.6460    -0.3840 H     1 <1>   0.0800 
 49 H       -4.2610    -7.8360    -1.8530 H     1 <1>   0.0800 
 50 H       -5.5590    -2.8460    -1.6930 H     1 <1>   0.1500 
 51 H       -7.1380    -5.3350     1.4100 H     1 <1>   0.1500 
 52 H       -7.3970    -1.2950    -1.3660 H     1 <1>   0.1500 
 53 H       -8.9740    -3.7720     1.7130 H     1 <1>   0.1500 
 54 H       -9.1200    -1.7420     0.3330 H     1 <1>   0.1500 
@<TRIPOS>BOND
  1   1   2  2   
  2   2   3  am  
  3   2   4  1   
  4   3   5  1   
  5   3  29  1   
  6   4   6  ar  
  7   4   7  ar  
  8   5   8  1   
  9   5  30  1   
 10   5  31  1   
 11   6   9  ar  
 12   6  32  1   
 13   7  10  ar  
 14   7  33  1   
 15   8  11  2   
 16   8  12  am  
 17   9  13  ar  
 18   9  34  1   
 19  10  13  ar  
 20  10  35  1   
 21  12  14  1   
 22  12  15  1   
 23  13  36  1   
 24  14  16  1   
 25  14  37  1   
 26  14  38  1   
 27  15  17  1   
 28  15  39  1   
 29  15  40  1   
 30  16  17  1   
 31  16  18  1   
 32  16  41  1   
 33  17  19  1   
 34  17  42  1   
 35  18  20  1   
 36  18  21  1   
 37  18  22  1   
 38  19  23  1   
 39  19  43  1   
 40  19  44  1   
 41  20  45  1   
 42  21  24  ar  
 43  21  25  ar  
 44  22  23  1   
 45  22  46  1   
 46  22  47  1   
 47  23  48  1   
 48  23  49  1   
 49  24  26  ar  
 50  24  50  1   
 51  25  27  ar  
 52  25  51  1   
 53  26  28  ar  
 54  26  52  1   
 55  27  28  ar  
 56  27  53  1   
 57  28  54  1   
@<TRIPOS>SUBSTRUCTURE
  1 ****   5 GROUP 4 **** **** 0

# MOE 2024.06 (io_trps.svl 2023.06)
