@<TRIPOS>MOLECULE
NONAME
46 48 1 0 0 
SMALL
USER_CHARGES


@<TRIPOS>ATOM
  1 CL       1.1580     0.8820    -0.6240 Cl    1 <1>  -0.1770 
  2 C        0.1770     2.0640     0.2110 C.ar  1 <1>   0.1770 
  3 C       -0.4030     3.1300    -0.4740 C.ar  1 <1>  -0.1440 
  4 C        0.0080     1.8980     1.5730 C.ar  1 <1>  -0.1500 
  5 C       -1.1790     4.0390     0.2390 C.ar  1 <1>  -0.1500 
  6 C       -0.2180     3.3440    -1.9800 C.3   1 <1>   0.0450 
  7 C       -0.7630     2.8240     2.2450 C.ar  1 <1>   0.1900 
  8 C       -1.3620     3.8910     1.6040 C.ar  1 <1>  -0.1500 
  9 C        0.2310     4.7620    -2.3080 C.2   1 <1>   0.5690 
 10 F       -0.9340     2.6850     3.5310 F     1 <1>  -0.1900 
 11 O       -0.5760     5.4710    -2.8640 O.2   1 <1>  -0.5700 
 12 N        1.4790     5.2260    -1.9600 N.am  1 <1>  -0.6600 
 13 C        2.5190     4.4220    -1.2460 C.3   1 <1>   0.1400 
 14 C        1.8220     6.6630    -2.1420 C.3   1 <1>   0.1400 
 15 C        2.7000     4.8970     0.2020 C.3   1 <1>   0.1400 
 16 C        1.5440     7.4220    -0.8390 C.3   1 <1>  -0.1600 
 17 N        3.4810     6.1700     0.2470 N.am  1 <1>  -0.6600 
 18 C        2.7240     7.4530     0.1440 C.3   1 <1>   0.1400 
 19 C        4.8590     6.1340     0.3930 C.2   1 <1>   0.7150 
 20 O        5.4150     5.0760     0.1350 O.2   1 <1>  -0.5700 
 21 C        5.6540     7.2830     0.8170 C.2   1 <1>   0.1010 
 22 N        5.2400     8.2850     1.5710 N.2   1 <1>  -0.5650 
 23 N        6.9710     7.4410     0.4730 N.pl3 1 <1>   0.0480 
 24 C        6.3040     9.0830     1.7030 C.2   1 <1>   0.0770 
 25 C        7.3680     8.5870     1.0410 C.2   1 <1>  -0.3020 
 26 C        7.8340     6.5720    -0.3550 C.3   1 <1>   0.0160 
 27 H        0.4600     1.0750     2.0930 H     1 <1>   0.1500 
 28 H       -1.6460     4.8690    -0.2680 H     1 <1>   0.1500 
 29 H       -1.1610     3.1660    -2.4640 H     1 <1>   0.0800 
 30 H        0.4840     2.6590    -2.4110 H     1 <1>   0.0800 
 31 H       -1.9590     4.5900     2.1630 H     1 <1>   0.1500 
 32 H        3.4570     4.4990    -1.7670 H     1 <1>   0.0800 
 33 H        2.2520     3.3840    -1.2350 H     1 <1>   0.0800 
 34 H        1.2170     7.0790    -2.9300 H     1 <1>   0.0800 
 35 H        2.8530     6.7670    -2.4350 H     1 <1>   0.0800 
 36 H        3.2320     4.1390     0.7490 H     1 <1>   0.0800 
 37 H        1.7430     5.0240     0.6770 H     1 <1>   0.0800 
 38 H        0.6710     7.0180    -0.3590 H     1 <1>   0.0800 
 39 H        1.3110     8.4410    -1.0870 H     1 <1>   0.0800 
 40 H        2.3740     7.7330     1.1230 H     1 <1>   0.0800 
 41 H        3.3960     8.2250    -0.1900 H     1 <1>   0.0800 
 42 H        6.2570     9.9920     2.2800 H     1 <1>   0.1500 
 43 H        8.3620     8.9870     0.9530 H     1 <1>   0.1500 
 44 H        7.3390     6.3540    -1.2830 H     1 <1>   0.0800 
 45 H        8.0210     5.6540     0.1730 H     1 <1>   0.0800 
 46 H        8.7670     7.0670    -0.5540 H     1 <1>   0.0800 
@<TRIPOS>BOND
  1   1   2  1   
  2   2   3  ar  
  3   2   4  ar  
  4   3   5  ar  
  5   3   6  1   
  6   4   7  ar  
  7   4  27  1   
  8   5   8  ar  
  9   5  28  1   
 10   6   9  1   
 11   6  29  1   
 12   6  30  1   
 13   7   8  ar  
 14   7  10  1   
 15   8  31  1   
 16   9  11  2   
 17   9  12  am  
 18  12  13  1   
 19  12  14  1   
 20  13  15  1   
 21  13  32  1   
 22  13  33  1   
 23  14  16  1   
 24  14  34  1   
 25  14  35  1   
 26  15  17  1   
 27  15  36  1   
 28  15  37  1   
 29  16  18  1   
 30  16  38  1   
 31  16  39  1   
 32  17  18  1   
 33  17  19  am  
 34  18  40  1   
 35  18  41  1   
 36  19  20  2   
 37  19  21  1   
 38  21  22  2   
 39  21  23  1   
 40  22  24  1   
 41  23  25  1   
 42  23  26  1   
 43  24  25  2   
 44  24  42  1   
 45  25  43  1   
 46  26  44  1   
 47  26  45  1   
 48  26  46  1   
@<TRIPOS>SUBSTRUCTURE
  1 ****  15 GROUP 4 **** **** 0

# MOE 2024.06 (io_trps.svl 2023.06)
