@<TRIPOS>MOLECULE
NONAME
53 55 1 0 0 
SMALL
USER_CHARGES


@<TRIPOS>ATOM
  1 N       -0.4780    -0.5640    -0.9480 N.ar  1 <1>  -0.6200 
  2 C       -1.5500     0.1430    -0.6040 C.ar  1 <1>   0.7200 
  3 C        0.6630    -0.1470    -0.4530 C.ar  1 <1>   0.1660 
  4 N       -1.6000     1.1420     0.2670 N.ar  1 <1>  -0.6200 
  5 N       -2.7510    -0.2410    -1.1500 N.pl3 1 <1>  -0.8380 
  6 C        0.7270     0.9140     0.4200 C.ar  1 <1>  -0.1500 
  7 C        1.9180    -0.8750    -0.8860 C.3   1 <1>  -0.0970 
  8 C       -0.4520     1.5320     0.7630 C.ar  1 <1>   0.1670 
  9 C       -3.0810    -1.6630    -1.4300 C.3   1 <1>   0.2090 
 10 C       -3.7380     0.7810    -1.5850 C.3   1 <1>   0.2090 
 11 C       -0.4760     2.7010     1.7260 C.3   1 <1>  -0.0970 
 12 C       -3.7510    -2.3830    -0.2050 C.3   1 <1>   0.5030 
 13 C       -5.1000     0.5300    -0.9330 C.3   1 <1>  -0.1600 
 14 N       -5.0880    -1.7310     0.1360 N.4   1 <1>  -0.9590 
 15 C       -3.9950    -3.8570    -0.5910 C.3   1 <1>  -0.1600 
 16 C       -2.8310    -2.3810     1.0360 C.3   1 <1>  -0.1600 
 17 C       -5.0150    -0.2450     0.3840 C.3   1 <1>   0.3430 
 18 C       -5.8560    -2.3410     1.2760 C.3   1 <1>   0.2630 
 19 C       -2.6860    -4.6180    -0.8400 C.3   1 <1>   0.3430 
 20 C       -1.5140    -3.1040     0.7640 C.3   1 <1>   0.3430 
 21 N       -1.7870    -4.5120     0.3470 N.4   1 <1>  -0.9590 
 22 C       -0.4890    -5.2110     0.0710 C.3   1 <1>   0.2630 
 23 H        1.6650     1.2520     0.8200 H     1 <1>   0.1500 
 24 H        2.0100    -0.8260    -1.9560 H     1 <1>   0.0800 
 25 H        1.8670    -1.9060    -0.5890 H     1 <1>   0.0800 
 26 H        2.7930    -0.4300    -0.4480 H     1 <1>   0.0800 
 27 H       -2.1820    -2.1730    -1.7260 H     1 <1>   0.0800 
 28 H       -3.7410    -1.7090    -2.2790 H     1 <1>   0.0800 
 29 H       -3.8280     0.7620    -2.6590 H     1 <1>   0.0800 
 30 H       -3.3910     1.7660    -1.3180 H     1 <1>   0.0800 
 31 H       -1.0860     2.4590     2.5770 H     1 <1>   0.0800 
 32 H       -0.8910     3.5620     1.2360 H     1 <1>   0.0800 
 33 H        0.5140     2.9420     2.0670 H     1 <1>   0.0800 
 34 H       -5.7610     0.0430    -1.6260 H     1 <1>   0.0800 
 35 H       -5.5290     1.4950    -0.7280 H     1 <1>   0.0800 
 36 H       -5.6780    -1.8230    -0.7000 H     1 <1>   0.4500 
 37 H       -4.5900    -3.9070    -1.4860 H     1 <1>   0.0800 
 38 H       -4.5230    -4.3810     0.1820 H     1 <1>   0.0800 
 39 H       -3.3010    -2.8640     1.8720 H     1 <1>   0.0800 
 40 H       -2.6010    -1.3760     1.3370 H     1 <1>   0.0800 
 41 H       -5.8520     0.0540     0.9940 H     1 <1>   0.0800 
 42 H       -4.1130     0.0210     0.9130 H     1 <1>   0.0800 
 43 H       -5.3090    -2.2400     2.1990 H     1 <1>   0.0800 
 44 H       -6.0500    -3.3850     1.0960 H     1 <1>   0.0800 
 45 H       -6.8050    -1.8420     1.3920 H     1 <1>   0.0800 
 46 H       -2.1860    -4.2190    -1.7080 H     1 <1>   0.0800 
 47 H       -2.9060    -5.6560    -1.0380 H     1 <1>   0.0800 
 48 H       -0.9070    -3.0940     1.6560 H     1 <1>   0.0800 
 49 H       -0.9650    -2.5980    -0.0110 H     1 <1>   0.0800 
 50 H       -2.2260    -5.0050     1.1410 H     1 <1>   0.4500 
 51 H        0.0290    -4.7340    -0.7460 H     1 <1>   0.0800 
 52 H       -0.6640    -6.2430    -0.1880 H     1 <1>   0.0800 
 53 H        0.1460    -5.1820     0.9420 H     1 <1>   0.0800 
@<TRIPOS>BOND
  1   1   2  ar  
  2   1   3  ar  
  3   2   4  ar  
  4   2   5  1   
  5   3   6  ar  
  6   3   7  1   
  7   4   8  ar  
  8   5   9  1   
  9   5  10  1   
 10   6   8  ar  
 11   6  23  1   
 12   7  24  1   
 13   7  25  1   
 14   7  26  1   
 15   8  11  1   
 16   9  12  1   
 17   9  27  1   
 18   9  28  1   
 19  10  13  1   
 20  10  29  1   
 21  10  30  1   
 22  11  31  1   
 23  11  32  1   
 24  11  33  1   
 25  12  14  1   
 26  12  15  1   
 27  12  16  1   
 28  13  17  1   
 29  13  34  1   
 30  13  35  1   
 31  14  17  1   
 32  14  18  1   
 33  14  36  1   
 34  15  19  1   
 35  15  37  1   
 36  15  38  1   
 37  16  20  1   
 38  16  39  1   
 39  16  40  1   
 40  17  41  1   
 41  17  42  1   
 42  18  43  1   
 43  18  44  1   
 44  18  45  1   
 45  19  21  1   
 46  19  46  1   
 47  19  47  1   
 48  20  21  1   
 49  20  48  1   
 50  20  49  1   
 51  21  22  1   
 52  21  50  1   
 53  22  51  1   
 54  22  52  1   
 55  22  53  1   
@<TRIPOS>SUBSTRUCTURE
  1 ****   5 GROUP 4 **** **** 0

# MOE 2024.06 (io_trps.svl 2023.06)
