@<TRIPOS>MOLECULE
NONAME
49 50 1 0 0 
SMALL
USER_CHARGES


@<TRIPOS>ATOM
  1 O        0.5360    -0.3430     0.9170 O.3   1 <1>  -0.3630 
  2 C        0.2450    -1.5500     0.3740 C.ar  1 <1>   0.0830 
  3 C        1.4030    -0.2220     2.0230 C.3   1 <1>   0.0400 
  4 C       -0.5780    -1.5480    -0.7400 C.ar  1 <1>  -0.1500 
  5 C        0.7220    -2.7600     0.8680 C.ar  1 <1>  -0.1500 
  6 C       -0.9310    -2.7350    -1.3560 C.ar  1 <1>  -0.1500 
  7 C        0.3690    -3.9480     0.2530 C.ar  1 <1>  -0.1500 
  8 C       -0.4650    -3.9430    -0.8580 C.ar  1 <1>  -0.1430 
  9 C       -0.8750    -5.2460    -1.5150 C.3   1 <1>   0.4860 
 10 N       -1.8320    -5.9460    -0.6210 N.4   1 <1>  -0.9590 
 11 C       -2.1550    -7.3300    -1.0730 C.3   1 <1>   0.3430 
 12 C       -3.0640    -5.1580    -0.3410 C.3   1 <1>   0.3430 
 13 C       -2.8550    -8.0750     0.0760 C.3   1 <1>   0.2000 
 14 C       -3.8950    -5.8490     0.7460 C.3   1 <1>  -0.1600 
 15 O       -1.9240    -8.0950     1.1200 O.3   1 <1>  -0.6800 
 16 C       -4.1700    -7.3660     0.5290 C.3   1 <1>   0.0000 
 17 C       -4.6280    -7.9820     1.8860 C.3   1 <1>   0.1200 
 18 C       -5.3220    -7.6290    -0.5000 C.3   1 <1>  -0.1600 
 19 O       -5.7200    -7.2940     2.3990 O.3   1 <1>  -0.6800 
 20 C       -5.4200    -6.7800    -1.7820 C.3   1 <1>  -0.1600 
 21 C       -6.6020    -7.2400    -2.6390 C.3   1 <1>  -0.2400 
 22 H        1.4980     0.8230     2.2590 H     1 <1>   0.0800 
 23 H        2.3650    -0.6250     1.7600 H     1 <1>   0.0800 
 24 H        0.9780    -0.7470     2.8600 H     1 <1>   0.0800 
 25 H       -0.9360    -0.6060    -1.1180 H     1 <1>   0.1500 
 26 H        1.3660    -2.7910     1.7270 H     1 <1>   0.1500 
 27 H       -1.5700    -2.6980    -2.2220 H     1 <1>   0.1500 
 28 H        0.7540    -4.8710     0.6520 H     1 <1>   0.1500 
 29 H        0.0000    -5.8550    -1.6720 H     1 <1>   0.0800 
 30 H       -1.3330    -5.0480    -2.4700 H     1 <1>   0.0800 
 31 H       -1.3680    -6.0790     0.2920 H     1 <1>   0.4500 
 32 H       -2.7710    -7.3120    -1.9510 H     1 <1>   0.0800 
 33 H       -1.2490    -7.8610    -1.3160 H     1 <1>   0.0800 
 34 H       -2.8010    -4.1690     0.0010 H     1 <1>   0.0800 
 35 H       -3.6430    -5.0540    -1.2420 H     1 <1>   0.0800 
 36 H       -3.0480    -9.0950    -0.2120 H     1 <1>   0.0800 
 37 H       -3.3710    -5.7180     1.6770 H     1 <1>   0.0800 
 38 H       -4.8290    -5.3260     0.8520 H     1 <1>   0.0800 
 39 H       -2.1660    -8.7580     1.8000 H     1 <1>   0.4000 
 40 H       -3.8520    -7.9200     2.6300 H     1 <1>   0.0800 
 41 H       -4.9130    -9.0130     1.7600 H     1 <1>   0.0800 
 42 H       -5.3040    -8.6690    -0.7760 H     1 <1>   0.0800 
 43 H       -6.2640    -7.4820     0.0010 H     1 <1>   0.0800 
 44 H       -6.0320    -7.6930     3.2370 H     1 <1>   0.4000 
 45 H       -5.5860    -5.7480    -1.5260 H     1 <1>   0.0800 
 46 H       -4.5380    -6.8500    -2.3850 H     1 <1>   0.0800 
 47 H       -7.5240    -7.1510    -2.0900 H     1 <1>   0.0800 
 48 H       -6.4800    -8.2660    -2.9400 H     1 <1>   0.0800 
 49 H       -6.6780    -6.6330    -3.5240 H     1 <1>   0.0800 
@<TRIPOS>BOND
  1   1   2  1   
  2   1   3  1   
  3   2   4  ar  
  4   2   5  ar  
  5   3  22  1   
  6   3  23  1   
  7   3  24  1   
  8   4   6  ar  
  9   4  25  1   
 10   5   7  ar  
 11   5  26  1   
 12   6   8  ar  
 13   6  27  1   
 14   7   8  ar  
 15   7  28  1   
 16   8   9  1   
 17   9  10  1   
 18   9  29  1   
 19   9  30  1   
 20  10  11  1   
 21  10  12  1   
 22  10  31  1   
 23  11  13  1   
 24  11  32  1   
 25  11  33  1   
 26  12  14  1   
 27  12  34  1   
 28  12  35  1   
 29  13  15  1   
 30  13  16  1   
 31  13  36  1   
 32  14  16  1   
 33  14  37  1   
 34  14  38  1   
 35  15  39  1   
 36  16  17  1   
 37  16  18  1   
 38  17  19  1   
 39  17  40  1   
 40  17  41  1   
 41  18  20  1   
 42  18  42  1   
 43  18  43  1   
 44  19  44  1   
 45  20  21  1   
 46  20  45  1   
 47  20  46  1   
 48  21  47  1   
 49  21  48  1   
 50  21  49  1   
@<TRIPOS>SUBSTRUCTURE
  1 ****  12 GROUP 4 **** **** 0

# MOE 2024.06 (io_trps.svl 2023.06)
