@<TRIPOS>MOLECULE
NONAME
40 41 1 0 0 
SMALL
USER_CHARGES


@<TRIPOS>ATOM
  1 O        0.0840     0.9990    -2.0280 O.2   1 <1>  -0.5700 
  2 C       -0.1190     1.7730    -1.1210 C.2   1 <1>   0.5690 
  3 N       -1.2910     2.4760    -1.0180 N.am  1 <1>  -0.6600 
  4 C        0.9770     2.0610    -0.0550 C.3   1 <1>   0.4840 
  5 C       -1.2020     3.9270    -0.6410 C.3   1 <1>   0.1400 
  6 C       -2.3740     1.7740    -0.2260 C.3   1 <1>   0.0340 
  7 N        1.1960     3.5440     0.1400 N.4   1 <1>  -0.9590 
  8 C        2.3190     1.3650    -0.3200 C.3   1 <1>  -0.2400 
  9 C       -0.1390     4.1820     0.4600 C.3   1 <1>   0.3430 
 10 C       -2.1050     1.8790     1.2750 C.2   1 <1>   0.9060 
 11 C        1.8480     4.1820    -1.0320 C.3   1 <1>   0.5240 
 12 O       -1.2320     1.1560     1.7660 O.co2 1 <1>  -0.9000 
 13 O       -2.5540     2.8540     1.8850 O.co2 1 <1>  -0.9000 
 14 C        2.0600     5.6450    -0.7210 C.2   1 <1>  -0.1810 
 15 C        2.8670     6.2470     0.1840 C.2   1 <1>  -0.3320 
 16 C        1.3940     6.6860    -1.3560 C.2   1 <1>   0.1390 
 17 N        2.6500     7.5790     0.0640 N.pl3 1 <1>   0.3140 
 18 C        3.8550     5.6420     1.1710 C.3   1 <1>  -0.0600 
 19 N        1.7360     7.8390    -0.8830 N.2   1 <1>  -0.7070 
 20 C        3.2880     8.6670     0.8200 C.3   1 <1>   0.0160 
 21 H        0.6110     1.6620     0.8730 H     1 <1>   0.0800 
 22 H       -2.1590     4.2720    -0.2840 H     1 <1>   0.0800 
 23 H       -0.9670     4.5020    -1.5180 H     1 <1>   0.0800 
 24 H       -2.4040     0.7330    -0.4920 H     1 <1>   0.0800 
 25 H       -3.3310     2.2120    -0.4390 H     1 <1>   0.0800 
 26 H        1.7960     3.6800     0.9570 H     1 <1>   0.4500 
 27 H        2.6970     1.5890    -1.3010 H     1 <1>   0.0800 
 28 H        2.1610     0.3010    -0.2750 H     1 <1>   0.0800 
 29 H        3.0420     1.6230     0.4310 H     1 <1>   0.0800 
 30 H       -0.5110     3.7820     1.3900 H     1 <1>   0.0800 
 31 H       -0.0210     5.2440     0.6000 H     1 <1>   0.0800 
 32 H        1.2340     4.0710    -1.9110 H     1 <1>   0.0800 
 33 H        2.8050     3.7250    -1.2230 H     1 <1>   0.0800 
 34 H        0.6720     6.5760    -2.1490 H     1 <1>   0.1500 
 35 H        3.9180     4.5760     1.0520 H     1 <1>   0.0800 
 36 H        3.5530     5.8580     2.1810 H     1 <1>   0.0800 
 37 H        4.8360     6.0540     1.0100 H     1 <1>   0.0800 
 38 H        3.1340     8.5100     1.8700 H     1 <1>   0.0800 
 39 H        2.8460     9.6030     0.5290 H     1 <1>   0.0800 
 40 H        4.3380     8.6830     0.5980 H     1 <1>   0.0800 
@<TRIPOS>BOND
  1   1   2  2   
  2   2   3  am  
  3   2   4  1   
  4   3   5  1   
  5   3   6  1   
  6   4   7  1   
  7   4   8  1   
  8   4  21  1   
  9   5   9  1   
 10   5  22  1   
 11   5  23  1   
 12   6  10  1   
 13   6  24  1   
 14   6  25  1   
 15   7   9  1   
 16   7  11  1   
 17   7  26  1   
 18   8  27  1   
 19   8  28  1   
 20   8  29  1   
 21   9  30  1   
 22   9  31  1   
 23  10  12  ar  
 24  10  13  ar  
 25  11  14  1   
 26  11  32  1   
 27  11  33  1   
 28  14  15  2   
 29  14  16  1   
 30  15  17  1   
 31  15  18  1   
 32  16  19  2   
 33  16  34  1   
 34  17  19  1   
 35  17  20  1   
 36  18  35  1   
 37  18  36  1   
 38  18  37  1   
 39  20  38  1   
 40  20  39  1   
 41  20  40  1   
@<TRIPOS>SUBSTRUCTURE
  1 ****   7 GROUP 4 **** **** 0

# MOE 2024.06 (io_trps.svl 2023.06)
