@<TRIPOS>MOLECULE
NONAME
43 45 1 0 0 
SMALL
USER_CHARGES


@<TRIPOS>ATOM
  1 O       -0.3100     0.1240     0.5960 O.2   1 <1>  -0.5700 
  2 C       -1.3500     0.7280     0.4190 C.2   1 <1>   0.5440 
  3 N       -2.5000     0.0090     0.1840 N.am  1 <1>  -0.6600 
  4 C       -1.3500     2.1770     0.4390 C.ar  1 <1>   0.0860 
  5 C       -3.7210     0.5540    -0.4620 C.3   1 <1>   0.1400 
  6 C       -2.5050    -1.4740     0.1400 C.3   1 <1>   0.1400 
  7 C       -2.2640     2.9250     1.1650 C.ar  1 <1>  -0.1500 
  8 C       -0.4200     2.9180    -0.2720 C.ar  1 <1>  -0.1500 
  9 C       -4.4350    -0.6650    -1.0460 C.3   1 <1>   0.2000 
 10 C       -3.9370    -1.8600    -0.2360 C.3   1 <1>  -0.0800 
 11 C       -2.2260     4.3070     1.1280 C.ar  1 <1>   0.1660 
 12 C       -0.4580     4.2990    -0.2490 C.ar  1 <1>   0.1660 
 13 O       -5.8120    -0.5560    -0.9320 O.3   1 <1>  -0.6800 
 14 C       -4.0520    -3.1870    -1.0050 C.3   1 <1>  -0.0160 
 15 N       -1.3470     5.0020     0.4290 N.ar  1 <1>  -0.6200 
 16 C       -3.2270     5.1220     1.9180 C.3   1 <1>  -0.0970 
 17 C        0.5580     5.1040    -1.0320 C.3   1 <1>  -0.0970 
 18 C       -3.6040    -4.3680    -0.1590 C.ar  1 <1>   0.1670 
 19 N       -2.3020    -4.5970    -0.1070 N.ar  1 <1>  -0.6200 
 20 C       -4.5480    -5.1420     0.5140 C.ar  1 <1>   0.1600 
 21 C       -2.0090    -5.6360     0.6560 C.ar  1 <1>   0.1600 
 22 N       -4.2580    -6.1820     1.2790 N.ar  1 <1>  -0.6200 
 23 C       -2.9550    -6.4020     1.3270 C.ar  1 <1>   0.1600 
 24 H       -4.3330     1.0320     0.2820 H     1 <1>   0.0800 
 25 H       -3.4610     1.2530    -1.2380 H     1 <1>   0.0800 
 26 H       -1.8050    -1.8060    -0.6100 H     1 <1>   0.0800 
 27 H       -2.2170    -1.8870     1.0930 H     1 <1>   0.0800 
 28 H       -2.9980     2.4190     1.7630 H     1 <1>   0.1500 
 29 H        0.3320     2.4000    -0.8390 H     1 <1>   0.1500 
 30 H       -4.1860    -0.7670    -2.0890 H     1 <1>   0.0800 
 31 H       -4.4960    -1.9280     0.6810 H     1 <1>   0.0800 
 32 H       -6.0720    -0.4790     0.0060 H     1 <1>   0.4000 
 33 H       -3.4530    -3.1490    -1.8980 H     1 <1>   0.0800 
 34 H       -5.0740    -3.3320    -1.3090 H     1 <1>   0.0800 
 35 H       -3.9030     4.4900     2.4630 H     1 <1>   0.0800 
 36 H       -3.7930     5.7430     1.2470 H     1 <1>   0.0800 
 37 H       -2.7040     5.7530     2.6130 H     1 <1>   0.0800 
 38 H        1.2450     4.4630    -1.5510 H     1 <1>   0.0800 
 39 H        1.1100     5.7340    -0.3580 H     1 <1>   0.0800 
 40 H        0.0500     5.7240    -1.7470 H     1 <1>   0.0800 
 41 H       -5.5890    -4.8900     0.4170 H     1 <1>   0.1500 
 42 H       -0.9690    -5.8940     0.7570 H     1 <1>   0.1500 
 43 H       -2.6180    -7.2300     1.9260 H     1 <1>   0.1500 
@<TRIPOS>BOND
  1   1   2  2   
  2   2   3  am  
  3   2   4  1   
  4   3   5  1   
  5   3   6  1   
  6   4   7  ar  
  7   4   8  ar  
  8   5   9  1   
  9   5  24  1   
 10   5  25  1   
 11   6  10  1   
 12   6  26  1   
 13   6  27  1   
 14   7  11  ar  
 15   7  28  1   
 16   8  12  ar  
 17   8  29  1   
 18   9  10  1   
 19   9  13  1   
 20   9  30  1   
 21  10  14  1   
 22  10  31  1   
 23  11  15  ar  
 24  11  16  1   
 25  12  15  ar  
 26  12  17  1   
 27  13  32  1   
 28  14  18  1   
 29  14  33  1   
 30  14  34  1   
 31  16  35  1   
 32  16  36  1   
 33  16  37  1   
 34  17  38  1   
 35  17  39  1   
 36  17  40  1   
 37  18  19  ar  
 38  18  20  ar  
 39  19  21  ar  
 40  20  22  ar  
 41  20  41  1   
 42  21  23  ar  
 43  21  42  1   
 44  22  23  ar  
 45  23  43  1   
@<TRIPOS>SUBSTRUCTURE
  1 ****   3 GROUP 4 **** **** 0

# MOE 2024.06 (io_trps.svl 2023.06)
