@<TRIPOS>MOLECULE
NONAME
48 50 1 0 0 
SMALL
USER_CHARGES


@<TRIPOS>ATOM
  1 O       -1.3470     0.4770    -1.2810 O.2   1 <1>  -0.5700 
  2 C       -2.0510     1.1100    -0.5140 C.2   1 <1>   0.5440 
  3 N       -3.1240     0.4850     0.0850 N.am  1 <1>  -0.6600 
  4 C       -1.7380     2.5040    -0.2560 C.ar  1 <1>   0.0860 
  5 C       -3.2180    -1.0090     0.1930 C.3   1 <1>   0.1400 
  6 C       -4.2910     1.2170     0.6570 C.3   1 <1>   0.1400 
  7 C       -1.6900     3.0160     1.0400 C.ar  1 <1>  -0.1500 
  8 C       -1.4620     3.3870    -1.2990 C.ar  1 <1>  -0.1500 
  9 C       -4.5440    -1.5230    -0.3930 C.3   1 <1>   0.2000 
 10 C       -5.5940     0.6940     0.0380 C.3   1 <1>  -0.1600 
 11 C       -1.4070     4.3470     1.2840 C.ar  1 <1>  -0.1500 
 12 C       -1.1780     4.7190    -1.0620 C.ar  1 <1>  -0.1500 
 13 O       -4.6150    -2.8940    -0.2020 O.3   1 <1>  -0.6800 
 14 C       -5.7740    -0.8340     0.2580 C.3   1 <1>  -0.1060 
 15 C       -1.1540     5.2280     0.2350 C.ar  1 <1>  -0.0230 
 16 C       -5.8140    -1.1600     1.7700 C.2   1 <1>   0.9060 
 17 C       -7.1200    -1.3110    -0.3650 C.3   1 <1>  -0.1600 
 18 N       -0.8770     6.6060     0.4730 N.pl3 1 <1>   0.5930 
 19 O       -6.1650    -0.2900     2.5780 O.co2 1 <1>  -0.9000 
 20 O       -5.5000    -2.2980     2.1550 O.co2 1 <1>  -0.9000 
 21 C       -7.2700    -1.1510    -1.8890 C.3   1 <1>  -0.1600 
 22 N       -0.1070     7.3700    -0.3470 N.2   1 <1>  -0.7070 
 23 C       -1.3260     7.3660     1.5050 C.2   1 <1>  -0.3020 
 24 C       -8.6370    -1.6580    -2.3550 C.3   1 <1>  -0.2400 
 25 C       -0.0890     8.5520     0.1830 C.2   1 <1>   0.1390 
 26 C       -0.8380     8.6140     1.3510 C.2   1 <1>  -0.1500 
 27 H       -2.4030    -1.4750    -0.3310 H     1 <1>   0.0800 
 28 H       -3.1550    -1.2840     1.2320 H     1 <1>   0.0800 
 29 H       -4.3020     1.0840     1.7260 H     1 <1>   0.0800 
 30 H       -4.2160     2.2700     0.4540 H     1 <1>   0.0800 
 31 H       -1.8790     2.3490     1.8650 H     1 <1>   0.1500 
 32 H       -1.4720     3.0100    -2.3070 H     1 <1>   0.1500 
 33 H       -4.5260    -1.3520    -1.4530 H     1 <1>   0.0800 
 34 H       -6.4200     1.2190     0.4850 H     1 <1>   0.0800 
 35 H       -5.5810     0.9310    -1.0090 H     1 <1>   0.0800 
 36 H       -1.3780     4.6960     2.3020 H     1 <1>   0.1500 
 37 H       -0.9690     5.3740    -1.8910 H     1 <1>   0.1500 
 38 H       -4.9170    -3.0040     0.7510 H     1 <1>   0.4000 
 39 H       -7.2490    -2.3520    -0.1190 H     1 <1>   0.0800 
 40 H       -7.9180    -0.7790     0.1240 H     1 <1>   0.0800 
 41 H       -7.1710    -0.1190    -2.1700 H     1 <1>   0.0800 
 42 H       -6.5050    -1.7160    -2.3920 H     1 <1>   0.0800 
 43 H       -1.9640     6.9760     2.2740 H     1 <1>   0.1500 
 44 H       -9.4250    -1.1000    -1.8790 H     1 <1>   0.0800 
 45 H       -8.7520    -2.6990    -2.1070 H     1 <1>   0.0800 
 46 H       -8.7290    -1.5460    -3.4200 H     1 <1>   0.0800 
 47 H        0.4470     9.3860    -0.2400 H     1 <1>   0.1500 
 48 H       -0.9780     9.4840     1.9680 H     1 <1>   0.1500 
@<TRIPOS>BOND
  1   1   2  2   
  2   2   3  am  
  3   2   4  1   
  4   3   5  1   
  5   3   6  1   
  6   4   7  ar  
  7   4   8  ar  
  8   5   9  1   
  9   5  27  1   
 10   5  28  1   
 11   6  10  1   
 12   6  29  1   
 13   6  30  1   
 14   7  11  ar  
 15   7  31  1   
 16   8  12  ar  
 17   8  32  1   
 18   9  13  1   
 19   9  14  1   
 20   9  33  1   
 21  10  14  1   
 22  10  34  1   
 23  10  35  1   
 24  11  15  ar  
 25  11  36  1   
 26  12  15  ar  
 27  12  37  1   
 28  13  38  1   
 29  14  16  1   
 30  14  17  1   
 31  15  18  1   
 32  16  19  ar  
 33  16  20  ar  
 34  17  21  1   
 35  17  39  1   
 36  17  40  1   
 37  18  22  1   
 38  18  23  1   
 39  21  24  1   
 40  21  41  1   
 41  21  42  1   
 42  22  25  2   
 43  23  26  2   
 44  23  43  1   
 45  24  44  1   
 46  24  45  1   
 47  24  46  1   
 48  25  26  1   
 49  25  47  1   
 50  26  48  1   
@<TRIPOS>SUBSTRUCTURE
  1 ****   6 GROUP 4 **** **** 0

# MOE 2024.06 (io_trps.svl 2023.06)
