@<TRIPOS>MOLECULE
NONAME
38 38 1 0 0 
SMALL
USER_CHARGES


@<TRIPOS>ATOM
  1 O       -0.5700     2.8270    -1.3420 O.2   1 <1>  -0.5700 
  2 C       -0.8700     2.2290    -0.3350 C.2   1 <1>   0.5690 
  3 N        0.0000     2.1390     0.7010 N.am  1 <1>  -0.7300 
  4 C       -2.2560     1.5920    -0.2000 C.3   1 <1>  -0.0190 
  5 C        1.3780     2.7260     0.6970 C.3   1 <1>   0.2010 
  6 C       -2.5200     0.5690    -1.3170 C.3   1 <1>  -0.2400 
  7 C       -3.3630     2.6590    -0.1890 C.3   1 <1>  -0.2400 
  8 C        1.3960     4.2450     0.8690 C.2   1 <1>   0.5690 
  9 O        1.9340     4.7050     1.8470 O.2   1 <1>  -0.5700 
 10 N        0.7920     5.0000    -0.0980 N.am  1 <1>  -0.4940 
 11 C        0.5770     6.3940    -0.2310 C.2   1 <1>  -0.0880 
 12 N        1.3990     7.4280     0.1260 N.pl3 1 <1>   0.3140 
 13 C       -0.5180     6.9590    -0.7940 C.2   1 <1>  -0.1810 
 14 N        0.8450     8.6230    -0.1950 N.2   1 <1>  -0.7070 
 15 C        2.7710     7.4070     0.6840 C.3   1 <1>   0.0960 
 16 C       -0.2930     8.3280    -0.7380 C.2   1 <1>   0.1390 
 17 C       -1.7500     6.2930    -1.3770 C.3   1 <1>  -0.0590 
 18 C        3.7800     6.7840    -0.2910 C.3   1 <1>  -0.2400 
 19 H       -0.3030     1.7260     1.5860 H     1 <1>   0.3700 
 20 H       -2.2930     1.0680     0.7390 H     1 <1>   0.0800 
 21 H        1.8590     2.4860    -0.2350 H     1 <1>   0.0800 
 22 H        1.9540     2.2810     1.4890 H     1 <1>   0.0800 
 23 H       -2.5040     1.0530    -2.2780 H     1 <1>   0.0800 
 24 H       -3.4790     0.1000    -1.1810 H     1 <1>   0.0800 
 25 H       -1.7610    -0.1930    -1.3090 H     1 <1>   0.0800 
 26 H       -3.3800     3.1880    -1.1260 H     1 <1>   0.0800 
 27 H       -3.1880     3.3680     0.6010 H     1 <1>   0.0800 
 28 H       -4.3240     2.2020    -0.0330 H     1 <1>   0.0800 
 29 H        0.2710     4.4270    -0.7810 H     1 <1>   0.3700 
 30 H        2.7630     6.8880     1.6210 H     1 <1>   0.0800 
 31 H        3.0580     8.4240     0.8840 H     1 <1>   0.0800 
 32 H       -0.9800     9.0730    -1.1030 H     1 <1>   0.1500 
 33 H       -1.7680     5.2470    -1.1340 H     1 <1>   0.0800 
 34 H       -1.7500     6.3990    -2.4470 H     1 <1>   0.0800 
 35 H       -2.6370     6.7520    -0.9790 H     1 <1>   0.0800 
 36 H        3.5360     5.7550    -0.4800 H     1 <1>   0.0800 
 37 H        4.7670     6.8280     0.1330 H     1 <1>   0.0800 
 38 H        3.7790     7.3290    -1.2190 H     1 <1>   0.0800 
@<TRIPOS>BOND
  1   1   2  2   
  2   2   3  am  
  3   2   4  1   
  4   3   5  1   
  5   3  19  1   
  6   4   6  1   
  7   4   7  1   
  8   4  20  1   
  9   5   8  1   
 10   5  21  1   
 11   5  22  1   
 12   6  23  1   
 13   6  24  1   
 14   6  25  1   
 15   7  26  1   
 16   7  27  1   
 17   7  28  1   
 18   8   9  2   
 19   8  10  am  
 20  10  11  1   
 21  10  29  1   
 22  11  12  1   
 23  11  13  2   
 24  12  14  1   
 25  12  15  1   
 26  13  16  1   
 27  13  17  1   
 28  14  16  2   
 29  15  18  1   
 30  15  30  1   
 31  15  31  1   
 32  16  32  1   
 33  17  33  1   
 34  17  34  1   
 35  17  35  1   
 36  18  36  1   
 37  18  37  1   
 38  18  38  1   
@<TRIPOS>SUBSTRUCTURE
  1 ****  10 GROUP 4 **** **** 0

# MOE 2024.06 (io_trps.svl 2023.06)
