@<TRIPOS>MOLECULE
NONAME
46 47 1 0 0 
SMALL
USER_CHARGES


@<TRIPOS>ATOM
  1 F       -3.5460    -0.8760     2.2320 F     1 <1>  -0.1900 
  2 C       -2.9690     0.0240     1.4830 C.ar  1 <1>   0.1900 
  3 C       -2.9370    -0.1540     0.1010 C.ar  1 <1>   0.0860 
  4 C       -2.4240     1.1220     2.1180 C.ar  1 <1>  -0.1500 
  5 C       -2.3120     0.8500    -0.6510 C.ar  1 <1>  -0.1440 
  6 C       -3.5330    -1.3220    -0.5110 C.2   1 <1>   0.5440 
  7 C       -1.8150     2.0990     1.3540 C.ar  1 <1>  -0.1500 
  8 C       -1.7620     1.9580    -0.0240 C.ar  1 <1>  -0.1500 
  9 C       -2.2250     0.7300    -2.1680 C.3   1 <1>  -0.0960 
 10 O       -2.8170    -2.2370    -0.8690 O.2   1 <1>  -0.5700 
 11 N       -4.8940    -1.4230    -0.7170 N.am  1 <1>  -0.6600 
 12 C       -5.5110    -2.6730    -1.2710 C.3   1 <1>   0.1400 
 13 C       -5.8760    -0.4010    -0.2770 C.3   1 <1>   0.1400 
 14 C       -6.8830    -2.9710    -0.6270 C.3   1 <1>   0.2000 
 15 C       -6.7200    -0.9470     0.8870 C.3   1 <1>  -0.1600 
 16 O       -7.1460    -4.3330    -0.7360 O.3   1 <1>  -0.6800 
 17 C       -6.9820    -2.4890     0.8530 C.3   1 <1>   0.0000 
 18 C       -5.9060    -3.2410     1.6950 C.3   1 <1>   0.1200 
 19 C       -8.3780    -2.8000     1.4700 C.3   1 <1>  -0.1600 
 20 O       -5.9060    -2.8390     3.0250 O.3   1 <1>  -0.6800 
 21 C       -9.6080    -2.3960     0.6330 C.3   1 <1>  -0.1600 
 22 C      -10.9010    -2.6560     1.4090 C.3   1 <1>  -0.2400 
 23 H       -2.4750     1.2080     3.1890 H     1 <1>   0.1500 
 24 H       -1.3810     2.9650     1.8250 H     1 <1>   0.1500 
 25 H       -1.2810     2.7260    -0.6060 H     1 <1>   0.1500 
 26 H       -1.7380     1.5850    -2.6000 H     1 <1>   0.0800 
 27 H       -3.2110     0.6490    -2.5910 H     1 <1>   0.0800 
 28 H       -1.6650    -0.1500    -2.4340 H     1 <1>   0.0800 
 29 H       -5.6330    -2.5610    -2.3340 H     1 <1>   0.0800 
 30 H       -4.8490    -3.5020    -1.0940 H     1 <1>   0.0800 
 31 H       -5.3920     0.5140     0.0150 H     1 <1>   0.0800 
 32 H       -6.5200    -0.1720    -1.1100 H     1 <1>   0.0800 
 33 H       -7.6310    -2.4680    -1.2130 H     1 <1>   0.0800 
 34 H       -6.2490    -0.6650     1.8090 H     1 <1>   0.0800 
 35 H       -7.6480    -0.4090     0.8700 H     1 <1>   0.0800 
 36 H       -6.5250    -4.8470    -0.1880 H     1 <1>   0.4000 
 37 H       -4.9130    -3.0860     1.3120 H     1 <1>   0.0800 
 38 H       -6.1070    -4.2970     1.6920 H     1 <1>   0.0800 
 39 H       -8.4450    -3.8600     1.6510 H     1 <1>   0.0800 
 40 H       -8.4410    -2.3210     2.4320 H     1 <1>   0.0800 
 41 H       -5.4080    -2.0020     3.1160 H     1 <1>   0.4000 
 42 H       -9.5690    -1.3550     0.3670 H     1 <1>   0.0800 
 43 H       -9.6370    -2.9730    -0.2750 H     1 <1>   0.0800 
 44 H      -10.9210    -2.0760     2.3150 H     1 <1>   0.0800 
 45 H      -10.9820    -3.6980     1.6640 H     1 <1>   0.0800 
 46 H      -11.7520    -2.3840     0.8100 H     1 <1>   0.0800 
@<TRIPOS>BOND
  1   1   2  1   
  2   2   3  ar  
  3   2   4  ar  
  4   3   5  ar  
  5   3   6  1   
  6   4   7  ar  
  7   4  23  1   
  8   5   8  ar  
  9   5   9  1   
 10   6  10  2   
 11   6  11  am  
 12   7   8  ar  
 13   7  24  1   
 14   8  25  1   
 15   9  26  1   
 16   9  27  1   
 17   9  28  1   
 18  11  12  1   
 19  11  13  1   
 20  12  14  1   
 21  12  29  1   
 22  12  30  1   
 23  13  15  1   
 24  13  31  1   
 25  13  32  1   
 26  14  16  1   
 27  14  17  1   
 28  14  33  1   
 29  15  17  1   
 30  15  34  1   
 31  15  35  1   
 32  16  36  1   
 33  17  18  1   
 34  17  19  1   
 35  18  20  1   
 36  18  37  1   
 37  18  38  1   
 38  19  21  1   
 39  19  39  1   
 40  19  40  1   
 41  20  41  1   
 42  21  22  1   
 43  21  42  1   
 44  21  43  1   
 45  22  44  1   
 46  22  45  1   
 47  22  46  1   
@<TRIPOS>SUBSTRUCTURE
  1 ****  11 GROUP 4 **** **** 0

# MOE 2024.06 (io_trps.svl 2023.06)
