@<TRIPOS>MOLECULE
NONAME
45 46 1 0 0 
SMALL
USER_CHARGES


@<TRIPOS>ATOM
  1 F       -1.1570    -1.2370    -0.5440 F     1 <1>  -0.1900 
  2 C       -1.7490    -0.0960    -0.3100 C.ar  1 <1>   0.1900 
  3 C       -2.9630     0.1880    -0.9300 C.ar  1 <1>  -0.1440 
  4 C       -1.1220     0.7810     0.5540 C.ar  1 <1>  -0.1500 
  5 C       -3.5470     1.4280    -0.6830 C.ar  1 <1>  -0.1500 
  6 C       -3.6230    -0.8100    -1.8820 C.3   1 <1>   0.2540 
  7 C       -1.7460     1.9900     0.7830 C.ar  1 <1>   0.1900 
  8 C       -2.9430     2.3320     0.1790 C.ar  1 <1>  -0.1500 
  9 N       -4.5760    -1.7290    -1.2110 N.3   1 <1>  -0.8100 
 10 F       -1.1860     2.8430     1.5960 F     1 <1>  -0.1900 
 11 C       -3.8740    -2.6130    -0.2560 C.3   1 <1>   0.2900 
 12 C       -5.7430    -1.0380    -0.6150 C.3   1 <1>   0.1100 
 13 C       -4.8340    -3.6630     0.2510 C.2   1 <1>  -0.3320 
 14 C       -7.0410    -1.8210    -0.9000 C.3   1 <1>   0.3430 
 15 N       -5.2840    -4.6900    -0.4920 N.pl3 1 <1>   0.0330 
 16 C       -5.4210    -3.7790     1.4600 C.2   1 <1>   0.0770 
 17 N       -8.1920    -1.3990    -0.0350 N.4   1 <1>  -0.9590 
 18 C       -6.1610    -5.3400     0.3040 C.2   1 <1>   0.0060 
 19 N       -6.2860    -4.8080     1.4760 N.2   1 <1>  -0.5650 
 20 C       -8.0510    -1.9760     1.3410 C.3   1 <1>   0.2630 
 21 C       -9.4790    -1.8620    -0.6360 C.3   1 <1>   0.2630 
 22 C       -6.9090    -6.5790    -0.1420 C.3   1 <1>  -0.0600 
 23 H       -0.1890     0.5360     1.0250 H     1 <1>   0.1500 
 24 H       -4.4680     1.7050    -1.1640 H     1 <1>   0.1500 
 25 H       -2.8640    -1.3930    -2.3770 H     1 <1>   0.0800 
 26 H       -4.1440    -0.2700    -2.6530 H     1 <1>   0.0800 
 27 H       -3.3850     3.2920     0.3800 H     1 <1>   0.1500 
 28 H       -3.4980    -2.0400     0.5750 H     1 <1>   0.0800 
 29 H       -3.0400    -3.0940    -0.7400 H     1 <1>   0.0800 
 30 H       -5.8540    -0.0630    -1.0530 H     1 <1>   0.0800 
 31 H       -5.5880    -0.9190     0.4440 H     1 <1>   0.0800 
 32 H       -6.8650    -2.8700    -0.7490 H     1 <1>   0.0800 
 33 H       -7.2930    -1.6750    -1.9370 H     1 <1>   0.0800 
 34 H       -5.0130    -4.9290    -1.4520 H     1 <1>   0.2700 
 35 H       -5.2750    -3.1600     2.3300 H     1 <1>   0.1500 
 36 H       -8.2060    -0.3700     0.0270 H     1 <1>   0.4500 
 37 H       -8.0330    -3.0540     1.2940 H     1 <1>   0.0800 
 38 H       -8.8770    -1.6730     1.9640 H     1 <1>   0.0800 
 39 H       -7.1350    -1.6420     1.7990 H     1 <1>   0.0800 
 40 H       -9.4900    -2.9380    -0.7080 H     1 <1>   0.0800 
 41 H       -9.6030    -1.4480    -1.6230 H     1 <1>   0.0800 
 42 H      -10.3110    -1.5500    -0.0250 H     1 <1>   0.0800 
 43 H       -7.5040    -6.3660    -1.0110 H     1 <1>   0.0800 
 44 H       -7.5560    -6.9190     0.6470 H     1 <1>   0.0800 
 45 H       -6.2120    -7.3650    -0.3720 H     1 <1>   0.0800 
@<TRIPOS>BOND
  1   1   2  1   
  2   2   3  ar  
  3   2   4  ar  
  4   3   5  ar  
  5   3   6  1   
  6   4   7  ar  
  7   4  23  1   
  8   5   8  ar  
  9   5  24  1   
 10   6   9  1   
 11   6  25  1   
 12   6  26  1   
 13   7   8  ar  
 14   7  10  1   
 15   8  27  1   
 16   9  11  1   
 17   9  12  1   
 18  11  13  1   
 19  11  28  1   
 20  11  29  1   
 21  12  14  1   
 22  12  30  1   
 23  12  31  1   
 24  13  15  1   
 25  13  16  2   
 26  14  17  1   
 27  14  32  1   
 28  14  33  1   
 29  15  18  1   
 30  15  34  1   
 31  16  19  1   
 32  16  35  1   
 33  17  20  1   
 34  17  21  1   
 35  17  36  1   
 36  18  19  2   
 37  18  22  1   
 38  20  37  1   
 39  20  38  1   
 40  20  39  1   
 41  21  40  1   
 42  21  41  1   
 43  21  42  1   
 44  22  43  1   
 45  22  44  1   
 46  22  45  1   
@<TRIPOS>SUBSTRUCTURE
  1 ****   9 GROUP 4 **** **** 0

# MOE 2024.06 (io_trps.svl 2023.06)
