@<TRIPOS>MOLECULE
NONAME
60 63 1 0 0 
SMALL
USER_CHARGES


@<TRIPOS>ATOM
  1 O       -1.6470    -0.0940     1.9630 O.2   1 <1>  -0.5700 
  2 C       -1.7760     0.5340     0.9280 C.2   1 <1>   0.7150 
  3 N       -2.4580    -0.0300    -0.1200 N.am  1 <1>  -0.6600 
  4 C       -1.2940     1.8920     0.8750 C.2   1 <1>  -0.2370 
  5 C       -2.5390    -1.5290    -0.1960 C.3   1 <1>   0.3640 
  6 C       -3.5660     0.7530    -0.7360 C.3   1 <1>   0.1400 
  7 N       -1.2650     2.6340     2.0290 N.pl3 1 <1>   0.0330 
  8 C       -0.8040     2.6810    -0.1330 C.2   1 <1>  -0.1810 
  9 C       -1.1230    -2.0640    -0.4340 C.ar  1 <1>  -0.1440 
 10 C       -3.4920    -2.0930    -1.2970 C.3   1 <1>   0.2000 
 11 C       -4.1420     0.0580    -1.9700 C.3   1 <1>   0.1200 
 12 C       -0.8000     3.8900     1.7540 C.ar  1 <1>  -0.1520 
 13 C       -0.5040     3.9510     0.3990 C.ar  1 <1>   0.0000 
 14 C       -0.5500     2.3210    -1.5840 C.3   1 <1>  -0.0590 
 15 C       -0.5360    -2.9070     0.5000 C.ar  1 <1>  -0.1500 
 16 C       -0.4070    -1.7230    -1.5760 C.ar  1 <1>  -0.1500 
 17 O       -4.5470    -1.2250    -1.6190 O.3   1 <1>  -0.5600 
 18 C       -4.1420    -3.4280    -0.8950 C.3   1 <1>   0.1200 
 19 C       -0.6070     4.9940     2.5880 C.ar  1 <1>  -0.1500 
 20 C       -0.0040     5.1420    -0.1450 C.ar  1 <1>  -0.1500 
 21 C        0.7360    -3.4160     0.2970 C.ar  1 <1>   0.0830 
 22 C        0.8710    -2.2140    -1.7790 C.ar  1 <1>  -0.1500 
 23 O       -3.1960    -4.3700    -0.5030 O.3   1 <1>  -0.6800 
 24 C       -0.1170     6.1560     2.0410 C.ar  1 <1>  -0.1500 
 25 C        0.1870     6.2380     0.6750 C.ar  1 <1>   0.0830 
 26 O        1.2270    -4.2680     1.2290 O.3   1 <1>  -0.3630 
 27 C        1.4570    -3.0480    -0.8440 C.ar  1 <1>   0.0830 
 28 O        0.6670     7.4380     0.2460 O.3   1 <1>  -0.3630 
 29 C        1.3450    -5.6140     0.8300 C.3   1 <1>   0.0400 
 30 O        2.7220    -3.4700    -1.0870 O.3   1 <1>  -0.3630 
 31 C        1.0360     7.6210    -1.1030 C.3   1 <1>   0.0400 
 32 C        3.7100    -3.0490    -0.1720 C.3   1 <1>   0.0400 
 33 H       -2.8930    -1.8900     0.7550 H     1 <1>   0.0800 
 34 H       -4.3510     0.8770    -0.0110 H     1 <1>   0.0800 
 35 H       -3.2180     1.7320    -1.0130 H     1 <1>   0.0800 
 36 H       -1.5020     2.2610     2.9550 H     1 <1>   0.2700 
 37 H       -2.9410    -2.2510    -2.2050 H     1 <1>   0.0800 
 38 H       -3.4160     0.0020    -2.7630 H     1 <1>   0.0800 
 39 H       -5.0070     0.5910    -2.3240 H     1 <1>   0.0800 
 40 H        0.4680     2.5530    -1.8400 H     1 <1>   0.0800 
 41 H       -1.2080     2.8810    -2.2230 H     1 <1>   0.0800 
 42 H       -0.7060     1.2720    -1.7490 H     1 <1>   0.0800 
 43 H       -1.0650    -3.1810     1.3950 H     1 <1>   0.1500 
 44 H       -0.8410    -1.0680    -2.3090 H     1 <1>   0.1500 
 45 H       -4.6940    -3.8350    -1.7240 H     1 <1>   0.0800 
 46 H       -4.8090    -3.2770    -0.0640 H     1 <1>   0.0800 
 47 H       -0.8400     4.9280     3.6360 H     1 <1>   0.1500 
 48 H        0.2170     5.1610    -1.1930 H     1 <1>   0.1500 
 49 H        1.4250    -1.9460    -2.6600 H     1 <1>   0.1500 
 50 H       -2.5170    -4.5070    -1.1950 H     1 <1>   0.4000 
 51 H        0.0440     7.0260     2.6510 H     1 <1>   0.1500 
 52 H        1.6940    -6.1850     1.6720 H     1 <1>   0.0800 
 53 H        2.0490    -5.6840     0.0200 H     1 <1>   0.0800 
 54 H        0.3780    -5.9680     0.5180 H     1 <1>   0.0800 
 55 H        1.3970     8.6270    -1.2160 H     1 <1>   0.0800 
 56 H        0.1710     7.4700    -1.7240 H     1 <1>   0.0800 
 57 H        1.8160     6.9220    -1.3480 H     1 <1>   0.0800 
 58 H        4.6720    -3.3110    -0.5710 H     1 <1>   0.0800 
 59 H        3.5580    -3.5440     0.7700 H     1 <1>   0.0800 
 60 H        3.6380    -1.9830    -0.0480 H     1 <1>   0.0800 
@<TRIPOS>BOND
  1   1   2  2   
  2   2   3  am  
  3   2   4  1   
  4   3   5  1   
  5   3   6  1   
  6   4   7  1   
  7   4   8  2   
  8   5   9  1   
  9   5  10  1   
 10   5  33  1   
 11   6  11  1   
 12   6  34  1   
 13   6  35  1   
 14   7  12  1   
 15   7  36  1   
 16   8  13  1   
 17   8  14  1   
 18   9  15  ar  
 19   9  16  ar  
 20  10  17  1   
 21  10  18  1   
 22  10  37  1   
 23  11  17  1   
 24  11  38  1   
 25  11  39  1   
 26  12  13  ar  
 27  12  19  ar  
 28  13  20  ar  
 29  14  40  1   
 30  14  41  1   
 31  14  42  1   
 32  15  21  ar  
 33  15  43  1   
 34  16  22  ar  
 35  16  44  1   
 36  18  23  1   
 37  18  45  1   
 38  18  46  1   
 39  19  24  ar  
 40  19  47  1   
 41  20  25  ar  
 42  20  48  1   
 43  21  26  1   
 44  21  27  ar  
 45  22  27  ar  
 46  22  49  1   
 47  23  50  1   
 48  24  25  ar  
 49  24  51  1   
 50  25  28  1   
 51  26  29  1   
 52  27  30  1   
 53  28  31  1   
 54  29  52  1   
 55  29  53  1   
 56  29  54  1   
 57  30  32  1   
 58  31  55  1   
 59  31  56  1   
 60  31  57  1   
 61  32  58  1   
 62  32  59  1   
 63  32  60  1   
@<TRIPOS>SUBSTRUCTURE
  1 ****   2 GROUP 4 **** **** 0

# MOE 2024.06 (io_trps.svl 2023.06)
