@<TRIPOS>MOLECULE
NONAME
22 23 1 0 0 
SMALL
USER_CHARGES


@<TRIPOS>ATOM
  1 F        4.4020    -1.9200     1.8610 F     1 <1>  -0.3400 
  2 C        3.9510    -1.4460     0.7110 C.3   1 <1>   1.0200 
  3 F        2.6530    -1.2380     0.8580 F     1 <1>  -0.3400 
  4 F        4.0910    -2.4090    -0.1870 F     1 <1>  -0.3400 
  5 C        4.6880    -0.1680     0.2940 C.3   1 <1>   0.0000 
  6 C        4.7700     1.1870     1.0670 C.3   1 <1>   0.0000 
  7 C        4.4590     0.6970    -0.9870 C.3   1 <1>   0.0000 
  8 C        6.2150     0.0170     0.0190 C.3   1 <1>   0.0000 
  9 C        5.6040     1.4250    -0.2250 C.3   1 <1>   0.4720 
 10 N        6.3180     2.6560    -0.6270 N.4   1 <1>  -0.8750 
 11 C        5.4080     3.8310    -0.7690 C.3   1 <1>   0.2630 
 12 H        5.3270     1.1530     1.9900 H     1 <1>   0.0000 
 13 H        3.8400     1.7280     1.1390 H     1 <1>   0.0000 
 14 H        3.5120     1.2120    -1.0260 H     1 <1>   0.0000 
 15 H        4.7350     0.2210    -1.9140 H     1 <1>   0.0000 
 16 H        6.5860    -0.4970    -0.8540 H     1 <1>   0.0000 
 17 H        6.8490    -0.0820     0.8850 H     1 <1>   0.0000 
 18 H        6.8040     2.4790    -1.5160 H     1 <1>   0.4500 
 19 H        7.0450     2.8580     0.0720 H     1 <1>   0.4500 
 20 H        4.6570     3.6370    -1.5190 H     1 <1>   0.0800 
 21 H        5.9670     4.7060    -1.0630 H     1 <1>   0.0800 
 22 H        4.9130     4.0390     0.1670 H     1 <1>   0.0800 
@<TRIPOS>BOND
  1   1   2  1   
  2   2   3  1   
  3   2   4  1   
  4   2   5  1   
  5   5   6  1   
  6   5   7  1   
  7   5   8  1   
  8   6   9  1   
  9   6  12  1   
 10   6  13  1   
 11   7   9  1   
 12   7  14  1   
 13   7  15  1   
 14   8   9  1   
 15   8  16  1   
 16   8  17  1   
 17   9  10  1   
 18  10  11  1   
 19  10  18  1   
 20  10  19  1   
 21  11  20  1   
 22  11  21  1   
 23  11  22  1   
@<TRIPOS>SUBSTRUCTURE
  1 ****   5 GROUP 4 **** **** 0

# MOE 2024.06 (io_trps.svl 2023.06)
