@<TRIPOS>MOLECULE
NONAME
62 65 1 0 0 
SMALL
USER_CHARGES


@<TRIPOS>ATOM
  1 O        1.6950    -1.6270    -2.2070 O.2   1 <1>  -0.5700 
  2 C        1.0310    -2.3020    -1.4590 C.2   1 <1>   0.5690 
  3 N        1.5840    -2.9860    -0.4080 N.am  1 <1>  -0.6600 
  4 C       -0.4630    -2.3780    -1.7300 C.3   1 <1>  -0.0990 
  5 C        0.7790    -3.7080     0.6230 C.3   1 <1>   0.1400 
  6 C        3.0520    -2.9210    -0.1460 C.3   1 <1>   0.1400 
  7 C       -1.2880    -2.8750    -0.5330 C.3   1 <1>  -0.1600 
  8 C       -0.6110    -4.1040     0.0970 C.3   1 <1>  -0.0190 
  9 C        3.4060    -1.6410     0.6110 C.3   1 <1>   0.1200 
 10 C       -1.4760    -4.7170     1.2020 C.2   1 <1>   0.5690 
 11 O        4.7440    -1.7080     0.9990 O.3   1 <1>  -0.5600 
 12 O       -1.1970    -4.4490     2.3480 O.2   1 <1>  -0.5700 
 13 N       -2.5350    -5.5420     0.9020 N.am  1 <1>  -0.6600 
 14 C        5.2010    -0.5580     1.6320 C.3   1 <1>   0.0400 
 15 C       -3.3750    -6.1420     1.9800 C.3   1 <1>   0.1400 
 16 C       -2.9990    -5.9240    -0.4630 C.3   1 <1>   0.1400 
 17 C       -3.3240    -7.6670     1.8690 C.3   1 <1>  -0.1600 
 18 C       -2.9320    -7.4460    -0.6070 C.3   1 <1>  -0.1600 
 19 C       -3.7580    -8.1560     0.4760 C.3   1 <1>   0.4240 
 20 O       -5.0840    -7.7340     0.2570 O.3   1 <1>  -0.5600 
 21 C       -3.6140    -9.6880     0.3460 C.ar  1 <1>  -0.1440 
 22 C       -6.1060    -8.5320     0.7660 C.3   1 <1>   0.1200 
 23 C       -4.7240   -10.4990     0.1300 C.ar  1 <1>  -0.1440 
 24 C       -2.3650   -10.2900     0.4510 C.ar  1 <1>  -0.1500 
 25 C       -6.0980    -9.8680     0.0300 C.3   1 <1>  -0.0170 
 26 C       -4.5840   -11.8730     0.0080 C.ar  1 <1>  -0.1500 
 27 C       -2.2250   -11.6610     0.3330 C.ar  1 <1>  -0.1500 
 28 C       -3.3290   -12.4620     0.1080 C.ar  1 <1>   0.0820 
 29 O       -3.1060   -13.7960     0.0010 O.3   1 <1>  -0.3620 
 30 C       -4.1600   -14.6980    -0.2490 C.3   1 <1>   0.0400 
 31 H       -0.6030    -3.0420    -2.5620 H     1 <1>   0.0800 
 32 H       -0.8100    -1.4050    -2.0260 H     1 <1>   0.0800 
 33 H        0.6760    -3.0650     1.4810 H     1 <1>   0.0800 
 34 H        1.3010    -4.5960     0.9350 H     1 <1>   0.0800 
 35 H        3.5830    -2.9300    -1.0830 H     1 <1>   0.0800 
 36 H        3.3590    -3.7770     0.4280 H     1 <1>   0.0800 
 37 H       -2.2870    -3.1100    -0.8550 H     1 <1>   0.0800 
 38 H       -1.3560    -2.0940     0.2060 H     1 <1>   0.0800 
 39 H       -0.4500    -4.8560    -0.6520 H     1 <1>   0.0800 
 40 H        2.8010    -1.5490     1.4960 H     1 <1>   0.0800 
 41 H        3.2690    -0.7870    -0.0290 H     1 <1>   0.0800 
 42 H        6.2320    -0.7090     1.8970 H     1 <1>   0.0800 
 43 H        4.6180    -0.3860     2.5210 H     1 <1>   0.0800 
 44 H        5.1190     0.2760     0.9560 H     1 <1>   0.0800 
 45 H       -4.3890    -5.7970     1.8700 H     1 <1>   0.0800 
 46 H       -3.0270    -5.8400     2.9530 H     1 <1>   0.0800 
 47 H       -2.4070    -5.4660    -1.2320 H     1 <1>   0.0800 
 48 H       -4.0150    -5.5910    -0.5930 H     1 <1>   0.0800 
 49 H       -3.9430    -8.1110     2.6260 H     1 <1>   0.0800 
 50 H       -2.3160    -7.9810     2.0650 H     1 <1>   0.0800 
 51 H       -1.9030    -7.7470    -0.5470 H     1 <1>   0.0800 
 52 H       -3.2990    -7.7400    -1.5730 H     1 <1>   0.0800 
 53 H       -7.0380    -8.0190     0.6050 H     1 <1>   0.0800 
 54 H       -5.9580    -8.6700     1.8230 H     1 <1>   0.0800 
 55 H       -1.4840    -9.6980     0.6280 H     1 <1>   0.1500 
 56 H       -6.3510    -9.7100    -1.0030 H     1 <1>   0.0800 
 57 H       -6.8380   -10.5160     0.4660 H     1 <1>   0.0800 
 58 H       -5.4580   -12.4700    -0.1650 H     1 <1>   0.1500 
 59 H       -1.2560   -12.1190     0.4140 H     1 <1>   0.1500 
 60 H       -3.7460   -15.6880    -0.3020 H     1 <1>   0.0800 
 61 H       -4.6210   -14.4430    -1.1870 H     1 <1>   0.0800 
 62 H       -4.8680   -14.6400     0.5580 H     1 <1>   0.0800 
@<TRIPOS>BOND
  1   1   2  2   
  2   2   3  am  
  3   2   4  1   
  4   3   5  1   
  5   3   6  1   
  6   4   7  1   
  7   4  31  1   
  8   4  32  1   
  9   5   8  1   
 10   5  33  1   
 11   5  34  1   
 12   6   9  1   
 13   6  35  1   
 14   6  36  1   
 15   7   8  1   
 16   7  37  1   
 17   7  38  1   
 18   8  10  1   
 19   8  39  1   
 20   9  11  1   
 21   9  40  1   
 22   9  41  1   
 23  10  12  2   
 24  10  13  am  
 25  11  14  1   
 26  13  15  1   
 27  13  16  1   
 28  14  42  1   
 29  14  43  1   
 30  14  44  1   
 31  15  17  1   
 32  15  45  1   
 33  15  46  1   
 34  16  18  1   
 35  16  47  1   
 36  16  48  1   
 37  17  19  1   
 38  17  49  1   
 39  17  50  1   
 40  18  19  1   
 41  18  51  1   
 42  18  52  1   
 43  19  20  1   
 44  19  21  1   
 45  20  22  1   
 46  21  23  ar  
 47  21  24  ar  
 48  22  25  1   
 49  22  53  1   
 50  22  54  1   
 51  23  25  1   
 52  23  26  ar  
 53  24  27  ar  
 54  24  55  1   
 55  25  56  1   
 56  25  57  1   
 57  26  28  ar  
 58  26  58  1   
 59  27  28  ar  
 60  27  59  1   
 61  28  29  1   
 62  29  30  1   
 63  30  60  1   
 64  30  61  1   
 65  30  62  1   
@<TRIPOS>SUBSTRUCTURE
  1 ****  13 GROUP 4 **** **** 0

# MOE 2024.06 (io_trps.svl 2023.06)
