@<TRIPOS>MOLECULE
NONAME
53 55 1 0 0 
SMALL
USER_CHARGES


@<TRIPOS>ATOM
  1 O       -1.0240     0.5290    -0.8650 O.2   1 <1>  -0.5700 
  2 C       -0.9360     1.7310    -0.9470 C.2   1 <1>   0.5690 
  3 N       -1.2080     2.5590     0.1120 N.am  1 <1>  -0.6600 
  4 C       -0.5190     2.3270    -2.2970 C.3   1 <1>   0.1810 
  5 C       -1.0320     4.0450    -0.0070 C.3   1 <1>   0.3640 
  6 C       -1.5570     2.0320     1.4640 C.3   1 <1>   0.0600 
  7 O       -0.0530     3.6530    -2.2060 O.3   1 <1>  -0.5600 
  8 C       -2.1630     4.7800     0.7240 C.ar  1 <1>  -0.1430 
  9 C       -0.9260     4.5000    -1.4810 C.3   1 <1>   0.2610 
 10 C       -1.9230     5.6030     1.8260 C.ar  1 <1>  -0.1430 
 11 C       -3.4680     4.6230     0.2720 C.ar  1 <1>  -0.1500 
 12 C       -0.5360     5.9820    -1.5870 C.2   1 <1>   0.5690 
 13 C       -2.9820     6.2670     2.4260 C.ar  1 <1>  -0.1500 
 14 C       -0.5330     5.8050     2.4180 C.3   1 <1>  -0.0960 
 15 C       -4.5180     5.2840     0.8810 C.ar  1 <1>  -0.1500 
 16 O       -1.4000     6.7320    -1.9830 O.2   1 <1>  -0.5700 
 17 N        0.7120     6.4680    -1.2560 N.am  1 <1>  -0.6600 
 18 C       -4.2730     6.1120     1.9580 C.ar  1 <1>  -0.1500 
 19 C        0.9710     7.9340    -1.3030 C.3   1 <1>   0.3210 
 20 C        1.8970     5.6590    -0.8490 C.3   1 <1>   0.0600 
 21 C        0.9710     8.4930     0.1070 C.2   1 <1>  -0.1810 
 22 C        1.9870     8.8790     0.9130 C.2   1 <1>  -0.3320 
 23 C       -0.1790     8.7150     0.8550 C.2   1 <1>   0.1390 
 24 N        1.4220     9.3020     2.0680 N.pl3 1 <1>   0.3140 
 25 C        3.4860     8.8730     0.6520 C.3   1 <1>  -0.0600 
 26 N        0.0850     9.1960     2.0310 N.2   1 <1>  -0.7070 
 27 C        2.1060     9.8270     3.2560 C.3   1 <1>   0.0160 
 28 H       -1.3580     2.3080    -2.9690 H     1 <1>   0.0800 
 29 H        0.2720     1.7320    -2.7180 H     1 <1>   0.0800 
 30 H       -0.0980     4.2780     0.4630 H     1 <1>   0.0800 
 31 H       -0.9100     2.4650     2.2060 H     1 <1>   0.0800 
 32 H       -1.4480     0.9610     1.4970 H     1 <1>   0.0800 
 33 H       -2.5780     2.2790     1.7010 H     1 <1>   0.0800 
 34 H       -1.8940     4.4100    -1.9390 H     1 <1>   0.0800 
 35 H       -3.6800     3.9770    -0.5620 H     1 <1>   0.1500 
 36 H       -2.8060     6.9170     3.2660 H     1 <1>   0.1500 
 37 H       -0.5470     6.5610     3.1830 H     1 <1>   0.0800 
 38 H        0.1590     6.1260     1.6630 H     1 <1>   0.0800 
 39 H       -0.1800     4.8890     2.8540 H     1 <1>   0.0800 
 40 H       -5.5210     5.1570     0.5160 H     1 <1>   0.1500 
 41 H       -5.0840     6.6370     2.4330 H     1 <1>   0.1500 
 42 H        1.9200     8.1160    -1.7740 H     1 <1>   0.0800 
 43 H        0.2220     8.4430    -1.8850 H     1 <1>   0.0800 
 44 H        2.7050     5.8320    -1.5390 H     1 <1>   0.0800 
 45 H        1.6850     4.6080    -0.8410 H     1 <1>   0.0800 
 46 H        2.2130     5.9530     0.1380 H     1 <1>   0.0800 
 47 H       -1.1780     8.5060     0.5060 H     1 <1>   0.1500 
 48 H        3.7010     8.4760    -0.3230 H     1 <1>   0.0800 
 49 H        3.9880     8.2670     1.3840 H     1 <1>   0.0800 
 50 H        3.8720     9.8760     0.7030 H     1 <1>   0.0800 
 51 H        2.7640     9.0740     3.6450 H     1 <1>   0.0800 
 52 H        1.3720    10.0830     3.9980 H     1 <1>   0.0800 
 53 H        2.6630    10.7030     2.9850 H     1 <1>   0.0800 
@<TRIPOS>BOND
  1   1   2  2   
  2   2   3  am  
  3   2   4  1   
  4   3   5  1   
  5   3   6  1   
  6   4   7  1   
  7   4  28  1   
  8   4  29  1   
  9   5   8  1   
 10   5   9  1   
 11   5  30  1   
 12   6  31  1   
 13   6  32  1   
 14   6  33  1   
 15   7   9  1   
 16   8  10  ar  
 17   8  11  ar  
 18   9  12  1   
 19   9  34  1   
 20  10  13  ar  
 21  10  14  1   
 22  11  15  ar  
 23  11  35  1   
 24  12  16  2   
 25  12  17  am  
 26  13  18  ar  
 27  13  36  1   
 28  14  37  1   
 29  14  38  1   
 30  14  39  1   
 31  15  18  ar  
 32  15  40  1   
 33  17  19  1   
 34  17  20  1   
 35  18  41  1   
 36  19  21  1   
 37  19  42  1   
 38  19  43  1   
 39  20  44  1   
 40  20  45  1   
 41  20  46  1   
 42  21  22  2   
 43  21  23  1   
 44  22  24  1   
 45  22  25  1   
 46  23  26  2   
 47  23  47  1   
 48  24  26  1   
 49  24  27  1   
 50  25  48  1   
 51  25  49  1   
 52  25  50  1   
 53  27  51  1   
 54  27  52  1   
 55  27  53  1   
@<TRIPOS>SUBSTRUCTURE
  1 ****   5 GROUP 4 **** **** 0

# MOE 2024.06 (io_trps.svl 2023.06)
