@<TRIPOS>MOLECULE
NONAME
32 33 1 0 0 
SMALL
USER_CHARGES


@<TRIPOS>ATOM
  1 S       -0.2800     0.5250     0.2760 S.o2  1 <1>   1.0900 
  2 O       -0.1930     0.2060    -1.1290 O.2   1 <1>  -0.6500 
  3 O       -1.5560     0.5080     0.9490 O.2   1 <1>  -0.6500 
  4 C        0.4380     2.1510     0.5070 C.3   1 <1>  -0.0550 
  5 C        0.8140    -0.5700     1.1620 C.3   1 <1>  -0.1350 
  6 C        1.7450     2.3620    -0.2760 C.3   1 <1>  -0.0990 
  7 C        2.2920     3.7500    -0.0310 C.2   1 <1>   0.5690 
  8 O        2.7690     3.9830     1.0490 O.2   1 <1>  -0.5700 
  9 N        2.1970     4.6740    -1.0240 N.am  1 <1>  -0.4940 
 10 C        2.5190     6.0360    -1.0280 C.2   1 <1>   0.2510 
 11 N        1.8530     6.8560    -1.7780 N.2   1 <1>  -0.3380 
 12 N        3.4930     6.6690    -0.3340 N.pl3 1 <1>   0.3340 
 13 N        2.3540     8.0740    -1.5870 N.2   1 <1>  -0.3380 
 14 C        3.3270     7.9640    -0.7310 C.2   1 <1>   0.3120 
 15 C        4.5590     6.3500     0.5010 C.2   1 <1>  -0.1810 
 16 N        4.1170     8.9970    -0.2750 N.2   1 <1>  -0.5760 
 17 C        5.3480     7.3600     0.9400 C.2   1 <1>  -0.1360 
 18 C        5.0780     8.6960     0.5270 C.2   1 <1>   0.3750 
 19 C        5.9660     9.8010     1.0520 C.3   1 <1>  -0.1790 
 20 H        0.6140     2.3240     1.5520 H     1 <1>   0.0800 
 21 H       -0.2730     2.8860     0.1790 H     1 <1>   0.0800 
 22 H        0.4450    -1.5760     1.1050 H     1 <1>   0.0800 
 23 H        0.8710    -0.2910     2.1970 H     1 <1>   0.0800 
 24 H        1.8000    -0.5500     0.7400 H     1 <1>   0.0800 
 25 H        1.5710     2.2150    -1.3270 H     1 <1>   0.0800 
 26 H        2.4850     1.6500     0.0410 H     1 <1>   0.0800 
 27 H        1.6470     4.4100    -1.8420 H     1 <1>   0.3700 
 28 H        4.7080     5.3180     0.7580 H     1 <1>   0.1500 
 29 H        6.1840     7.1890     1.5950 H     1 <1>   0.1500 
 30 H        5.9160     9.8320     2.1240 H     1 <1>   0.0800 
 31 H        5.6440    10.7520     0.6650 H     1 <1>   0.0800 
 32 H        6.9820     9.6310     0.7460 H     1 <1>   0.0800 
@<TRIPOS>BOND
  1   1   2  2   
  2   1   3  2   
  3   1   4  1   
  4   1   5  1   
  5   4   6  1   
  6   4  20  1   
  7   4  21  1   
  8   5  22  1   
  9   5  23  1   
 10   5  24  1   
 11   6   7  1   
 12   6  25  1   
 13   6  26  1   
 14   7   8  2   
 15   7   9  am  
 16   9  10  1   
 17   9  27  1   
 18  10  11  2   
 19  10  12  1   
 20  11  13  1   
 21  12  14  1   
 22  12  15  1   
 23  13  14  2   
 24  14  16  1   
 25  15  17  2   
 26  15  28  1   
 27  16  18  2   
 28  17  18  1   
 29  17  29  1   
 30  18  19  1   
 31  19  30  1   
 32  19  31  1   
 33  19  32  1   
@<TRIPOS>SUBSTRUCTURE
  1 ****   9 GROUP 4 **** **** 0

# MOE 2024.06 (io_trps.svl 2023.06)
