@<TRIPOS>MOLECULE
NONAME
49 50 1 0 0 
SMALL
USER_CHARGES


@<TRIPOS>ATOM
  1 S        0.1740    -0.5180    -2.0180 S.o2  1 <1>   1.4470 
  2 O        0.8310    -1.7170    -2.4890 O.2   1 <1>  -0.6500 
  3 O       -0.6070     0.2740    -2.9450 O.2   1 <1>  -0.6500 
  4 N       -0.8490    -0.9600    -0.7430 N.am  1 <1>  -0.8490 
  5 C        1.4140     0.5340    -1.2040 C.ar  1 <1>  -0.0090 
  6 C       -1.6910    -2.1200    -1.1030 C.3   1 <1>   0.1960 
  7 C       -1.6710     0.1630    -0.2730 C.3   1 <1>   0.1960 
  8 C        1.8100     1.7470    -1.7540 C.ar  1 <1>  -0.1500 
  9 C        2.0090     0.1500    -0.0080 C.ar  1 <1>  -0.1500 
 10 C       -2.5810    -2.5690     0.0690 C.3   1 <1>   0.2000 
 11 C       -2.5010    -0.2580     0.9430 C.3   1 <1>  -0.1600 
 12 C        2.7590     2.5410    -1.1340 C.ar  1 <1>  -0.1500 
 13 C        2.9570     0.9430     0.6140 C.ar  1 <1>  -0.1500 
 14 O       -3.3720    -3.6310    -0.3370 O.3   1 <1>  -0.6800 
 15 C       -3.4690    -1.4350     0.6350 C.3   1 <1>  -0.1060 
 16 C        3.3630     2.1600     0.0630 C.ar  1 <1>   0.0860 
 17 C       -4.1160    -1.9720     1.9250 C.2   1 <1>   0.9060 
 18 C       -4.5810    -1.0120    -0.3800 C.3   1 <1>  -0.1600 
 19 C        4.3620     3.0030     0.6970 C.2   1 <1>   0.5440 
 20 O       -4.0710    -1.3040     2.9640 O.co2 1 <1>  -0.9000 
 21 O       -4.6690    -3.0830     1.8910 O.co2 1 <1>  -0.9000 
 22 C       -5.4730     0.1530     0.0850 C.3   1 <1>  -0.1600 
 23 O        4.3240     4.2100     0.5640 O.2   1 <1>  -0.5700 
 24 N        5.3720     2.4540     1.4420 N.am  1 <1>  -0.7300 
 25 C       -6.6130     0.4000    -0.9070 C.3   1 <1>  -0.2400 
 26 C        6.4380     3.2150     2.1450 C.3   1 <1>   0.0600 
 27 H       -2.3060    -1.8740    -1.9510 H     1 <1>   0.0800 
 28 H       -1.0590    -2.9490    -1.3740 H     1 <1>   0.0800 
 29 H       -1.0330     0.9810     0.0160 H     1 <1>   0.0800 
 30 H       -2.3180     0.5090    -1.0610 H     1 <1>   0.0800 
 31 H        1.3680     2.0750    -2.6810 H     1 <1>   0.1500 
 32 H        1.7150    -0.7850     0.4410 H     1 <1>   0.1500 
 33 H       -1.9460    -2.9410     0.8550 H     1 <1>   0.0800 
 34 H       -1.8260    -0.5550     1.7270 H     1 <1>   0.0800 
 35 H       -3.0470     0.5840     1.3240 H     1 <1>   0.0800 
 36 H        3.0440     3.4790    -1.5810 H     1 <1>   0.1500 
 37 H        3.3810     0.6150     1.5460 H     1 <1>   0.1500 
 38 H       -4.0310    -3.7560     0.4100 H     1 <1>   0.4000 
 39 H       -4.1520    -0.7590    -1.3310 H     1 <1>   0.0800 
 40 H       -5.2220    -1.8620    -0.5440 H     1 <1>   0.0800 
 41 H       -5.8900    -0.0750     1.0530 H     1 <1>   0.0800 
 42 H       -4.8950     1.0550     0.1760 H     1 <1>   0.0800 
 43 H        5.4760     1.4380     1.4510 H     1 <1>   0.3700 
 44 H       -7.2290    -0.4780    -0.9890 H     1 <1>   0.0800 
 45 H       -6.2200     0.6430    -1.8780 H     1 <1>   0.0800 
 46 H       -7.2240     1.2160    -0.5650 H     1 <1>   0.0800 
 47 H        6.2370     4.2730     2.1040 H     1 <1>   0.0800 
 48 H        7.3890     3.0260     1.6780 H     1 <1>   0.0800 
 49 H        6.4820     2.9130     3.1760 H     1 <1>   0.0800 
@<TRIPOS>BOND
  1   1   2  2   
  2   1   3  2   
  3   1   4  am  
  4   1   5  1   
  5   4   6  1   
  6   4   7  1   
  7   5   8  ar  
  8   5   9  ar  
  9   6  10  1   
 10   6  27  1   
 11   6  28  1   
 12   7  11  1   
 13   7  29  1   
 14   7  30  1   
 15   8  12  ar  
 16   8  31  1   
 17   9  13  ar  
 18   9  32  1   
 19  10  14  1   
 20  10  15  1   
 21  10  33  1   
 22  11  15  1   
 23  11  34  1   
 24  11  35  1   
 25  12  16  ar  
 26  12  36  1   
 27  13  16  ar  
 28  13  37  1   
 29  14  38  1   
 30  15  17  1   
 31  15  18  1   
 32  16  19  1   
 33  17  20  ar  
 34  17  21  ar  
 35  18  22  1   
 36  18  39  1   
 37  18  40  1   
 38  19  23  2   
 39  19  24  am  
 40  22  25  1   
 41  22  41  1   
 42  22  42  1   
 43  24  26  1   
 44  24  43  1   
 45  25  44  1   
 46  25  45  1   
 47  25  46  1   
 48  26  47  1   
 49  26  48  1   
 50  26  49  1   
@<TRIPOS>SUBSTRUCTURE
  1 ****   7 GROUP 4 **** **** 0

# MOE 2024.06 (io_trps.svl 2023.06)
