@<TRIPOS>MOLECULE
NONAME
66 68 1 0 0 
SMALL
USER_CHARGES


@<TRIPOS>ATOM
  1 O       -1.9850    -3.2240     0.5470 O.2   1 <1>  -0.5700 
  2 C       -0.8090    -3.4790     0.4680 C.2   1 <1>   0.5690 
  3 N       -0.3000    -4.7460     0.5520 N.am  1 <1>  -0.6600 
  4 C        0.1750    -2.3450     0.2660 C.3   1 <1>  -0.0990 
  5 C        1.1610    -4.9840     0.4690 C.3   1 <1>   0.1400 
  6 C       -1.1620    -5.9360     0.7910 C.3   1 <1>   0.0600 
  7 C        1.2030    -2.7150    -0.8200 C.3   1 <1>  -0.0800 
  8 C        1.7680    -4.1480    -0.6770 C.3   1 <1>  -0.0800 
  9 C        2.4090    -1.7660    -0.8640 C.3   1 <1>  -0.1600 
 10 C        3.2920    -3.9910    -0.5720 C.3   1 <1>  -0.1600 
 11 C        3.5770    -2.6600    -1.2660 C.3   1 <1>   0.4230 
 12 N        4.9040    -2.0640    -0.9460 N.4   1 <1>  -0.9590 
 13 C        5.2020    -1.8730     0.5050 C.3   1 <1>   0.4860 
 14 C        6.0110    -2.8120    -1.6220 C.3   1 <1>   0.2630 
 15 C        6.3700    -0.9170     0.6160 C.ar  1 <1>  -0.1440 
 16 C        6.1790     0.4390     0.4100 C.ar  1 <1>  -0.1500 
 17 C        7.6390    -1.3870     0.9150 C.ar  1 <1>  -0.1500 
 18 C        7.2440     1.3180     0.4770 C.ar  1 <1>   0.0820 
 19 C        8.7250    -0.5260     0.9750 C.ar  1 <1>  -0.1440 
 20 O        6.9440     2.6280     0.2850 O.3   1 <1>  -0.3630 
 21 C        8.5350     0.8330     0.7230 C.ar  1 <1>   0.0820 
 22 C       10.0850    -1.1190     1.3300 C.3   1 <1>   0.1220 
 23 C        7.4040     3.5670     1.2350 C.3   1 <1>   0.0400 
 24 O        9.5990     1.6770     0.7230 O.3   1 <1>  -0.3630 
 25 C       10.5320    -2.0960     0.2540 C.2   1 <1>  -0.2880 
 26 C       10.3920     1.7300    -0.4450 C.3   1 <1>   0.2000 
 27 C       10.7680    -3.3990     0.4420 C.2   1 <1>  -0.3000 
 28 C       11.7690     2.2460    -0.0350 C.3   1 <1>  -0.2400 
 29 C        9.7370     2.6580    -1.4700 C.3   1 <1>  -0.2400 
 30 H       -0.3610    -1.4560    -0.0170 H     1 <1>   0.0800 
 31 H        0.6560    -2.1630     1.2080 H     1 <1>   0.0800 
 32 H        1.5970    -4.7070     1.4130 H     1 <1>   0.0800 
 33 H        1.3560    -6.0300     0.3010 H     1 <1>   0.0800 
 34 H       -0.8760    -6.4160     1.7100 H     1 <1>   0.0800 
 35 H       -1.0580    -6.6310    -0.0230 H     1 <1>   0.0800 
 36 H       -2.1970    -5.6460     0.8630 H     1 <1>   0.0800 
 37 H        0.6930    -2.6680    -1.7700 H     1 <1>   0.0800 
 38 H        1.5500    -4.6710    -1.5950 H     1 <1>   0.0800 
 39 H        2.5600    -1.3390     0.1090 H     1 <1>   0.0800 
 40 H        2.2500    -0.9790    -1.5800 H     1 <1>   0.0800 
 41 H        3.7970    -4.8100    -1.0530 H     1 <1>   0.0800 
 42 H        3.5690    -3.9520     0.4660 H     1 <1>   0.0800 
 43 H        3.5080    -2.8210    -2.3310 H     1 <1>   0.0800 
 44 H        4.9110    -1.1130    -1.3400 H     1 <1>   0.4500 
 45 H        4.3550    -1.4490     1.0180 H     1 <1>   0.0800 
 46 H        5.4460    -2.8150     0.9670 H     1 <1>   0.0800 
 47 H        6.0940    -3.8080    -1.2180 H     1 <1>   0.0800 
 48 H        6.9510    -2.3030    -1.4770 H     1 <1>   0.0800 
 49 H        5.8240    -2.8830    -2.6810 H     1 <1>   0.0800 
 50 H        5.2040     0.8450     0.2020 H     1 <1>   0.1500 
 51 H        7.8020    -2.4350     1.1040 H     1 <1>   0.1500 
 52 H       10.8310    -0.3560     1.4530 H     1 <1>   0.0800 
 53 H       10.0050    -1.6300     2.2740 H     1 <1>   0.0800 
 54 H        6.8040     4.4540     1.1480 H     1 <1>   0.0800 
 55 H        8.4310     3.8050     1.0310 H     1 <1>   0.0800 
 56 H        7.3040     3.1490     2.2220 H     1 <1>   0.0800 
 57 H       10.6490    -1.6240    -0.7070 H     1 <1>   0.1500 
 58 H       10.4800     0.7360    -0.8480 H     1 <1>   0.0800 
 59 H       11.0900    -4.0690    -0.3370 H     1 <1>   0.1500 
 60 H       10.6690    -3.9050     1.3870 H     1 <1>   0.1500 
 61 H       11.6870     3.2310     0.3900 H     1 <1>   0.0800 
 62 H       12.4140     2.2950    -0.8940 H     1 <1>   0.0800 
 63 H       12.2130     1.5840     0.6850 H     1 <1>   0.0800 
 64 H        9.6120     3.6430    -1.0600 H     1 <1>   0.0800 
 65 H        8.7810     2.2710    -1.7690 H     1 <1>   0.0800 
 66 H       10.3560     2.7290    -2.3460 H     1 <1>   0.0800 
@<TRIPOS>BOND
  1   1   2  2   
  2   2   3  am  
  3   2   4  1   
  4   3   5  1   
  5   3   6  1   
  6   4   7  1   
  7   4  30  1   
  8   4  31  1   
  9   5   8  1   
 10   5  32  1   
 11   5  33  1   
 12   6  34  1   
 13   6  35  1   
 14   6  36  1   
 15   7   8  1   
 16   7   9  1   
 17   7  37  1   
 18   8  10  1   
 19   8  38  1   
 20   9  11  1   
 21   9  39  1   
 22   9  40  1   
 23  10  11  1   
 24  10  41  1   
 25  10  42  1   
 26  11  12  1   
 27  11  43  1   
 28  12  13  1   
 29  12  14  1   
 30  12  44  1   
 31  13  15  1   
 32  13  45  1   
 33  13  46  1   
 34  14  47  1   
 35  14  48  1   
 36  14  49  1   
 37  15  16  ar  
 38  15  17  ar  
 39  16  18  ar  
 40  16  50  1   
 41  17  19  ar  
 42  17  51  1   
 43  18  20  1   
 44  18  21  ar  
 45  19  21  ar  
 46  19  22  1   
 47  20  23  1   
 48  21  24  1   
 49  22  25  1   
 50  22  52  1   
 51  22  53  1   
 52  23  54  1   
 53  23  55  1   
 54  23  56  1   
 55  24  26  1   
 56  25  27  2   
 57  25  57  1   
 58  26  28  1   
 59  26  29  1   
 60  26  58  1   
 61  27  59  1   
 62  27  60  1   
 63  28  61  1   
 64  28  62  1   
 65  28  63  1   
 66  29  64  1   
 67  29  65  1   
 68  29  66  1   
@<TRIPOS>SUBSTRUCTURE
  1 ****  13 GROUP 4 **** **** 0

# MOE 2024.06 (io_trps.svl 2023.06)
